# generated using pymatgen
data_ErSc5Fe4(Co7P6)2
_symmetry_space_group_name_H-M   'P 1'
_cell_length_a   3.61455600
_cell_length_b   10.43292600
_cell_length_c   11.90104000
_cell_angle_alpha   90.00000000
_cell_angle_beta   90.00000000
_cell_angle_gamma   90.00000000
_symmetry_Int_Tables_number   1
_chemical_formula_structural   ErSc5Fe4(Co7P6)2
_chemical_formula_sum   'Er1 Sc5 Fe4 Co14 P12'
_cell_volume   448.79292253
_cell_formula_units_Z   1
loop_
 _symmetry_equiv_pos_site_id
 _symmetry_equiv_pos_as_xyz
  1  'x, y, z'
loop_
 _atom_site_type_symbol
 _atom_site_label
 _atom_site_symmetry_multiplicity
 _atom_site_fract_x
 _atom_site_fract_y
 _atom_site_fract_z
 _atom_site_occupancy
  Er  Er0  1  0.250000  0.750000  0.524773  1
  Sc  Sc1  1  0.750000  0.250000  0.476305  1
  Sc  Sc2  1  0.250000  0.930351  0.796822  1
  Sc  Sc3  1  0.250000  0.569649  0.796822  1
  Sc  Sc4  1  0.750000  0.070397  0.203887  1
  Sc  Sc5  1  0.750000  0.429603  0.203887  1
  Fe  Fe6  1  0.250000  0.250000  0.842238  1
  Fe  Fe7  1  0.750000  0.750000  0.156276  1
  Fe  Fe8  1  0.750000  0.250000  0.012960  1
  Fe  Fe9  1  0.250000  0.750000  0.987471  1
  Co  Co10  1  0.250000  0.250000  0.299872  1
  Co  Co11  1  0.750000  0.750000  0.702562  1
  Co  Co12  1  0.250000  0.417814  0.006859  1
  Co  Co13  1  0.250000  0.082186  0.006859  1
  Co  Co14  1  0.750000  0.581663  0.993110  1
  Co  Co15  1  0.750000  0.918337  0.993110  1
  Co  Co16  1  0.250000  0.450968  0.569331  1
  Co  Co17  1  0.250000  0.049032  0.569331  1
  Co  Co18  1  0.750000  0.545377  0.430113  1
  Co  Co19  1  0.750000  0.954623  0.430113  1
  Co  Co20  1  0.250000  0.873534  0.290169  1
  Co  Co21  1  0.250000  0.626466  0.290169  1
  Co  Co22  1  0.750000  0.127636  0.709013  1
  Co  Co23  1  0.750000  0.372364  0.709013  1
  P  P24  1  0.250000  0.250000  0.119515  1
  P  P25  1  0.750000  0.750000  0.881705  1
  P  P26  1  0.250000  0.250000  0.652578  1
  P  P27  1  0.750000  0.750000  0.343732  1
  P  P28  1  0.250000  0.435623  0.381308  1
  P  P29  1  0.250000  0.064377  0.381308  1
  P  P30  1  0.750000  0.561711  0.619778  1
  P  P31  1  0.750000  0.938289  0.619778  1
  P  P32  1  0.250000  0.904859  0.108138  1
  P  P33  1  0.250000  0.595141  0.108138  1
  P  P34  1  0.750000  0.095852  0.891477  1
  P  P35  1  0.750000  0.404148  0.891477  1
