# generated using pymatgen
data_Hf10Al12Rh7
_symmetry_space_group_name_H-M   'P 1'
_cell_length_a   8.90287036
_cell_length_b   8.90287193
_cell_length_c   8.90287200
_cell_angle_alpha   60.00000719
_cell_angle_beta   60.00000133
_cell_angle_gamma   60.00000245
_symmetry_Int_Tables_number   1
_chemical_formula_structural   Hf10Al12Rh7
_chemical_formula_sum   'Hf10 Al12 Rh7'
_cell_volume   498.97104337
_cell_formula_units_Z   1
loop_
 _symmetry_equiv_pos_site_id
 _symmetry_equiv_pos_as_xyz
  1  'x, y, z'
loop_
 _atom_site_type_symbol
 _atom_site_label
 _atom_site_symmetry_multiplicity
 _atom_site_fract_x
 _atom_site_fract_y
 _atom_site_fract_z
 _atom_site_occupancy
  Hf  Hf0  1  0.880014  0.880014  0.359959  1
  Hf  Hf1  1  0.880014  0.359959  0.880014  1
  Hf  Hf2  1  0.359959  0.880014  0.880014  1
  Hf  Hf3  1  0.880014  0.880014  0.880014  1
  Hf  Hf4  1  0.684493  0.684493  0.315507  1
  Hf  Hf5  1  0.315507  0.684493  0.315507  1
  Hf  Hf6  1  0.684493  0.315507  0.315507  1
  Hf  Hf7  1  0.315507  0.315507  0.684493  1
  Hf  Hf8  1  0.684493  0.315507  0.684493  1
  Hf  Hf9  1  0.315507  0.684493  0.684493  1
  Al  Al10  1  0.121865  0.121865  0.634405  1
  Al  Al11  1  0.121865  0.634405  0.121865  1
  Al  Al12  1  0.634405  0.121865  0.121865  1
  Al  Al13  1  0.121865  0.121865  0.121865  1
  Al  Al14  1  0.659963  0.659963  0.020109  1
  Al  Al15  1  0.659963  0.020109  0.659963  1
  Al  Al16  1  0.020109  0.659963  0.659963  1
  Al  Al17  1  0.659963  0.659963  0.659963  1
  Al  Al18  1  0.336800  0.336800  0.989601  1
  Al  Al19  1  0.336800  0.989601  0.336800  1
  Al  Al20  1  0.989601  0.336800  0.336800  1
  Al  Al21  1  0.336800  0.336800  0.336800  1
  Rh  Rh22  1  0.000000  0.000000  0.000000  1
  Rh  Rh23  1  0.998878  0.998878  0.501122  1
  Rh  Rh24  1  0.501122  0.998878  0.501122  1
  Rh  Rh25  1  0.998878  0.501122  0.501122  1
  Rh  Rh26  1  0.501122  0.501122  0.998878  1
  Rh  Rh27  1  0.998878  0.501122  0.998878  1
  Rh  Rh28  1  0.501122  0.998878  0.998878  1
