# generated using pymatgen
data_AlSb11
_symmetry_space_group_name_H-M   'P 1'
_cell_length_a   4.27495300
_cell_length_b   4.27495284
_cell_length_c   21.02690800
_cell_angle_alpha   90.00000000
_cell_angle_beta   90.00000000
_cell_angle_gamma   119.99999351
_symmetry_Int_Tables_number   1
_chemical_formula_structural   AlSb11
_chemical_formula_sum   'Al1 Sb11'
_cell_volume   332.78883461
_cell_formula_units_Z   1
loop_
 _symmetry_equiv_pos_site_id
 _symmetry_equiv_pos_as_xyz
  1  'x, y, z'
loop_
 _atom_site_type_symbol
 _atom_site_label
 _atom_site_symmetry_multiplicity
 _atom_site_fract_x
 _atom_site_fract_y
 _atom_site_fract_z
 _atom_site_occupancy
  Al  Al0  1  0.000000  0.000000  0.000000  1
  Sb  Sb1  1  0.666667  0.333333  0.158479  1
  Sb  Sb2  1  0.333333  0.666667  0.841521  1
  Sb  Sb3  1  0.666667  0.333333  0.414172  1
  Sb  Sb4  1  0.333333  0.666667  0.585828  1
  Sb  Sb5  1  0.000000  0.000000  0.500000  1
  Sb  Sb6  1  0.666667  0.333333  0.931187  1
  Sb  Sb7  1  0.333333  0.666667  0.068813  1
  Sb  Sb8  1  0.000000  0.000000  0.757411  1
  Sb  Sb9  1  0.000000  0.000000  0.242589  1
  Sb  Sb10  1  0.666667  0.333333  0.670957  1
  Sb  Sb11  1  0.333333  0.666667  0.329043  1
