# generated using pymatgen
data_YMg4(SbPt)5
_symmetry_space_group_name_H-M   'P 1'
_cell_length_a   18.91394018
_cell_length_b   18.91394000
_cell_length_c   18.91393949
_cell_angle_alpha   13.68760336
_cell_angle_beta   13.68760643
_cell_angle_gamma   13.68760584
_symmetry_Int_Tables_number   1
_chemical_formula_structural   YMg4(SbPt)5
_chemical_formula_sum   'Y1 Mg4 Sb5 Pt5'
_cell_volume   329.66224071
_cell_formula_units_Z   1
loop_
 _symmetry_equiv_pos_site_id
 _symmetry_equiv_pos_as_xyz
  1  'x, y, z'
loop_
 _atom_site_type_symbol
 _atom_site_label
 _atom_site_symmetry_multiplicity
 _atom_site_fract_x
 _atom_site_fract_y
 _atom_site_fract_z
 _atom_site_occupancy
  Y  Y0  1  0.299404  0.299404  0.299404  1
  Mg  Mg1  1  0.700637  0.700637  0.700637  1
  Mg  Mg2  1  0.100222  0.100222  0.100222  1
  Mg  Mg3  1  0.499417  0.499417  0.499417  1
  Mg  Mg4  1  0.898416  0.898416  0.898416  1
  Sb  Sb5  1  0.598025  0.598025  0.598025  1
  Sb  Sb6  1  0.800728  0.800728  0.800728  1
  Sb  Sb7  1  0.199623  0.199623  0.199623  1
  Sb  Sb8  1  0.002311  0.002311  0.002311  1
  Sb  Sb9  1  0.401772  0.401772  0.401772  1
  Pt  Pt10  1  0.050919  0.050919  0.050919  1
  Pt  Pt11  1  0.449942  0.449942  0.449942  1
  Pt  Pt12  1  0.848970  0.848970  0.848970  1
  Pt  Pt13  1  0.247909  0.247909  0.247909  1
  Pt  Pt14  1  0.651705  0.651705  0.651705  1
