# generated using pymatgen
data_HoTh7(CoSi3)4
_symmetry_space_group_name_H-M   'P 1'
_cell_length_a   8.05747900
_cell_length_b   8.05748005
_cell_length_c   8.38149400
_cell_angle_alpha   90.00000000
_cell_angle_beta   90.00000000
_cell_angle_gamma   119.99999160
_symmetry_Int_Tables_number   1
_chemical_formula_structural   HoTh7(CoSi3)4
_chemical_formula_sum   'Ho1 Th7 Co4 Si12'
_cell_volume   471.24909352
_cell_formula_units_Z   1
loop_
 _symmetry_equiv_pos_site_id
 _symmetry_equiv_pos_as_xyz
  1  'x, y, z'
loop_
 _atom_site_type_symbol
 _atom_site_label
 _atom_site_symmetry_multiplicity
 _atom_site_fract_x
 _atom_site_fract_y
 _atom_site_fract_z
 _atom_site_occupancy
  Ho  Ho0  1  0.000000  0.000000  0.750000  1
  Th  Th1  1  0.499710  0.999417  0.250000  1
  Th  Th2  1  0.499611  0.999223  0.750000  1
  Th  Th3  1  0.000583  0.500290  0.250000  1
  Th  Th4  1  0.000777  0.500389  0.750000  1
  Th  Th5  1  0.499710  0.500290  0.250000  1
  Th  Th6  1  0.499611  0.500389  0.750000  1
  Th  Th7  1  0.000000  0.000000  0.250000  1
  Co  Co8  1  0.333333  0.666667  0.000233  1
  Co  Co9  1  0.666667  0.333333  0.000194  1
  Co  Co10  1  0.666667  0.333333  0.499806  1
  Co  Co11  1  0.333333  0.666667  0.499767  1
  Si  Si12  1  0.170370  0.340738  0.997801  1
  Si  Si13  1  0.829474  0.658950  0.997391  1
  Si  Si14  1  0.659262  0.829630  0.997801  1
  Si  Si15  1  0.829474  0.658950  0.502609  1
  Si  Si16  1  0.341050  0.170526  0.997391  1
  Si  Si17  1  0.170370  0.340738  0.502199  1
  Si  Si18  1  0.170370  0.829630  0.997801  1
  Si  Si19  1  0.341050  0.170526  0.502609  1
  Si  Si20  1  0.829474  0.170526  0.997391  1
  Si  Si21  1  0.659262  0.829630  0.502199  1
  Si  Si22  1  0.829474  0.170526  0.502609  1
  Si  Si23  1  0.170370  0.829630  0.502199  1
