# generated using pymatgen
data_Be8Cu4RuRh3
_symmetry_space_group_name_H-M   'P 1'
_cell_length_a   5.35242700
_cell_length_b   5.35092700
_cell_length_c   5.73714900
_cell_angle_alpha   90.00000000
_cell_angle_beta   89.99945347
_cell_angle_gamma   90.00000000
_symmetry_Int_Tables_number   1
_chemical_formula_structural   Be8Cu4RuRh3
_chemical_formula_sum   'Be8 Cu4 Ru1 Rh3'
_cell_volume   164.31450698
_cell_formula_units_Z   1
loop_
 _symmetry_equiv_pos_site_id
 _symmetry_equiv_pos_as_xyz
  1  'x, y, z'
loop_
 _atom_site_type_symbol
 _atom_site_label
 _atom_site_symmetry_multiplicity
 _atom_site_fract_x
 _atom_site_fract_y
 _atom_site_fract_z
 _atom_site_occupancy
  Be  Be0  1  0.002179  0.002333  0.246423  1
  Be  Be1  1  0.002179  0.497667  0.246423  1
  Be  Be2  1  0.497722  0.497826  0.250003  1
  Be  Be3  1  0.497722  0.002176  0.250003  1
  Be  Be4  1  0.497842  0.002299  0.750000  1
  Be  Be5  1  0.497842  0.497699  0.750000  1
  Be  Be6  1  0.002319  0.497781  0.753576  1
  Be  Be7  1  0.002319  0.002220  0.753576  1
  Cu  Cu8  1  0.749794  0.250000  0.999995  1
  Cu  Cu9  1  0.250252  0.750000  0.000007  1
  Cu  Cu10  1  0.750344  0.250000  0.499992  1
  Cu  Cu11  1  0.249622  0.750000  0.500004  1
  Ru  Ru12  1  0.251672  0.250000  0.999993  1
  Rh  Rh13  1  0.748363  0.750000  0.000006  1
  Rh  Rh14  1  0.248547  0.250000  0.500006  1
  Rh  Rh15  1  0.751286  0.750000  0.499994  1
