# generated using pymatgen
data_Hf18CoReMo7Pt
_symmetry_space_group_name_H-M   'P 1'
_cell_length_a   8.71779804
_cell_length_b   8.71496575
_cell_length_c   8.51883800
_cell_angle_alpha   90.00000000
_cell_angle_beta   90.00000000
_cell_angle_gamma   119.98925850
_symmetry_Int_Tables_number   1
_chemical_formula_structural   Hf18CoReMo7Pt
_chemical_formula_sum   'Hf18 Co1 Re1 Mo7 Pt1'
_cell_volume   560.57080690
_cell_formula_units_Z   1
loop_
 _symmetry_equiv_pos_site_id
 _symmetry_equiv_pos_as_xyz
  1  'x, y, z'
loop_
 _atom_site_type_symbol
 _atom_site_label
 _atom_site_symmetry_multiplicity
 _atom_site_fract_x
 _atom_site_fract_y
 _atom_site_fract_z
 _atom_site_occupancy
  Hf  Hf0  1  0.195879  0.804186  0.448129  1
  Hf  Hf1  1  0.195879  0.391693  0.448129  1
  Hf  Hf2  1  0.609241  0.804620  0.448847  1
  Hf  Hf3  1  0.798220  0.201460  0.559929  1
  Hf  Hf4  1  0.798220  0.596759  0.559929  1
  Hf  Hf5  1  0.404507  0.202253  0.558469  1
  Hf  Hf6  1  0.798220  0.201460  0.940071  1
  Hf  Hf7  1  0.798220  0.596759  0.940071  1
  Hf  Hf8  1  0.404507  0.202253  0.941531  1
  Hf  Hf9  1  0.195879  0.804186  0.051871  1
  Hf  Hf10  1  0.195879  0.391693  0.051871  1
  Hf  Hf11  1  0.609241  0.804620  0.051153  1
  Hf  Hf12  1  0.543560  0.457192  0.250000  1
  Hf  Hf13  1  0.543560  0.086369  0.250000  1
  Hf  Hf14  1  0.913521  0.456760  0.250000  1
  Hf  Hf15  1  0.459388  0.543315  0.750000  1
  Hf  Hf16  1  0.459388  0.916075  0.750000  1
  Hf  Hf17  1  0.084031  0.542016  0.750000  1
  Co  Co18  1  0.666360  0.333179  0.750000  1
  Re  Re19  1  0.774796  0.887398  0.750000  1
  Mo  Mo20  1  0.887533  0.111616  0.250000  1
  Mo  Mo21  1  0.887533  0.775917  0.250000  1
  Mo  Mo22  1  0.224928  0.112465  0.250000  1
  Mo  Mo23  1  0.109180  0.888061  0.750000  1
  Mo  Mo24  1  0.109180  0.221117  0.750000  1
  Mo  Mo25  1  0.999549  0.999775  0.501095  1
  Mo  Mo26  1  0.999549  0.999775  0.998905  1
  Pt  Pt27  1  0.334055  0.667028  0.250000  1
