# generated using pymatgen
data_Na2(TiTe2)5
_symmetry_space_group_name_H-M   'P 1'
_cell_length_a   6.60684899
_cell_length_b   11.20886383
_cell_length_c   9.02768640
_cell_angle_alpha   58.92026893
_cell_angle_beta   68.41420952
_cell_angle_gamma   89.85053506
_symmetry_Int_Tables_number   1
_chemical_formula_structural   Na2(TiTe2)5
_chemical_formula_sum   'Na2 Ti5 Te10'
_cell_volume   517.48545619
_cell_formula_units_Z   1
loop_
 _symmetry_equiv_pos_site_id
 _symmetry_equiv_pos_as_xyz
  1  'x, y, z'
loop_
 _atom_site_type_symbol
 _atom_site_label
 _atom_site_symmetry_multiplicity
 _atom_site_fract_x
 _atom_site_fract_y
 _atom_site_fract_z
 _atom_site_occupancy
  Na  Na0  1  0.792807  0.086836  0.413697  1
  Na  Na1  1  0.007193  0.513164  0.986303  1
  Ti  Ti2  1  0.400000  0.800000  0.200000  1
  Ti  Ti3  1  0.802899  0.600685  0.397863  1
  Ti  Ti4  1  0.196353  0.401661  0.598434  1
  Ti  Ti5  1  0.603647  0.198339  0.801566  1
  Ti  Ti6  1  0.997101  0.999315  0.002137  1
  Te  Te7  1  0.982128  0.839071  0.369771  1
  Te  Te8  1  0.578052  0.041470  0.168867  1
  Te  Te9  1  0.183692  0.242255  0.966394  1
  Te  Te10  1  0.777722  0.441769  0.767049  1
  Te  Te11  1  0.385916  0.643377  0.563866  1
  Te  Te12  1  0.414084  0.956623  0.836134  1
  Te  Te13  1  0.022278  0.158231  0.632951  1
  Te  Te14  1  0.616308  0.357745  0.433606  1
  Te  Te15  1  0.221948  0.558530  0.231133  1
  Te  Te16  1  0.817872  0.760929  0.030229  1
