# generated using pymatgen
data_TbHo15(ZnCo)4
_symmetry_space_group_name_H-M   'P 1'
_cell_length_a   9.30311649
_cell_length_b   9.30311716
_cell_length_c   9.30311800
_cell_angle_alpha   60.00792608
_cell_angle_beta   60.00793079
_cell_angle_gamma   60.00793378
_symmetry_Int_Tables_number   1
_chemical_formula_structural   TbHo15(ZnCo)4
_chemical_formula_sum   'Tb1 Ho15 Zn4 Co4'
_cell_volume   569.44076704
_cell_formula_units_Z   1
loop_
 _symmetry_equiv_pos_site_id
 _symmetry_equiv_pos_as_xyz
  1  'x, y, z'
loop_
 _atom_site_type_symbol
 _atom_site_label
 _atom_site_symmetry_multiplicity
 _atom_site_fract_x
 _atom_site_fract_y
 _atom_site_fract_z
 _atom_site_occupancy
  Tb  Tb0  1  0.350128  0.350128  0.350128  1
  Ho  Ho1  1  0.350093  0.350093  0.949693  1
  Ho  Ho2  1  0.350093  0.949693  0.350093  1
  Ho  Ho3  1  0.949693  0.350093  0.350093  1
  Ho  Ho4  1  0.809496  0.190465  0.190465  1
  Ho  Ho5  1  0.190464  0.809532  0.809532  1
  Ho  Ho6  1  0.190465  0.809496  0.190465  1
  Ho  Ho7  1  0.809532  0.190464  0.809532  1
  Ho  Ho8  1  0.190465  0.190465  0.809496  1
  Ho  Ho9  1  0.809532  0.809532  0.190464  1
  Ho  Ho10  1  0.937706  0.562300  0.562300  1
  Ho  Ho11  1  0.562324  0.937679  0.937679  1
  Ho  Ho12  1  0.562300  0.937706  0.562300  1
  Ho  Ho13  1  0.937679  0.562324  0.937679  1
  Ho  Ho14  1  0.562300  0.562300  0.937706  1
  Ho  Ho15  1  0.937679  0.937679  0.562324  1
  Zn  Zn16  1  0.577585  0.577585  0.577585  1
  Zn  Zn17  1  0.577673  0.577673  0.267153  1
  Zn  Zn18  1  0.577673  0.267153  0.577673  1
  Zn  Zn19  1  0.267153  0.577673  0.577673  1
  Co  Co20  1  0.141783  0.141783  0.141783  1
  Co  Co21  1  0.141725  0.141725  0.574735  1
  Co  Co22  1  0.141725  0.574735  0.141725  1
  Co  Co23  1  0.574735  0.141725  0.141725  1
