# generated using pymatgen
data_Tb3Y13(AlPd)4
_symmetry_space_group_name_H-M   'P 1'
_cell_length_a   9.65668958
_cell_length_b   9.66848634
_cell_length_c   9.66848500
_cell_angle_alpha   60.00000116
_cell_angle_beta   59.95958223
_cell_angle_gamma   59.95958231
_symmetry_Int_Tables_number   1
_chemical_formula_structural   Tb3Y13(AlPd)4
_chemical_formula_sum   'Tb3 Y13 Al4 Pd4'
_cell_volume   637.91763173
_cell_formula_units_Z   1
loop_
 _symmetry_equiv_pos_site_id
 _symmetry_equiv_pos_as_xyz
  1  'x, y, z'
loop_
 _atom_site_type_symbol
 _atom_site_label
 _atom_site_symmetry_multiplicity
 _atom_site_fract_x
 _atom_site_fract_y
 _atom_site_fract_z
 _atom_site_occupancy
  Tb  Tb0  1  0.354638  0.355023  0.355023  1
  Tb  Tb1  1  0.354638  0.355023  0.935315  1
  Tb  Tb2  1  0.354638  0.935315  0.355023  1
  Y  Y3  1  0.932284  0.355905  0.355905  1
  Y  Y4  1  0.807013  0.192930  0.192930  1
  Y  Y5  1  0.193308  0.806928  0.806928  1
  Y  Y6  1  0.193308  0.806928  0.192835  1
  Y  Y7  1  0.807013  0.192930  0.807126  1
  Y  Y8  1  0.193308  0.192835  0.806928  1
  Y  Y9  1  0.807013  0.807126  0.192930  1
  Y  Y10  1  0.935903  0.564152  0.564152  1
  Y  Y11  1  0.563757  0.936021  0.936021  1
  Y  Y12  1  0.563757  0.936021  0.564201  1
  Y  Y13  1  0.935903  0.564152  0.935794  1
  Y  Y14  1  0.563757  0.564201  0.936021  1
  Y  Y15  1  0.935903  0.935794  0.564152  1
  Al  Al16  1  0.578352  0.577574  0.577574  1
  Al  Al17  1  0.578352  0.577574  0.266502  1
  Al  Al18  1  0.578352  0.266502  0.577574  1
  Al  Al19  1  0.266562  0.577813  0.577813  1
  Pd  Pd20  1  0.145935  0.144593  0.144593  1
  Pd  Pd21  1  0.145935  0.144593  0.564878  1
  Pd  Pd22  1  0.145935  0.564878  0.144593  1
  Pd  Pd23  1  0.564436  0.145188  0.145188  1
