# generated using pymatgen
data_Tm3In3PtAu2
_symmetry_space_group_name_H-M   'P 1'
_cell_length_a   7.71019400
_cell_length_b   7.71019461
_cell_length_c   3.88786500
_cell_angle_alpha   90.00000000
_cell_angle_beta   90.00000000
_cell_angle_gamma   120.00000596
_symmetry_Int_Tables_number   1
_chemical_formula_structural   Tm3In3PtAu2
_chemical_formula_sum   'Tm3 In3 Pt1 Au2'
_cell_volume   200.15775797
_cell_formula_units_Z   1
loop_
 _symmetry_equiv_pos_site_id
 _symmetry_equiv_pos_as_xyz
  1  'x, y, z'
loop_
 _atom_site_type_symbol
 _atom_site_label
 _atom_site_symmetry_multiplicity
 _atom_site_fract_x
 _atom_site_fract_y
 _atom_site_fract_z
 _atom_site_occupancy
  Tm  Tm0  1  0.411409  0.400915  0.500000  1
  Tm  Tm1  1  0.599085  0.010495  0.500000  1
  Tm  Tm2  1  0.989505  0.588591  0.500000  1
  In  In3  1  0.736781  0.734539  0.000000  1
  In  In4  1  0.265461  0.002241  0.000000  1
  In  In5  1  0.997759  0.263219  0.000000  1
  Pt  Pt6  1  0.666667  0.333333  0.000000  1
  Au  Au7  1  0.333333  0.666667  0.000000  1
  Au  Au8  1  0.000000  0.000000  0.500000  1
