# generated using pymatgen
data_TbCuPt3Au
_symmetry_space_group_name_H-M   'P 1'
_cell_length_a   5.19000302
_cell_length_b   5.19000334
_cell_length_c   5.19000266
_cell_angle_alpha   62.63275836
_cell_angle_beta   62.63275652
_cell_angle_gamma   62.63275411
_symmetry_Int_Tables_number   1
_chemical_formula_structural   TbCuPt3Au
_chemical_formula_sum   'Tb1 Cu1 Pt3 Au1'
_cell_volume   104.64658982
_cell_formula_units_Z   1
loop_
 _symmetry_equiv_pos_site_id
 _symmetry_equiv_pos_as_xyz
  1  'x, y, z'
loop_
 _atom_site_type_symbol
 _atom_site_label
 _atom_site_symmetry_multiplicity
 _atom_site_fract_x
 _atom_site_fract_y
 _atom_site_fract_z
 _atom_site_occupancy
  Tb  Tb0  1  0.001531  0.001531  0.001531  1
  Cu  Cu1  1  0.624167  0.624167  0.624167  1
  Pt  Pt2  1  0.623769  0.623769  0.125513  1
  Pt  Pt3  1  0.623769  0.125513  0.623769  1
  Pt  Pt4  1  0.125513  0.623769  0.623769  1
  Au  Au5  1  0.251252  0.251252  0.251252  1
