# generated using pymatgen
data_Pr5Hf3(Co4P3)4
_symmetry_space_group_name_H-M   'P 1'
_cell_length_a   12.47485400
_cell_length_b   12.47485272
_cell_length_c   3.78509900
_cell_angle_alpha   90.00000000
_cell_angle_beta   90.00000000
_cell_angle_gamma   120.00000338
_symmetry_Int_Tables_number   1
_chemical_formula_structural   Pr5Hf3(Co4P3)4
_chemical_formula_sum   'Pr5 Hf3 Co16 P12'
_cell_volume   510.12752640
_cell_formula_units_Z   1
loop_
 _symmetry_equiv_pos_site_id
 _symmetry_equiv_pos_as_xyz
  1  'x, y, z'
loop_
 _atom_site_type_symbol
 _atom_site_label
 _atom_site_symmetry_multiplicity
 _atom_site_fract_x
 _atom_site_fract_y
 _atom_site_fract_z
 _atom_site_occupancy
  Pr  Pr0  1  0.666667  0.333333  0.000000  1
  Pr  Pr1  1  0.333333  0.666667  0.000000  1
  Pr  Pr2  1  0.816593  0.816593  0.500000  1
  Pr  Pr3  1  0.183407  0.000000  0.500000  1
  Pr  Pr4  1  0.000000  0.183407  0.500000  1
  Hf  Hf5  1  0.438690  0.438690  0.000000  1
  Hf  Hf6  1  0.561310  0.000000  0.000000  1
  Hf  Hf7  1  0.000000  0.561310  0.000000  1
  Co  Co8  1  0.877717  0.356242  0.500000  1
  Co  Co9  1  0.643758  0.521474  0.500000  1
  Co  Co10  1  0.478526  0.122283  0.500000  1
  Co  Co11  1  0.356242  0.877717  0.500000  1
  Co  Co12  1  0.521474  0.643758  0.500000  1
  Co  Co13  1  0.122283  0.478526  0.500000  1
  Co  Co14  1  0.802649  0.177766  0.000000  1
  Co  Co15  1  0.822234  0.624881  0.000000  1
  Co  Co16  1  0.375119  0.197351  0.000000  1
  Co  Co17  1  0.177766  0.802649  0.000000  1
  Co  Co18  1  0.624881  0.822234  0.000000  1
  Co  Co19  1  0.197351  0.375119  0.000000  1
  Co  Co20  1  0.280573  0.280573  0.500000  1
  Co  Co21  1  0.719427  0.000000  0.500000  1
  Co  Co22  1  0.000000  0.719427  0.500000  1
  Co  Co23  1  0.000000  0.000000  0.000000  1
  P  P24  1  0.694623  0.169068  0.500000  1
  P  P25  1  0.830932  0.525555  0.500000  1
  P  P26  1  0.474445  0.305377  0.500000  1
  P  P27  1  0.169068  0.694623  0.500000  1
  P  P28  1  0.525555  0.830932  0.500000  1
  P  P29  1  0.305377  0.474445  0.500000  1
  P  P30  1  0.181920  0.181920  0.000000  1
  P  P31  1  0.818080  0.000000  0.000000  1
  P  P32  1  0.000000  0.818080  0.000000  1
  P  P33  1  0.642872  0.642872  0.000000  1
  P  P34  1  0.357128  0.000000  0.000000  1
  P  P35  1  0.000000  0.357128  0.000000  1
