# generated using pymatgen
data_DyErCo2(P3Rh4)2
_symmetry_space_group_name_H-M   'P 1'
_cell_length_a   3.84492700
_cell_length_b   10.76761800
_cell_length_c   12.40456000
_cell_angle_alpha   90.00000000
_cell_angle_beta   90.00000000
_cell_angle_gamma   90.00000000
_symmetry_Int_Tables_number   1
_chemical_formula_structural   DyErCo2(P3Rh4)2
_chemical_formula_sum   'Dy2 Er2 Co4 P12 Rh16'
_cell_volume   513.55753137
_cell_formula_units_Z   2
loop_
 _symmetry_equiv_pos_site_id
 _symmetry_equiv_pos_as_xyz
  1  'x, y, z'
loop_
 _atom_site_type_symbol
 _atom_site_label
 _atom_site_symmetry_multiplicity
 _atom_site_fract_x
 _atom_site_fract_y
 _atom_site_fract_z
 _atom_site_occupancy
  Dy  Dy0  1  0.750000  0.414832  0.292409  1
  Dy  Dy1  1  0.750000  0.085168  0.792409  1
  Er  Er2  1  0.250000  0.585076  0.707584  1
  Er  Er3  1  0.250000  0.914924  0.207584  1
  Co  Co4  1  0.250000  0.464436  0.933662  1
  Co  Co5  1  0.250000  0.035564  0.433662  1
  Co  Co6  1  0.750000  0.535747  0.066122  1
  Co  Co7  1  0.750000  0.964253  0.566122  1
  P  P8  1  0.250000  0.423921  0.106016  1
  P  P9  1  0.250000  0.076079  0.606016  1
  P  P10  1  0.750000  0.576147  0.893677  1
  P  P11  1  0.750000  0.923853  0.393677  1
  P  P12  1  0.250000  0.272144  0.872702  1
  P  P13  1  0.250000  0.227856  0.372702  1
  P  P14  1  0.750000  0.728251  0.127491  1
  P  P15  1  0.750000  0.771749  0.627491  1
  P  P16  1  0.250000  0.599473  0.388123  1
  P  P17  1  0.250000  0.900527  0.888123  1
  P  P18  1  0.750000  0.400850  0.611999  1
  P  P19  1  0.750000  0.099150  0.111999  1
  Rh  Rh20  1  0.250000  0.716241  0.987700  1
  Rh  Rh21  1  0.250000  0.783759  0.487700  1
  Rh  Rh22  1  0.750000  0.283781  0.012322  1
  Rh  Rh23  1  0.750000  0.216219  0.512322  1
  Rh  Rh24  1  0.250000  0.408319  0.480250  1
  Rh  Rh25  1  0.250000  0.091681  0.980250  1
  Rh  Rh26  1  0.750000  0.591704  0.520470  1
  Rh  Rh27  1  0.750000  0.908296  0.020470  1
  Rh  Rh28  1  0.250000  0.227414  0.178173  1
  Rh  Rh29  1  0.250000  0.272586  0.678173  1
  Rh  Rh30  1  0.750000  0.772057  0.821577  1
  Rh  Rh31  1  0.750000  0.727943  0.321577  1
  Rh  Rh32  1  0.250000  0.886663  0.698821  1
  Rh  Rh33  1  0.250000  0.613337  0.198821  1
  Rh  Rh34  1  0.750000  0.112660  0.300902  1
  Rh  Rh35  1  0.750000  0.387340  0.800902  1
