# generated using pymatgen
data_Y12Ho4TlCd2InPd4
_symmetry_space_group_name_H-M   'P 1'
_cell_length_a   9.70287774
_cell_length_b   9.70287744
_cell_length_c   9.70287800
_cell_angle_alpha   60.14134140
_cell_angle_beta   60.14134241
_cell_angle_gamma   60.14134290
_symmetry_Int_Tables_number   1
_chemical_formula_structural   Y12Ho4TlCd2InPd4
_chemical_formula_sum   'Y12 Ho4 Tl1 Cd2 In1 Pd4'
_cell_volume   647.99990689
_cell_formula_units_Z   1
loop_
 _symmetry_equiv_pos_site_id
 _symmetry_equiv_pos_as_xyz
  1  'x, y, z'
loop_
 _atom_site_type_symbol
 _atom_site_label
 _atom_site_symmetry_multiplicity
 _atom_site_fract_x
 _atom_site_fract_y
 _atom_site_fract_z
 _atom_site_occupancy
  Y  Y0  1  0.811143  0.189057  0.189923  1
  Y  Y1  1  0.190685  0.809924  0.809832  1
  Y  Y2  1  0.189057  0.811143  0.189923  1
  Y  Y3  1  0.809924  0.190685  0.809832  1
  Y  Y4  1  0.189015  0.189015  0.811825  1
  Y  Y5  1  0.809578  0.809578  0.191371  1
  Y  Y6  1  0.936943  0.565815  0.565234  1
  Y  Y7  1  0.563734  0.938707  0.935093  1
  Y  Y8  1  0.565815  0.936943  0.565234  1
  Y  Y9  1  0.938707  0.563734  0.935093  1
  Y  Y10  1  0.565253  0.565253  0.935441  1
  Y  Y11  1  0.936699  0.936699  0.563542  1
  Ho  Ho12  1  0.350977  0.350977  0.352544  1
  Ho  Ho13  1  0.354536  0.354536  0.938046  1
  Ho  Ho14  1  0.353863  0.938699  0.355124  1
  Ho  Ho15  1  0.938699  0.353863  0.355124  1
  Tl  Tl16  1  0.582740  0.582740  0.246964  1
  Cd  Cd17  1  0.581087  0.250349  0.583193  1
  Cd  Cd18  1  0.250349  0.581087  0.583193  1
  In  In19  1  0.582806  0.582806  0.584819  1
  Pd  Pd20  1  0.146332  0.146332  0.146156  1
  Pd  Pd21  1  0.143737  0.143737  0.564901  1
  Pd  Pd22  1  0.143984  0.564336  0.143795  1
  Pd  Pd23  1  0.564336  0.143984  0.143795  1
