# generated using pymatgen
data_Tb2AlTc3
_symmetry_space_group_name_H-M   'P 1'
_cell_length_a   5.35577400
_cell_length_b   5.35577320
_cell_length_c   9.05709800
_cell_angle_alpha   90.00000000
_cell_angle_beta   90.00000000
_cell_angle_gamma   119.99999256
_symmetry_Int_Tables_number   1
_chemical_formula_structural   Tb2AlTc3
_chemical_formula_sum   'Tb4 Al2 Tc6'
_cell_volume   224.99048502
_cell_formula_units_Z   2
loop_
 _symmetry_equiv_pos_site_id
 _symmetry_equiv_pos_as_xyz
  1  'x, y, z'
loop_
 _atom_site_type_symbol
 _atom_site_label
 _atom_site_symmetry_multiplicity
 _atom_site_fract_x
 _atom_site_fract_y
 _atom_site_fract_z
 _atom_site_occupancy
  Tb  Tb0  1  0.333333  0.666667  0.430798  1
  Tb  Tb1  1  0.666667  0.333333  0.569202  1
  Tb  Tb2  1  0.666667  0.333333  0.930798  1
  Tb  Tb3  1  0.333333  0.666667  0.069202  1
  Al  Al4  1  0.000000  0.000000  0.500000  1
  Al  Al5  1  0.000000  0.000000  0.000000  1
  Tc  Tc6  1  0.830380  0.169620  0.250000  1
  Tc  Tc7  1  0.830380  0.660761  0.250000  1
  Tc  Tc8  1  0.339239  0.169620  0.250000  1
  Tc  Tc9  1  0.169620  0.830380  0.750000  1
  Tc  Tc10  1  0.169620  0.339239  0.750000  1
  Tc  Tc11  1  0.660761  0.830380  0.750000  1
