# generated using pymatgen
data_Dy3Ho5(ReI4)2
_symmetry_space_group_name_H-M   'P 1'
_cell_length_a   11.13903841
_cell_length_b   11.15100239
_cell_length_c   6.18125100
_cell_angle_alpha   89.49525532
_cell_angle_beta   89.54943882
_cell_angle_gamma   88.47979926
_symmetry_Int_Tables_number   1
_chemical_formula_structural   Dy3Ho5(ReI4)2
_chemical_formula_sum   'Dy3 Ho5 Re2 I8'
_cell_volume   767.45973891
_cell_formula_units_Z   1
loop_
 _symmetry_equiv_pos_site_id
 _symmetry_equiv_pos_as_xyz
  1  'x, y, z'
loop_
 _atom_site_type_symbol
 _atom_site_label
 _atom_site_symmetry_multiplicity
 _atom_site_fract_x
 _atom_site_fract_y
 _atom_site_fract_z
 _atom_site_occupancy
  Dy  Dy0  1  0.202909  0.914503  0.998131  1
  Dy  Dy1  1  0.797297  0.085844  0.001684  1
  Dy  Dy2  1  0.085777  0.797206  0.502163  1
  Ho  Ho3  1  0.914993  0.200778  0.497606  1
  Ho  Ho4  1  0.801095  0.920176  0.504725  1
  Ho  Ho5  1  0.198989  0.079534  0.495137  1
  Ho  Ho6  1  0.079554  0.198858  0.994981  1
  Ho  Ho7  1  0.920082  0.801246  0.004889  1
  Re  Re8  1  0.000097  0.999777  0.249838  1
  Re  Re9  1  0.000104  0.999757  0.750031  1
  I  I10  1  0.363986  0.846028  0.500778  1
  I  I11  1  0.637468  0.155200  0.499413  1
  I  I12  1  0.154045  0.636633  0.999309  1
  I  I13  1  0.845931  0.363653  0.001493  1
  I  I14  1  0.357724  0.148500  0.002288  1
  I  I15  1  0.641987  0.852392  0.997800  1
  I  I16  1  0.851786  0.642657  0.497790  1
  I  I17  1  0.146174  0.357260  0.501946  1
