# generated using pymatgen
data_GdErAs4O9
_symmetry_space_group_name_H-M   'P 1'
_cell_length_a   6.76801130
_cell_length_b   7.53188532
_cell_length_c   9.78082241
_cell_angle_alpha   94.79877122
_cell_angle_beta   103.80076725
_cell_angle_gamma   104.98299482
_symmetry_Int_Tables_number   1
_chemical_formula_structural   GdErAs4O9
_chemical_formula_sum   'Gd2 Er2 As8 O18'
_cell_volume   462.08458590
_cell_formula_units_Z   2
loop_
 _symmetry_equiv_pos_site_id
 _symmetry_equiv_pos_as_xyz
  1  'x, y, z'
loop_
 _atom_site_type_symbol
 _atom_site_label
 _atom_site_symmetry_multiplicity
 _atom_site_fract_x
 _atom_site_fract_y
 _atom_site_fract_z
 _atom_site_occupancy
  Gd  Gd0  1  0.244227  0.939658  0.615099  1
  Gd  Gd1  1  0.755773  0.060342  0.384901  1
  Er  Er2  1  0.720696  0.529758  0.409674  1
  Er  Er3  1  0.279304  0.470242  0.590326  1
  As  As4  1  0.681039  0.771725  0.075757  1
  As  As5  1  0.318961  0.228275  0.924243  1
  As  As6  1  0.171801  0.751969  0.915381  1
  As  As7  1  0.828199  0.248031  0.084619  1
  As  As8  1  0.744068  0.912797  0.711482  1
  As  As9  1  0.255932  0.087203  0.288518  1
  As  As10  1  0.810364  0.354027  0.702666  1
  As  As11  1  0.189636  0.645973  0.297334  1
  O  O12  1  0.722786  0.744906  0.256909  1
  O  O13  1  0.277214  0.255094  0.743091  1
  O  O14  1  0.315762  0.980236  0.873673  1
  O  O15  1  0.684238  0.019764  0.126327  1
  O  O16  1  0.608132  0.326128  0.984960  1
  O  O17  1  0.391868  0.673872  0.015040  1
  O  O18  1  0.127706  0.645316  0.739973  1
  O  O19  1  0.872294  0.354684  0.260027  1
  O  O20  1  0.844226  0.867997  0.560097  1
  O  O21  1  0.155774  0.132003  0.439903  1
  O  O22  1  0.483898  0.765075  0.669292  1
  O  O23  1  0.516102  0.234925  0.330708  1
  O  O24  1  0.374575  0.535402  0.380914  1
  O  O25  1  0.625425  0.464598  0.619086  1
  O  O26  1  0.086860  0.664648  0.452445  1
  O  O27  1  0.913140  0.335352  0.547555  1
  O  O28  1  0.371523  0.899869  0.358043  1
  O  O29  1  0.628477  0.100131  0.641957  1
