# generated using pymatgen
data_NdHo2Ni2Rh7
_symmetry_space_group_name_H-M   'P 1'
_cell_length_a   5.29643364
_cell_length_b   5.29643409
_cell_length_c   8.95866800
_cell_angle_alpha   72.80625310
_cell_angle_beta   72.80624027
_cell_angle_gamma   60.00000142
_symmetry_Int_Tables_number   1
_chemical_formula_structural   NdHo2Ni2Rh7
_chemical_formula_sum   'Nd1 Ho2 Ni2 Rh7'
_cell_volume   204.57015759
_cell_formula_units_Z   1
loop_
 _symmetry_equiv_pos_site_id
 _symmetry_equiv_pos_as_xyz
  1  'x, y, z'
loop_
 _atom_site_type_symbol
 _atom_site_label
 _atom_site_symmetry_multiplicity
 _atom_site_fract_x
 _atom_site_fract_y
 _atom_site_fract_z
 _atom_site_occupancy
  Nd  Nd0  1  0.000000  0.000000  0.000000  1
  Ho  Ho1  1  0.140254  0.140254  0.579239  1
  Ho  Ho2  1  0.859746  0.859746  0.420761  1
  Ni  Ni3  1  0.333353  0.333353  0.999940  1
  Ni  Ni4  1  0.666647  0.666647  0.000060  1
  Rh  Rh5  1  0.078368  0.582098  0.757435  1
  Rh  Rh6  1  0.582098  0.582098  0.757435  1
  Rh  Rh7  1  0.582098  0.078368  0.757435  1
  Rh  Rh8  1  0.921632  0.417902  0.242565  1
  Rh  Rh9  1  0.417902  0.417902  0.242565  1
  Rh  Rh10  1  0.417902  0.921632  0.242565  1
  Rh  Rh11  1  0.500000  0.500000  0.500000  1
