# generated using pymatgen
data_Sc3(In2Pd)2
_symmetry_space_group_name_H-M   'P 1'
_cell_length_a   7.78464500
_cell_length_b   7.78464496
_cell_length_c   3.59608900
_cell_angle_alpha   90.00000000
_cell_angle_beta   90.00000000
_cell_angle_gamma   120.00000440
_symmetry_Int_Tables_number   1
_chemical_formula_structural   Sc3(In2Pd)2
_chemical_formula_sum   'Sc3 In4 Pd2'
_cell_volume   188.72901222
_cell_formula_units_Z   1
loop_
 _symmetry_equiv_pos_site_id
 _symmetry_equiv_pos_as_xyz
  1  'x, y, z'
loop_
 _atom_site_type_symbol
 _atom_site_label
 _atom_site_symmetry_multiplicity
 _atom_site_fract_x
 _atom_site_fract_y
 _atom_site_fract_z
 _atom_site_occupancy
  Sc  Sc0  1  0.382128  0.411944  0.500000  1
  Sc  Sc1  1  0.029815  0.617873  0.500000  1
  Sc  Sc2  1  0.588056  0.970185  0.500000  1
  In  In3  1  0.003448  0.266985  0.000000  1
  In  In4  1  0.666667  0.333334  0.000000  1
  In  In5  1  0.733014  0.736463  0.000000  1
  In  In6  1  0.263538  0.996552  0.000000  1
  Pd  Pd7  1  0.333334  0.666667  0.000000  1
  Pd  Pd8  1  0.000000  0.000000  0.500000  1
