# generated using pymatgen
data_Y4MgZn2Sb
_symmetry_space_group_name_H-M   'P 1'
_cell_length_a   8.64187549
_cell_length_b   8.64187554
_cell_length_c   8.64187600
_cell_angle_alpha   127.11034699
_cell_angle_beta   127.11033061
_cell_angle_gamma   78.07074635
_symmetry_Int_Tables_number   1
_chemical_formula_structural   Y4MgZn2Sb
_chemical_formula_sum   'Y8 Mg2 Zn4 Sb2'
_cell_volume   397.69007491
_cell_formula_units_Z   2
loop_
 _symmetry_equiv_pos_site_id
 _symmetry_equiv_pos_as_xyz
  1  'x, y, z'
loop_
 _atom_site_type_symbol
 _atom_site_label
 _atom_site_symmetry_multiplicity
 _atom_site_fract_x
 _atom_site_fract_y
 _atom_site_fract_z
 _atom_site_occupancy
  Y  Y0  1  0.804499  0.304499  0.822191  1
  Y  Y1  1  0.195501  0.695501  0.177809  1
  Y  Y2  1  0.482308  0.982308  0.177809  1
  Y  Y3  1  0.304499  0.482308  0.500000  1
  Y  Y4  1  0.017692  0.195501  0.500000  1
  Y  Y5  1  0.517692  0.017692  0.822191  1
  Y  Y6  1  0.695501  0.517692  0.500000  1
  Y  Y7  1  0.982308  0.804499  0.500000  1
  Mg  Mg8  1  0.000000  0.000000  0.000000  1
  Mg  Mg9  1  0.500000  0.500000  0.000000  1
  Zn  Zn10  1  0.131265  0.631265  0.762530  1
  Zn  Zn11  1  0.868735  0.368735  0.237470  1
  Zn  Zn12  1  0.631265  0.868735  0.500000  1
  Zn  Zn13  1  0.368735  0.131265  0.500000  1
  Sb  Sb14  1  0.250000  0.250000  0.000000  1
  Sb  Sb15  1  0.750000  0.750000  0.000000  1
