# generated using pymatgen
data_SrNp2N4
_symmetry_space_group_name_H-M   'P 1'
_cell_length_a   10.09200504
_cell_length_b   3.49130800
_cell_length_c   11.83918903
_cell_angle_alpha   90.00000000
_cell_angle_beta   89.99862490
_cell_angle_gamma   90.00000000
_symmetry_Int_Tables_number   1
_chemical_formula_structural   SrNp2N4
_chemical_formula_sum   'Sr4 Np8 N16'
_cell_volume   417.14551343
_cell_formula_units_Z   4
loop_
 _symmetry_equiv_pos_site_id
 _symmetry_equiv_pos_as_xyz
  1  'x, y, z'
loop_
 _atom_site_type_symbol
 _atom_site_label
 _atom_site_symmetry_multiplicity
 _atom_site_fract_x
 _atom_site_fract_y
 _atom_site_fract_z
 _atom_site_occupancy
  Sr  Sr0  1  0.749580  0.500001  0.146008  1
  Sr  Sr1  1  0.249559  0.500001  0.354036  1
  Sr  Sr2  1  0.750446  0.000000  0.646079  1
  Sr  Sr3  1  0.250426  0.000000  0.853850  1
  Np  Np4  1  0.077500  0.500001  0.113504  1
  Np  Np5  1  0.423368  0.000000  0.111698  1
  Np  Np6  1  0.923389  0.000000  0.388305  1
  Np  Np7  1  0.577508  0.500001  0.386505  1
  Np  Np8  1  0.422471  0.000000  0.613567  1
  Np  Np9  1  0.076674  0.500001  0.611726  1
  Np  Np10  1  0.576673  0.500001  0.888264  1
  Np  Np11  1  0.922510  0.000000  0.886429  1
  N  N12  1  0.613248  0.000000  0.007551  1
  N  N13  1  0.942286  0.000000  0.074577  1
  N  N14  1  0.211152  0.000000  0.164627  1
  N  N15  1  0.486175  0.500001  0.214671  1
  N  N16  1  0.986164  0.500001  0.285403  1
  N  N17  1  0.711206  0.000000  0.335405  1
  N  N18  1  0.442270  0.000000  0.425453  1
  N  N19  1  0.113209  0.000000  0.492434  1
  N  N20  1  0.886791  0.500001  0.507548  1
  N  N21  1  0.557619  0.500001  0.574697  1
  N  N22  1  0.288888  0.500001  0.664532  1
  N  N23  1  0.013816  0.000000  0.714606  1
  N  N24  1  0.513816  0.000000  0.785345  1
  N  N25  1  0.788911  0.500001  0.835473  1
  N  N26  1  0.057627  0.500001  0.925293  1
  N  N27  1  0.386728  0.500001  0.992424  1
