# generated using pymatgen
data_Ho3Er2Ir2Os
_symmetry_space_group_name_H-M   'P 1'
_cell_length_a   10.79507300
_cell_length_b   10.79288400
_cell_length_c   6.37774100
_cell_angle_alpha   90.00000000
_cell_angle_beta   90.00000000
_cell_angle_gamma   89.99859866
_symmetry_Int_Tables_number   1
_chemical_formula_structural   Ho3Er2Ir2Os
_chemical_formula_sum   'Ho12 Er8 Ir8 Os4'
_cell_volume   743.07041668
_cell_formula_units_Z   4
loop_
 _symmetry_equiv_pos_site_id
 _symmetry_equiv_pos_as_xyz
  1  'x, y, z'
loop_
 _atom_site_type_symbol
 _atom_site_label
 _atom_site_symmetry_multiplicity
 _atom_site_fract_x
 _atom_site_fract_y
 _atom_site_fract_z
 _atom_site_occupancy
  Ho  Ho0  1  0.293307  0.086195  0.376217  1
  Ho  Ho1  1  0.293304  0.913806  0.876196  1
  Ho  Ho2  1  0.706696  0.086194  0.876196  1
  Ho  Ho3  1  0.706693  0.913805  0.376217  1
  Ho  Ho4  1  0.586189  0.793366  0.876322  1
  Ho  Ho5  1  0.586195  0.206638  0.376324  1
  Ho  Ho6  1  0.413805  0.793362  0.376324  1
  Ho  Ho7  1  0.413811  0.206634  0.876322  1
  Ho  Ho8  1  0.206383  0.413849  0.623740  1
  Ho  Ho9  1  0.206389  0.586155  0.123744  1
  Ho  Ho10  1  0.793611  0.413845  0.123744  1
  Ho  Ho11  1  0.793617  0.586151  0.623740  1
  Er  Er12  1  0.914071  0.706329  0.123557  1
  Er  Er13  1  0.914037  0.293658  0.623643  1
  Er  Er14  1  0.085963  0.706342  0.623643  1
  Er  Er15  1  0.085929  0.293671  0.123557  1
  Er  Er16  1  0.000000  0.000000  0.499986  1
  Er  Er17  1  0.000000  0.000000  0.000013  1
  Er  Er18  1  0.500000  0.500000  0.999973  1
  Er  Er19  1  0.500000  0.500000  0.499958  1
  Ir  Ir20  1  0.848214  0.152196  0.250299  1
  Ir  Ir21  1  0.848220  0.847808  0.750296  1
  Ir  Ir22  1  0.151780  0.152192  0.750296  1
  Ir  Ir23  1  0.151786  0.847804  0.250299  1
  Ir  Ir24  1  0.652220  0.347943  0.749878  1
  Ir  Ir25  1  0.652216  0.652058  0.249888  1
  Ir  Ir26  1  0.347784  0.347942  0.249888  1
  Ir  Ir27  1  0.347780  0.652057  0.749878  1
  Os  Os28  1  0.500000  0.000000  0.122731  1
  Os  Os29  1  0.500000  0.000000  0.622709  1
  Os  Os30  1  0.000000  0.500000  0.877211  1
  Os  Os31  1  0.000000  0.500000  0.377211  1
