# generated using pymatgen
data_Eu10(RhAu)3
_symmetry_space_group_name_H-M   'P 1'
_cell_length_a   9.17825118
_cell_length_b   9.17825134
_cell_length_c   9.23925800
_cell_angle_alpha   128.92836294
_cell_angle_beta   128.92836375
_cell_angle_gamma   74.63009711
_symmetry_Int_Tables_number   1
_chemical_formula_structural   Eu10(RhAu)3
_chemical_formula_sum   'Eu10 Rh3 Au3'
_cell_volume   460.06436882
_cell_formula_units_Z   1
loop_
 _symmetry_equiv_pos_site_id
 _symmetry_equiv_pos_as_xyz
  1  'x, y, z'
loop_
 _atom_site_type_symbol
 _atom_site_label
 _atom_site_symmetry_multiplicity
 _atom_site_fract_x
 _atom_site_fract_y
 _atom_site_fract_z
 _atom_site_occupancy
  Eu  Eu0  1  0.468418  0.968418  0.162630  1
  Eu  Eu1  1  0.194212  0.694212  0.162630  1
  Eu  Eu2  1  0.521733  0.021733  0.821162  1
  Eu  Eu3  1  0.039220  0.193632  0.508949  1
  Eu  Eu4  1  0.693632  0.539220  0.508949  1
  Eu  Eu5  1  0.969728  0.815316  0.508949  1
  Eu  Eu6  1  0.002516  0.993589  0.996105  1
  Eu  Eu7  1  0.493589  0.502516  0.996105  1
  Eu  Eu8  1  0.799429  0.299429  0.821162  1
  Eu  Eu9  1  0.315316  0.469728  0.508949  1
  Rh  Rh10  1  0.128268  0.628268  0.756535  1
  Rh  Rh11  1  0.627884  0.870550  0.498433  1
  Rh  Rh12  1  0.370550  0.127884  0.498433  1
  Au  Au13  1  0.873589  0.373589  0.247179  1
  Au  Au14  1  0.750958  0.750958  0.001916  1
  Au  Au15  1  0.250958  0.250958  0.001916  1
