# generated using pymatgen
data_Y3Zn3Si2Hg
_symmetry_space_group_name_H-M   'P 1'
_cell_length_a   6.92334300
_cell_length_b   6.92334282
_cell_length_c   4.35974500
_cell_angle_alpha   90.00000000
_cell_angle_beta   90.00000000
_cell_angle_gamma   119.99999607
_symmetry_Int_Tables_number   1
_chemical_formula_structural   Y3Zn3Si2Hg
_chemical_formula_sum   'Y3 Zn3 Si2 Hg1'
_cell_volume   180.97701567
_cell_formula_units_Z   1
loop_
 _symmetry_equiv_pos_site_id
 _symmetry_equiv_pos_as_xyz
  1  'x, y, z'
loop_
 _atom_site_type_symbol
 _atom_site_label
 _atom_site_symmetry_multiplicity
 _atom_site_fract_x
 _atom_site_fract_y
 _atom_site_fract_z
 _atom_site_occupancy
  Y  Y0  1  0.000000  0.433482  0.500000  1
  Y  Y1  1  0.566518  0.566518  0.500000  1
  Y  Y2  1  0.433482  0.000000  0.500000  1
  Zn  Zn3  1  0.000000  0.746093  0.000000  1
  Zn  Zn4  1  0.253907  0.253907  0.000000  1
  Zn  Zn5  1  0.746093  0.000000  0.000000  1
  Si  Si6  1  0.333333  0.666667  0.000000  1
  Si  Si7  1  0.666667  0.333333  0.000000  1
  Hg  Hg8  1  0.000000  0.000000  0.500000  1
