# generated using pymatgen
data_Lu6Zr4Al12Os7
_symmetry_space_group_name_H-M   'P 1'
_cell_length_a   9.08146937
_cell_length_b   9.08146885
_cell_length_c   9.08147000
_cell_angle_alpha   59.99999581
_cell_angle_beta   59.99999772
_cell_angle_gamma   59.99999868
_symmetry_Int_Tables_number   1
_chemical_formula_structural   Lu6Zr4Al12Os7
_chemical_formula_sum   'Lu6 Zr4 Al12 Os7'
_cell_volume   529.60655222
_cell_formula_units_Z   1
loop_
 _symmetry_equiv_pos_site_id
 _symmetry_equiv_pos_as_xyz
  1  'x, y, z'
loop_
 _atom_site_type_symbol
 _atom_site_label
 _atom_site_symmetry_multiplicity
 _atom_site_fract_x
 _atom_site_fract_y
 _atom_site_fract_z
 _atom_site_occupancy
  Lu  Lu0  1  0.704767  0.704767  0.295233  1
  Lu  Lu1  1  0.295233  0.704767  0.295233  1
  Lu  Lu2  1  0.704767  0.295233  0.295233  1
  Lu  Lu3  1  0.295233  0.295233  0.704767  1
  Lu  Lu4  1  0.704767  0.295233  0.704767  1
  Lu  Lu5  1  0.295233  0.704767  0.704767  1
  Zr  Zr6  1  0.880122  0.880122  0.359631  1
  Zr  Zr7  1  0.880122  0.359631  0.880122  1
  Zr  Zr8  1  0.359631  0.880122  0.880122  1
  Zr  Zr9  1  0.880122  0.880122  0.880122  1
  Al  Al10  1  0.120752  0.120752  0.637744  1
  Al  Al11  1  0.120752  0.637744  0.120752  1
  Al  Al12  1  0.637744  0.120752  0.120752  1
  Al  Al13  1  0.120752  0.120752  0.120752  1
  Al  Al14  1  0.666797  0.666797  0.999611  1
  Al  Al15  1  0.666797  0.999611  0.666797  1
  Al  Al16  1  0.999611  0.666797  0.666797  1
  Al  Al17  1  0.666797  0.666797  0.666797  1
  Al  Al18  1  0.331695  0.331695  0.004912  1
  Al  Al19  1  0.331695  0.004912  0.331695  1
  Al  Al20  1  0.004912  0.331695  0.331695  1
  Al  Al21  1  0.331695  0.331695  0.331695  1
  Os  Os22  1  0.000000  0.000000  0.000000  1
  Os  Os23  1  0.000715  0.000715  0.499285  1
  Os  Os24  1  0.499285  0.000715  0.499285  1
  Os  Os25  1  0.000715  0.499285  0.499285  1
  Os  Os26  1  0.499285  0.499285  0.000715  1
  Os  Os27  1  0.000715  0.499285  0.000715  1
  Os  Os28  1  0.499285  0.000715  0.000715  1
