# generated using pymatgen
data_SrTc11MoI25
_symmetry_space_group_name_H-M   'P 1'
_cell_length_a   10.55163394
_cell_length_b   11.72546591
_cell_length_c   12.92526464
_cell_angle_alpha   87.67478973
_cell_angle_beta   75.61036615
_cell_angle_gamma   86.94940649
_symmetry_Int_Tables_number   1
_chemical_formula_structural   SrTc11MoI25
_chemical_formula_sum   'Sr1 Tc11 Mo1 I25'
_cell_volume   1546.16861929
_cell_formula_units_Z   1
loop_
 _symmetry_equiv_pos_site_id
 _symmetry_equiv_pos_as_xyz
  1  'x, y, z'
loop_
 _atom_site_type_symbol
 _atom_site_label
 _atom_site_symmetry_multiplicity
 _atom_site_fract_x
 _atom_site_fract_y
 _atom_site_fract_z
 _atom_site_occupancy
  Sr  Sr0  1  0.497324  0.997332  0.003740  1
  Tc  Tc1  1  0.171705  0.749573  0.867646  1
  Tc  Tc2  1  0.761157  0.122269  0.277081  1
  Tc  Tc3  1  0.233806  0.868933  0.729182  1
  Tc  Tc4  1  0.061648  0.270147  0.189226  1
  Tc  Tc5  1  0.941574  0.726843  0.814419  1
  Tc  Tc6  1  0.849001  0.417239  0.268300  1
  Tc  Tc7  1  0.148952  0.581901  0.736110  1
  Tc  Tc8  1  0.782184  0.297785  0.404620  1
  Tc  Tc9  1  0.215167  0.700308  0.595742  1
  Tc  Tc10  1  0.993987  0.154489  0.327533  1
  Tc  Tc11  1  0.005317  0.842728  0.672837  1
  Mo  Mo12  1  0.825486  0.242353  0.139548  1
  I  I13  1  0.947115  0.956115  0.257072  1
  I  I14  1  0.058083  0.041457  0.737820  1
  I  I15  1  0.978020  0.275796  0.499120  1
  I  I16  1  0.022150  0.725092  0.498867  1
  I  I17  1  0.654430  0.425840  0.169907  1
  I  I18  1  0.357282  0.578513  0.822273  1
  I  I19  1  0.091222  0.468191  0.270489  1
  I  I20  1  0.906528  0.533734  0.721186  1
  I  I21  1  0.011080  0.540563  0.977141  1
  I  I22  1  0.602565  0.959288  0.225042  1
  I  I23  1  0.394079  0.032972  0.776573  1
  I  I24  1  0.208863  0.043347  0.376738  1
  I  I25  1  0.787863  0.952748  0.628042  1
  I  I26  1  0.548976  0.225103  0.398847  1
  I  I27  1  0.446296  0.778919  0.598501  1
  I  I28  1  0.055271  0.157144  0.018203  1
  I  I29  1  0.949029  0.857421  0.976750  1
  I  I30  1  0.775703  0.639448  0.323317  1
  I  I31  1  0.220442  0.358755  0.682583  1
  I  I32  1  0.721616  0.194203  0.961085  1
  I  I33  1  0.276635  0.795391  0.042950  1
  I  I34  1  0.333635  0.247579  0.111363  1
  I  I35  1  0.668615  0.747619  0.894866  1
  I  I36  1  0.650411  0.414410  0.581797  1
  I  I37  1  0.346784  0.578453  0.423484  1
