# generated using pymatgen
data_Li2HfUN4
_symmetry_space_group_name_H-M   'P 1'
_cell_length_a   4.31529064
_cell_length_b   4.31529148
_cell_length_c   6.01894476
_cell_angle_alpha   111.00660219
_cell_angle_beta   111.00660159
_cell_angle_gamma   90.00000444
_symmetry_Int_Tables_number   1
_chemical_formula_structural   Li2HfUN4
_chemical_formula_sum   'Li2 Hf1 U1 N4'
_cell_volume   96.61225089
_cell_formula_units_Z   1
loop_
 _symmetry_equiv_pos_site_id
 _symmetry_equiv_pos_as_xyz
  1  'x, y, z'
loop_
 _atom_site_type_symbol
 _atom_site_label
 _atom_site_symmetry_multiplicity
 _atom_site_fract_x
 _atom_site_fract_y
 _atom_site_fract_z
 _atom_site_occupancy
  Li  Li0  1  0.624999  0.375001  0.250001  1
  Li  Li1  1  0.375000  0.625001  0.750000  1
  Hf  Hf2  1  0.125000  0.875000  0.250001  1
  U  U3  1  0.874999  0.124999  0.750000  1
  N  N4  1  0.083006  0.333007  0.166012  1
  N  N5  1  0.666992  0.916993  0.333987  1
  N  N6  1  0.341379  0.091378  0.682756  1
  N  N7  1  0.908620  0.658621  0.817244  1
