# generated using pymatgen
data_Lu20Ir3OsRh8
_symmetry_space_group_name_H-M   'P 1'
_cell_length_a   10.60532001
_cell_length_b   10.60438230
_cell_length_c   6.24027700
_cell_angle_alpha   89.98902105
_cell_angle_beta   89.99809830
_cell_angle_gamma   89.95613785
_symmetry_Int_Tables_number   1
_chemical_formula_structural   Lu20Ir3OsRh8
_chemical_formula_sum   'Lu20 Ir3 Os1 Rh8'
_cell_volume   701.79922823
_cell_formula_units_Z   1
loop_
 _symmetry_equiv_pos_site_id
 _symmetry_equiv_pos_as_xyz
  1  'x, y, z'
loop_
 _atom_site_type_symbol
 _atom_site_label
 _atom_site_symmetry_multiplicity
 _atom_site_fract_x
 _atom_site_fract_y
 _atom_site_fract_z
 _atom_site_occupancy
  Lu  Lu0  1  0.292405  0.087717  0.374492  1
  Lu  Lu1  1  0.293418  0.911921  0.880132  1
  Lu  Lu2  1  0.706761  0.086716  0.880224  1
  Lu  Lu3  1  0.707328  0.912051  0.374278  1
  Lu  Lu4  1  0.585730  0.791992  0.880826  1
  Lu  Lu5  1  0.585550  0.208012  0.374266  1
  Lu  Lu6  1  0.414132  0.791321  0.374854  1
  Lu  Lu7  1  0.412558  0.207261  0.880695  1
  Lu  Lu8  1  0.210163  0.412795  0.621950  1
  Lu  Lu9  1  0.210054  0.586434  0.122134  1
  Lu  Lu10  1  0.790595  0.413840  0.122439  1
  Lu  Lu11  1  0.790601  0.588966  0.621784  1
  Lu  Lu12  1  0.911412  0.708911  0.122158  1
  Lu  Lu13  1  0.911776  0.290962  0.622564  1
  Lu  Lu14  1  0.089584  0.708866  0.622545  1
  Lu  Lu15  1  0.088646  0.291181  0.122539  1
  Lu  Lu16  1  0.999866  0.999973  0.498994  1
  Lu  Lu17  1  0.000025  0.000116  0.999025  1
  Lu  Lu18  1  0.499808  0.500091  0.998617  1
  Lu  Lu19  1  0.499884  0.500076  0.498956  1
  Ir  Ir20  1  0.655304  0.652355  0.250482  1
  Ir  Ir21  1  0.345168  0.347025  0.250176  1
  Ir  Ir22  1  0.345158  0.653267  0.749617  1
  Os  Os23  1  0.500180  0.000385  0.125952  1
  Rh  Rh24  1  0.847617  0.154468  0.250686  1
  Rh  Rh25  1  0.848163  0.846494  0.749979  1
  Rh  Rh26  1  0.151935  0.153431  0.749868  1
  Rh  Rh27  1  0.151989  0.846064  0.250841  1
  Rh  Rh28  1  0.654496  0.347228  0.749928  1
  Rh  Rh29  1  0.500066  0.000310  0.623250  1
  Rh  Rh30  1  0.999764  0.499884  0.877369  1
  Rh  Rh31  1  0.999861  0.499886  0.378373  1
