# generated using pymatgen
data_La3Nd(Mo2O7)2
_symmetry_space_group_name_H-M   'P 1'
_cell_length_a   7.56155303
_cell_length_b   7.57213836
_cell_length_c   7.57678334
_cell_angle_alpha   120.01724731
_cell_angle_beta   119.95306748
_cell_angle_gamma   90.01553294
_symmetry_Int_Tables_number   1
_chemical_formula_structural   La3Nd(Mo2O7)2
_chemical_formula_sum   'La3 Nd1 Mo4 O14'
_cell_volume   306.85642619
_cell_formula_units_Z   1
loop_
 _symmetry_equiv_pos_site_id
 _symmetry_equiv_pos_as_xyz
  1  'x, y, z'
loop_
 _atom_site_type_symbol
 _atom_site_label
 _atom_site_symmetry_multiplicity
 _atom_site_fract_x
 _atom_site_fract_y
 _atom_site_fract_z
 _atom_site_occupancy
  La  La0  1  0.375000  0.625000  0.250000  1
  La  La1  1  0.875000  0.625000  0.250000  1
  La  La2  1  0.375000  0.125000  0.750000  1
  Nd  Nd3  1  0.375000  0.625000  0.750000  1
  Mo  Mo4  1  0.875000  0.625000  0.750000  1
  Mo  Mo5  1  0.375000  0.125000  0.250000  1
  Mo  Mo6  1  0.875000  0.125000  0.250000  1
  Mo  Mo7  1  0.875000  0.125000  0.750000  1
  O  O8  1  0.785952  0.199582  0.997885  1
  O  O9  1  0.547982  0.462758  0.500403  1
  O  O10  1  0.206016  0.205549  0.000616  1
  O  O11  1  0.958563  0.456217  0.501534  1
  O  O12  1  0.800578  0.798402  0.586988  1
  O  O13  1  0.537005  0.032075  0.084396  1
  O  O14  1  0.250756  0.749418  0.501178  1
  O  O15  1  0.949422  0.451598  0.913012  1
  O  O16  1  0.964048  0.050418  0.502115  1
  O  O17  1  0.543984  0.044451  0.499384  1
  O  O18  1  0.212995  0.217925  0.415604  1
  O  O19  1  0.499244  0.500582  0.998822  1
  O  O20  1  0.791437  0.793783  0.998466  1
  O  O21  1  0.202018  0.787242  0.999597  1
