# generated using pymatgen
data_Zr3Al2PdN
_symmetry_space_group_name_H-M   'P 1'
_cell_length_a   8.65269826
_cell_length_b   8.65269911
_cell_length_c   8.65269800
_cell_angle_alpha   59.99999661
_cell_angle_beta   59.99999334
_cell_angle_gamma   59.99999663
_symmetry_Int_Tables_number   1
_chemical_formula_structural   Zr3Al2PdN
_chemical_formula_sum   'Zr12 Al8 Pd4 N4'
_cell_volume   458.07824327
_cell_formula_units_Z   4
loop_
 _symmetry_equiv_pos_site_id
 _symmetry_equiv_pos_as_xyz
  1  'x, y, z'
loop_
 _atom_site_type_symbol
 _atom_site_label
 _atom_site_symmetry_multiplicity
 _atom_site_fract_x
 _atom_site_fract_y
 _atom_site_fract_z
 _atom_site_occupancy
  Zr  Zr0  1  0.812471  0.187529  0.187529  1
  Zr  Zr1  1  0.187529  0.812471  0.187529  1
  Zr  Zr2  1  0.812471  0.812471  0.187529  1
  Zr  Zr3  1  0.187529  0.812471  0.812471  1
  Zr  Zr4  1  0.812471  0.187529  0.812471  1
  Zr  Zr5  1  0.187529  0.187529  0.812471  1
  Zr  Zr6  1  0.437529  0.062471  0.062471  1
  Zr  Zr7  1  0.062471  0.437529  0.062471  1
  Zr  Zr8  1  0.437529  0.437529  0.062471  1
  Zr  Zr9  1  0.062471  0.437529  0.437529  1
  Zr  Zr10  1  0.437529  0.062471  0.437529  1
  Zr  Zr11  1  0.062471  0.062471  0.437529  1
  Al  Al12  1  0.419434  0.419434  0.741698  1
  Al  Al13  1  0.419434  0.419434  0.419434  1
  Al  Al14  1  0.741698  0.419434  0.419434  1
  Al  Al15  1  0.419434  0.741698  0.419434  1
  Al  Al16  1  0.830566  0.830566  0.508302  1
  Al  Al17  1  0.830566  0.830566  0.830566  1
  Al  Al18  1  0.508302  0.830566  0.830566  1
  Al  Al19  1  0.830566  0.508302  0.830566  1
  Pd  Pd20  1  0.625000  0.625000  0.125000  1
  Pd  Pd21  1  0.625000  0.625000  0.625000  1
  Pd  Pd22  1  0.125000  0.625000  0.625000  1
  Pd  Pd23  1  0.625000  0.125000  0.625000  1
  N  N24  1  0.125000  0.125000  0.625000  1
  N  N25  1  0.125000  0.125000  0.125000  1
  N  N26  1  0.625000  0.125000  0.125000  1
  N  N27  1  0.125000  0.625000  0.125000  1
