# generated using pymatgen
data_Nd2Co3Si7Ru9
_symmetry_space_group_name_H-M   'P 1'
_cell_length_a   9.55562800
_cell_length_b   9.55562921
_cell_length_c   3.87377100
_cell_angle_alpha   90.00000000
_cell_angle_beta   90.00000000
_cell_angle_gamma   119.99999579
_symmetry_Int_Tables_number   1
_chemical_formula_structural   Nd2Co3Si7Ru9
_chemical_formula_sum   'Nd2 Co3 Si7 Ru9'
_cell_volume   306.32547641
_cell_formula_units_Z   1
loop_
 _symmetry_equiv_pos_site_id
 _symmetry_equiv_pos_as_xyz
  1  'x, y, z'
loop_
 _atom_site_type_symbol
 _atom_site_label
 _atom_site_symmetry_multiplicity
 _atom_site_fract_x
 _atom_site_fract_y
 _atom_site_fract_z
 _atom_site_occupancy
  Nd  Nd0  1  0.000000  0.000000  0.000000  1
  Nd  Nd1  1  0.333333  0.666667  0.500000  1
  Co  Co2  1  0.812363  0.601839  0.000000  1
  Co  Co3  1  0.398161  0.210523  0.000000  1
  Co  Co4  1  0.789477  0.187637  0.000000  1
  Si  Si5  1  0.771096  0.720440  0.500000  1
  Si  Si6  1  0.279560  0.050658  0.500000  1
  Si  Si7  1  0.949342  0.228904  0.500000  1
  Si  Si8  1  0.666667  0.333333  0.000000  1
  Si  Si9  1  0.061399  0.623956  0.000000  1
  Si  Si10  1  0.376044  0.437443  0.000000  1
  Si  Si11  1  0.562557  0.938601  0.000000  1
  Ru  Ru12  1  0.092633  0.388781  0.000000  1
  Ru  Ru13  1  0.611219  0.703852  0.000000  1
  Ru  Ru14  1  0.296148  0.907367  0.000000  1
  Ru  Ru15  1  0.045713  0.766502  0.500000  1
  Ru  Ru16  1  0.233498  0.279209  0.500000  1
  Ru  Ru17  1  0.720791  0.954287  0.500000  1
  Ru  Ru18  1  0.869475  0.432073  0.500000  1
  Ru  Ru19  1  0.567927  0.437403  0.500000  1
  Ru  Ru20  1  0.562597  0.130525  0.500000  1
