# generated using pymatgen
data_TbYb3Ir8
_symmetry_space_group_name_H-M   'P 1'
_cell_length_a   5.33456100
_cell_length_b   5.33455959
_cell_length_c   8.70350300
_cell_angle_alpha   90.00000000
_cell_angle_beta   90.00000000
_cell_angle_gamma   120.00000257
_symmetry_Int_Tables_number   1
_chemical_formula_structural   TbYb3Ir8
_chemical_formula_sum   'Tb1 Yb3 Ir8'
_cell_volume   214.49736423
_cell_formula_units_Z   1
loop_
 _symmetry_equiv_pos_site_id
 _symmetry_equiv_pos_as_xyz
  1  'x, y, z'
loop_
 _atom_site_type_symbol
 _atom_site_label
 _atom_site_symmetry_multiplicity
 _atom_site_fract_x
 _atom_site_fract_y
 _atom_site_fract_z
 _atom_site_occupancy
  Tb  Tb0  1  0.333333  0.666667  0.069988  1
  Yb  Yb1  1  0.333333  0.666667  0.438167  1
  Yb  Yb2  1  0.666667  0.333333  0.568084  1
  Yb  Yb3  1  0.666667  0.333333  0.926367  1
  Ir  Ir4  1  0.000000  0.000000  0.499653  1
  Ir  Ir5  1  0.000000  0.000000  0.998847  1
  Ir  Ir6  1  0.829014  0.170986  0.249410  1
  Ir  Ir7  1  0.829014  0.658029  0.249410  1
  Ir  Ir8  1  0.341971  0.170986  0.249410  1
  Ir  Ir9  1  0.170719  0.829281  0.750221  1
  Ir  Ir10  1  0.170719  0.341438  0.750221  1
  Ir  Ir11  1  0.658562  0.829281  0.750221  1
