# generated using pymatgen
data_Hf8Ti11Si16Au
_symmetry_space_group_name_H-M   'P 1'
_cell_length_a   6.60160537
_cell_length_b   6.78547604
_cell_length_c   12.96683700
_cell_angle_alpha   90.00000000
_cell_angle_beta   90.00000000
_cell_angle_gamma   90.19784073
_symmetry_Int_Tables_number   1
_chemical_formula_structural   Hf8Ti11Si16Au
_chemical_formula_sum   'Hf8 Ti11 Si16 Au1'
_cell_volume   580.84645523
_cell_formula_units_Z   1
loop_
 _symmetry_equiv_pos_site_id
 _symmetry_equiv_pos_as_xyz
  1  'x, y, z'
loop_
 _atom_site_type_symbol
 _atom_site_label
 _atom_site_symmetry_multiplicity
 _atom_site_fract_x
 _atom_site_fract_y
 _atom_site_fract_z
 _atom_site_occupancy
  Hf  Hf0  1  0.999857  0.173834  0.095694  1
  Hf  Hf1  1  0.002594  0.824199  0.906704  1
  Hf  Hf2  1  0.499405  0.674414  0.908805  1
  Hf  Hf3  1  0.002594  0.824199  0.593296  1
  Hf  Hf4  1  0.498712  0.327704  0.095885  1
  Hf  Hf5  1  0.999857  0.173834  0.404306  1
  Hf  Hf6  1  0.498712  0.327704  0.404115  1
  Hf  Hf7  1  0.499405  0.674414  0.591195  1
  Ti  Ti8  1  0.164204  0.495483  0.750000  1
  Ti  Ti9  1  0.834264  0.503947  0.250000  1
  Ti  Ti10  1  0.333665  0.994527  0.250000  1
  Ti  Ti11  1  0.341703  0.176122  0.625113  1
  Ti  Ti12  1  0.661055  0.824500  0.374420  1
  Ti  Ti13  1  0.161783  0.675126  0.374726  1
  Ti  Ti14  1  0.661055  0.824500  0.125580  1
  Ti  Ti15  1  0.836170  0.325937  0.625619  1
  Ti  Ti16  1  0.341703  0.176122  0.874887  1
  Ti  Ti17  1  0.836170  0.325937  0.874381  1
  Ti  Ti18  1  0.161783  0.675126  0.125274  1
  Si  Si19  1  0.045779  0.120499  0.750000  1
  Si  Si20  1  0.958938  0.881341  0.250000  1
  Si  Si21  1  0.459529  0.616674  0.250000  1
  Si  Si22  1  0.534709  0.400008  0.750000  1
  Si  Si23  1  0.288966  0.861555  0.750000  1
  Si  Si24  1  0.702297  0.134703  0.250000  1
  Si  Si25  1  0.201797  0.364427  0.250000  1
  Si  Si26  1  0.802189  0.627810  0.750000  1
  Si  Si27  1  0.169567  0.461656  0.538185  1
  Si  Si28  1  0.829720  0.536396  0.460507  1
  Si  Si29  1  0.329949  0.963283  0.461742  1
  Si  Si30  1  0.829720  0.536396  0.039493  1
  Si  Si31  1  0.673013  0.043094  0.530472  1
  Si  Si32  1  0.169567  0.461656  0.961815  1
  Si  Si33  1  0.673013  0.043094  0.969528  1
  Si  Si34  1  0.329949  0.963283  0.038258  1
  Au  Au35  1  0.666606  0.986493  0.750000  1
