# generated using pymatgen
data_La4YIn3
_symmetry_space_group_name_H-M   'P 1'
_cell_length_a   9.54103343
_cell_length_b   9.54103208
_cell_length_c   9.54103211
_cell_angle_alpha   96.30527416
_cell_angle_beta   96.30527722
_cell_angle_gamma   141.29246994
_symmetry_Int_Tables_number   1
_chemical_formula_structural   La4YIn3
_chemical_formula_sum   'La8 Y2 In6'
_cell_volume   512.44052933
_cell_formula_units_Z   2
loop_
 _symmetry_equiv_pos_site_id
 _symmetry_equiv_pos_as_xyz
  1  'x, y, z'
loop_
 _atom_site_type_symbol
 _atom_site_label
 _atom_site_symmetry_multiplicity
 _atom_site_fract_x
 _atom_site_fract_y
 _atom_site_fract_z
 _atom_site_occupancy
  La  La0  1  0.910784  0.221871  0.132654  1
  La  La1  1  0.221871  0.089216  0.311087  1
  La  La2  1  0.778129  0.910784  0.688913  1
  La  La3  1  0.089216  0.778129  0.867346  1
  La  La4  1  0.721871  0.410784  0.132654  1
  La  La5  1  0.278129  0.589216  0.867346  1
  La  La6  1  0.589216  0.721871  0.311087  1
  La  La7  1  0.410784  0.278129  0.688913  1
  Y  Y8  1  0.750000  0.250000  0.500000  1
  Y  Y9  1  0.250000  0.750000  0.500000  1
  In  In10  1  0.750000  0.750000  0.000000  1
  In  In11  1  0.250000  0.250000  0.000000  1
  In  In12  1  0.844694  0.655306  0.500000  1
  In  In13  1  0.655306  0.155306  0.810614  1
  In  In14  1  0.344694  0.844694  0.189386  1
  In  In15  1  0.155306  0.344694  0.500000  1
