# generated using pymatgen
data_Lu3Sc7(Hg2Pt)4
_symmetry_space_group_name_H-M   'P 1'
_cell_length_a   3.41486900
_cell_length_b   7.77855126
_cell_length_c   17.66498804
_cell_angle_alpha   89.87895438
_cell_angle_beta   90.00000000
_cell_angle_gamma   90.00000000
_symmetry_Int_Tables_number   1
_chemical_formula_structural   Lu3Sc7(Hg2Pt)4
_chemical_formula_sum   'Lu3 Sc7 Hg8 Pt4'
_cell_volume   469.22932350
_cell_formula_units_Z   1
loop_
 _symmetry_equiv_pos_site_id
 _symmetry_equiv_pos_as_xyz
  1  'x, y, z'
loop_
 _atom_site_type_symbol
 _atom_site_label
 _atom_site_symmetry_multiplicity
 _atom_site_fract_x
 _atom_site_fract_y
 _atom_site_fract_z
 _atom_site_occupancy
  Lu  Lu0  1  0.000000  0.757892  0.783954  1
  Lu  Lu1  1  0.000000  0.258552  0.715785  1
  Lu  Lu2  1  0.000000  0.743104  0.283284  1
  Sc  Sc3  1  0.000000  0.115847  0.416432  1
  Sc  Sc4  1  0.000000  0.884206  0.582106  1
  Sc  Sc5  1  0.000000  0.383533  0.918160  1
  Sc  Sc6  1  0.000000  0.614689  0.083608  1
  Sc  Sc7  1  0.000000  0.243624  0.217387  1
  Sc  Sc8  1  0.000000  0.999942  0.000125  1
  Sc  Sc9  1  0.000000  0.499844  0.499695  1
  Hg  Hg10  1  0.500000  0.419823  0.356225  1
  Hg  Hg11  1  0.500000  0.578552  0.642724  1
  Hg  Hg12  1  0.500000  0.078598  0.856939  1
  Hg  Hg13  1  0.500000  0.923957  0.143523  1
  Hg  Hg14  1  0.500000  0.287800  0.061486  1
  Hg  Hg15  1  0.500000  0.710554  0.940817  1
  Hg  Hg16  1  0.500000  0.210611  0.559129  1
  Hg  Hg17  1  0.500000  0.789948  0.439797  1
  Pt  Pt18  1  0.500000  0.036096  0.304304  1
  Pt  Pt19  1  0.500000  0.968663  0.693666  1
  Pt  Pt20  1  0.500000  0.468212  0.806405  1
  Pt  Pt21  1  0.500000  0.525954  0.194449  1
