# generated using pymatgen
data_Y4Er12MgCo4Ag3
_symmetry_space_group_name_H-M   'P 1'
_cell_length_a   9.39637156
_cell_length_b   9.40049384
_cell_length_c   9.40309692
_cell_angle_alpha   60.00046655
_cell_angle_beta   59.93251175
_cell_angle_gamma   59.92551169
_symmetry_Int_Tables_number   1
_chemical_formula_structural   Y4Er12MgCo4Ag3
_chemical_formula_sum   'Y4 Er12 Mg1 Co4 Ag3'
_cell_volume   586.68024379
_cell_formula_units_Z   1
loop_
 _symmetry_equiv_pos_site_id
 _symmetry_equiv_pos_as_xyz
  1  'x, y, z'
loop_
 _atom_site_type_symbol
 _atom_site_label
 _atom_site_symmetry_multiplicity
 _atom_site_fract_x
 _atom_site_fract_y
 _atom_site_fract_z
 _atom_site_occupancy
  Y  Y0  1  0.562102  0.937428  0.563140  1
  Y  Y1  1  0.936006  0.562353  0.939109  1
  Y  Y2  1  0.562127  0.563144  0.937410  1
  Y  Y3  1  0.936019  0.939130  0.562356  1
  Er  Er4  1  0.346022  0.345806  0.345538  1
  Er  Er5  1  0.346635  0.345198  0.962626  1
  Er  Er6  1  0.346791  0.962493  0.345046  1
  Er  Er7  1  0.951956  0.349663  0.349403  1
  Er  Er8  1  0.810259  0.188689  0.188681  1
  Er  Er9  1  0.185720  0.813882  0.814167  1
  Er  Er10  1  0.185760  0.813774  0.186434  1
  Er  Er11  1  0.810099  0.188760  0.812328  1
  Er  Er12  1  0.185775  0.186455  0.813903  1
  Er  Er13  1  0.810286  0.812189  0.188731  1
  Er  Er14  1  0.936509  0.561146  0.561170  1
  Er  Er15  1  0.560869  0.938501  0.938504  1
  Mg  Mg16  1  0.287576  0.570762  0.570777  1
  Co  Co17  1  0.139203  0.142210  0.142214  1
  Co  Co18  1  0.138376  0.143164  0.576317  1
  Co  Co19  1  0.138390  0.576289  0.143175  1
  Co  Co20  1  0.575758  0.141154  0.141154  1
  Ag  Ag21  1  0.583407  0.581797  0.581793  1
  Ag  Ag22  1  0.582176  0.583050  0.252974  1
  Ag  Ag23  1  0.582181  0.252962  0.583052  1
