# generated using pymatgen
data_EuMnAg(Sb6Os)2
_symmetry_space_group_name_H-M   'P 1'
_cell_length_a   8.20767749
_cell_length_b   8.21939929
_cell_length_c   8.19939551
_cell_angle_alpha   109.46456209
_cell_angle_beta   109.42259321
_cell_angle_gamma   109.53511135
_symmetry_Int_Tables_number   1
_chemical_formula_structural   EuMnAg(Sb6Os)2
_chemical_formula_sum   'Eu1 Mn1 Ag1 Sb12 Os2'
_cell_volume   425.76882372
_cell_formula_units_Z   1
loop_
 _symmetry_equiv_pos_site_id
 _symmetry_equiv_pos_as_xyz
  1  'x, y, z'
loop_
 _atom_site_type_symbol
 _atom_site_label
 _atom_site_symmetry_multiplicity
 _atom_site_fract_x
 _atom_site_fract_y
 _atom_site_fract_z
 _atom_site_occupancy
  Eu  Eu0  1  0.000000  0.000000  0.000000  1
  Mn  Mn1  1  0.000000  0.500000  0.000000  1
  Ag  Ag2  1  0.500000  0.000000  0.000000  1
  Sb  Sb3  1  0.336959  0.157541  0.496192  1
  Sb  Sb4  1  0.326630  0.828638  0.189234  1
  Sb  Sb5  1  0.673370  0.171362  0.810766  1
  Sb  Sb6  1  0.829269  0.660808  0.155580  1
  Sb  Sb7  1  0.157265  0.493896  0.327903  1
  Sb  Sb8  1  0.500494  0.642576  0.839926  1
  Sb  Sb9  1  0.858645  0.197208  0.357001  1
  Sb  Sb10  1  0.663041  0.842459  0.503808  1
  Sb  Sb11  1  0.170731  0.339192  0.844420  1
  Sb  Sb12  1  0.141355  0.802792  0.642999  1
  Sb  Sb13  1  0.499506  0.357424  0.160074  1
  Sb  Sb14  1  0.842735  0.506104  0.672097  1
  Os  Os15  1  0.500000  0.500000  0.500000  1
  Os  Os16  1  0.000000  0.000000  0.500000  1
