# generated using pymatgen
data_Nb6Zn5GaCo12
_symmetry_space_group_name_H-M   'P 1'
_cell_length_a   4.21104100
_cell_length_b   5.93760404
_cell_length_c   12.64614509
_cell_angle_alpha   89.98645256
_cell_angle_beta   90.00119220
_cell_angle_gamma   90.00013565
_symmetry_Int_Tables_number   1
_chemical_formula_structural   Nb6Zn5GaCo12
_chemical_formula_sum   'Nb6 Zn5 Ga1 Co12'
_cell_volume   316.19780473
_cell_formula_units_Z   1
loop_
 _symmetry_equiv_pos_site_id
 _symmetry_equiv_pos_as_xyz
  1  'x, y, z'
loop_
 _atom_site_type_symbol
 _atom_site_label
 _atom_site_symmetry_multiplicity
 _atom_site_fract_x
 _atom_site_fract_y
 _atom_site_fract_z
 _atom_site_occupancy
  Nb  Nb0  1  0.000000  0.000000  0.000000  1
  Nb  Nb1  1  0.500150  0.499776  0.168755  1
  Nb  Nb2  1  0.000165  0.000243  0.333503  1
  Nb  Nb3  1  0.500001  0.500000  0.500000  1
  Nb  Nb4  1  0.999834  0.999757  0.666497  1
  Nb  Nb5  1  0.499849  0.500224  0.831245  1
  Zn  Zn6  1  0.500111  0.000082  0.166291  1
  Zn  Zn7  1  0.000121  0.499905  0.333390  1
  Zn  Zn8  1  0.500001  0.000000  0.500000  1
  Zn  Zn9  1  0.999879  0.500095  0.666610  1
  Zn  Zn10  1  0.499888  0.999918  0.833709  1
  Ga  Ga11  1  0.000000  0.500000  0.000000  1
  Co  Co12  1  0.500001  0.252435  0.000005  1
  Co  Co13  1  0.500001  0.747564  0.999995  1
  Co  Co14  1  0.000173  0.251402  0.166321  1
  Co  Co15  1  0.000174  0.748571  0.166350  1
  Co  Co16  1  0.500188  0.248459  0.334022  1
  Co  Co17  1  0.500188  0.751593  0.334013  1
  Co  Co18  1  0.999999  0.251161  0.500012  1
  Co  Co19  1  0.000001  0.748838  0.499988  1
  Co  Co20  1  0.499812  0.248406  0.665986  1
  Co  Co21  1  0.499812  0.751540  0.665977  1
  Co  Co22  1  0.999826  0.251428  0.833650  1
  Co  Co23  1  0.999827  0.748597  0.833679  1
