# generated using pymatgen
data_Zr5Sc(SnRh2)6
_symmetry_space_group_name_H-M   'P 1'
_cell_length_a   4.34277700
_cell_length_b   7.39417800
_cell_length_c   12.98488000
_cell_angle_alpha   90.00000000
_cell_angle_beta   89.99944936
_cell_angle_gamma   90.00000000
_symmetry_Int_Tables_number   1
_chemical_formula_structural   Zr5Sc(SnRh2)6
_chemical_formula_sum   'Zr5 Sc1 Sn6 Rh12'
_cell_volume   416.96093763
_cell_formula_units_Z   1
loop_
 _symmetry_equiv_pos_site_id
 _symmetry_equiv_pos_as_xyz
  1  'x, y, z'
loop_
 _atom_site_type_symbol
 _atom_site_label
 _atom_site_symmetry_multiplicity
 _atom_site_fract_x
 _atom_site_fract_y
 _atom_site_fract_z
 _atom_site_occupancy
  Zr  Zr0  1  0.000000  0.499999  0.999352  1
  Zr  Zr1  1  0.500007  0.000000  0.165450  1
  Zr  Zr2  1  0.000009  0.499999  0.333359  1
  Zr  Zr3  1  0.499997  0.000000  0.501203  1
  Zr  Zr4  1  0.000006  0.499999  0.667325  1
  Sc  Sc5  1  0.499984  0.000000  0.833366  1
  Sn  Sn6  1  0.999999  0.000000  0.997464  1
  Sn  Sn7  1  0.500009  0.499999  0.166305  1
  Sn  Sn8  1  0.000008  0.000000  0.333242  1
  Sn  Sn9  1  0.500000  0.499999  0.500475  1
  Sn  Sn10  1  0.999978  0.000000  0.669175  1
  Sn  Sn11  1  0.499986  0.499999  0.833243  1
  Rh  Rh12  1  0.500002  0.250046  0.000765  1
  Rh  Rh13  1  0.500002  0.749954  0.000765  1
  Rh  Rh14  1  0.000006  0.250443  0.166823  1
  Rh  Rh15  1  0.000006  0.749558  0.166823  1
  Rh  Rh16  1  0.500012  0.249504  0.333329  1
  Rh  Rh17  1  0.500012  0.750496  0.333329  1
  Rh  Rh18  1  0.000000  0.250387  0.499837  1
  Rh  Rh19  1  0.000000  0.749612  0.499837  1
  Rh  Rh20  1  0.499991  0.249981  0.665918  1
  Rh  Rh21  1  0.499991  0.750019  0.665918  1
  Rh  Rh22  1  0.999995  0.251550  0.833347  1
  Rh  Rh23  1  0.999995  0.748451  0.833347  1
