# generated using pymatgen
data_Nd20InSi9Ag2
_symmetry_space_group_name_H-M   'P 1'
_cell_length_a   7.81124400
_cell_length_b   7.81124400
_cell_length_c   14.74908600
_cell_angle_alpha   90.00000000
_cell_angle_beta   90.00000000
_cell_angle_gamma   90.00000000
_symmetry_Int_Tables_number   1
_chemical_formula_structural   Nd20InSi9Ag2
_chemical_formula_sum   'Nd20 In1 Si9 Ag2'
_cell_volume   899.92334101
_cell_formula_units_Z   1
loop_
 _symmetry_equiv_pos_site_id
 _symmetry_equiv_pos_as_xyz
  1  'x, y, z'
loop_
 _atom_site_type_symbol
 _atom_site_label
 _atom_site_symmetry_multiplicity
 _atom_site_fract_x
 _atom_site_fract_y
 _atom_site_fract_z
 _atom_site_occupancy
  Nd  Nd0  1  0.821538  0.822604  0.605619  1
  Nd  Nd1  1  0.185341  0.833227  0.112646  1
  Nd  Nd2  1  0.160122  0.809017  0.392891  1
  Nd  Nd3  1  0.000000  0.500000  0.734557  1
  Nd  Nd4  1  0.839878  0.190983  0.392891  1
  Nd  Nd5  1  0.690983  0.660122  0.392891  1
  Nd  Nd6  1  0.677396  0.321538  0.605619  1
  Nd  Nd7  1  0.322604  0.678462  0.605619  1
  Nd  Nd8  1  0.000000  0.500000  0.234851  1
  Nd  Nd9  1  0.666773  0.685341  0.112646  1
  Nd  Nd10  1  0.680154  0.332175  0.886369  1
  Nd  Nd11  1  0.832175  0.819846  0.886369  1
  Nd  Nd12  1  0.309017  0.339878  0.392891  1
  Nd  Nd13  1  0.178462  0.177396  0.605619  1
  Nd  Nd14  1  0.814659  0.166773  0.112646  1
  Nd  Nd15  1  0.319846  0.667825  0.886369  1
  Nd  Nd16  1  0.333227  0.314659  0.112646  1
  Nd  Nd17  1  0.500000  0.000000  0.280877  1
  Nd  Nd18  1  0.167825  0.180154  0.886369  1
  Nd  Nd19  1  0.500000  0.000000  0.765983  1
  In  In20  1  0.000000  0.500000  0.003158  1
  Si  Si21  1  0.614927  0.383368  0.252699  1
  Si  Si22  1  0.116997  0.886292  0.744814  1
  Si  Si23  1  0.386292  0.383003  0.744814  1
  Si  Si24  1  0.385073  0.616632  0.252699  1
  Si  Si25  1  0.883368  0.885073  0.252699  1
  Si  Si26  1  0.613708  0.616997  0.744814  1
  Si  Si27  1  0.000000  0.500000  0.507372  1
  Si  Si28  1  0.883003  0.113708  0.744814  1
  Si  Si29  1  0.116632  0.114927  0.252699  1
  Ag  Ag30  1  0.500000  0.000000  0.497882  1
  Ag  Ag31  1  0.500000  0.000000  0.995161  1
