# generated using pymatgen
data_La6Sc(TcC4)3
_symmetry_space_group_name_H-M   'P 1'
_cell_length_a   8.53472400
_cell_length_b   8.53472367
_cell_length_c   5.35217300
_cell_angle_alpha   90.00000000
_cell_angle_beta   90.00000000
_cell_angle_gamma   119.99999351
_symmetry_Int_Tables_number   1
_chemical_formula_structural   La6Sc(TcC4)3
_chemical_formula_sum   'La6 Sc1 Tc3 C12'
_cell_volume   337.62900500
_cell_formula_units_Z   1
loop_
 _symmetry_equiv_pos_site_id
 _symmetry_equiv_pos_as_xyz
  1  'x, y, z'
loop_
 _atom_site_type_symbol
 _atom_site_label
 _atom_site_symmetry_multiplicity
 _atom_site_fract_x
 _atom_site_fract_y
 _atom_site_fract_z
 _atom_site_occupancy
  La  La0  1  0.613299  0.689630  0.750638  1
  La  La1  1  0.923669  0.613299  0.249362  1
  La  La2  1  0.689630  0.076331  0.249362  1
  La  La3  1  0.310370  0.923669  0.750638  1
  La  La4  1  0.076331  0.386701  0.750638  1
  La  La5  1  0.386701  0.310370  0.249362  1
  Sc  Sc6  1  0.000000  0.000000  0.000000  1
  Tc  Tc7  1  0.000000  0.000000  0.500000  1
  Tc  Tc8  1  0.666667  0.333333  0.752301  1
  Tc  Tc9  1  0.333333  0.666667  0.247699  1
  C  C10  1  0.954459  0.765687  0.738125  1
  C  C11  1  0.188771  0.954459  0.261875  1
  C  C12  1  0.765687  0.811229  0.261875  1
  C  C13  1  0.234313  0.188771  0.738125  1
  C  C14  1  0.811229  0.045541  0.738125  1
  C  C15  1  0.045541  0.234313  0.261875  1
  C  C16  1  0.860727  0.582486  0.742859  1
  C  C17  1  0.278240  0.860727  0.257141  1
  C  C18  1  0.582486  0.721760  0.257141  1
  C  C19  1  0.417514  0.278240  0.742859  1
  C  C20  1  0.139273  0.417514  0.257141  1
  C  C21  1  0.721760  0.139273  0.742859  1
