# generated using pymatgen
data_NpNiI6
_symmetry_space_group_name_H-M   'P 1'
_cell_length_a   7.69419997
_cell_length_b   6.95777951
_cell_length_c   7.69419867
_cell_angle_alpha   90.08894334
_cell_angle_beta   119.65908841
_cell_angle_gamma   90.08894741
_symmetry_Int_Tables_number   1
_chemical_formula_structural   NpNiI6
_chemical_formula_sum   'Np1 Ni1 I6'
_cell_volume   357.93796973
_cell_formula_units_Z   1
loop_
 _symmetry_equiv_pos_site_id
 _symmetry_equiv_pos_as_xyz
  1  'x, y, z'
loop_
 _atom_site_type_symbol
 _atom_site_label
 _atom_site_symmetry_multiplicity
 _atom_site_fract_x
 _atom_site_fract_y
 _atom_site_fract_z
 _atom_site_occupancy
  Np  Np0  1  0.999981  0.250013  0.999981  1
  Ni  Ni1  1  0.000060  0.749925  0.000060  1
  I  I2  1  0.702321  0.975571  0.001716  1
  I  I3  1  0.297672  0.524438  0.998286  1
  I  I4  1  0.998286  0.524438  0.297670  1
  I  I5  1  0.297085  0.976931  0.297086  1
  I  I6  1  0.702908  0.523117  0.702907  1
  I  I7  1  0.001716  0.975571  0.702321  1
