# generated using pymatgen
data_Cs2Rb2Zr6BBr17
_symmetry_space_group_name_H-M   'P 1'
_cell_length_a   12.84288200
_cell_length_b   12.85853300
_cell_length_c   11.80429900
_cell_angle_alpha   90.00000000
_cell_angle_beta   90.00000000
_cell_angle_gamma   90.00000000
_symmetry_Int_Tables_number   1
_chemical_formula_structural   Cs2Rb2Zr6BBr17
_chemical_formula_sum   'Cs4 Rb4 Zr12 B2 Br34'
_cell_volume   1949.36927928
_cell_formula_units_Z   2
loop_
 _symmetry_equiv_pos_site_id
 _symmetry_equiv_pos_as_xyz
  1  'x, y, z'
loop_
 _atom_site_type_symbol
 _atom_site_label
 _atom_site_symmetry_multiplicity
 _atom_site_fract_x
 _atom_site_fract_y
 _atom_site_fract_z
 _atom_site_occupancy
  Cs  Cs0  1  0.718804  0.517947  0.657946  1
  Cs  Cs1  1  0.781196  0.017947  0.342054  1
  Cs  Cs2  1  0.281196  0.482053  0.657946  1
  Cs  Cs3  1  0.218804  0.982053  0.342054  1
  Rb  Rb4  1  0.488550  0.716606  0.347103  1
  Rb  Rb5  1  0.011450  0.216606  0.652897  1
  Rb  Rb6  1  0.511450  0.283394  0.347103  1
  Rb  Rb7  1  0.988550  0.783394  0.652897  1
  Zr  Zr8  1  0.592070  0.908036  0.698886  1
  Zr  Zr9  1  0.907930  0.408036  0.301114  1
  Zr  Zr10  1  0.407930  0.091964  0.698886  1
  Zr  Zr11  1  0.092070  0.591964  0.301114  1
  Zr  Zr12  1  0.592101  0.907528  0.980224  1
  Zr  Zr13  1  0.907899  0.407528  0.019776  1
  Zr  Zr14  1  0.407899  0.092472  0.980224  1
  Zr  Zr15  1  0.092101  0.592472  0.019776  1
  Zr  Zr16  1  0.870635  0.628922  0.157682  1
  Zr  Zr17  1  0.629365  0.128922  0.842318  1
  Zr  Zr18  1  0.129365  0.371078  0.157682  1
  Zr  Zr19  1  0.370635  0.871078  0.842318  1
  B  B20  1  0.000000  0.500000  0.160125  1
  B  B21  1  0.500000  0.000000  0.839875  1
  Br  Br22  1  0.000000  0.500000  0.834372  1
  Br  Br23  1  0.500000  0.000000  0.165628  1
  Br  Br24  1  0.703129  0.792801  0.161324  1
  Br  Br25  1  0.796871  0.292801  0.838676  1
  Br  Br26  1  0.296871  0.207199  0.161324  1
  Br  Br27  1  0.203129  0.707199  0.838676  1
  Br  Br28  1  0.455196  0.747477  0.680328  1
  Br  Br29  1  0.044804  0.247477  0.319672  1
  Br  Br30  1  0.544804  0.252523  0.680328  1
  Br  Br31  1  0.955196  0.752523  0.319672  1
  Br  Br32  1  0.747593  0.544618  0.319379  1
  Br  Br33  1  0.752407  0.044618  0.680621  1
  Br  Br34  1  0.252407  0.455382  0.319379  1
  Br  Br35  1  0.247593  0.955382  0.680621  1
  Br  Br36  1  0.705064  0.794625  0.529892  1
  Br  Br37  1  0.794936  0.294625  0.470108  1
  Br  Br38  1  0.294936  0.205375  0.529892  1
  Br  Br39  1  0.205064  0.705375  0.470108  1
  Br  Br40  1  0.000000  0.500000  0.486861  1
  Br  Br41  1  0.500000  0.000000  0.513139  1
  Br  Br42  1  0.458791  0.745665  0.000162  1
  Br  Br43  1  0.041209  0.245665  0.999838  1
  Br  Br44  1  0.541209  0.254335  0.000162  1
  Br  Br45  1  0.958791  0.754335  0.999838  1
  Br  Br46  1  0.745415  0.540226  0.999643  1
  Br  Br47  1  0.754585  0.040226  0.000357  1
  Br  Br48  1  0.254585  0.459774  0.999643  1
  Br  Br49  1  0.245415  0.959774  0.000357  1
  Br  Br50  1  0.709728  0.791353  0.838543  1
  Br  Br51  1  0.790272  0.291353  0.161457  1
  Br  Br52  1  0.290272  0.208647  0.838543  1
  Br  Br53  1  0.209728  0.708647  0.161457  1
  Br  Br54  1  0.500000  0.500000  0.491606  1
  Br  Br55  1  0.000000  0.000000  0.508394  1
