# generated using pymatgen
data_NaZr2SnF11
_symmetry_space_group_name_H-M   'P 1'
_cell_length_a   6.03193950
_cell_length_b   6.04904436
_cell_length_c   8.30714407
_cell_angle_alpha   113.74008981
_cell_angle_beta   97.10141630
_cell_angle_gamma   105.28802948
_symmetry_Int_Tables_number   1
_chemical_formula_structural   NaZr2SnF11
_chemical_formula_sum   'Na1 Zr2 Sn1 F11'
_cell_volume   258.41873860
_cell_formula_units_Z   1
loop_
 _symmetry_equiv_pos_site_id
 _symmetry_equiv_pos_as_xyz
  1  'x, y, z'
loop_
 _atom_site_type_symbol
 _atom_site_label
 _atom_site_symmetry_multiplicity
 _atom_site_fract_x
 _atom_site_fract_y
 _atom_site_fract_z
 _atom_site_occupancy
  Na  Na0  1  0.000000  0.000000  0.000000  1
  Zr  Zr1  1  0.495367  0.734655  0.225766  1
  Zr  Zr2  1  0.504633  0.265345  0.774234  1
  Sn  Sn3  1  0.000000  0.500000  0.500000  1
  F  F4  1  0.263131  0.848457  0.114057  1
  F  F5  1  0.343527  0.341069  0.003794  1
  F  F6  1  0.656473  0.658931  0.996206  1
  F  F7  1  0.764594  0.484818  0.704415  1
  F  F8  1  0.779888  0.063018  0.286124  1
  F  F9  1  0.220112  0.936982  0.713876  1
  F  F10  1  0.736869  0.151543  0.885943  1
  F  F11  1  0.235406  0.515182  0.295585  1
  F  F12  1  0.733849  0.618476  0.338412  1
  F  F13  1  0.266151  0.381524  0.661588  1
  F  F14  1  0.500000  0.000000  0.500000  1
