# generated using pymatgen
data_Pr19Nd(Ga5Te)2
_symmetry_space_group_name_H-M   'P 1'
_cell_length_a   8.02342800
_cell_length_b   8.02342800
_cell_length_c   14.58004300
_cell_angle_alpha   90.00000000
_cell_angle_beta   90.00000000
_cell_angle_gamma   90.00000000
_symmetry_Int_Tables_number   1
_chemical_formula_structural   Pr19Nd(Ga5Te)2
_chemical_formula_sum   'Pr19 Nd1 Ga10 Te2'
_cell_volume   938.59605452
_cell_formula_units_Z   1
loop_
 _symmetry_equiv_pos_site_id
 _symmetry_equiv_pos_as_xyz
  1  'x, y, z'
loop_
 _atom_site_type_symbol
 _atom_site_label
 _atom_site_symmetry_multiplicity
 _atom_site_fract_x
 _atom_site_fract_y
 _atom_site_fract_z
 _atom_site_occupancy
  Pr  Pr0  1  0.826213  0.840375  0.606813  1
  Pr  Pr1  1  0.172369  0.840948  0.101009  1
  Pr  Pr2  1  0.159609  0.826205  0.393203  1
  Pr  Pr3  1  0.840391  0.173795  0.393203  1
  Pr  Pr4  1  0.673795  0.659609  0.393203  1
  Pr  Pr5  1  0.659625  0.326213  0.606813  1
  Pr  Pr6  1  0.340375  0.673787  0.606813  1
  Pr  Pr7  1  0.000000  0.500000  0.203845  1
  Pr  Pr8  1  0.659052  0.672369  0.101009  1
  Pr  Pr9  1  0.672402  0.340962  0.898982  1
  Pr  Pr10  1  0.840962  0.827598  0.898982  1
  Pr  Pr11  1  0.326205  0.340391  0.393203  1
  Pr  Pr12  1  0.173787  0.159625  0.606813  1
  Pr  Pr13  1  0.827631  0.159052  0.101009  1
  Pr  Pr14  1  0.327598  0.659038  0.898982  1
  Pr  Pr15  1  0.340948  0.327631  0.101009  1
  Pr  Pr16  1  0.500000  0.000000  0.230150  1
  Pr  Pr17  1  0.159038  0.172402  0.898982  1
  Pr  Pr18  1  0.500000  0.000000  0.796146  1
  Nd  Nd19  1  0.000000  0.500000  0.769810  1
  Ga  Ga20  1  0.624074  0.378055  0.253733  1
  Ga  Ga21  1  0.124038  0.877953  0.746281  1
  Ga  Ga22  1  0.377953  0.375962  0.746281  1
  Ga  Ga23  1  0.375926  0.621945  0.253733  1
  Ga  Ga24  1  0.878055  0.875926  0.253733  1
  Ga  Ga25  1  0.622047  0.624038  0.746281  1
  Ga  Ga26  1  0.875962  0.122047  0.746281  1
  Ga  Ga27  1  0.500000  0.000000  0.007571  1
  Ga  Ga28  1  0.121945  0.124074  0.253733  1
  Ga  Ga29  1  0.000000  0.500000  0.992371  1
  Te  Te30  1  0.000000  0.500000  0.515572  1
  Te  Te31  1  0.500000  0.000000  0.484454  1
