# generated using pymatgen
data_Dy4Sc4Ga3Os
_symmetry_space_group_name_H-M   'P 1'
_cell_length_a   9.59927404
_cell_length_b   9.59892232
_cell_length_c   7.01141600
_cell_angle_alpha   90.00000000
_cell_angle_beta   90.00000000
_cell_angle_gamma   120.01247516
_symmetry_Int_Tables_number   1
_chemical_formula_structural   Dy4Sc4Ga3Os
_chemical_formula_sum   'Dy8 Sc8 Ga6 Os2'
_cell_volume   559.42597367
_cell_formula_units_Z   2
loop_
 _symmetry_equiv_pos_site_id
 _symmetry_equiv_pos_as_xyz
  1  'x, y, z'
loop_
 _atom_site_type_symbol
 _atom_site_label
 _atom_site_symmetry_multiplicity
 _atom_site_fract_x
 _atom_site_fract_y
 _atom_site_fract_z
 _atom_site_occupancy
  Dy  Dy0  1  0.468656  0.531336  0.209636  1
  Dy  Dy1  1  0.062638  0.531294  0.209680  1
  Dy  Dy2  1  0.468695  0.937348  0.209683  1
  Dy  Dy3  1  0.531344  0.468664  0.709636  1
  Dy  Dy4  1  0.937362  0.468706  0.709680  1
  Dy  Dy5  1  0.531305  0.062652  0.709683  1
  Dy  Dy6  1  0.000016  0.000007  0.231123  1
  Dy  Dy7  1  0.999984  0.999993  0.731123  1
  Sc  Sc8  1  0.172299  0.827707  0.512670  1
  Sc  Sc9  1  0.655419  0.827693  0.512679  1
  Sc  Sc10  1  0.172317  0.344587  0.512686  1
  Sc  Sc11  1  0.827701  0.172293  0.012670  1
  Sc  Sc12  1  0.344581  0.172307  0.012679  1
  Sc  Sc13  1  0.827683  0.655413  0.012686  1
  Sc  Sc14  1  0.333361  0.666631  0.835663  1
  Sc  Sc15  1  0.666639  0.333369  0.335663  1
  Ga  Ga16  1  0.164337  0.835660  0.947583  1
  Ga  Ga17  1  0.671381  0.835666  0.947717  1
  Ga  Ga18  1  0.164328  0.328604  0.947717  1
  Ga  Ga19  1  0.835663  0.164340  0.447583  1
  Ga  Ga20  1  0.328619  0.164334  0.447717  1
  Ga  Ga21  1  0.835672  0.671396  0.447717  1
  Os  Os22  1  0.333323  0.666656  0.460583  1
  Os  Os23  1  0.666677  0.333344  0.960583  1
