# generated using pymatgen
data_Ho17Tm3Ir7Au5
_symmetry_space_group_name_H-M   'P 1'
_cell_length_a   11.10883977
_cell_length_b   11.10631210
_cell_length_c   6.33687303
_cell_angle_alpha   89.89148241
_cell_angle_beta   89.90422713
_cell_angle_gamma   89.59054554
_symmetry_Int_Tables_number   1
_chemical_formula_structural   Ho17Tm3Ir7Au5
_chemical_formula_sum   'Ho17 Tm3 Ir7 Au5'
_cell_volume   781.80981075
_cell_formula_units_Z   1
loop_
 _symmetry_equiv_pos_site_id
 _symmetry_equiv_pos_as_xyz
  1  'x, y, z'
loop_
 _atom_site_type_symbol
 _atom_site_label
 _atom_site_symmetry_multiplicity
 _atom_site_fract_x
 _atom_site_fract_y
 _atom_site_fract_z
 _atom_site_occupancy
  Ho  Ho0  1  0.300382  0.090263  0.364538  1
  Ho  Ho1  1  0.301941  0.908103  0.862509  1
  Ho  Ho2  1  0.696931  0.080069  0.860487  1
  Ho  Ho3  1  0.697421  0.906398  0.361300  1
  Ho  Ho4  1  0.580606  0.785445  0.875976  1
  Ho  Ho5  1  0.575247  0.206345  0.363873  1
  Ho  Ho6  1  0.418501  0.789130  0.375765  1
  Ho  Ho7  1  0.411821  0.207737  0.878574  1
  Ho  Ho8  1  0.214582  0.419266  0.623845  1
  Ho  Ho9  1  0.210913  0.581385  0.124395  1
  Ho  Ho10  1  0.793620  0.424835  0.136258  1
  Ho  Ho11  1  0.792234  0.588284  0.621180  1
  Ho  Ho12  1  0.909864  0.699791  0.135381  1
  Ho  Ho13  1  0.919888  0.303176  0.639806  1
  Ho  Ho14  1  0.092009  0.697935  0.637683  1
  Ho  Ho15  1  0.093455  0.302318  0.138658  1
  Ho  Ho16  1  0.998747  0.000237  0.499057  1
  Tm  Tm17  1  0.999760  0.001332  0.000806  1
  Tm  Tm18  1  0.495915  0.502201  0.001856  1
  Tm  Tm19  1  0.497810  0.504086  0.498232  1
  Ir  Ir20  1  0.652129  0.650392  0.250225  1
  Ir  Ir21  1  0.349657  0.347906  0.249668  1
  Ir  Ir22  1  0.346655  0.653297  0.750045  1
  Ir  Ir23  1  0.499508  0.999453  0.111659  1
  Ir  Ir24  1  0.499319  0.999980  0.613665  1
  Ir  Ir25  1  0.000034  0.500732  0.886257  1
  Ir  Ir26  1  0.000521  0.500503  0.388353  1
  Au  Au27  1  0.841955  0.158156  0.248499  1
  Au  Au28  1  0.843905  0.845964  0.751968  1
  Au  Au29  1  0.154121  0.155909  0.750772  1
  Au  Au30  1  0.155651  0.844173  0.248649  1
  Au  Au31  1  0.654898  0.345199  0.750061  1
