# generated using pymatgen
data_Li7Y8CdSn8
_symmetry_space_group_name_H-M   'P 1'
_cell_length_a   9.45232702
_cell_length_b   9.44789197
_cell_length_c   7.32705921
_cell_angle_alpha   90.03644711
_cell_angle_beta   89.99345647
_cell_angle_gamma   120.01588027
_symmetry_Int_Tables_number   1
_chemical_formula_structural   Li7Y8CdSn8
_chemical_formula_sum   'Li7 Y8 Cd1 Sn8'
_cell_volume   566.58408573
_cell_formula_units_Z   1
loop_
 _symmetry_equiv_pos_site_id
 _symmetry_equiv_pos_as_xyz
  1  'x, y, z'
loop_
 _atom_site_type_symbol
 _atom_site_label
 _atom_site_symmetry_multiplicity
 _atom_site_fract_x
 _atom_site_fract_y
 _atom_site_fract_z
 _atom_site_occupancy
  Li  Li0  1  0.164352  0.832228  0.289386  1
  Li  Li1  1  0.667869  0.832198  0.289377  1
  Li  Li2  1  0.833238  0.666406  0.791053  1
  Li  Li3  1  0.831761  0.165869  0.787895  1
  Li  Li4  1  0.334153  0.165943  0.787889  1
  Li  Li5  1  0.333344  0.666685  0.675929  1
  Li  Li6  1  0.668869  0.337749  0.172971  1
  Y  Y7  1  0.511527  0.023051  0.497125  1
  Y  Y8  1  0.516902  0.490228  0.494814  1
  Y  Y9  1  0.973328  0.490231  0.494837  1
  Y  Y10  1  0.488541  0.977080  0.988252  1
  Y  Y11  1  0.488744  0.512174  0.992596  1
  Y  Y12  1  0.023422  0.512182  0.992590  1
  Y  Y13  1  0.996602  0.993255  0.502671  1
  Y  Y14  1  0.000513  0.001027  0.999437  1
  Cd  Cd15  1  0.166548  0.333092  0.296881  1
  Sn  Sn16  1  0.166107  0.332253  0.735148  1
  Sn  Sn17  1  0.166037  0.832352  0.728671  1
  Sn  Sn18  1  0.666233  0.832250  0.728764  1
  Sn  Sn19  1  0.833786  0.667591  0.229926  1
  Sn  Sn20  1  0.822847  0.161973  0.225010  1
  Sn  Sn21  1  0.339149  0.161990  0.224926  1
  Sn  Sn22  1  0.339192  0.678391  0.255732  1
  Sn  Sn23  1  0.666933  0.333805  0.760089  1
