# generated using pymatgen
data_Ce2Pa2Ge6Os7
_symmetry_space_group_name_H-M   'P 1'
_cell_length_a   7.31123273
_cell_length_b   7.28231000
_cell_length_c   7.28231006
_cell_angle_alpha   109.36169551
_cell_angle_beta   109.44565015
_cell_angle_gamma   109.44565894
_symmetry_Int_Tables_number   1
_chemical_formula_structural   Ce2Pa2Ge6Os7
_chemical_formula_sum   'Ce2 Pa2 Ge6 Os7'
_cell_volume   299.06454004
_cell_formula_units_Z   1
loop_
 _symmetry_equiv_pos_site_id
 _symmetry_equiv_pos_as_xyz
  1  'x, y, z'
loop_
 _atom_site_type_symbol
 _atom_site_label
 _atom_site_symmetry_multiplicity
 _atom_site_fract_x
 _atom_site_fract_y
 _atom_site_fract_z
 _atom_site_occupancy
  Ce  Ce0  1  0.000000  0.000000  0.500000  1
  Ce  Ce1  1  0.000000  0.500000  0.000000  1
  Pa  Pa2  1  0.500000  0.000000  0.000000  1
  Pa  Pa3  1  0.500000  0.500000  0.500000  1
  Ge  Ge4  1  0.690072  0.687649  0.002424  1
  Ge  Ge5  1  0.309928  0.997576  0.312351  1
  Ge  Ge6  1  0.000000  0.312646  0.312646  1
  Ge  Ge7  1  0.309928  0.312351  0.997576  1
  Ge  Ge8  1  0.690072  0.002424  0.687649  1
  Ge  Ge9  1  0.000000  0.687354  0.687354  1
  Os  Os10  1  0.744175  0.249667  0.494507  1
  Os  Os11  1  0.744175  0.494507  0.249667  1
  Os  Os12  1  0.500000  0.250000  0.750000  1
  Os  Os13  1  0.255825  0.505493  0.750333  1
  Os  Os14  1  0.255825  0.750333  0.505493  1
  Os  Os15  1  0.500000  0.750000  0.250000  1
  Os  Os16  1  0.000000  0.000000  0.000000  1
