# generated using pymatgen
data_YErB2Cl2O5
_symmetry_space_group_name_H-M   'P 1'
_cell_length_a   5.31844600
_cell_length_b   10.14002100
_cell_length_c   14.96543100
_cell_angle_alpha   90.00000000
_cell_angle_beta   90.00000000
_cell_angle_gamma   90.00000000
_symmetry_Int_Tables_number   1
_chemical_formula_structural   YErB2Cl2O5
_chemical_formula_sum   'Y4 Er4 B8 Cl8 O20'
_cell_volume   807.07303498
_cell_formula_units_Z   4
loop_
 _symmetry_equiv_pos_site_id
 _symmetry_equiv_pos_as_xyz
  1  'x, y, z'
loop_
 _atom_site_type_symbol
 _atom_site_label
 _atom_site_symmetry_multiplicity
 _atom_site_fract_x
 _atom_site_fract_y
 _atom_site_fract_z
 _atom_site_occupancy
  Y  Y0  1  0.500000  0.531204  0.120664  1
  Y  Y1  1  0.500000  0.968796  0.620664  1
  Y  Y2  1  0.500000  0.430464  0.390951  1
  Y  Y3  1  0.500000  0.069536  0.890951  1
  Er  Er4  1  0.500000  0.468993  0.878810  1
  Er  Er5  1  0.500000  0.931182  0.109524  1
  Er  Er6  1  0.500000  0.031007  0.378810  1
  Er  Er7  1  0.500000  0.568818  0.609524  1
  B  B8  1  0.500000  0.303276  0.732356  1
  B  B9  1  0.500000  0.254780  0.065669  1
  B  B10  1  0.500000  0.744378  0.934344  1
  B  B11  1  0.500000  0.196724  0.232356  1
  B  B12  1  0.500000  0.755622  0.434344  1
  B  B13  1  0.500000  0.245220  0.565669  1
  B  B14  1  0.500000  0.699209  0.267283  1
  B  B15  1  0.500000  0.800791  0.767283  1
  Cl  Cl16  1  0.000000  0.412732  0.389504  1
  Cl  Cl17  1  0.000000  0.007949  0.369087  1
  Cl  Cl18  1  0.000000  0.913367  0.110276  1
  Cl  Cl19  1  0.000000  0.507078  0.131354  1
  Cl  Cl20  1  0.000000  0.492051  0.869087  1
  Cl  Cl21  1  0.000000  0.586633  0.610276  1
  Cl  Cl22  1  0.000000  0.087268  0.889504  1
  Cl  Cl23  1  0.000000  0.992922  0.631354  1
  O  O24  1  0.500000  0.867338  0.485998  1
  O  O25  1  0.500000  0.241892  0.318431  1
  O  O26  1  0.500000  0.787165  0.340646  1
  O  O27  1  0.500000  0.564722  0.275559  1
  O  O28  1  0.500000  0.935278  0.775559  1
  O  O29  1  0.500000  0.062108  0.224202  1
  O  O30  1  0.500000  0.712835  0.840646  1
  O  O31  1  0.500000  0.135347  0.512034  1
  O  O32  1  0.500000  0.745954  0.181599  1
  O  O33  1  0.500000  0.213836  0.659467  1
  O  O34  1  0.500000  0.258108  0.818431  1
  O  O35  1  0.500000  0.629890  0.464924  1
  O  O36  1  0.500000  0.754046  0.681599  1
  O  O37  1  0.500000  0.372079  0.537318  1
  O  O38  1  0.500000  0.286164  0.159467  1
  O  O39  1  0.500000  0.127921  0.037318  1
  O  O40  1  0.500000  0.632662  0.985998  1
  O  O41  1  0.500000  0.364653  0.012034  1
  O  O42  1  0.500000  0.870110  0.964924  1
  O  O43  1  0.500000  0.437892  0.724202  1
