# generated using pymatgen
data_Y2Lu8(GaSb)3
_symmetry_space_group_name_H-M   'P 1'
_cell_length_a   8.62712800
_cell_length_b   8.62679767
_cell_length_c   6.33037600
_cell_angle_alpha   90.00000000
_cell_angle_beta   90.00000000
_cell_angle_gamma   120.00127433
_symmetry_Int_Tables_number   1
_chemical_formula_structural   Y2Lu8(GaSb)3
_chemical_formula_sum   'Y2 Lu8 Ga3 Sb3'
_cell_volume   408.00963144
_cell_formula_units_Z   1
loop_
 _symmetry_equiv_pos_site_id
 _symmetry_equiv_pos_as_xyz
  1  'x, y, z'
loop_
 _atom_site_type_symbol
 _atom_site_label
 _atom_site_symmetry_multiplicity
 _atom_site_fract_x
 _atom_site_fract_y
 _atom_site_fract_z
 _atom_site_occupancy
  Y  Y0  1  0.013285  0.246611  0.250000  1
  Y  Y1  1  0.766673  0.753389  0.250000  1
  Lu  Lu2  1  0.326219  0.667448  0.002945  1
  Lu  Lu3  1  0.658772  0.332552  0.497055  1
  Lu  Lu4  1  0.658772  0.332552  0.002945  1
  Lu  Lu5  1  0.326219  0.667448  0.497055  1
  Lu  Lu6  1  0.236608  0.000000  0.250000  1
  Lu  Lu7  1  0.241571  0.228501  0.750000  1
  Lu  Lu8  1  0.013070  0.771499  0.750000  1
  Lu  Lu9  1  0.753584  0.000000  0.750000  1
  Ga  Ga10  1  0.000201  0.602023  0.250000  1
  Ga  Ga11  1  0.398179  0.397977  0.250000  1
  Ga  Ga12  1  0.397798  0.000000  0.750000  1
  Sb  Sb13  1  0.607606  0.000000  0.250000  1
  Sb  Sb14  1  0.604559  0.607673  0.750000  1
  Sb  Sb15  1  0.996886  0.392327  0.750000  1
