# generated using pymatgen
data_CaYb9SnSb5
_symmetry_space_group_name_H-M   'P 1'
_cell_length_a   9.11910104
_cell_length_b   9.14055728
_cell_length_c   6.89811000
_cell_angle_alpha   90.00000000
_cell_angle_beta   90.00000000
_cell_angle_gamma   119.97700626
_symmetry_Int_Tables_number   1
_chemical_formula_structural   CaYb9SnSb5
_chemical_formula_sum   'Ca1 Yb9 Sn1 Sb5'
_cell_volume   498.06500541
_cell_formula_units_Z   1
loop_
 _symmetry_equiv_pos_site_id
 _symmetry_equiv_pos_as_xyz
  1  'x, y, z'
loop_
 _atom_site_type_symbol
 _atom_site_label
 _atom_site_symmetry_multiplicity
 _atom_site_fract_x
 _atom_site_fract_y
 _atom_site_fract_z
 _atom_site_occupancy
  Ca  Ca0  1  0.000254  0.262192  0.250000  1
  Yb  Yb1  1  0.003996  0.736426  0.750000  1
  Yb  Yb2  1  0.737333  0.736987  0.250000  1
  Yb  Yb3  1  0.732296  0.999891  0.750000  1
  Yb  Yb4  1  0.267682  0.263567  0.750000  1
  Yb  Yb5  1  0.261061  0.999992  0.250000  1
  Yb  Yb6  1  0.333217  0.669120  0.501477  1
  Yb  Yb7  1  0.663921  0.330929  0.998529  1
  Yb  Yb8  1  0.663921  0.330929  0.501471  1
  Yb  Yb9  1  0.333217  0.669120  0.998523  1
  Sn  Sn10  1  0.383582  0.000059  0.750000  1
  Sb  Sb11  1  0.385041  0.387400  0.250000  1
  Sb  Sb12  1  0.997748  0.613002  0.250000  1
  Sb  Sb13  1  0.000967  0.381151  0.750000  1
  Sb  Sb14  1  0.620000  0.619128  0.750000  1
  Sb  Sb15  1  0.615764  0.000106  0.250000  1
