# generated using pymatgen
data_Gd2Fe3Co
_symmetry_space_group_name_H-M   'P 1'
_cell_length_a   5.16442144
_cell_length_b   5.16435751
_cell_length_c   5.16442200
_cell_angle_alpha   59.99958693
_cell_angle_beta   59.99999641
_cell_angle_gamma   59.99958812
_symmetry_Int_Tables_number   1
_chemical_formula_structural   Gd2Fe3Co
_chemical_formula_sum   'Gd2 Fe3 Co1'
_cell_volume   97.39619264
_cell_formula_units_Z   1
loop_
 _symmetry_equiv_pos_site_id
 _symmetry_equiv_pos_as_xyz
  1  'x, y, z'
loop_
 _atom_site_type_symbol
 _atom_site_label
 _atom_site_symmetry_multiplicity
 _atom_site_fract_x
 _atom_site_fract_y
 _atom_site_fract_z
 _atom_site_occupancy
  Gd  Gd0  1  0.250065  0.249806  0.250065  1
  Gd  Gd1  1  0.999935  0.000194  0.999935  1
  Fe  Fe2  1  0.625000  0.625000  0.125000  1
  Fe  Fe3  1  0.125000  0.625000  0.625000  1
  Fe  Fe4  1  0.625000  0.625000  0.625000  1
  Co  Co5  1  0.625000  0.125000  0.625000  1
