# generated using pymatgen
data_Hf2Sc4GeAs5Ru6
_symmetry_space_group_name_H-M   'P 1'
_cell_length_a   7.69534168
_cell_length_b   7.69550970
_cell_length_c   7.69534262
_cell_angle_alpha   128.14520358
_cell_angle_beta   121.04306380
_cell_angle_gamma   82.33682539
_symmetry_Int_Tables_number   1
_chemical_formula_structural   Hf2Sc4GeAs5Ru6
_chemical_formula_sum   'Hf2 Sc4 Ge1 As5 Ru6'
_cell_volume   295.24475567
_cell_formula_units_Z   1
loop_
 _symmetry_equiv_pos_site_id
 _symmetry_equiv_pos_as_xyz
  1  'x, y, z'
loop_
 _atom_site_type_symbol
 _atom_site_label
 _atom_site_symmetry_multiplicity
 _atom_site_fract_x
 _atom_site_fract_y
 _atom_site_fract_z
 _atom_site_occupancy
  Hf  Hf0  1  0.052855  0.254913  0.702058  1
  Hf  Hf1  1  0.948997  0.652621  0.203624  1
  Sc  Sc2  1  0.470458  0.698941  0.728483  1
  Sc  Sc3  1  0.528854  0.257944  0.229090  1
  Sc  Sc4  1  0.749608  0.834424  0.584816  1
  Sc  Sc5  1  0.249897  0.834800  0.084903  1
  Ge  Ge6  1  0.278108  0.271452  0.493344  1
  As  As7  1  0.722870  0.216674  0.993802  1
  As  As8  1  0.331453  0.588115  0.251795  1
  As  As9  1  0.668091  0.920387  0.257366  1
  As  As10  1  0.163021  0.920387  0.752295  1
  As  As11  1  0.836320  0.588115  0.756662  1
  Ru  Ru12  1  0.500910  0.495527  0.996875  1
  Ru  Ru13  1  0.998652  0.495527  0.494617  1
  Ru  Ru14  1  0.091278  0.255506  0.100455  1
  Ru  Ru15  1  0.905727  0.009381  0.161532  1
  Ru  Ru16  1  0.347849  0.009381  0.603654  1
  Ru  Ru17  1  0.655051  0.255506  0.664228  1
