# generated using pymatgen
data_Tb14Dy2MgIn3Rh4
_symmetry_space_group_name_H-M   'P 1'
_cell_length_a   9.72739722
_cell_length_b   9.72411446
_cell_length_c   9.72775050
_cell_angle_alpha   60.04452826
_cell_angle_beta   60.03003567
_cell_angle_gamma   59.96876410
_symmetry_Int_Tables_number   1
_chemical_formula_structural   Tb14Dy2MgIn3Rh4
_chemical_formula_sum   'Tb14 Dy2 Mg1 In3 Rh4'
_cell_volume   650.85745611
_cell_formula_units_Z   1
loop_
 _symmetry_equiv_pos_site_id
 _symmetry_equiv_pos_as_xyz
  1  'x, y, z'
loop_
 _atom_site_type_symbol
 _atom_site_label
 _atom_site_symmetry_multiplicity
 _atom_site_fract_x
 _atom_site_fract_y
 _atom_site_fract_z
 _atom_site_occupancy
  Tb  Tb0  1  0.688970  0.311589  0.312418  1
  Tb  Tb1  1  0.687680  0.687528  0.315247  1
  Tb  Tb2  1  0.311313  0.688920  0.312852  1
  Tb  Tb3  1  0.935540  0.935898  0.562917  1
  Tb  Tb4  1  0.149301  0.148563  0.550041  1
  Tb  Tb5  1  0.563534  0.937111  0.561972  1
  Tb  Tb6  1  0.153855  0.153022  0.151445  1
  Tb  Tb7  1  0.309237  0.309712  0.691757  1
  Tb  Tb8  1  0.937763  0.562144  0.561611  1
  Tb  Tb9  1  0.562721  0.562254  0.936760  1
  Tb  Tb10  1  0.564084  0.937656  0.934263  1
  Tb  Tb11  1  0.937490  0.563361  0.935407  1
  Tb  Tb12  1  0.150542  0.546675  0.149337  1
  Tb  Tb13  1  0.310499  0.690346  0.691634  1
  Dy  Dy14  1  0.690464  0.310840  0.691270  1
  Dy  Dy15  1  0.545125  0.150655  0.149882  1
  Mg  Mg16  1  0.923016  0.924286  0.230541  1
  In  In17  1  0.247226  0.917236  0.919155  1
  In  In18  1  0.916475  0.246651  0.919946  1
  In  In19  1  0.916371  0.917558  0.918519  1
  Rh  Rh20  1  0.357013  0.356963  0.359098  1
  Rh  Rh21  1  0.925922  0.357229  0.359433  1
  Rh  Rh22  1  0.358468  0.357957  0.925426  1
  Rh  Rh23  1  0.357391  0.925847  0.359070  1
