# generated using pymatgen
data_Pr2Nd3Os2
_symmetry_space_group_name_H-M   'P 1'
_cell_length_a   8.83992529
_cell_length_b   8.83992486
_cell_length_c   7.50135026
_cell_angle_alpha   83.48737995
_cell_angle_beta   83.48737895
_cell_angle_gamma   44.35380156
_symmetry_Int_Tables_number   1
_chemical_formula_structural   Pr2Nd3Os2
_chemical_formula_sum   'Pr4 Nd6 Os4'
_cell_volume   406.71061568
_cell_formula_units_Z   2
loop_
 _symmetry_equiv_pos_site_id
 _symmetry_equiv_pos_as_xyz
  1  'x, y, z'
loop_
 _atom_site_type_symbol
 _atom_site_label
 _atom_site_symmetry_multiplicity
 _atom_site_fract_x
 _atom_site_fract_y
 _atom_site_fract_z
 _atom_site_occupancy
  Pr  Pr0  1  0.021306  0.794822  0.915220  1
  Pr  Pr1  1  0.205178  0.978694  0.584780  1
  Pr  Pr2  1  0.978694  0.205178  0.084780  1
  Pr  Pr3  1  0.794822  0.021306  0.415220  1
  Nd  Nd4  1  0.359177  0.206633  0.815289  1
  Nd  Nd5  1  0.793367  0.640823  0.684711  1
  Nd  Nd6  1  0.640823  0.793367  0.184711  1
  Nd  Nd7  1  0.206633  0.359177  0.315289  1
  Nd  Nd8  1  0.573442  0.426558  0.750000  1
  Nd  Nd9  1  0.426558  0.573442  0.250000  1
  Os  Os10  1  0.176602  0.602613  0.574377  1
  Os  Os11  1  0.397387  0.823398  0.925623  1
  Os  Os12  1  0.823398  0.397387  0.425623  1
  Os  Os13  1  0.602613  0.176602  0.074377  1
