# generated using pymatgen
data_Zr5(GaSb)2
_symmetry_space_group_name_H-M   'P 1'
_cell_length_a   8.60600763
_cell_length_b   8.62450438
_cell_length_c   5.84149100
_cell_angle_alpha   90.00000000
_cell_angle_beta   90.00000000
_cell_angle_gamma   120.07112222
_symmetry_Int_Tables_number   1
_chemical_formula_structural   Zr5(GaSb)2
_chemical_formula_sum   'Zr10 Ga4 Sb4'
_cell_volume   375.21355851
_cell_formula_units_Z   2
loop_
 _symmetry_equiv_pos_site_id
 _symmetry_equiv_pos_as_xyz
  1  'x, y, z'
loop_
 _atom_site_type_symbol
 _atom_site_label
 _atom_site_symmetry_multiplicity
 _atom_site_fract_x
 _atom_site_fract_y
 _atom_site_fract_z
 _atom_site_occupancy
  Zr  Zr0  1  0.283159  0.271363  0.750000  1
  Zr  Zr1  1  0.735789  0.737363  0.250000  1
  Zr  Zr2  1  0.716841  0.988205  0.750000  1
  Zr  Zr3  1  0.000000  0.265773  0.250000  1
  Zr  Zr4  1  0.336628  0.669277  0.505210  1
  Zr  Zr5  1  0.663372  0.332649  0.505210  1
  Zr  Zr6  1  0.000000  0.730097  0.750000  1
  Zr  Zr7  1  0.336628  0.669277  0.994790  1
  Zr  Zr8  1  0.264211  0.001574  0.250000  1
  Zr  Zr9  1  0.663372  0.332649  0.994790  1
  Ga  Ga10  1  0.000000  0.001619  0.513403  1
  Ga  Ga11  1  0.616303  0.613770  0.750000  1
  Ga  Ga12  1  0.383697  0.997467  0.750000  1
  Ga  Ga13  1  0.000000  0.001619  0.986597  1
  Sb  Sb14  1  0.606590  0.000254  0.250000  1
  Sb  Sb15  1  0.393410  0.393664  0.250000  1
  Sb  Sb16  1  0.000000  0.382291  0.750000  1
  Sb  Sb17  1  0.000000  0.611089  0.250000  1
