# generated using pymatgen
data_MgNb9Se16
_symmetry_space_group_name_H-M   'P 1'
_cell_length_a   7.00423300
_cell_length_b   7.00423400
_cell_length_c   13.46964000
_cell_angle_alpha   90.00000000
_cell_angle_beta   90.00000000
_cell_angle_gamma   120.00000945
_symmetry_Int_Tables_number   1
_chemical_formula_structural   MgNb9Se16
_chemical_formula_sum   'Mg1 Nb9 Se16'
_cell_volume   572.27900098
_cell_formula_units_Z   1
loop_
 _symmetry_equiv_pos_site_id
 _symmetry_equiv_pos_as_xyz
  1  'x, y, z'
loop_
 _atom_site_type_symbol
 _atom_site_label
 _atom_site_symmetry_multiplicity
 _atom_site_fract_x
 _atom_site_fract_y
 _atom_site_fract_z
 _atom_site_occupancy
  Mg  Mg0  1  0.000000  0.000000  0.000000  1
  Nb  Nb1  1  0.000000  0.000000  0.253787  1
  Nb  Nb2  1  0.000000  0.000000  0.746213  1
  Nb  Nb3  1  0.505621  0.011242  0.252776  1
  Nb  Nb4  1  0.494379  0.988758  0.747224  1
  Nb  Nb5  1  0.988758  0.494379  0.252776  1
  Nb  Nb6  1  0.011242  0.505621  0.747224  1
  Nb  Nb7  1  0.505621  0.494379  0.252776  1
  Nb  Nb8  1  0.494379  0.505621  0.747224  1
  Nb  Nb9  1  0.000000  0.000000  0.500000  1
  Se  Se10  1  0.333333  0.666667  0.620185  1
  Se  Se11  1  0.666667  0.333333  0.379815  1
  Se  Se12  1  0.666667  0.333333  0.125786  1
  Se  Se13  1  0.333333  0.666667  0.874214  1
  Se  Se14  1  0.168308  0.336616  0.129276  1
  Se  Se15  1  0.831692  0.663384  0.870724  1
  Se  Se16  1  0.663384  0.831692  0.129276  1
  Se  Se17  1  0.831652  0.663304  0.622689  1
  Se  Se18  1  0.336616  0.168308  0.870724  1
  Se  Se19  1  0.168348  0.336696  0.377311  1
  Se  Se20  1  0.168308  0.831692  0.129276  1
  Se  Se21  1  0.336696  0.168348  0.622689  1
  Se  Se22  1  0.831692  0.168308  0.870724  1
  Se  Se23  1  0.663304  0.831652  0.377311  1
  Se  Se24  1  0.831652  0.168348  0.622689  1
  Se  Se25  1  0.168348  0.831652  0.377311  1
