# generated using pymatgen
data_Cs2(NbBr3)3
_symmetry_space_group_name_H-M   'P 1'
_cell_length_a   10.92134935
_cell_length_b   10.92143321
_cell_length_c   10.78649102
_cell_angle_alpha   76.43442090
_cell_angle_beta   76.43337660
_cell_angle_gamma   116.18045748
_symmetry_Int_Tables_number   1
_chemical_formula_structural   Cs2(NbBr3)3
_chemical_formula_sum   'Cs4 Nb6 Br18'
_cell_volume   1034.67452258
_cell_formula_units_Z   2
loop_
 _symmetry_equiv_pos_site_id
 _symmetry_equiv_pos_as_xyz
  1  'x, y, z'
loop_
 _atom_site_type_symbol
 _atom_site_label
 _atom_site_symmetry_multiplicity
 _atom_site_fract_x
 _atom_site_fract_y
 _atom_site_fract_z
 _atom_site_occupancy
  Cs  Cs0  1  0.735172  0.051721  0.322160  1
  Cs  Cs1  1  0.264828  0.948279  0.677840  1
  Cs  Cs2  1  0.948279  0.264828  0.677840  1
  Cs  Cs3  1  0.051721  0.735172  0.322160  1
  Nb  Nb4  1  0.604933  0.604932  0.118822  1
  Nb  Nb5  1  0.395067  0.395068  0.881178  1
  Nb  Nb6  1  0.456825  0.296021  0.130101  1
  Nb  Nb7  1  0.543175  0.703979  0.869899  1
  Nb  Nb8  1  0.703980  0.543175  0.869898  1
  Nb  Nb9  1  0.296020  0.456825  0.130102  1
  Br  Br10  1  0.697096  0.302903  0.000000  1
  Br  Br11  1  0.302904  0.697097  0.000000  1
  Br  Br12  1  0.397602  0.017557  0.307292  1
  Br  Br13  1  0.602398  0.982443  0.692708  1
  Br  Br14  1  0.982443  0.602398  0.692707  1
  Br  Br15  1  0.017557  0.397602  0.307293  1
  Br  Br16  1  0.320853  0.122222  0.013448  1
  Br  Br17  1  0.679147  0.877778  0.986552  1
  Br  Br18  1  0.877779  0.679148  0.986552  1
  Br  Br19  1  0.122221  0.320852  0.013448  1
  Br  Br20  1  0.745776  0.745776  0.276976  1
  Br  Br21  1  0.254224  0.254224  0.723024  1
  Br  Br22  1  0.804052  0.804052  0.681425  1
  Br  Br23  1  0.195948  0.195948  0.318575  1
  Br  Br24  1  0.575233  0.378272  0.302760  1
  Br  Br25  1  0.424767  0.621728  0.697240  1
  Br  Br26  1  0.621728  0.424767  0.697239  1
  Br  Br27  1  0.378272  0.575233  0.302761  1
