# generated using pymatgen
data_Hf2Sc2Co20Si5P7
_symmetry_space_group_name_H-M   'P 1'
_cell_length_a   3.59670100
_cell_length_b   10.20828700
_cell_length_c   11.62832800
_cell_angle_alpha   90.00032331
_cell_angle_beta   90.00000000
_cell_angle_gamma   90.00000000
_symmetry_Int_Tables_number   1
_chemical_formula_structural   Hf2Sc2Co20Si5P7
_chemical_formula_sum   'Hf2 Sc2 Co20 Si5 P7'
_cell_volume   426.94750558
_cell_formula_units_Z   1
loop_
 _symmetry_equiv_pos_site_id
 _symmetry_equiv_pos_as_xyz
  1  'x, y, z'
loop_
 _atom_site_type_symbol
 _atom_site_label
 _atom_site_symmetry_multiplicity
 _atom_site_fract_x
 _atom_site_fract_y
 _atom_site_fract_z
 _atom_site_occupancy
  Hf  Hf0  1  0.250000  0.580977  0.703181  1
  Hf  Hf1  1  0.250000  0.920757  0.201448  1
  Sc  Sc2  1  0.750000  0.416638  0.298245  1
  Sc  Sc3  1  0.750000  0.084202  0.797144  1
  Co  Co4  1  0.250000  0.720023  0.989486  1
  Co  Co5  1  0.250000  0.781460  0.489521  1
  Co  Co6  1  0.750000  0.278730  0.006175  1
  Co  Co7  1  0.750000  0.217640  0.500206  1
  Co  Co8  1  0.250000  0.408236  0.483360  1
  Co  Co9  1  0.250000  0.091920  0.985700  1
  Co  Co10  1  0.750000  0.591894  0.510326  1
  Co  Co11  1  0.750000  0.912530  0.012642  1
  Co  Co12  1  0.250000  0.219316  0.176863  1
  Co  Co13  1  0.250000  0.278304  0.676776  1
  Co  Co14  1  0.750000  0.786788  0.825081  1
  Co  Co15  1  0.750000  0.714385  0.323653  1
  Co  Co16  1  0.250000  0.886057  0.700761  1
  Co  Co17  1  0.250000  0.614537  0.200816  1
  Co  Co18  1  0.750000  0.114565  0.298149  1
  Co  Co19  1  0.750000  0.382124  0.803442  1
  Co  Co20  1  0.250000  0.462528  0.934251  1
  Co  Co21  1  0.250000  0.036684  0.431766  1
  Co  Co22  1  0.750000  0.524311  0.074591  1
  Co  Co23  1  0.750000  0.975383  0.573299  1
  Si  Si24  1  0.750000  0.586244  0.890658  1
  Si  Si25  1  0.750000  0.913148  0.389835  1
  Si  Si26  1  0.750000  0.731916  0.127239  1
  Si  Si27  1  0.750000  0.768663  0.628180  1
  Si  Si28  1  0.750000  0.400413  0.610126  1
  P  P29  1  0.250000  0.417227  0.117314  1
  P  P30  1  0.250000  0.082384  0.615463  1
  P  P31  1  0.250000  0.265962  0.868339  1
  P  P32  1  0.250000  0.233727  0.368197  1
  P  P33  1  0.250000  0.597797  0.388821  1
  P  P34  1  0.250000  0.903104  0.888892  1
  P  P35  1  0.750000  0.099427  0.110057  1
