# generated using pymatgen
data_Pr16Dy(TmGa4)3
_symmetry_space_group_name_H-M   'P 1'
_cell_length_a   7.84466800
_cell_length_b   7.84466800
_cell_length_c   14.72622200
_cell_angle_alpha   90.00000000
_cell_angle_beta   90.00000000
_cell_angle_gamma   90.00000000
_symmetry_Int_Tables_number   1
_chemical_formula_structural   Pr16Dy(TmGa4)3
_chemical_formula_sum   'Pr16 Dy1 Tm3 Ga12'
_cell_volume   906.23426648
_cell_formula_units_Z   1
loop_
 _symmetry_equiv_pos_site_id
 _symmetry_equiv_pos_as_xyz
  1  'x, y, z'
loop_
 _atom_site_type_symbol
 _atom_site_label
 _atom_site_symmetry_multiplicity
 _atom_site_fract_x
 _atom_site_fract_y
 _atom_site_fract_z
 _atom_site_occupancy
  Pr  Pr0  1  0.815542  0.839660  0.603735  1
  Pr  Pr1  1  0.184340  0.839449  0.103769  1
  Pr  Pr2  1  0.160521  0.815667  0.396243  1
  Pr  Pr3  1  0.839479  0.184333  0.396243  1
  Pr  Pr4  1  0.684333  0.660521  0.396243  1
  Pr  Pr5  1  0.660340  0.315542  0.603735  1
  Pr  Pr6  1  0.339660  0.684458  0.603735  1
  Pr  Pr7  1  0.660551  0.684340  0.103769  1
  Pr  Pr8  1  0.684310  0.339423  0.896276  1
  Pr  Pr9  1  0.839423  0.815690  0.896276  1
  Pr  Pr10  1  0.315667  0.339479  0.396243  1
  Pr  Pr11  1  0.184458  0.160340  0.603735  1
  Pr  Pr12  1  0.815660  0.160551  0.103769  1
  Pr  Pr13  1  0.315690  0.660577  0.896276  1
  Pr  Pr14  1  0.339449  0.315660  0.103769  1
  Pr  Pr15  1  0.160577  0.184310  0.896276  1
  Dy  Dy16  1  0.000000  0.500000  0.722612  1
  Tm  Tm17  1  0.000000  0.500000  0.222932  1
  Tm  Tm18  1  0.500000  0.000000  0.277048  1
  Tm  Tm19  1  0.500000  0.000000  0.777084  1
  Ga  Ga20  1  0.621755  0.378245  0.250008  1
  Ga  Ga21  1  0.121868  0.878608  0.750088  1
  Ga  Ga22  1  0.378608  0.378132  0.750088  1
  Ga  Ga23  1  0.378245  0.621755  0.250008  1
  Ga  Ga24  1  0.878245  0.878245  0.250008  1
  Ga  Ga25  1  0.621392  0.621868  0.750088  1
  Ga  Ga26  1  0.000000  0.500000  0.512082  1
  Ga  Ga27  1  0.878132  0.121392  0.750088  1
  Ga  Ga28  1  0.500000  0.000000  0.487632  1
  Ga  Ga29  1  0.500000  0.000000  0.987651  1
  Ga  Ga30  1  0.121755  0.121755  0.250008  1
  Ga  Ga31  1  0.000000  0.500000  0.012483  1
