# generated using pymatgen
data_Dy4Cr3ReB16
_symmetry_space_group_name_H-M   'P 1'
_cell_length_a   5.95108256
_cell_length_b   11.49799702
_cell_length_c   3.49831900
_cell_angle_alpha   90.00000000
_cell_angle_beta   90.00000000
_cell_angle_gamma   89.91693613
_symmetry_Int_Tables_number   1
_chemical_formula_structural   Dy4Cr3ReB16
_chemical_formula_sum   'Dy4 Cr3 Re1 B16'
_cell_volume   239.37407868
_cell_formula_units_Z   1
loop_
 _symmetry_equiv_pos_site_id
 _symmetry_equiv_pos_as_xyz
  1  'x, y, z'
loop_
 _atom_site_type_symbol
 _atom_site_label
 _atom_site_symmetry_multiplicity
 _atom_site_fract_x
 _atom_site_fract_y
 _atom_site_fract_z
 _atom_site_occupancy
  Dy  Dy0  1  0.624038  0.351719  0.000000  1
  Dy  Dy1  1  0.375555  0.650068  0.000000  1
  Dy  Dy2  1  0.125933  0.151984  0.000000  1
  Dy  Dy3  1  0.875626  0.847493  0.000000  1
  Cr  Cr4  1  0.372247  0.917001  0.000000  1
  Cr  Cr5  1  0.123595  0.419260  0.000000  1
  Cr  Cr6  1  0.876243  0.580686  0.000000  1
  Re  Re7  1  0.627116  0.083018  0.000000  1
  B  B8  1  0.784251  0.186284  0.500000  1
  B  B9  1  0.218224  0.815028  0.500000  1
  B  B10  1  0.281468  0.316847  0.500000  1
  B  B11  1  0.718275  0.683523  0.500000  1
  B  B12  1  0.865004  0.031313  0.500000  1
  B  B13  1  0.137127  0.966815  0.500000  1
  B  B14  1  0.362451  0.467751  0.500000  1
  B  B15  1  0.637559  0.532722  0.500000  1
  B  B16  1  0.886683  0.453529  0.500000  1
  B  B17  1  0.113673  0.546831  0.500000  1
  B  B18  1  0.384070  0.045897  0.500000  1
  B  B19  1  0.612640  0.951374  0.500000  1
  B  B20  1  0.976312  0.309303  0.500000  1
  B  B21  1  0.024371  0.691130  0.500000  1
  B  B22  1  0.473253  0.192961  0.500000  1
  B  B23  1  0.524288  0.807461  0.500000  1
