# generated using pymatgen
data_Nb4V4Ge3As
_symmetry_space_group_name_H-M   'P 1'
_cell_length_a   3.49333400
_cell_length_b   6.64708565
_cell_length_c   8.04700446
_cell_angle_alpha   89.82033556
_cell_angle_beta   90.00000000
_cell_angle_gamma   90.00000000
_symmetry_Int_Tables_number   1
_chemical_formula_structural   Nb4V4Ge3As
_chemical_formula_sum   'Nb4 V4 Ge3 As1'
_cell_volume   186.85447028
_cell_formula_units_Z   1
loop_
 _symmetry_equiv_pos_site_id
 _symmetry_equiv_pos_as_xyz
  1  'x, y, z'
loop_
 _atom_site_type_symbol
 _atom_site_label
 _atom_site_symmetry_multiplicity
 _atom_site_fract_x
 _atom_site_fract_y
 _atom_site_fract_z
 _atom_site_occupancy
  Nb  Nb0  1  0.250000  0.045254  0.831801  1
  Nb  Nb1  1  0.250000  0.546457  0.669113  1
  Nb  Nb2  1  0.750000  0.955082  0.168923  1
  Nb  Nb3  1  0.750000  0.452753  0.331835  1
  V  V4  1  0.250000  0.127646  0.440640  1
  V  V5  1  0.250000  0.629992  0.058375  1
  V  V6  1  0.750000  0.870848  0.560014  1
  V  V7  1  0.750000  0.373001  0.939898  1
  Ge  Ge8  1  0.250000  0.750890  0.361150  1
  Ge  Ge9  1  0.250000  0.253009  0.137987  1
  Ge  Ge10  1  0.750000  0.247385  0.638322  1
  As  As11  1  0.750000  0.747682  0.861942  1
