# generated using pymatgen
data_Nb12Al5Pd(PtN2)2
_symmetry_space_group_name_H-M   'P 1'
_cell_length_a   7.07453452
_cell_length_b   7.07283399
_cell_length_c   7.07113402
_cell_angle_alpha   90.27074198
_cell_angle_beta   90.27107977
_cell_angle_gamma   90.26871891
_symmetry_Int_Tables_number   1
_chemical_formula_structural   Nb12Al5Pd(PtN2)2
_chemical_formula_sum   'Nb12 Al5 Pd1 Pt2 N4'
_cell_volume   353.80655215
_cell_formula_units_Z   1
loop_
 _symmetry_equiv_pos_site_id
 _symmetry_equiv_pos_as_xyz
  1  'x, y, z'
loop_
 _atom_site_type_symbol
 _atom_site_label
 _atom_site_symmetry_multiplicity
 _atom_site_fract_x
 _atom_site_fract_y
 _atom_site_fract_z
 _atom_site_occupancy
  Nb  Nb0  1  0.787376  0.956580  0.381112  1
  Nb  Nb1  1  0.709757  0.042858  0.872248  1
  Nb  Nb2  1  0.210145  0.454650  0.124107  1
  Nb  Nb3  1  0.291065  0.543094  0.623569  1
  Nb  Nb4  1  0.956641  0.380351  0.788224  1
  Nb  Nb5  1  0.042828  0.872513  0.710282  1
  Nb  Nb6  1  0.456161  0.125015  0.209862  1
  Nb  Nb7  1  0.544614  0.623149  0.290981  1
  Nb  Nb8  1  0.380799  0.787900  0.955907  1
  Nb  Nb9  1  0.871619  0.709537  0.041760  1
  Nb  Nb10  1  0.124287  0.210582  0.455709  1
  Nb  Nb11  1  0.623661  0.291123  0.543998  1
  Al  Al12  1  0.677012  0.677292  0.677038  1
  Al  Al13  1  0.570742  0.421277  0.933095  1
  Al  Al14  1  0.420786  0.933222  0.570416  1
  Al  Al15  1  0.933533  0.571404  0.421258  1
  Al  Al16  1  0.072746  0.072453  0.073359  1
  Pd  Pd17  1  0.177657  0.822875  0.318183  1
  Pt  Pt18  1  0.318191  0.177776  0.823216  1
  Pt  Pt19  1  0.822708  0.318339  0.177372  1
  N  N20  1  0.879579  0.127005  0.625824  1
  N  N21  1  0.625405  0.879562  0.126825  1
  N  N22  1  0.126960  0.625710  0.880094  1
  N  N23  1  0.375724  0.375731  0.375560  1
