# generated using pymatgen
data_Lu6Ta2Ti2Al12Os7
_symmetry_space_group_name_H-M   'P 1'
_cell_length_a   8.96525125
_cell_length_b   8.95865764
_cell_length_c   8.95865613
_cell_angle_alpha   59.94316266
_cell_angle_beta   59.97535722
_cell_angle_gamma   59.97535268
_symmetry_Int_Tables_number   1
_chemical_formula_structural   Lu6Ta2Ti2Al12Os7
_chemical_formula_sum   'Lu6 Ta2 Ti2 Al12 Os7'
_cell_volume   508.37552788
_cell_formula_units_Z   1
loop_
 _symmetry_equiv_pos_site_id
 _symmetry_equiv_pos_as_xyz
  1  'x, y, z'
loop_
 _atom_site_type_symbol
 _atom_site_label
 _atom_site_symmetry_multiplicity
 _atom_site_fract_x
 _atom_site_fract_y
 _atom_site_fract_z
 _atom_site_occupancy
  Lu  Lu0  1  0.708749  0.708871  0.294127  1
  Lu  Lu1  1  0.288252  0.708864  0.294126  1
  Lu  Lu2  1  0.710451  0.289555  0.289555  1
  Lu  Lu3  1  0.288252  0.294126  0.708864  1
  Lu  Lu4  1  0.708749  0.294127  0.708871  1
  Lu  Lu5  1  0.292947  0.707049  0.707049  1
  Ta  Ta6  1  0.361292  0.880067  0.880067  1
  Ta  Ta7  1  0.878572  0.880067  0.880067  1
  Ti  Ti8  1  0.879989  0.881329  0.358691  1
  Ti  Ti9  1  0.879989  0.358691  0.881329  1
  Al  Al10  1  0.119499  0.121272  0.639725  1
  Al  Al11  1  0.119499  0.639725  0.121272  1
  Al  Al12  1  0.639788  0.120673  0.120673  1
  Al  Al13  1  0.118869  0.120672  0.120672  1
  Al  Al14  1  0.668009  0.663171  0.000817  1
  Al  Al15  1  0.668009  0.000817  0.663171  1
  Al  Al16  1  0.995899  0.666516  0.666516  1
  Al  Al17  1  0.671067  0.666513  0.666513  1
  Al  Al18  1  0.332571  0.331541  0.003315  1
  Al  Al19  1  0.332571  0.003315  0.331541  1
  Al  Al20  1  0.004087  0.331663  0.331663  1
  Al  Al21  1  0.332592  0.331663  0.331663  1
  Os  Os22  1  0.000664  0.999335  0.999335  1
  Os  Os23  1  0.998237  0.997577  0.503925  1
  Os  Os24  1  0.500258  0.997586  0.503928  1
  Os  Os25  1  0.999120  0.500886  0.500886  1
  Os  Os26  1  0.500258  0.503928  0.997586  1
  Os  Os27  1  0.998237  0.503925  0.997577  1
  Os  Os28  1  0.503522  0.996477  0.996477  1
