# generated using pymatgen
data_La3Th(ZnSi3)2
_symmetry_space_group_name_H-M   'P 1'
_cell_length_a   4.25922400
_cell_length_b   4.30222800
_cell_length_c   14.14374500
_cell_angle_alpha   90.00000000
_cell_angle_beta   90.00000000
_cell_angle_gamma   90.00000000
_symmetry_Int_Tables_number   1
_chemical_formula_structural   La3Th(ZnSi3)2
_chemical_formula_sum   'La3 Th1 Zn2 Si6'
_cell_volume   259.17214385
_cell_formula_units_Z   1
loop_
 _symmetry_equiv_pos_site_id
 _symmetry_equiv_pos_as_xyz
  1  'x, y, z'
loop_
 _atom_site_type_symbol
 _atom_site_label
 _atom_site_symmetry_multiplicity
 _atom_site_fract_x
 _atom_site_fract_y
 _atom_site_fract_z
 _atom_site_occupancy
  La  La0  1  0.000000  0.000000  0.505332  1
  La  La1  1  0.500000  0.000000  0.747422  1
  La  La2  1  0.000000  0.500000  0.243725  1
  Th  Th3  1  0.500000  0.500000  0.005027  1
  Zn  Zn4  1  0.000000  0.000000  0.916165  1
  Zn  Zn5  1  0.500000  0.500000  0.414482  1
  Si  Si6  1  0.000000  0.500000  0.835391  1
  Si  Si7  1  0.500000  0.000000  0.333274  1
  Si  Si8  1  0.000000  0.000000  0.083208  1
  Si  Si9  1  0.500000  0.500000  0.584312  1
  Si  Si10  1  0.500000  0.000000  0.164656  1
  Si  Si11  1  0.000000  0.500000  0.667004  1
