# generated using pymatgen
data_Dy13Lu3Zn3InRh4
_symmetry_space_group_name_H-M   'P 1'
_cell_length_a   9.48890871
_cell_length_b   9.48890858
_cell_length_c   9.49484748
_cell_angle_alpha   59.97579258
_cell_angle_beta   59.97579546
_cell_angle_gamma   59.98473379
_symmetry_Int_Tables_number   1
_chemical_formula_structural   Dy13Lu3Zn3InRh4
_chemical_formula_sum   'Dy13 Lu3 Zn3 In1 Rh4'
_cell_volume   604.22186513
_cell_formula_units_Z   1
loop_
 _symmetry_equiv_pos_site_id
 _symmetry_equiv_pos_as_xyz
  1  'x, y, z'
loop_
 _atom_site_type_symbol
 _atom_site_label
 _atom_site_symmetry_multiplicity
 _atom_site_fract_x
 _atom_site_fract_y
 _atom_site_fract_z
 _atom_site_occupancy
  Dy  Dy0  1  0.935077  0.935077  0.557954  1
  Dy  Dy1  1  0.147353  0.147353  0.557035  1
  Dy  Dy2  1  0.564340  0.936263  0.561802  1
  Dy  Dy3  1  0.146455  0.146455  0.148552  1
  Dy  Dy4  1  0.310033  0.310033  0.690275  1
  Dy  Dy5  1  0.936263  0.564340  0.561802  1
  Dy  Dy6  1  0.562587  0.562587  0.938300  1
  Dy  Dy7  1  0.558601  0.933829  0.936706  1
  Dy  Dy8  1  0.933829  0.558601  0.936706  1
  Dy  Dy9  1  0.145832  0.559259  0.148154  1
  Dy  Dy10  1  0.310765  0.690654  0.689155  1
  Dy  Dy11  1  0.690654  0.310765  0.689155  1
  Dy  Dy12  1  0.559259  0.145832  0.148154  1
  Lu  Lu13  1  0.690222  0.311612  0.309368  1
  Lu  Lu14  1  0.689519  0.689519  0.309410  1
  Lu  Lu15  1  0.311612  0.690222  0.309368  1
  Zn  Zn16  1  0.921296  0.921296  0.242655  1
  Zn  Zn17  1  0.242250  0.921416  0.921625  1
  Zn  Zn18  1  0.921416  0.242250  0.921625  1
  In  In19  1  0.922441  0.922441  0.922873  1
  Rh  Rh20  1  0.358742  0.358742  0.356549  1
  Rh  Rh21  1  0.926908  0.358294  0.356102  1
  Rh  Rh22  1  0.356250  0.356250  0.930571  1
  Rh  Rh23  1  0.358294  0.926908  0.356102  1
