# generated using pymatgen
data_Tb3Al3ZnCoSi
_symmetry_space_group_name_H-M   'P 1'
_cell_length_a   6.94021500
_cell_length_b   6.94021518
_cell_length_c   4.20076900
_cell_angle_alpha   90.00000000
_cell_angle_beta   90.00000000
_cell_angle_gamma   119.99999435
_symmetry_Int_Tables_number   1
_chemical_formula_structural   Tb3Al3ZnCoSi
_chemical_formula_sum   'Tb3 Al3 Zn1 Co1 Si1'
_cell_volume   175.22873171
_cell_formula_units_Z   1
loop_
 _symmetry_equiv_pos_site_id
 _symmetry_equiv_pos_as_xyz
  1  'x, y, z'
loop_
 _atom_site_type_symbol
 _atom_site_label
 _atom_site_symmetry_multiplicity
 _atom_site_fract_x
 _atom_site_fract_y
 _atom_site_fract_z
 _atom_site_occupancy
  Tb  Tb0  1  0.403449  0.997079  0.000000  1
  Tb  Tb1  1  0.002921  0.406370  0.000000  1
  Tb  Tb2  1  0.593629  0.596551  0.000000  1
  Al  Al3  1  0.771575  0.001415  0.500001  1
  Al  Al4  1  0.229840  0.228424  0.500001  1
  Al  Al5  1  0.998585  0.770160  0.500001  1
  Zn  Zn6  1  0.666667  0.333334  0.500001  1
  Co  Co7  1  0.000000  0.000000  0.000000  1
  Si  Si8  1  0.333333  0.666666  0.500001  1
