# generated using pymatgen
data_YHo9(SiB4)4
_symmetry_space_group_name_H-M   'P 1'
_cell_length_a   7.20951700
_cell_length_b   7.20951700
_cell_length_c   8.05614600
_cell_angle_alpha   90.00000000
_cell_angle_beta   90.00000000
_cell_angle_gamma   90.00000000
_symmetry_Int_Tables_number   1
_chemical_formula_structural   YHo9(SiB4)4
_chemical_formula_sum   'Y1 Ho9 Si4 B16'
_cell_volume   418.73539123
_cell_formula_units_Z   1
loop_
 _symmetry_equiv_pos_site_id
 _symmetry_equiv_pos_as_xyz
  1  'x, y, z'
loop_
 _atom_site_type_symbol
 _atom_site_label
 _atom_site_symmetry_multiplicity
 _atom_site_fract_x
 _atom_site_fract_y
 _atom_site_fract_z
 _atom_site_occupancy
  Y  Y0  1  0.500000  0.500000  0.500000  1
  Ho  Ho1  1  0.680355  0.180106  0.223653  1
  Ho  Ho2  1  0.319645  0.819894  0.776347  1
  Ho  Ho3  1  0.319645  0.819894  0.223653  1
  Ho  Ho4  1  0.819894  0.680355  0.223653  1
  Ho  Ho5  1  0.819894  0.680355  0.776347  1
  Ho  Ho6  1  0.680355  0.180106  0.776347  1
  Ho  Ho7  1  0.180106  0.319645  0.776347  1
  Ho  Ho8  1  0.180106  0.319645  0.223653  1
  Ho  Ho9  1  0.000000  0.000000  0.500000  1
  Si  Si10  1  0.114791  0.615608  0.500000  1
  Si  Si11  1  0.885209  0.384392  0.500000  1
  Si  Si12  1  0.384392  0.114791  0.500000  1
  Si  Si13  1  0.615608  0.885209  0.500000  1
  B  B14  1  0.172572  0.039069  0.000000  1
  B  B15  1  0.827428  0.960931  0.000000  1
  B  B16  1  0.960931  0.172572  0.000000  1
  B  B17  1  0.327378  0.539036  0.000000  1
  B  B18  1  0.039069  0.827428  0.000000  1
  B  B19  1  0.672622  0.460964  0.000000  1
  B  B20  1  0.539036  0.672622  0.000000  1
  B  B21  1  0.460964  0.327378  0.000000  1
  B  B22  1  0.089623  0.589612  0.000000  1
  B  B23  1  0.910377  0.410388  0.000000  1
  B  B24  1  0.410388  0.089623  0.000000  1
  B  B25  1  0.589612  0.910377  0.000000  1
  B  B26  1  0.000000  0.000000  0.163380  1
  B  B27  1  0.000000  0.000000  0.836620  1
  B  B28  1  0.500000  0.500000  0.836983  1
  B  B29  1  0.500000  0.500000  0.163017  1
