# generated using pymatgen
data_Ta5NbGa4(OsC)2
_symmetry_space_group_name_H-M   'P 1'
_cell_length_a   8.31461317
_cell_length_b   8.31461407
_cell_length_c   8.31105115
_cell_angle_alpha   59.95715491
_cell_angle_beta   59.95714671
_cell_angle_gamma   59.96295464
_symmetry_Int_Tables_number   1
_chemical_formula_structural   Ta5NbGa4(OsC)2
_chemical_formula_sum   'Ta10 Nb2 Ga8 Os4 C4'
_cell_volume   405.90270149
_cell_formula_units_Z   2
loop_
 _symmetry_equiv_pos_site_id
 _symmetry_equiv_pos_as_xyz
  1  'x, y, z'
loop_
 _atom_site_type_symbol
 _atom_site_label
 _atom_site_symmetry_multiplicity
 _atom_site_fract_x
 _atom_site_fract_y
 _atom_site_fract_z
 _atom_site_occupancy
  Ta  Ta0  1  0.693390  0.306287  0.306747  1
  Ta  Ta1  1  0.305916  0.694016  0.305789  1
  Ta  Ta2  1  0.694146  0.694057  0.306038  1
  Ta  Ta3  1  0.306257  0.305716  0.693859  1
  Ta  Ta4  1  0.555943  0.555854  0.943962  1
  Ta  Ta5  1  0.944958  0.555005  0.555184  1
  Ta  Ta6  1  0.555984  0.944084  0.944211  1
  Ta  Ta7  1  0.944284  0.943743  0.556141  1
  Ta  Ta8  1  0.694995  0.305042  0.694816  1
  Ta  Ta9  1  0.943713  0.556610  0.943253  1
  Nb  Nb10  1  0.556032  0.943681  0.556090  1
  Nb  Nb11  1  0.306319  0.693968  0.693910  1
  Ga  Ga12  1  0.914350  0.912344  0.913284  1
  Ga  Ga13  1  0.989877  0.336677  0.335840  1
  Ga  Ga14  1  0.336696  0.989947  0.337679  1
  Ga  Ga15  1  0.335820  0.337676  0.989847  1
  Ga  Ga16  1  0.913323  0.260123  0.914160  1
  Ga  Ga17  1  0.912324  0.914180  0.260153  1
  Ga  Ga18  1  0.260053  0.913304  0.912321  1
  Ga  Ga19  1  0.337656  0.335650  0.336716  1
  Os  Os20  1  0.125353  0.124647  0.125000  1
  Os  Os21  1  0.625212  0.126077  0.122253  1
  Os  Os22  1  0.123923  0.624788  0.127747  1
  Os  Os23  1  0.121328  0.128672  0.625000  1
  C  C24  1  0.627577  0.622423  0.625000  1
  C  C25  1  0.123954  0.624458  0.624545  1
  C  C26  1  0.625542  0.126046  0.625455  1
  C  C27  1  0.625078  0.624922  0.125000  1
