# generated using pymatgen
data_Ti8ZnCoCu2
_symmetry_space_group_name_H-M   'P 1'
_cell_length_a   2.95980900
_cell_length_b   2.95980900
_cell_length_c   21.03152500
_cell_angle_alpha   90.00000000
_cell_angle_beta   90.00000000
_cell_angle_gamma   90.00000000
_symmetry_Int_Tables_number   1
_chemical_formula_structural   Ti8ZnCoCu2
_chemical_formula_sum   'Ti8 Zn1 Co1 Cu2'
_cell_volume   184.24602944
_cell_formula_units_Z   1
loop_
 _symmetry_equiv_pos_site_id
 _symmetry_equiv_pos_as_xyz
  1  'x, y, z'
loop_
 _atom_site_type_symbol
 _atom_site_label
 _atom_site_symmetry_multiplicity
 _atom_site_fract_x
 _atom_site_fract_y
 _atom_site_fract_z
 _atom_site_occupancy
  Ti  Ti0  1  0.500000  0.500000  0.073994  1
  Ti  Ti1  1  0.000000  0.000000  0.326698  1
  Ti  Ti2  1  0.500000  0.500000  0.580069  1
  Ti  Ti3  1  0.000000  0.000000  0.841838  1
  Ti  Ti4  1  0.000000  0.000000  0.161947  1
  Ti  Ti5  1  0.500000  0.500000  0.415532  1
  Ti  Ti6  1  0.000000  0.000000  0.669318  1
  Ti  Ti7  1  0.500000  0.500000  0.930460  1
  Zn  Zn8  1  0.500000  0.500000  0.755940  1
  Co  Co9  1  0.000000  0.000000  0.001351  1
  Cu  Cu10  1  0.500000  0.500000  0.244442  1
  Cu  Cu11  1  0.000000  0.000000  0.498412  1
