# generated using pymatgen
data_Y5P12Ru13Rh6
_symmetry_space_group_name_H-M   'P 1'
_cell_length_a   12.59230700
_cell_length_b   12.59230783
_cell_length_c   3.96636800
_cell_angle_alpha   90.00000000
_cell_angle_beta   90.00000000
_cell_angle_gamma   119.99999520
_symmetry_Int_Tables_number   1
_chemical_formula_structural   Y5P12Ru13Rh6
_chemical_formula_sum   'Y5 P12 Ru13 Rh6'
_cell_volume   544.67105105
_cell_formula_units_Z   1
loop_
 _symmetry_equiv_pos_site_id
 _symmetry_equiv_pos_as_xyz
  1  'x, y, z'
loop_
 _atom_site_type_symbol
 _atom_site_label
 _atom_site_symmetry_multiplicity
 _atom_site_fract_x
 _atom_site_fract_y
 _atom_site_fract_z
 _atom_site_occupancy
  Y  Y0  1  0.000249  0.182568  0.500000  1
  Y  Y1  1  0.817432  0.817681  0.500000  1
  Y  Y2  1  0.182319  0.999751  0.500000  1
  Y  Y3  1  0.666667  0.333333  0.000000  1
  Y  Y4  1  0.333333  0.666667  0.000000  1
  P  P5  1  0.002980  0.817707  0.000000  1
  P  P6  1  0.182293  0.185273  0.000000  1
  P  P7  1  0.814727  0.997020  0.000000  1
  P  P8  1  0.690002  0.172393  0.500000  1
  P  P9  1  0.827607  0.517610  0.500000  1
  P  P10  1  0.482390  0.309998  0.500000  1
  P  P11  1  0.175503  0.695835  0.500000  1
  P  P12  1  0.520332  0.824497  0.500000  1
  P  P13  1  0.304165  0.479668  0.500000  1
  P  P14  1  0.003895  0.372166  0.000000  1
  P  P15  1  0.627834  0.631728  0.000000  1
  P  P16  1  0.368272  0.996105  0.000000  1
  Ru  Ru17  1  0.998166  0.712827  0.500000  1
  Ru  Ru18  1  0.287173  0.285339  0.500000  1
  Ru  Ru19  1  0.714661  0.001834  0.500000  1
  Ru  Ru20  1  0.183084  0.804163  0.000000  1
  Ru  Ru21  1  0.621080  0.816916  0.000000  1
  Ru  Ru22  1  0.195837  0.378920  0.000000  1
  Ru  Ru23  1  0.872593  0.361702  0.500000  1
  Ru  Ru24  1  0.638298  0.510891  0.500000  1
  Ru  Ru25  1  0.489109  0.127407  0.500000  1
  Ru  Ru26  1  0.367767  0.876331  0.500000  1
  Ru  Ru27  1  0.508564  0.632233  0.500000  1
  Ru  Ru28  1  0.123669  0.491436  0.500000  1
  Ru  Ru29  1  0.000000  0.000000  0.000000  1
  Rh  Rh30  1  0.994082  0.549070  0.000000  1
  Rh  Rh31  1  0.450930  0.445013  0.000000  1
  Rh  Rh32  1  0.554987  0.005918  0.000000  1
  Rh  Rh33  1  0.810238  0.185050  0.000000  1
  Rh  Rh34  1  0.814950  0.625189  0.000000  1
  Rh  Rh35  1  0.374811  0.189762  0.000000  1
