# generated using pymatgen
data_LiDy8Si16W11
_symmetry_space_group_name_H-M   'P 1'
_cell_length_a   6.88692685
_cell_length_b   6.88692591
_cell_length_c   12.78879010
_cell_angle_alpha   89.98090221
_cell_angle_beta   90.01909558
_cell_angle_gamma   89.68120459
_symmetry_Int_Tables_number   1
_chemical_formula_structural   LiDy8Si16W11
_chemical_formula_sum   'Li1 Dy8 Si16 W11'
_cell_volume   606.55972344
_cell_formula_units_Z   1
loop_
 _symmetry_equiv_pos_site_id
 _symmetry_equiv_pos_as_xyz
  1  'x, y, z'
loop_
 _atom_site_type_symbol
 _atom_site_label
 _atom_site_symmetry_multiplicity
 _atom_site_fract_x
 _atom_site_fract_y
 _atom_site_fract_z
 _atom_site_occupancy
  Li  Li0  1  0.331707  0.331707  0.000000  1
  Dy  Dy1  1  0.000860  0.663084  0.032620  1
  Dy  Dy2  1  0.998586  0.336903  0.531510  1
  Dy  Dy3  1  0.663084  0.000860  0.967380  1
  Dy  Dy4  1  0.163248  0.500603  0.782124  1
  Dy  Dy5  1  0.839180  0.502460  0.281332  1
  Dy  Dy6  1  0.500603  0.163248  0.217876  1
  Dy  Dy7  1  0.502460  0.839180  0.718668  1
  Dy  Dy8  1  0.336903  0.998586  0.468490  1
  Si  Si9  1  0.034352  0.711051  0.437640  1
  Si  Si10  1  0.957335  0.287923  0.935337  1
  Si  Si11  1  0.711051  0.034352  0.562360  1
  Si  Si12  1  0.213287  0.462853  0.184630  1
  Si  Si13  1  0.790608  0.538341  0.686934  1
  Si  Si14  1  0.462853  0.213287  0.815370  1
  Si  Si15  1  0.538341  0.790608  0.313066  1
  Si  Si16  1  0.287923  0.957335  0.064663  1
  Si  Si17  1  0.798180  0.873953  0.182601  1
  Si  Si18  1  0.299310  0.624973  0.566927  1
  Si  Si19  1  0.704657  0.375449  0.066007  1
  Si  Si20  1  0.624973  0.299310  0.433073  1
  Si  Si21  1  0.375449  0.704657  0.933993  1
  Si  Si22  1  0.125466  0.203476  0.315528  1
  Si  Si23  1  0.203476  0.125466  0.684472  1
  Si  Si24  1  0.873953  0.798180  0.817399  1
  W  W25  1  0.333738  0.504749  0.375555  1
  W  W26  1  0.835663  0.000523  0.372711  1
  W  W27  1  0.000057  0.160370  0.127093  1
  W  W28  1  0.000523  0.835663  0.627289  1
  W  W29  1  0.504749  0.333738  0.624445  1
  W  W30  1  0.160370  0.000057  0.872907  1
  W  W31  1  0.666252  0.666252  0.500000  1
  W  W32  1  0.830443  0.164929  0.746616  1
  W  W33  1  0.164929  0.830443  0.253384  1
  W  W34  1  0.501298  0.664129  0.125439  1
  W  W35  1  0.664129  0.501298  0.874561  1
