# generated using pymatgen
data_Ho4Al4Pd2RuPt
_symmetry_space_group_name_H-M   'P 1'
_cell_length_a   4.33449800
_cell_length_b   6.87689457
_cell_length_c   7.87955887
_cell_angle_alpha   89.84525348
_cell_angle_beta   90.00000000
_cell_angle_gamma   90.00000000
_symmetry_Int_Tables_number   1
_chemical_formula_structural   Ho4Al4Pd2RuPt
_chemical_formula_sum   'Ho4 Al4 Pd2 Ru1 Pt1'
_cell_volume   234.87213410
_cell_formula_units_Z   1
loop_
 _symmetry_equiv_pos_site_id
 _symmetry_equiv_pos_as_xyz
  1  'x, y, z'
loop_
 _atom_site_type_symbol
 _atom_site_label
 _atom_site_symmetry_multiplicity
 _atom_site_fract_x
 _atom_site_fract_y
 _atom_site_fract_z
 _atom_site_occupancy
  Ho  Ho0  1  0.250000  0.036561  0.678481  1
  Ho  Ho1  1  0.250000  0.527744  0.819487  1
  Ho  Ho2  1  0.750000  0.978718  0.321302  1
  Ho  Ho3  1  0.750000  0.463849  0.184264  1
  Al  Al4  1  0.250000  0.145191  0.062466  1
  Al  Al5  1  0.250000  0.635872  0.437933  1
  Al  Al6  1  0.750000  0.859897  0.938457  1
  Al  Al7  1  0.750000  0.354529  0.560068  1
  Pd  Pd8  1  0.250000  0.772014  0.118622  1
  Pd  Pd9  1  0.750000  0.729854  0.620413  1
  Ru  Ru10  1  0.250000  0.264093  0.380116  1
  Pt  Pt11  1  0.750000  0.231678  0.878387  1
