# generated using pymatgen
data_Nd2ErTm17Bi12
_symmetry_space_group_name_H-M   'P 1'
_cell_length_a   8.23891870
_cell_length_b   9.44929300
_cell_length_c   11.97449300
_cell_angle_alpha   90.00000000
_cell_angle_beta   90.02358198
_cell_angle_gamma   90.00000000
_symmetry_Int_Tables_number   1
_chemical_formula_structural   Nd2ErTm17Bi12
_chemical_formula_sum   'Nd2 Er1 Tm17 Bi12'
_cell_volume   932.23763253
_cell_formula_units_Z   1
loop_
 _symmetry_equiv_pos_site_id
 _symmetry_equiv_pos_as_xyz
  1  'x, y, z'
loop_
 _atom_site_type_symbol
 _atom_site_label
 _atom_site_symmetry_multiplicity
 _atom_site_fract_x
 _atom_site_fract_y
 _atom_site_fract_z
 _atom_site_occupancy
  Nd  Nd0  1  0.814713  0.250000  0.281349  1
  Nd  Nd1  1  0.685216  0.750000  0.781269  1
  Er  Er2  1  0.185650  0.750000  0.717296  1
  Tm  Tm3  1  0.353069  0.750000  0.217961  1
  Tm  Tm4  1  0.853770  0.750000  0.282118  1
  Tm  Tm5  1  0.646177  0.250000  0.782385  1
  Tm  Tm6  1  0.147179  0.250000  0.717948  1
  Tm  Tm7  1  0.691863  0.566514  0.060240  1
  Tm  Tm8  1  0.191834  0.933603  0.439693  1
  Tm  Tm9  1  0.307978  0.066337  0.939884  1
  Tm  Tm10  1  0.808390  0.433439  0.560183  1
  Tm  Tm11  1  0.307978  0.433663  0.939884  1
  Tm  Tm12  1  0.808390  0.066561  0.560183  1
  Tm  Tm13  1  0.691863  0.933486  0.060240  1
  Tm  Tm14  1  0.191834  0.566397  0.439693  1
  Tm  Tm15  1  0.476286  0.250000  0.488954  1
  Tm  Tm16  1  0.977065  0.250000  0.011664  1
  Tm  Tm17  1  0.522886  0.750000  0.511324  1
  Tm  Tm18  1  0.023804  0.750000  0.989337  1
  Tm  Tm19  1  0.314061  0.250000  0.217012  1
  Bi  Bi20  1  0.401211  0.750000  0.960892  1
  Bi  Bi21  1  0.906127  0.750000  0.539990  1
  Bi  Bi22  1  0.593444  0.250000  0.040468  1
  Bi  Bi23  1  0.099194  0.250000  0.460702  1
  Bi  Bi24  1  0.562189  0.993363  0.326192  1
  Bi  Bi25  1  0.069137  0.505899  0.173487  1
  Bi  Bi26  1  0.431441  0.493869  0.673399  1
  Bi  Bi27  1  0.937238  0.007021  0.826588  1
  Bi  Bi28  1  0.431441  0.006131  0.673399  1
  Bi  Bi29  1  0.937238  0.492979  0.826588  1
  Bi  Bi30  1  0.562189  0.506637  0.326192  1
  Bi  Bi31  1  0.069137  0.994101  0.173487  1
