# generated using pymatgen
data_Nd12Ru2I17
_symmetry_space_group_name_H-M   'P 1'
_cell_length_a   10.06279827
_cell_length_b   12.08024159
_cell_length_c   12.08698050
_cell_angle_alpha   93.53459423
_cell_angle_beta   104.47229826
_cell_angle_gamma   114.49103699
_symmetry_Int_Tables_number   1
_chemical_formula_structural   Nd12Ru2I17
_chemical_formula_sum   'Nd12 Ru2 I17'
_cell_volume   1271.70646705
_cell_formula_units_Z   1
loop_
 _symmetry_equiv_pos_site_id
 _symmetry_equiv_pos_as_xyz
  1  'x, y, z'
loop_
 _atom_site_type_symbol
 _atom_site_label
 _atom_site_symmetry_multiplicity
 _atom_site_fract_x
 _atom_site_fract_y
 _atom_site_fract_z
 _atom_site_occupancy
  Nd  Nd0  1  0.058532  0.510799  0.322054  1
  Nd  Nd1  1  0.988652  0.811004  0.581358  1
  Nd  Nd2  1  0.645375  0.239751  0.283396  1
  Nd  Nd3  1  0.011348  0.188996  0.418642  1
  Nd  Nd4  1  0.223280  0.668725  0.991204  1
  Nd  Nd5  1  0.260912  0.986575  0.892159  1
  Nd  Nd6  1  0.354625  0.760249  0.716604  1
  Nd  Nd7  1  0.941468  0.489201  0.677946  1
  Nd  Nd8  1  0.739088  0.013425  0.107841  1
  Nd  Nd9  1  0.151220  0.288495  0.150949  1
  Nd  Nd10  1  0.776720  0.331275  0.008796  1
  Nd  Nd11  1  0.848780  0.711505  0.849051  1
  Ru  Ru12  1  0.103949  0.738216  0.785868  1
  Ru  Ru13  1  0.896051  0.261784  0.214132  1
  I  I14  1  0.785128  0.528067  0.419111  1
  I  I15  1  0.640726  0.418581  0.759995  1
  I  I16  1  0.843580  0.895521  0.325184  1
  I  I17  1  0.325404  0.212649  0.368242  1
  I  I18  1  0.156420  0.104479  0.674816  1
  I  I19  1  0.587890  0.052588  0.843566  1
  I  I20  1  0.755457  0.184694  0.537803  1
  I  I21  1  0.549008  0.708849  0.954039  1
  I  I22  1  0.359274  0.581419  0.240005  1
  I  I23  1  0.214872  0.471933  0.580889  1
  I  I24  1  0.056012  0.367504  0.896490  1
  I  I25  1  0.450992  0.291151  0.045961  1
  I  I26  1  0.000000  0.000000  0.000000  1
  I  I27  1  0.244543  0.815306  0.462197  1
  I  I28  1  0.412110  0.947412  0.156434  1
  I  I29  1  0.674596  0.787351  0.631758  1
  I  I30  1  0.943988  0.632496  0.103510  1
