# generated using pymatgen
data_Tb3Y3Al24NiOs7
_symmetry_space_group_name_H-M   'P 1'
_cell_length_a   8.82446502
_cell_length_b   8.82566121
_cell_length_c   9.55439000
_cell_angle_alpha   89.99798730
_cell_angle_beta   90.00043657
_cell_angle_gamma   119.98723920
_symmetry_Int_Tables_number   1
_chemical_formula_structural   Tb3Y3Al24NiOs7
_chemical_formula_sum   'Tb3 Y3 Al24 Ni1 Os7'
_cell_volume   644.50317999
_cell_formula_units_Z   1
loop_
 _symmetry_equiv_pos_site_id
 _symmetry_equiv_pos_as_xyz
  1  'x, y, z'
loop_
 _atom_site_type_symbol
 _atom_site_label
 _atom_site_symmetry_multiplicity
 _atom_site_fract_x
 _atom_site_fract_y
 _atom_site_fract_z
 _atom_site_occupancy
  Tb  Tb0  1  0.387255  0.193623  0.750697  1
  Tb  Tb1  1  0.193573  0.806418  0.249314  1
  Tb  Tb2  1  0.806386  0.193592  0.750707  1
  Y  Y3  1  0.193632  0.387279  0.249318  1
  Y  Y4  1  0.806325  0.612664  0.750698  1
  Y  Y5  1  0.612769  0.806387  0.249312  1
  Al  Al6  1  0.333342  0.666649  0.016592  1
  Al  Al7  1  0.666689  0.333368  0.983395  1
  Al  Al8  1  0.666660  0.333359  0.515135  1
  Al  Al9  1  0.333341  0.666639  0.484896  1
  Al  Al10  1  0.161961  0.323908  0.577037  1
  Al  Al11  1  0.838033  0.676113  0.422972  1
  Al  Al12  1  0.676097  0.838023  0.577024  1
  Al  Al13  1  0.837862  0.675752  0.076240  1
  Al  Al14  1  0.323881  0.161968  0.422949  1
  Al  Al15  1  0.162138  0.324262  0.923753  1
  Al  Al16  1  0.161928  0.838037  0.577050  1
  Al  Al17  1  0.324242  0.162144  0.076268  1
  Al  Al18  1  0.838069  0.161939  0.422960  1
  Al  Al19  1  0.675731  0.837843  0.923768  1
  Al  Al20  1  0.837883  0.162132  0.076249  1
  Al  Al21  1  0.162114  0.837853  0.923741  1
  Al  Al22  1  0.560709  0.121371  0.249743  1
  Al  Al23  1  0.439269  0.878534  0.750256  1
  Al  Al24  1  0.878609  0.439283  0.249744  1
  Al  Al25  1  0.121396  0.560719  0.750252  1
  Al  Al26  1  0.560663  0.439340  0.249760  1
  Al  Al27  1  0.439316  0.560731  0.750242  1
  Al  Al28  1  0.000014  0.999996  0.243184  1
  Al  Al29  1  0.000014  0.000018  0.756811  1
  Ni  Ni30  1  0.000016  0.000008  0.000005  1
  Os  Os31  1  0.500004  0.999988  0.000020  1
  Os  Os32  1  0.000022  0.500008  0.000024  1
  Os  Os33  1  0.500005  0.999980  0.499965  1
  Os  Os34  1  0.500003  0.500025  0.000025  1
  Os  Os35  1  0.000031  0.500018  0.499960  1
  Os  Os36  1  0.500007  0.500024  0.499969  1
  Os  Os37  1  0.000009  0.000002  0.499963  1
