# generated using pymatgen
data_ZrPa2CdI12
_symmetry_space_group_name_H-M   'P 1'
_cell_length_a   7.07662872
_cell_length_b   8.20249209
_cell_length_c   14.35575500
_cell_angle_alpha   90.00000000
_cell_angle_beta   90.00000000
_cell_angle_gamma   89.93581169
_symmetry_Int_Tables_number   1
_chemical_formula_structural   ZrPa2CdI12
_chemical_formula_sum   'Zr1 Pa2 Cd1 I12'
_cell_volume   833.29350415
_cell_formula_units_Z   1
loop_
 _symmetry_equiv_pos_site_id
 _symmetry_equiv_pos_as_xyz
  1  'x, y, z'
loop_
 _atom_site_type_symbol
 _atom_site_label
 _atom_site_symmetry_multiplicity
 _atom_site_fract_x
 _atom_site_fract_y
 _atom_site_fract_z
 _atom_site_occupancy
  Zr  Zr0  1  0.749975  0.247918  0.000000  1
  Pa  Pa1  1  0.751120  0.752099  0.500000  1
  Pa  Pa2  1  0.249991  0.247947  0.000000  1
  Cd  Cd3  1  0.249234  0.752108  0.500000  1
  I  I4  1  0.998401  0.601421  0.649851  1
  I  I5  1  0.998710  0.053816  0.500000  1
  I  I6  1  0.985398  0.099498  0.852574  1
  I  I7  1  0.985398  0.099498  0.147426  1
  I  I8  1  0.501533  0.901645  0.351180  1
  I  I9  1  0.514599  0.396323  0.147453  1
  I  I10  1  0.501229  0.452509  0.500000  1
  I  I11  1  0.501533  0.901645  0.648820  1
  I  I12  1  0.514599  0.396323  0.852547  1
  I  I13  1  0.513440  0.950437  0.000000  1
  I  I14  1  0.986441  0.545393  0.000000  1
  I  I15  1  0.998401  0.601421  0.350149  1
