# generated using pymatgen
data_NaSrLiOsN4
_symmetry_space_group_name_H-M   'P 1'
_cell_length_a   5.91762500
_cell_length_b   6.08648645
_cell_length_c   6.65710515
_cell_angle_alpha   73.33193349
_cell_angle_beta   90.00000000
_cell_angle_gamma   90.00000000
_symmetry_Int_Tables_number   1
_chemical_formula_structural   NaSrLiOsN4
_chemical_formula_sum   'Na2 Sr2 Li2 Os2 N8'
_cell_volume   229.69793666
_cell_formula_units_Z   2
loop_
 _symmetry_equiv_pos_site_id
 _symmetry_equiv_pos_as_xyz
  1  'x, y, z'
loop_
 _atom_site_type_symbol
 _atom_site_label
 _atom_site_symmetry_multiplicity
 _atom_site_fract_x
 _atom_site_fract_y
 _atom_site_fract_z
 _atom_site_occupancy
  Na  Na0  1  0.250000  0.257872  0.054245  1
  Na  Na1  1  0.750000  0.742128  0.945755  1
  Sr  Sr2  1  0.750000  0.780931  0.434286  1
  Sr  Sr3  1  0.250000  0.219069  0.565714  1
  Li  Li4  1  0.750000  0.315984  0.290740  1
  Li  Li5  1  0.250000  0.684016  0.709260  1
  Os  Os6  1  0.250000  0.721173  0.192593  1
  Os  Os7  1  0.750000  0.278827  0.807407  1
  N  N8  1  0.508197  0.465653  0.748982  1
  N  N9  1  0.008197  0.534347  0.251018  1
  N  N10  1  0.491803  0.534347  0.251018  1
  N  N11  1  0.991803  0.465653  0.748982  1
  N  N12  1  0.750000  0.097843  0.630628  1
  N  N13  1  0.250000  0.902157  0.369372  1
  N  N14  1  0.750000  0.115687  0.078149  1
  N  N15  1  0.250000  0.884313  0.921851  1
