# generated using pymatgen
data_Yb3PrTm4(B6Ru)4
_symmetry_space_group_name_H-M   'P 1'
_cell_length_a   3.64993900
_cell_length_b   9.12441390
_cell_length_c   11.53180414
_cell_angle_alpha   89.94914126
_cell_angle_beta   90.00000000
_cell_angle_gamma   90.00000000
_symmetry_Int_Tables_number   1
_chemical_formula_structural   Yb3PrTm4(B6Ru)4
_chemical_formula_sum   'Yb3 Pr1 Tm4 B24 Ru4'
_cell_volume   384.04991208
_cell_formula_units_Z   1
loop_
 _symmetry_equiv_pos_site_id
 _symmetry_equiv_pos_as_xyz
  1  'x, y, z'
loop_
 _atom_site_type_symbol
 _atom_site_label
 _atom_site_symmetry_multiplicity
 _atom_site_fract_x
 _atom_site_fract_y
 _atom_site_fract_z
 _atom_site_occupancy
  Yb  Yb0  1  0.000000  0.325770  0.414742  1
  Yb  Yb1  1  0.000000  0.674759  0.583757  1
  Yb  Yb2  1  0.000000  0.823481  0.086518  1
  Pr  Pr3  1  0.000000  0.175922  0.915436  1
  Tm  Tm4  1  0.000000  0.941056  0.367107  1
  Tm  Tm5  1  0.000000  0.057400  0.630869  1
  Tm  Tm6  1  0.000000  0.443907  0.134446  1
  Tm  Tm7  1  0.000000  0.558664  0.866957  1
  B  B8  1  0.500000  0.554684  0.432353  1
  B  B9  1  0.500000  0.446003  0.567094  1
  B  B10  1  0.500000  0.053406  0.070599  1
  B  B11  1  0.500000  0.942151  0.932135  1
  B  B12  1  0.500000  0.749248  0.417180  1
  B  B13  1  0.500000  0.250831  0.581593  1
  B  B14  1  0.500000  0.249974  0.086222  1
  B  B15  1  0.500000  0.749687  0.917166  1
  B  B16  1  0.500000  0.791324  0.264784  1
  B  B17  1  0.500000  0.209631  0.733017  1
  B  B18  1  0.500000  0.291959  0.237290  1
  B  B19  1  0.500000  0.708455  0.763667  1
  B  B20  1  0.500000  0.631336  0.185812  1
  B  B21  1  0.500000  0.371126  0.812817  1
  B  B22  1  0.500000  0.130701  0.315442  1
  B  B23  1  0.500000  0.868261  0.683864  1
  B  B24  1  0.500000  0.983426  0.212506  1
  B  B25  1  0.500000  0.013100  0.786681  1
  B  B26  1  0.500000  0.484614  0.289490  1
  B  B27  1  0.500000  0.516711  0.710419  1
  B  B28  1  0.500000  0.597857  0.026866  1
  B  B29  1  0.500000  0.405698  0.974479  1
  B  B30  1  0.500000  0.096198  0.473114  1
  B  B31  1  0.500000  0.902913  0.525775  1
  Ru  Ru32  1  0.000000  0.640149  0.319386  1
  Ru  Ru33  1  0.000000  0.360272  0.679879  1
  Ru  Ru34  1  0.000000  0.139937  0.182288  1
  Ru  Ru35  1  0.000000  0.859387  0.818251  1
