# generated using pymatgen
data_Y16MgCo(NiAg)3
_symmetry_space_group_name_H-M   'P 1'
_cell_length_a   9.53049188
_cell_length_b   9.53409023
_cell_length_c   9.53409000
_cell_angle_alpha   60.00000079
_cell_angle_beta   59.98751037
_cell_angle_gamma   59.98750271
_symmetry_Int_Tables_number   1
_chemical_formula_structural   Y16MgCo(NiAg)3
_chemical_formula_sum   'Y16 Mg1 Co1 Ni3 Ag3'
_cell_volume   612.45867147
_cell_formula_units_Z   1
loop_
 _symmetry_equiv_pos_site_id
 _symmetry_equiv_pos_as_xyz
  1  'x, y, z'
loop_
 _atom_site_type_symbol
 _atom_site_label
 _atom_site_symmetry_multiplicity
 _atom_site_fract_x
 _atom_site_fract_y
 _atom_site_fract_z
 _atom_site_occupancy
  Y  Y0  1  0.350738  0.346335  0.346335  1
  Y  Y1  1  0.350738  0.346335  0.956592  1
  Y  Y2  1  0.350738  0.956592  0.346335  1
  Y  Y3  1  0.940386  0.353205  0.353205  1
  Y  Y4  1  0.807081  0.188702  0.188702  1
  Y  Y5  1  0.186456  0.812981  0.812981  1
  Y  Y6  1  0.186456  0.812981  0.187582  1
  Y  Y7  1  0.807081  0.188702  0.815515  1
  Y  Y8  1  0.186456  0.187582  0.812981  1
  Y  Y9  1  0.807081  0.815515  0.188702  1
  Y  Y10  1  0.933646  0.565050  0.565050  1
  Y  Y11  1  0.565742  0.935104  0.935104  1
  Y  Y12  1  0.565742  0.935104  0.564051  1
  Y  Y13  1  0.933646  0.565050  0.936254  1
  Y  Y14  1  0.565742  0.564051  0.935104  1
  Y  Y15  1  0.933646  0.936254  0.565050  1
  Mg  Mg16  1  0.288539  0.570487  0.570487  1
  Co  Co17  1  0.573585  0.142138  0.142138  1
  Ni  Ni18  1  0.139154  0.143919  0.143919  1
  Ni  Ni19  1  0.139154  0.143919  0.573008  1
  Ni  Ni20  1  0.139154  0.573008  0.143919  1
  Ag  Ag21  1  0.583013  0.583293  0.583293  1
  Ag  Ag22  1  0.583013  0.583293  0.250401  1
  Ag  Ag23  1  0.583013  0.250401  0.583293  1
