# generated using pymatgen
data_Dy12ZnCo2Si2Sn
_symmetry_space_group_name_H-M   'P 1'
_cell_length_a   8.45863699
_cell_length_b   8.45865177
_cell_length_c   8.45863735
_cell_angle_alpha   113.47193908
_cell_angle_beta   110.81761709
_cell_angle_gamma   104.25893449
_symmetry_Int_Tables_number   1
_chemical_formula_structural   Dy12ZnCo2Si2Sn
_chemical_formula_sum   'Dy12 Zn1 Co2 Si2 Sn1'
_cell_volume   462.75594737
_cell_formula_units_Z   1
loop_
 _symmetry_equiv_pos_site_id
 _symmetry_equiv_pos_as_xyz
  1  'x, y, z'
loop_
 _atom_site_type_symbol
 _atom_site_label
 _atom_site_symmetry_multiplicity
 _atom_site_fract_x
 _atom_site_fract_y
 _atom_site_fract_z
 _atom_site_occupancy
  Dy  Dy0  1  0.431227  0.235947  0.195279  1
  Dy  Dy1  1  0.568773  0.764053  0.804721  1
  Dy  Dy2  1  0.040667  0.235947  0.804720  1
  Dy  Dy3  1  0.959333  0.764053  0.195280  1
  Dy  Dy4  1  0.183740  0.284043  0.467782  1
  Dy  Dy5  1  0.816260  0.715957  0.532218  1
  Dy  Dy6  1  0.183741  0.715957  0.899697  1
  Dy  Dy7  1  0.816259  0.284043  0.100303  1
  Dy  Dy8  1  0.305271  0.618500  0.313229  1
  Dy  Dy9  1  0.694729  0.381500  0.686771  1
  Dy  Dy10  1  0.305273  0.992046  0.686772  1
  Dy  Dy11  1  0.694727  0.007954  0.313228  1
  Zn  Zn12  1  0.000000  0.000000  0.000000  1
  Co  Co13  1  0.107450  0.607449  0.499999  1
  Co  Co14  1  0.892550  0.392551  0.500001  1
  Si  Si15  1  0.359232  0.000000  0.359232  1
  Si  Si16  1  0.640768  0.000000  0.640768  1
  Sn  Sn17  1  0.500000  0.500000  0.000000  1
