# generated using pymatgen
data_Hf14Zr3Si16W3
_symmetry_space_group_name_H-M   'P 1'
_cell_length_a   6.98484109
_cell_length_b   6.97966004
_cell_length_c   12.78678756
_cell_angle_alpha   90.06693630
_cell_angle_beta   89.85605181
_cell_angle_gamma   89.89522688
_symmetry_Int_Tables_number   1
_chemical_formula_structural   Hf14Zr3Si16W3
_chemical_formula_sum   'Hf14 Zr3 Si16 W3'
_cell_volume   623.37567848
_cell_formula_units_Z   1
loop_
 _symmetry_equiv_pos_site_id
 _symmetry_equiv_pos_as_xyz
  1  'x, y, z'
loop_
 _atom_site_type_symbol
 _atom_site_label
 _atom_site_symmetry_multiplicity
 _atom_site_fract_x
 _atom_site_fract_y
 _atom_site_fract_z
 _atom_site_occupancy
  Hf  Hf0  1  0.174859  0.175047  0.999769  1
  Hf  Hf1  1  0.345088  0.996567  0.780128  1
  Hf  Hf2  1  0.846477  0.503783  0.968534  1
  Hf  Hf3  1  0.155264  0.496990  0.470633  1
  Hf  Hf4  1  0.001830  0.655356  0.717596  1
  Hf  Hf5  1  0.996865  0.345404  0.219705  1
  Hf  Hf6  1  0.497862  0.355785  0.126834  1
  Hf  Hf7  1  0.502147  0.644882  0.626020  1
  Hf  Hf8  1  0.853956  0.001061  0.873145  1
  Hf  Hf9  1  0.145263  0.995856  0.377160  1
  Hf  Hf10  1  0.644958  0.502532  0.374193  1
  Hf  Hf11  1  0.355444  0.498204  0.872649  1
  Hf  Hf12  1  0.001342  0.853516  0.126429  1
  Hf  Hf13  1  0.996087  0.145231  0.622977  1
  Zr  Zr14  1  0.495794  0.155325  0.529623  1
  Zr  Zr15  1  0.503871  0.845762  0.030984  1
  Zr  Zr16  1  0.655420  0.002039  0.282593  1
  Si  Si17  1  0.796232  0.146780  0.070140  1
  Si  Si18  1  0.202351  0.852971  0.571634  1
  Si  Si19  1  0.645783  0.703556  0.821201  1
  Si  Si20  1  0.352132  0.297905  0.321733  1
  Si  Si21  1  0.855352  0.204262  0.428537  1
  Si  Si22  1  0.144570  0.794959  0.929145  1
  Si  Si23  1  0.705125  0.643634  0.178769  1
  Si  Si24  1  0.295934  0.353663  0.678463  1
  Si  Si25  1  0.551571  0.200866  0.932742  1
  Si  Si26  1  0.452676  0.799744  0.434508  1
  Si  Si27  1  0.698051  0.952453  0.683257  1
  Si  Si28  1  0.302454  0.044667  0.186208  1
  Si  Si29  1  0.801948  0.454391  0.565946  1
  Si  Si30  1  0.199361  0.550737  0.066734  1
  Si  Si31  1  0.953514  0.697048  0.317108  1
  Si  Si32  1  0.043542  0.304274  0.814067  1
  W  W33  1  0.675889  0.326422  0.748703  1
  W  W34  1  0.324763  0.674241  0.251689  1
  W  W35  1  0.826225  0.824084  0.500445  1
