# generated using pymatgen
data_HfTa(GaIr2)2
_symmetry_space_group_name_H-M   'P 1'
_cell_length_a   4.14294100
_cell_length_b   7.36112600
_cell_length_c   12.29426900
_cell_angle_alpha   90.00000000
_cell_angle_beta   89.99982938
_cell_angle_gamma   90.00000000
_symmetry_Int_Tables_number   1
_chemical_formula_structural   HfTa(GaIr2)2
_chemical_formula_sum   'Hf3 Ta3 Ga6 Ir12'
_cell_volume   374.93476510
_cell_formula_units_Z   3
loop_
 _symmetry_equiv_pos_site_id
 _symmetry_equiv_pos_as_xyz
  1  'x, y, z'
loop_
 _atom_site_type_symbol
 _atom_site_label
 _atom_site_symmetry_multiplicity
 _atom_site_fract_x
 _atom_site_fract_y
 _atom_site_fract_z
 _atom_site_occupancy
  Hf  Hf0  1  0.500004  0.000000  0.498954  1
  Hf  Hf1  1  0.999963  0.499999  0.666665  1
  Hf  Hf2  1  0.499964  0.000000  0.834377  1
  Ta  Ta3  1  0.000001  0.499999  0.000931  1
  Ta  Ta4  1  0.500035  0.000000  0.166669  1
  Ta  Ta5  1  0.000037  0.499999  0.332405  1
  Ga  Ga6  1  0.999996  0.000000  0.000854  1
  Ga  Ga7  1  0.500044  0.499999  0.166667  1
  Ga  Ga8  1  0.000040  0.000000  0.332481  1
  Ga  Ga9  1  0.499998  0.499999  0.499038  1
  Ga  Ga10  1  0.999965  0.000000  0.666666  1
  Ga  Ga11  1  0.499960  0.499999  0.834295  1
  Ir  Ir12  1  0.500001  0.255638  0.004171  1
  Ir  Ir13  1  0.500001  0.744362  0.004171  1
  Ir  Ir14  1  0.000029  0.247431  0.166668  1
  Ir  Ir15  1  0.000029  0.752570  0.166668  1
  Ir  Ir16  1  0.500030  0.255642  0.329164  1
  Ir  Ir17  1  0.500030  0.744358  0.329164  1
  Ir  Ir18  1  0.000001  0.253494  0.495612  1
  Ir  Ir19  1  0.000001  0.746506  0.495612  1
  Ir  Ir20  1  0.499966  0.251104  0.666666  1
  Ir  Ir21  1  0.499966  0.748896  0.666666  1
  Ir  Ir22  1  0.999968  0.253499  0.837721  1
  Ir  Ir23  1  0.999968  0.746502  0.837721  1
