# generated using pymatgen
data_Ho5ZnIn4Os
_symmetry_space_group_name_H-M   'P 1'
_cell_length_a   3.63368200
_cell_length_b   8.14451668
_cell_length_c   18.23347344
_cell_angle_alpha   89.64370184
_cell_angle_beta   90.00000000
_cell_angle_gamma   90.00000000
_symmetry_Int_Tables_number   1
_chemical_formula_structural   Ho5ZnIn4Os
_chemical_formula_sum   'Ho10 Zn2 In8 Os2'
_cell_volume   539.60162178
_cell_formula_units_Z   2
loop_
 _symmetry_equiv_pos_site_id
 _symmetry_equiv_pos_as_xyz
  1  'x, y, z'
loop_
 _atom_site_type_symbol
 _atom_site_label
 _atom_site_symmetry_multiplicity
 _atom_site_fract_x
 _atom_site_fract_y
 _atom_site_fract_z
 _atom_site_occupancy
  Ho  Ho0  1  0.000000  0.119583  0.420489  1
  Ho  Ho1  1  0.000000  0.880417  0.579511  1
  Ho  Ho2  1  0.000000  0.383540  0.913959  1
  Ho  Ho3  1  0.000000  0.616460  0.086041  1
  Ho  Ho4  1  0.000000  0.258895  0.217065  1
  Ho  Ho5  1  0.000000  0.741105  0.782935  1
  Ho  Ho6  1  0.000000  0.285638  0.721692  1
  Ho  Ho7  1  0.000000  0.714362  0.278308  1
  Ho  Ho8  1  0.000000  0.000000  0.000000  1
  Ho  Ho9  1  0.000000  0.500000  0.500000  1
  Zn  Zn10  1  0.500000  0.018627  0.301623  1
  Zn  Zn11  1  0.500000  0.981373  0.698377  1
  In  In12  1  0.500000  0.417108  0.351428  1
  In  In13  1  0.500000  0.582892  0.648572  1
  In  In14  1  0.500000  0.079931  0.849864  1
  In  In15  1  0.500000  0.920069  0.150136  1
  In  In16  1  0.500000  0.292861  0.067878  1
  In  In17  1  0.500000  0.707139  0.932122  1
  In  In18  1  0.500000  0.209775  0.569546  1
  In  In19  1  0.500000  0.790225  0.430454  1
  Os  Os20  1  0.500000  0.480133  0.804218  1
  Os  Os21  1  0.500000  0.519867  0.195782  1
