# generated using pymatgen
data_Gd2Co3
_symmetry_space_group_name_H-M   'P 1'
_cell_length_a   5.49197600
_cell_length_b   5.49197530
_cell_length_c   7.11762200
_cell_angle_alpha   90.00000000
_cell_angle_beta   90.00000000
_cell_angle_gamma   120.38339491
_symmetry_Int_Tables_number   1
_chemical_formula_structural   Gd2Co3
_chemical_formula_sum   'Gd4 Co6'
_cell_volume   185.19614086
_cell_formula_units_Z   2
loop_
 _symmetry_equiv_pos_site_id
 _symmetry_equiv_pos_as_xyz
  1  'x, y, z'
loop_
 _atom_site_type_symbol
 _atom_site_label
 _atom_site_symmetry_multiplicity
 _atom_site_fract_x
 _atom_site_fract_y
 _atom_site_fract_z
 _atom_site_occupancy
  Gd  Gd0  1  0.161410  0.838589  0.096796  1
  Gd  Gd1  1  0.661410  0.338589  0.403204  1
  Gd  Gd2  1  0.338589  0.661410  0.596796  1
  Gd  Gd3  1  0.838589  0.161410  0.903203  1
  Co  Co4  1  0.500000  0.500000  0.000000  1
  Co  Co5  1  0.167163  0.332839  0.250001  1
  Co  Co6  1  0.667162  0.832838  0.250001  1
  Co  Co7  1  0.000000  0.000000  0.500000  1
  Co  Co8  1  0.332839  0.167163  0.750001  1
  Co  Co9  1  0.832838  0.667162  0.750001  1
