# generated using pymatgen
data_Cs6PrLuF12
_symmetry_space_group_name_H-M   'P 1'
_cell_length_a   7.06774806
_cell_length_b   6.82380759
_cell_length_c   11.87201700
_cell_angle_alpha   55.29064382
_cell_angle_beta   90.14636578
_cell_angle_gamma   89.91618653
_symmetry_Int_Tables_number   1
_chemical_formula_structural   Cs6PrLuF12
_chemical_formula_sum   'Cs6 Pr1 Lu1 F12'
_cell_volume   470.68134857
_cell_formula_units_Z   1
loop_
 _symmetry_equiv_pos_site_id
 _symmetry_equiv_pos_as_xyz
  1  'x, y, z'
loop_
 _atom_site_type_symbol
 _atom_site_label
 _atom_site_symmetry_multiplicity
 _atom_site_fract_x
 _atom_site_fract_y
 _atom_site_fract_z
 _atom_site_occupancy
  Cs  Cs0  1  0.500000  0.500000  0.000000  1
  Cs  Cs1  1  0.000000  0.500000  0.500000  1
  Cs  Cs2  1  0.040353  0.728656  0.764119  1
  Cs  Cs3  1  0.959647  0.271344  0.235881  1
  Cs  Cs4  1  0.543717  0.254940  0.762581  1
  Cs  Cs5  1  0.456283  0.745060  0.237419  1
  Pr  Pr6  1  0.500000  0.000000  0.500000  1
  Lu  Lu7  1  0.000000  0.000000  0.000000  1
  F  F8  1  0.767206  0.763779  0.573486  1
  F  F9  1  0.232794  0.236221  0.426514  1
  F  F10  1  0.241205  0.222387  0.951012  1
  F  F11  1  0.758795  0.777613  0.048988  1
  F  F12  1  0.446548  0.891204  0.720216  1
  F  F13  1  0.553452  0.108796  0.279784  1
  F  F14  1  0.961222  0.126042  0.791561  1
  F  F15  1  0.038778  0.873958  0.208439  1
  F  F16  1  0.328580  0.672498  0.552991  1
  F  F17  1  0.671420  0.327502  0.447009  1
  F  F18  1  0.824804  0.282698  0.966538  1
  F  F19  1  0.175196  0.717302  0.033462  1
