# generated using pymatgen
data_Gd3Tm7Pt18
_symmetry_space_group_name_H-M   'P 1'
_cell_length_a   9.74597100
_cell_length_b   9.72812582
_cell_length_c   5.76306600
_cell_angle_alpha   90.00000000
_cell_angle_beta   90.00000000
_cell_angle_gamma   90.18152097
_symmetry_Int_Tables_number   1
_chemical_formula_structural   Gd3Tm7Pt18
_chemical_formula_sum   'Gd3 Tm7 Pt18'
_cell_volume   546.39373055
_cell_formula_units_Z   1
loop_
 _symmetry_equiv_pos_site_id
 _symmetry_equiv_pos_as_xyz
  1  'x, y, z'
loop_
 _atom_site_type_symbol
 _atom_site_label
 _atom_site_symmetry_multiplicity
 _atom_site_fract_x
 _atom_site_fract_y
 _atom_site_fract_z
 _atom_site_occupancy
  Gd  Gd0  1  0.453334  0.809256  0.000000  1
  Gd  Gd1  1  0.547192  0.191797  0.000000  1
  Gd  Gd2  1  0.190265  0.546801  0.000000  1
  Tm  Tm3  1  0.809069  0.453001  0.000000  1
  Tm  Tm4  1  0.500386  0.499697  0.500000  1
  Tm  Tm5  1  0.308006  0.047597  0.500000  1
  Tm  Tm6  1  0.692338  0.952411  0.500000  1
  Tm  Tm7  1  0.952440  0.691321  0.500000  1
  Tm  Tm8  1  0.046930  0.308372  0.500000  1
  Tm  Tm9  1  0.999747  0.999973  0.000000  1
  Pt  Pt10  1  0.189672  0.810218  0.252764  1
  Pt  Pt11  1  0.810052  0.192133  0.748387  1
  Pt  Pt12  1  0.810052  0.192133  0.251613  1
  Pt  Pt13  1  0.189672  0.810218  0.747236  1
  Pt  Pt14  1  0.441366  0.781816  0.500000  1
  Pt  Pt15  1  0.559036  0.217698  0.500000  1
  Pt  Pt16  1  0.218317  0.558906  0.500000  1
  Pt  Pt17  1  0.782251  0.441521  0.500000  1
  Pt  Pt18  1  0.306215  0.306701  0.251887  1
  Pt  Pt19  1  0.694034  0.691272  0.749043  1
  Pt  Pt20  1  0.694034  0.691272  0.250957  1
  Pt  Pt21  1  0.306215  0.306701  0.748113  1
  Pt  Pt22  1  0.278572  0.059304  0.000000  1
  Pt  Pt23  1  0.721330  0.940711  0.000000  1
  Pt  Pt24  1  0.940540  0.718893  0.000000  1
  Pt  Pt25  1  0.057301  0.280341  0.000000  1
  Pt  Pt26  1  0.999618  0.000363  0.500000  1
  Pt  Pt27  1  0.502015  0.499576  0.000000  1
