# generated using pymatgen
data_Ti2CrFe5B2
_symmetry_space_group_name_H-M   'P 1'
_cell_length_a   8.57575900
_cell_length_b   2.83855000
_cell_length_c   8.57575900
_cell_angle_alpha   90.00000000
_cell_angle_beta   90.00000000
_cell_angle_gamma   90.00000000
_symmetry_Int_Tables_number   1
_chemical_formula_structural   Ti2CrFe5B2
_chemical_formula_sum   'Ti4 Cr2 Fe10 B4'
_cell_volume   208.75730621
_cell_formula_units_Z   2
loop_
 _symmetry_equiv_pos_site_id
 _symmetry_equiv_pos_as_xyz
  1  'x, y, z'
loop_
 _atom_site_type_symbol
 _atom_site_label
 _atom_site_symmetry_multiplicity
 _atom_site_fract_x
 _atom_site_fract_y
 _atom_site_fract_z
 _atom_site_occupancy
  Ti  Ti0  1  0.325778  0.000000  0.174223  1
  Ti  Ti1  1  0.825777  0.000000  0.325778  1
  Ti  Ti2  1  0.174223  0.000000  0.674222  1
  Ti  Ti3  1  0.674222  0.000000  0.825777  1
  Cr  Cr4  1  0.000000  0.000000  0.000000  1
  Cr  Cr5  1  0.500001  0.000000  0.500001  1
  Fe  Fe6  1  0.500001  0.500001  0.000000  1
  Fe  Fe7  1  0.787194  0.500001  0.069565  1
  Fe  Fe8  1  0.069565  0.500001  0.212807  1
  Fe  Fe9  1  0.569565  0.500001  0.287194  1
  Fe  Fe10  1  0.287194  0.500001  0.430434  1
  Fe  Fe11  1  0.000000  0.500001  0.500001  1
  Fe  Fe12  1  0.712806  0.500001  0.569565  1
  Fe  Fe13  1  0.430434  0.500001  0.712806  1
  Fe  Fe14  1  0.930435  0.500001  0.787194  1
  Fe  Fe15  1  0.212807  0.500001  0.930435  1
  B  B16  1  0.622412  0.000000  0.122411  1
  B  B17  1  0.122411  0.000000  0.377587  1
  B  B18  1  0.877588  0.000000  0.622412  1
  B  B19  1  0.377587  0.000000  0.877588  1
