# generated using pymatgen
data_Er3(GaRu)2
_symmetry_space_group_name_H-M   'P 1'
_cell_length_a   5.54160400
_cell_length_b   7.64231800
_cell_length_c   13.72996100
_cell_angle_alpha   90.00000000
_cell_angle_beta   90.00000000
_cell_angle_gamma   90.00000000
_symmetry_Int_Tables_number   1
_chemical_formula_structural   Er3(GaRu)2
_chemical_formula_sum   'Er12 Ga8 Ru8'
_cell_volume   581.47345930
_cell_formula_units_Z   4
loop_
 _symmetry_equiv_pos_site_id
 _symmetry_equiv_pos_as_xyz
  1  'x, y, z'
loop_
 _atom_site_type_symbol
 _atom_site_label
 _atom_site_symmetry_multiplicity
 _atom_site_fract_x
 _atom_site_fract_y
 _atom_site_fract_z
 _atom_site_occupancy
  Er  Er0  1  0.154559  0.402651  0.595630  1
  Er  Er1  1  0.845441  0.597349  0.095630  1
  Er  Er2  1  0.154559  0.097349  0.404370  1
  Er  Er3  1  0.845441  0.902651  0.904370  1
  Er  Er4  1  0.845441  0.597349  0.404370  1
  Er  Er5  1  0.154559  0.402651  0.904370  1
  Er  Er6  1  0.845441  0.902651  0.595630  1
  Er  Er7  1  0.154559  0.097349  0.095630  1
  Er  Er8  1  0.622190  0.264158  0.750000  1
  Er  Er9  1  0.377810  0.735842  0.250000  1
  Er  Er10  1  0.622190  0.235842  0.250000  1
  Er  Er11  1  0.377810  0.764158  0.750000  1
  Ga  Ga12  1  0.123513  0.108728  0.750000  1
  Ga  Ga13  1  0.876487  0.891272  0.250000  1
  Ga  Ga14  1  0.123513  0.391272  0.250000  1
  Ga  Ga15  1  0.876487  0.608728  0.750000  1
  Ga  Ga16  1  0.633843  0.250000  0.500000  1
  Ga  Ga17  1  0.366157  0.750000  0.000000  1
  Ga  Ga18  1  0.366157  0.750000  0.500000  1
  Ga  Ga19  1  0.633843  0.250000  0.000000  1
  Ru  Ru20  1  0.350297  0.035516  0.594401  1
  Ru  Ru21  1  0.649703  0.964484  0.094401  1
  Ru  Ru22  1  0.350297  0.464484  0.405599  1
  Ru  Ru23  1  0.649703  0.535516  0.905599  1
  Ru  Ru24  1  0.649703  0.964484  0.405599  1
  Ru  Ru25  1  0.350297  0.035516  0.905599  1
  Ru  Ru26  1  0.649703  0.535516  0.594401  1
  Ru  Ru27  1  0.350297  0.464484  0.094401  1
