# generated using pymatgen
data_Sr5Cu6
_symmetry_space_group_name_H-M   'P 1'
_cell_length_a   15.74169575
_cell_length_b   15.74169582
_cell_length_c   4.43734400
_cell_angle_alpha   90.00000000
_cell_angle_beta   90.00000000
_cell_angle_gamma   164.65169569
_symmetry_Int_Tables_number   1
_chemical_formula_structural   Sr5Cu6
_chemical_formula_sum   'Sr5 Cu6'
_cell_volume   291.04311979
_cell_formula_units_Z   1
loop_
 _symmetry_equiv_pos_site_id
 _symmetry_equiv_pos_as_xyz
  1  'x, y, z'
loop_
 _atom_site_type_symbol
 _atom_site_label
 _atom_site_symmetry_multiplicity
 _atom_site_fract_x
 _atom_site_fract_y
 _atom_site_fract_z
 _atom_site_occupancy
  Sr  Sr0  1  0.000000  0.000000  0.000000  1
  Sr  Sr1  1  0.613956  0.386042  0.000000  1
  Sr  Sr2  1  0.386042  0.613956  0.000000  1
  Sr  Sr3  1  0.803288  0.196710  0.500001  1
  Sr  Sr4  1  0.196710  0.803288  0.500001  1
  Cu  Cu5  1  0.727765  0.272233  0.000000  1
  Cu  Cu6  1  0.272233  0.727765  0.000000  1
  Cu  Cu7  1  0.917336  0.082663  0.500001  1
  Cu  Cu8  1  0.540533  0.459465  0.500001  1
  Cu  Cu9  1  0.459465  0.540533  0.500001  1
  Cu  Cu10  1  0.082663  0.917336  0.500001  1
