# generated using pymatgen
data_La11NdTh4(CdIr)4
_symmetry_space_group_name_H-M   'P 1'
_cell_length_a   10.11159971
_cell_length_b   10.11160021
_cell_length_c   10.10602400
_cell_angle_alpha   60.01824070
_cell_angle_beta   60.01823906
_cell_angle_gamma   60.03222476
_symmetry_Int_Tables_number   1
_chemical_formula_structural   La11NdTh4(CdIr)4
_chemical_formula_sum   'La11 Nd1 Th4 Cd4 Ir4'
_cell_volume   731.02205347
_cell_formula_units_Z   1
loop_
 _symmetry_equiv_pos_site_id
 _symmetry_equiv_pos_as_xyz
  1  'x, y, z'
loop_
 _atom_site_type_symbol
 _atom_site_label
 _atom_site_symmetry_multiplicity
 _atom_site_fract_x
 _atom_site_fract_y
 _atom_site_fract_z
 _atom_site_occupancy
  La  La0  1  0.807183  0.192536  0.193531  1
  La  La1  1  0.192536  0.807183  0.806751  1
  La  La2  1  0.192536  0.807183  0.193531  1
  La  La3  1  0.807183  0.192536  0.806751  1
  La  La4  1  0.192947  0.192947  0.807053  1
  La  La5  1  0.807074  0.807074  0.192926  1
  La  La6  1  0.939682  0.560943  0.560948  1
  La  La7  1  0.560943  0.939682  0.938427  1
  La  La8  1  0.560943  0.939682  0.560948  1
  La  La9  1  0.939682  0.560943  0.938427  1
  La  La10  1  0.559471  0.559471  0.940529  1
  Nd  Nd11  1  0.940035  0.940035  0.559965  1
  Th  Th12  1  0.345166  0.345166  0.345370  1
  Th  Th13  1  0.345166  0.345166  0.964299  1
  Th  Th14  1  0.345231  0.962997  0.345887  1
  Th  Th15  1  0.962997  0.345231  0.345887  1
  Cd  Cd16  1  0.579628  0.579628  0.578812  1
  Cd  Cd17  1  0.579628  0.579628  0.261931  1
  Cd  Cd18  1  0.581355  0.260571  0.579036  1
  Cd  Cd19  1  0.260571  0.581355  0.579036  1
  Ir  Ir20  1  0.145739  0.145739  0.146161  1
  Ir  Ir21  1  0.145739  0.145739  0.562359  1
  Ir  Ir22  1  0.145640  0.562923  0.145717  1
  Ir  Ir23  1  0.562923  0.145640  0.145717  1
