# generated using pymatgen
data_YSn6(IrRu)2
_symmetry_space_group_name_H-M   'P 1'
_cell_length_a   6.96553074
_cell_length_b   6.97177688
_cell_length_c   6.96553049
_cell_angle_alpha   120.02228138
_cell_angle_beta   119.97598982
_cell_angle_gamma   89.97581722
_symmetry_Int_Tables_number   1
_chemical_formula_structural   YSn6(IrRu)2
_chemical_formula_sum   'Y1 Sn6 Ir2 Ru2'
_cell_volume   239.24326175
_cell_formula_units_Z   1
loop_
 _symmetry_equiv_pos_site_id
 _symmetry_equiv_pos_as_xyz
  1  'x, y, z'
loop_
 _atom_site_type_symbol
 _atom_site_label
 _atom_site_symmetry_multiplicity
 _atom_site_fract_x
 _atom_site_fract_y
 _atom_site_fract_z
 _atom_site_occupancy
  Y  Y0  1  0.000715  0.000000  0.000715  1
  Sn  Sn1  1  0.874861  0.536399  0.003927  1
  Sn  Sn2  1  0.540072  0.879344  0.005236  1
  Sn  Sn3  1  0.125892  0.120656  0.660729  1
  Sn  Sn4  1  0.996296  0.500000  0.496296  1
  Sn  Sn5  1  0.467529  0.463601  0.338462  1
  Sn  Sn6  1  0.505660  0.000000  0.505660  1
  Ir  Ir7  1  0.240272  0.605596  0.998319  1
  Ir  Ir8  1  0.392724  0.394404  0.634676  1
  Ru  Ru9  1  0.601412  0.243587  0.998154  1
  Ru  Ru10  1  0.754567  0.756413  0.357826  1
