# generated using pymatgen
data_Y3LuTc3Ru5
_symmetry_space_group_name_H-M   'P 1'
_cell_length_a   5.24867115
_cell_length_b   5.27845306
_cell_length_c   9.07351253
_cell_angle_alpha   89.99999760
_cell_angle_beta   90.03414619
_cell_angle_gamma   120.18786735
_symmetry_Int_Tables_number   1
_chemical_formula_structural   Y3LuTc3Ru5
_chemical_formula_sum   'Y3 Lu1 Tc3 Ru5'
_cell_volume   217.28849377
_cell_formula_units_Z   1
loop_
 _symmetry_equiv_pos_site_id
 _symmetry_equiv_pos_as_xyz
  1  'x, y, z'
loop_
 _atom_site_type_symbol
 _atom_site_label
 _atom_site_symmetry_multiplicity
 _atom_site_fract_x
 _atom_site_fract_y
 _atom_site_fract_z
 _atom_site_occupancy
  Y  Y0  1  0.337911  0.668956  0.432664  1
  Y  Y1  1  0.669256  0.334628  0.563918  1
  Y  Y2  1  0.669608  0.334804  0.937160  1
  Lu  Lu3  1  0.338338  0.669170  0.067420  1
  Tc  Tc4  1  0.161522  0.335205  0.751403  1
  Tc  Tc5  1  0.161522  0.826319  0.751403  1
  Tc  Tc6  1  0.326142  0.163070  0.248282  1
  Ru  Ru7  1  0.819814  0.652172  0.247989  1
  Ru  Ru8  1  0.647578  0.823789  0.751441  1
  Ru  Ru9  1  0.024475  0.012238  0.001415  1
  Ru  Ru10  1  0.819814  0.167642  0.247989  1
  Ru  Ru11  1  0.024018  0.012009  0.498917  1
