# generated using pymatgen
data_TiBe3(AlRh2)4
_symmetry_space_group_name_H-M   'P 1'
_cell_length_a   5.89837602
_cell_length_b   5.89273503
_cell_length_c   5.89923302
_cell_angle_alpha   90.00844484
_cell_angle_beta   90.00456549
_cell_angle_gamma   89.99343010
_symmetry_Int_Tables_number   1
_chemical_formula_structural   TiBe3(AlRh2)4
_chemical_formula_sum   'Ti1 Be3 Al4 Rh8'
_cell_volume   205.04298238
_cell_formula_units_Z   1
loop_
 _symmetry_equiv_pos_site_id
 _symmetry_equiv_pos_as_xyz
  1  'x, y, z'
loop_
 _atom_site_type_symbol
 _atom_site_label
 _atom_site_symmetry_multiplicity
 _atom_site_fract_x
 _atom_site_fract_y
 _atom_site_fract_z
 _atom_site_occupancy
  Ti  Ti0  1  0.999914  0.250008  0.999995  1
  Be  Be1  1  0.000223  0.749996  0.000003  1
  Be  Be2  1  0.499792  0.750003  0.499970  1
  Be  Be3  1  0.500192  0.250001  0.500033  1
  Al  Al4  1  0.499892  0.250001  0.000003  1
  Al  Al5  1  0.499981  0.750002  0.000012  1
  Al  Al6  1  0.000036  0.750002  0.499998  1
  Al  Al7  1  0.000044  0.249999  0.500001  1
  Rh  Rh8  1  0.255427  0.995840  0.255429  1
  Rh  Rh9  1  0.255417  0.504153  0.255440  1
  Rh  Rh10  1  0.744522  0.995819  0.255461  1
  Rh  Rh11  1  0.744533  0.504197  0.255453  1
  Rh  Rh12  1  0.255452  0.995821  0.744546  1
  Rh  Rh13  1  0.255454  0.504160  0.744544  1
  Rh  Rh14  1  0.744563  0.995810  0.744552  1
  Rh  Rh15  1  0.744558  0.504189  0.744566  1
