# generated using pymatgen
data_Nd2Re2Cl
_symmetry_space_group_name_H-M   'P 1'
_cell_length_a   4.17902200
_cell_length_b   4.17902181
_cell_length_c   17.16889400
_cell_angle_alpha   90.00000000
_cell_angle_beta   90.00000000
_cell_angle_gamma   120.00000147
_symmetry_Int_Tables_number   1
_chemical_formula_structural   Nd2Re2Cl
_chemical_formula_sum   'Nd4 Re4 Cl2'
_cell_volume   259.67027634
_cell_formula_units_Z   2
loop_
 _symmetry_equiv_pos_site_id
 _symmetry_equiv_pos_as_xyz
  1  'x, y, z'
loop_
 _atom_site_type_symbol
 _atom_site_label
 _atom_site_symmetry_multiplicity
 _atom_site_fract_x
 _atom_site_fract_y
 _atom_site_fract_z
 _atom_site_occupancy
  Nd  Nd0  1  0.000000  0.000000  0.122149  1
  Nd  Nd1  1  0.000000  0.000000  0.377851  1
  Nd  Nd2  1  0.000000  0.000000  0.622149  1
  Nd  Nd3  1  0.000000  0.000000  0.877851  1
  Re  Re4  1  0.333333  0.666665  0.016802  1
  Re  Re5  1  0.333333  0.666665  0.483198  1
  Re  Re6  1  0.666667  0.333333  0.516802  1
  Re  Re7  1  0.666667  0.333333  0.983198  1
  Cl  Cl8  1  0.666667  0.333333  0.250000  1
  Cl  Cl9  1  0.333333  0.666665  0.750000  1
