# generated using pymatgen
data_Ho10Co4RhAu
_symmetry_space_group_name_H-M   'P 1'
_cell_length_a   7.19453896
_cell_length_b   7.19453951
_cell_length_c   8.67104682
_cell_angle_alpha   114.51048922
_cell_angle_beta   114.51049295
_cell_angle_gamma   89.99999984
_symmetry_Int_Tables_number   1
_chemical_formula_structural   Ho10Co4RhAu
_chemical_formula_sum   'Ho10 Co4 Rh1 Au1'
_cell_volume   363.46069101
_cell_formula_units_Z   1
loop_
 _symmetry_equiv_pos_site_id
 _symmetry_equiv_pos_as_xyz
  1  'x, y, z'
loop_
 _atom_site_type_symbol
 _atom_site_label
 _atom_site_symmetry_multiplicity
 _atom_site_fract_x
 _atom_site_fract_y
 _atom_site_fract_z
 _atom_site_occupancy
  Ho  Ho0  1  0.006266  0.006266  0.012532  1
  Ho  Ho1  1  0.493734  0.493734  0.987468  1
  Ho  Ho2  1  0.471786  0.320950  0.277863  1
  Ho  Ho3  1  0.956914  0.471786  0.277863  1
  Ho  Ho4  1  0.320950  0.806077  0.277863  1
  Ho  Ho5  1  0.806077  0.956914  0.277863  1
  Ho  Ho6  1  0.179050  0.028214  0.722136  1
  Ho  Ho7  1  0.693921  0.179050  0.722136  1
  Ho  Ho8  1  0.028214  0.543086  0.722136  1
  Ho  Ho9  1  0.543086  0.693921  0.722136  1
  Co  Co10  1  0.613075  0.113075  0.000000  1
  Co  Co11  1  0.113075  0.386926  0.000000  1
  Co  Co12  1  0.886925  0.613075  0.000000  1
  Co  Co13  1  0.386926  0.886925  0.000000  1
  Rh  Rh14  1  0.750000  0.750000  0.500000  1
  Au  Au15  1  0.250000  0.250000  0.500000  1
