# generated using pymatgen
data_Tb3Er(WF7)4
_symmetry_space_group_name_H-M   'P 1'
_cell_length_a   5.65559394
_cell_length_b   9.12101574
_cell_length_c   12.25527600
_cell_angle_alpha   62.52863105
_cell_angle_beta   89.95248647
_cell_angle_gamma   89.99252346
_symmetry_Int_Tables_number   1
_chemical_formula_structural   Tb3Er(WF7)4
_chemical_formula_sum   'Tb3 Er1 W4 F28'
_cell_volume   560.90096038
_cell_formula_units_Z   1
loop_
 _symmetry_equiv_pos_site_id
 _symmetry_equiv_pos_as_xyz
  1  'x, y, z'
loop_
 _atom_site_type_symbol
 _atom_site_label
 _atom_site_symmetry_multiplicity
 _atom_site_fract_x
 _atom_site_fract_y
 _atom_site_fract_z
 _atom_site_occupancy
  Tb  Tb0  1  0.757854  0.813234  0.765428  1
  Tb  Tb1  1  0.258009  0.186240  0.734612  1
  Tb  Tb2  1  0.242979  0.184066  0.234662  1
  Er  Er3  1  0.742090  0.814290  0.265330  1
  W  W4  1  0.755433  0.272054  0.957723  1
  W  W5  1  0.256281  0.726728  0.541535  1
  W  W6  1  0.243755  0.727139  0.044638  1
  W  W7  1  0.744816  0.274693  0.456275  1
  F  F8  1  0.461665  0.708744  0.918193  1
  F  F9  1  0.961278  0.292851  0.582770  1
  F  F10  1  0.545907  0.291058  0.082280  1
  F  F11  1  0.045223  0.709230  0.417245  1
  F  F12  1  0.448271  0.278308  0.547374  1
  F  F13  1  0.949386  0.722510  0.952647  1
  F  F14  1  0.557007  0.724495  0.446139  1
  F  F15  1  0.056249  0.275709  0.051190  1
  F  F16  1  0.769364  0.518058  0.859924  1
  F  F17  1  0.271222  0.481215  0.639998  1
  F  F18  1  0.228155  0.481017  0.141643  1
  F  F19  1  0.731173  0.521324  0.358475  1
  F  F20  1  0.754382  0.026606  0.055606  1
  F  F21  1  0.255450  0.972310  0.444561  1
  F  F22  1  0.239334  0.972459  0.946699  1
  F  F23  1  0.739410  0.029155  0.553639  1
  F  F24  1  0.969197  0.731191  0.643421  1
  F  F25  1  0.467217  0.268242  0.857129  1
  F  F26  1  0.029291  0.267021  0.359994  1
  F  F27  1  0.526834  0.733864  0.142186  1
  F  F28  1  0.031544  0.749191  0.172738  1
  F  F29  1  0.536111  0.252958  0.327700  1
  F  F30  1  0.959606  0.250687  0.831285  1
  F  F31  1  0.460729  0.748857  0.667436  1
  F  F32  1  0.429118  0.972551  0.232857  1
  F  F33  1  0.924810  0.022082  0.266598  1
  F  F34  1  0.575595  0.027889  0.764972  1
  F  F35  1  0.075252  0.971973  0.735096  1
