# generated using pymatgen
data_Pr4Fe5(P4Rh5)3
_symmetry_space_group_name_H-M   'P 1'
_cell_length_a   3.88498600
_cell_length_b   10.79231946
_cell_length_c   12.48754800
_cell_angle_alpha   89.89484345
_cell_angle_beta   90.00000000
_cell_angle_gamma   90.00000000
_symmetry_Int_Tables_number   1
_chemical_formula_structural   Pr4Fe5(P4Rh5)3
_chemical_formula_sum   'Pr4 Fe5 P12 Rh15'
_cell_volume   523.57715593
_cell_formula_units_Z   1
loop_
 _symmetry_equiv_pos_site_id
 _symmetry_equiv_pos_as_xyz
  1  'x, y, z'
loop_
 _atom_site_type_symbol
 _atom_site_label
 _atom_site_symmetry_multiplicity
 _atom_site_fract_x
 _atom_site_fract_y
 _atom_site_fract_z
 _atom_site_occupancy
  Pr  Pr0  1  0.250000  0.579038  0.710217  1
  Pr  Pr1  1  0.250000  0.918130  0.208220  1
  Pr  Pr2  1  0.750000  0.418015  0.291328  1
  Pr  Pr3  1  0.750000  0.085067  0.791658  1
  Fe  Fe4  1  0.750000  0.377467  0.803157  1
  Fe  Fe5  1  0.250000  0.460907  0.933408  1
  Fe  Fe6  1  0.250000  0.038346  0.434937  1
  Fe  Fe7  1  0.750000  0.538747  0.063488  1
  Fe  Fe8  1  0.750000  0.962009  0.566511  1
  P  P9  1  0.250000  0.430962  0.103890  1
  P  P10  1  0.250000  0.069916  0.605201  1
  P  P11  1  0.750000  0.559365  0.890021  1
  P  P12  1  0.750000  0.930521  0.396015  1
  P  P13  1  0.250000  0.279186  0.864137  1
  P  P14  1  0.250000  0.226777  0.371743  1
  P  P15  1  0.750000  0.726295  0.127788  1
  P  P16  1  0.750000  0.772881  0.629799  1
  P  P17  1  0.250000  0.603510  0.391315  1
  P  P18  1  0.250000  0.896247  0.890630  1
  P  P19  1  0.750000  0.395555  0.619222  1
  P  P20  1  0.750000  0.105974  0.108163  1
  Rh  Rh21  1  0.250000  0.714958  0.990721  1
  Rh  Rh22  1  0.250000  0.784776  0.490975  1
  Rh  Rh23  1  0.750000  0.287978  0.007402  1
  Rh  Rh24  1  0.750000  0.216595  0.511374  1
  Rh  Rh25  1  0.250000  0.407919  0.482186  1
  Rh  Rh26  1  0.250000  0.094346  0.981017  1
  Rh  Rh27  1  0.750000  0.590419  0.518706  1
  Rh  Rh28  1  0.750000  0.909232  0.015725  1
  Rh  Rh29  1  0.250000  0.229084  0.173356  1
  Rh  Rh30  1  0.250000  0.273701  0.674840  1
  Rh  Rh31  1  0.750000  0.767371  0.826528  1
  Rh  Rh32  1  0.750000  0.728790  0.325943  1
  Rh  Rh33  1  0.250000  0.880054  0.700455  1
  Rh  Rh34  1  0.250000  0.619623  0.198992  1
  Rh  Rh35  1  0.750000  0.120236  0.300928  1
