# generated using pymatgen
data_Dy5Y15(Bi2Sb)4
_symmetry_space_group_name_H-M   'P 1'
_cell_length_a   8.20130713
_cell_length_b   9.47775722
_cell_length_c   12.04109809
_cell_angle_alpha   90.01364236
_cell_angle_beta   90.00223001
_cell_angle_gamma   90.02063776
_symmetry_Int_Tables_number   1
_chemical_formula_structural   Dy5Y15(Bi2Sb)4
_chemical_formula_sum   'Dy5 Y15 Bi8 Sb4'
_cell_volume   935.95444129
_cell_formula_units_Z   1
loop_
 _symmetry_equiv_pos_site_id
 _symmetry_equiv_pos_as_xyz
  1  'x, y, z'
loop_
 _atom_site_type_symbol
 _atom_site_label
 _atom_site_symmetry_multiplicity
 _atom_site_fract_x
 _atom_site_fract_y
 _atom_site_fract_z
 _atom_site_occupancy
  Dy  Dy0  1  0.028808  0.749941  0.988289  1
  Dy  Dy1  1  0.528745  0.749963  0.511702  1
  Dy  Dy2  1  0.971585  0.250292  0.011639  1
  Dy  Dy3  1  0.471282  0.250048  0.488309  1
  Dy  Dy4  1  0.309475  0.438040  0.941426  1
  Y  Y5  1  0.183016  0.749952  0.718414  1
  Y  Y6  1  0.682951  0.749971  0.781623  1
  Y  Y7  1  0.817011  0.249991  0.281644  1
  Y  Y8  1  0.316944  0.250111  0.218243  1
  Y  Y9  1  0.809554  0.060985  0.558566  1
  Y  Y10  1  0.690429  0.939087  0.058536  1
  Y  Y11  1  0.190443  0.560944  0.441452  1
  Y  Y12  1  0.690092  0.560866  0.058423  1
  Y  Y13  1  0.190476  0.939069  0.441445  1
  Y  Y14  1  0.309592  0.061253  0.941475  1
  Y  Y15  1  0.809532  0.439049  0.558549  1
  Y  Y16  1  0.353829  0.749971  0.212784  1
  Y  Y17  1  0.853818  0.749975  0.287226  1
  Y  Y18  1  0.646052  0.250161  0.787263  1
  Y  Y19  1  0.146259  0.250247  0.712968  1
  Bi  Bi20  1  0.433557  0.003884  0.673593  1
  Bi  Bi21  1  0.933638  0.496268  0.826390  1
  Bi  Bi22  1  0.566473  0.503886  0.326381  1
  Bi  Bi23  1  0.066430  0.996094  0.173610  1
  Bi  Bi24  1  0.566446  0.996137  0.326406  1
  Bi  Bi25  1  0.066535  0.503916  0.173538  1
  Bi  Bi26  1  0.433508  0.496160  0.673672  1
  Bi  Bi27  1  0.933607  0.003850  0.826411  1
  Sb  Sb28  1  0.409927  0.749894  0.959208  1
  Sb  Sb29  1  0.910116  0.749995  0.540763  1
  Sb  Sb30  1  0.589979  0.249996  0.040753  1
  Sb  Sb31  1  0.089892  0.250004  0.459298  1
