# generated using pymatgen
data_K8V5Fe3P8(O4F)8
_symmetry_space_group_name_H-M   'P 1'
_cell_length_a   6.49820000
_cell_length_b   10.83800200
_cell_length_c   13.04120400
_cell_angle_alpha   90.00000000
_cell_angle_beta   90.00000000
_cell_angle_gamma   90.00000000
_symmetry_Int_Tables_number   1
_chemical_formula_structural   K8V5Fe3P8(O4F)8
_chemical_formula_sum   'K8 V5 Fe3 P8 O32 F8'
_cell_volume   918.45945465
_cell_formula_units_Z   1
loop_
 _symmetry_equiv_pos_site_id
 _symmetry_equiv_pos_as_xyz
  1  'x, y, z'
loop_
 _atom_site_type_symbol
 _atom_site_label
 _atom_site_symmetry_multiplicity
 _atom_site_fract_x
 _atom_site_fract_y
 _atom_site_fract_z
 _atom_site_occupancy
  K  K0  1  0.224446  0.800039  0.623027  1
  K  K1  1  0.724201  0.300257  0.877234  1
  K  K2  1  0.276219  0.800919  0.122310  1
  K  K3  1  0.775326  0.299735  0.377549  1
  K  K4  1  0.700549  0.059682  0.104492  1
  K  K5  1  0.299469  0.559266  0.895399  1
  K  K6  1  0.799608  0.059590  0.604974  1
  K  K7  1  0.201303  0.559579  0.395768  1
  V  V8  1  0.995042  0.502744  0.114891  1
  V  V9  1  0.251394  0.251510  0.246938  1
  V  V10  1  0.749503  0.752115  0.753035  1
  V  V11  1  0.249559  0.252056  0.747122  1
  V  V12  1  0.749170  0.752726  0.252923  1
  Fe  Fe13  1  0.492349  0.002465  0.387798  1
  Fe  Fe14  1  0.507634  0.502399  0.612526  1
  Fe  Fe15  1  0.007643  0.002398  0.887526  1
  P  P16  1  0.332858  0.254250  0.499240  1
  P  P17  1  0.667045  0.754214  0.500752  1
  P  P18  1  0.166396  0.254188  0.999173  1
  P  P19  1  0.833457  0.754299  0.000702  1
  P  P20  1  0.498514  0.504269  0.180698  1
  P  P21  1  0.501943  0.004433  0.819001  1
  P  P22  1  0.001941  0.504505  0.680937  1
  P  P23  1  0.998015  0.004494  0.319040  1
  O  O24  1  0.483773  0.144123  0.483414  1
  O  O25  1  0.516368  0.644006  0.516635  1
  O  O26  1  0.016841  0.143421  0.983368  1
  O  O27  1  0.985673  0.644710  0.016107  1
  O  O28  1  0.471365  0.370931  0.511666  1
  O  O29  1  0.528399  0.870830  0.488342  1
  O  O30  1  0.025616  0.369896  0.011101  1
  O  O31  1  0.971138  0.871316  0.988436  1
  O  O32  1  0.196927  0.274157  0.402818  1
  O  O33  1  0.803373  0.774305  0.597001  1
  O  O34  1  0.303137  0.274302  0.902939  1
  O  O35  1  0.697039  0.774151  0.097134  1
  O  O36  1  0.196473  0.231301  0.594387  1
  O  O37  1  0.803003  0.731403  0.405401  1
  O  O38  1  0.302935  0.231578  0.094418  1
  O  O39  1  0.696790  0.731338  0.905678  1
  O  O40  1  0.309216  0.530841  0.111480  1
  O  O41  1  0.691766  0.030746  0.887831  1
  O  O42  1  0.191829  0.530773  0.612036  1
  O  O43  1  0.808192  0.030733  0.387961  1
  O  O44  1  0.687240  0.478510  0.112294  1
  O  O45  1  0.311104  0.978858  0.886475  1
  O  O46  1  0.811036  0.478994  0.613389  1
  O  O47  1  0.188950  0.979029  0.386549  1
  O  O48  1  0.533822  0.619188  0.251545  1
  O  O49  1  0.466086  0.119178  0.748108  1
  O  O50  1  0.966135  0.619256  0.751704  1
  O  O51  1  0.033899  0.119217  0.248229  1
  O  O52  1  0.455068  0.392554  0.253279  1
  O  O53  1  0.544451  0.892391  0.746661  1
  O  O54  1  0.044439  0.392400  0.753163  1
  O  O55  1  0.955419  0.892419  0.246759  1
  F  F56  1  0.523633  0.881876  0.270221  1
  F  F57  1  0.475287  0.381425  0.729666  1
  F  F58  1  0.975266  0.881433  0.770227  1
  F  F59  1  0.025342  0.380506  0.230339  1
  F  F60  1  0.481437  0.128696  0.270686  1
  F  F61  1  0.519478  0.629035  0.729214  1
  F  F62  1  0.019510  0.128989  0.770676  1
  F  F63  1  0.978957  0.629732  0.229605  1
