# generated using pymatgen
data_CaTh7TiS17
_symmetry_space_group_name_H-M   'P 1'
_cell_length_a   8.00924565
_cell_length_b   8.02465500
_cell_length_c   10.63461900
_cell_angle_alpha   80.79449110
_cell_angle_beta   80.48792919
_cell_angle_gamma   65.37772205
_symmetry_Int_Tables_number   1
_chemical_formula_structural   CaTh7TiS17
_chemical_formula_sum   'Ca1 Th7 Ti1 S17'
_cell_volume   609.63769012
_cell_formula_units_Z   1
loop_
 _symmetry_equiv_pos_site_id
 _symmetry_equiv_pos_as_xyz
  1  'x, y, z'
loop_
 _atom_site_type_symbol
 _atom_site_label
 _atom_site_symmetry_multiplicity
 _atom_site_fract_x
 _atom_site_fract_y
 _atom_site_fract_z
 _atom_site_occupancy
  Ca  Ca0  1  0.809645  0.307975  0.295526  1
  Th  Th1  1  0.302800  0.814422  0.295930  1
  Th  Th2  1  0.185251  0.696125  0.703071  1
  Th  Th3  1  0.699017  0.187803  0.699624  1
  Th  Th4  1  0.206255  0.204534  0.540390  1
  Th  Th5  1  0.793534  0.792611  0.456485  1
  Th  Th6  1  0.681623  0.679064  0.981896  1
  Th  Th7  1  0.317435  0.322087  0.023605  1
  Ti  Ti8  1  0.998237  0.009823  0.006036  1
  S  S9  1  0.827165  0.429360  0.538898  1
  S  S10  1  0.431565  0.818850  0.534230  1
  S  S11  1  0.178614  0.566914  0.466175  1
  S  S12  1  0.572155  0.171014  0.471205  1
  S  S13  1  0.943223  0.320179  0.021402  1
  S  S14  1  0.319608  0.944877  0.023472  1
  S  S15  1  0.055305  0.681233  0.971721  1
  S  S16  1  0.681083  0.059458  0.972313  1
  S  S17  1  0.219027  0.200482  0.275992  1
  S  S18  1  0.788543  0.791208  0.725213  1
  S  S19  1  0.061076  0.054807  0.776760  1
  S  S20  1  0.944538  0.934490  0.223455  1
  S  S21  1  0.303105  0.302866  0.755322  1
  S  S22  1  0.689143  0.708083  0.242679  1
  S  S23  1  0.519007  0.520238  0.832409  1
  S  S24  1  0.468455  0.491879  0.160516  1
  S  S25  1  0.004593  0.989619  0.505669  1
