# generated using pymatgen
data_Tb5Tl2InSe
_symmetry_space_group_name_H-M   'P 1'
_cell_length_a   9.27375600
_cell_length_b   9.25124408
_cell_length_c   6.74743100
_cell_angle_alpha   90.00000000
_cell_angle_beta   90.00000000
_cell_angle_gamma   119.91972892
_symmetry_Int_Tables_number   1
_chemical_formula_structural   Tb5Tl2InSe
_chemical_formula_sum   'Tb10 Tl4 In2 Se2'
_cell_volume   501.73639588
_cell_formula_units_Z   2
loop_
 _symmetry_equiv_pos_site_id
 _symmetry_equiv_pos_as_xyz
  1  'x, y, z'
loop_
 _atom_site_type_symbol
 _atom_site_label
 _atom_site_symmetry_multiplicity
 _atom_site_fract_x
 _atom_site_fract_y
 _atom_site_fract_z
 _atom_site_occupancy
  Tb  Tb0  1  0.663015  0.330470  0.499884  1
  Tb  Tb1  1  0.336985  0.667456  0.499884  1
  Tb  Tb2  1  0.336985  0.667456  0.000116  1
  Tb  Tb3  1  0.663015  0.330470  0.000116  1
  Tb  Tb4  1  0.746822  0.749562  0.250000  1
  Tb  Tb5  1  0.253178  0.002740  0.250000  1
  Tb  Tb6  1  0.000000  0.250949  0.250000  1
  Tb  Tb7  1  0.251616  0.250798  0.750000  1
  Tb  Tb8  1  0.748384  0.999183  0.750000  1
  Tb  Tb9  1  0.000000  0.750078  0.750000  1
  Tl  Tl10  1  0.000000  0.601079  0.250000  1
  Tl  Tl11  1  0.600523  0.599653  0.750000  1
  Tl  Tl12  1  0.399477  0.999130  0.750000  1
  Tl  Tl13  1  0.000000  0.400073  0.750000  1
  In  In14  1  0.398173  0.399569  0.250000  1
  In  In15  1  0.601827  0.001396  0.250000  1
  Se  Se16  1  0.000000  0.999968  0.499591  1
  Se  Se17  1  0.000000  0.999968  0.000409  1
