# generated using pymatgen
data_Dy3HfMg2Rh3
_symmetry_space_group_name_H-M   'P 1'
_cell_length_a   7.22859200
_cell_length_b   7.32359871
_cell_length_c   4.18611200
_cell_angle_alpha   90.00000000
_cell_angle_beta   90.00000000
_cell_angle_gamma   119.57177802
_symmetry_Int_Tables_number   1
_chemical_formula_structural   Dy3HfMg2Rh3
_chemical_formula_sum   'Dy3 Hf1 Mg2 Rh3'
_cell_volume   192.74255120
_cell_formula_units_Z   1
loop_
 _symmetry_equiv_pos_site_id
 _symmetry_equiv_pos_as_xyz
  1  'x, y, z'
loop_
 _atom_site_type_symbol
 _atom_site_label
 _atom_site_symmetry_multiplicity
 _atom_site_fract_x
 _atom_site_fract_y
 _atom_site_fract_z
 _atom_site_occupancy
  Dy  Dy0  1  0.991383  0.578128  0.500000  1
  Dy  Dy1  1  0.413255  0.421872  0.500000  1
  Dy  Dy2  1  0.600783  0.000000  0.500000  1
  Hf  Hf3  1  0.248745  0.000000  0.000000  1
  Mg  Mg4  1  0.752819  0.752551  0.000000  1
  Mg  Mg5  1  0.000267  0.247449  0.000000  1
  Rh  Rh6  1  0.644014  0.319238  0.000000  1
  Rh  Rh7  1  0.324776  0.680762  0.000000  1
  Rh  Rh8  1  0.023959  0.000000  0.500000  1
