# generated using pymatgen
data_Dy12Co4BiOs
_symmetry_space_group_name_H-M   'P 1'
_cell_length_a   8.33866711
_cell_length_b   8.33866662
_cell_length_c   8.33866684
_cell_angle_alpha   111.44209627
_cell_angle_beta   110.27466223
_cell_angle_gamma   106.73337245
_symmetry_Int_Tables_number   1
_chemical_formula_structural   Dy12Co4BiOs
_chemical_formula_sum   'Dy12 Co4 Bi1 Os1'
_cell_volume   445.53379061
_cell_formula_units_Z   1
loop_
 _symmetry_equiv_pos_site_id
 _symmetry_equiv_pos_as_xyz
  1  'x, y, z'
loop_
 _atom_site_type_symbol
 _atom_site_label
 _atom_site_symmetry_multiplicity
 _atom_site_fract_x
 _atom_site_fract_y
 _atom_site_fract_z
 _atom_site_occupancy
  Dy  Dy0  1  0.818998  0.716342  0.535340  1
  Dy  Dy1  1  0.181002  0.283658  0.464660  1
  Dy  Dy2  1  0.181002  0.716342  0.897343  1
  Dy  Dy3  1  0.818998  0.283658  0.102657  1
  Dy  Dy4  1  0.687847  0.379077  0.691230  1
  Dy  Dy5  1  0.312153  0.620923  0.308770  1
  Dy  Dy6  1  0.687847  0.996617  0.308770  1
  Dy  Dy7  1  0.312153  0.003383  0.691230  1
  Dy  Dy8  1  0.591507  0.787872  0.803635  1
  Dy  Dy9  1  0.408493  0.212128  0.196365  1
  Dy  Dy10  1  0.984237  0.787872  0.196365  1
  Dy  Dy11  1  0.015763  0.212128  0.803635  1
  Co  Co12  1  0.623738  0.000000  0.623738  1
  Co  Co13  1  0.376262  0.000000  0.376262  1
  Co  Co14  1  0.110661  0.610661  0.500000  1
  Co  Co15  1  0.889339  0.389339  0.500000  1
  Bi  Bi16  1  0.500000  0.500000  0.000000  1
  Os  Os17  1  0.000000  0.000000  0.000000  1
