# generated using pymatgen
data_Ho4B8Mo3Ru7
_symmetry_space_group_name_H-M   'P 1'
_cell_length_a   3.09969600
_cell_length_b   8.87466665
_cell_length_c   10.18986535
_cell_angle_alpha   90.23440386
_cell_angle_beta   90.00000000
_cell_angle_gamma   90.00000000
_symmetry_Int_Tables_number   1
_chemical_formula_structural   Ho4B8Mo3Ru7
_chemical_formula_sum   'Ho4 B8 Mo3 Ru7'
_cell_volume   280.30830345
_cell_formula_units_Z   1
loop_
 _symmetry_equiv_pos_site_id
 _symmetry_equiv_pos_as_xyz
  1  'x, y, z'
loop_
 _atom_site_type_symbol
 _atom_site_label
 _atom_site_symmetry_multiplicity
 _atom_site_fract_x
 _atom_site_fract_y
 _atom_site_fract_z
 _atom_site_occupancy
  Ho  Ho0  1  0.500000  0.837568  0.181511  1
  Ho  Ho1  1  0.500000  0.159955  0.818037  1
  Ho  Ho2  1  0.500000  0.659312  0.681375  1
  Ho  Ho3  1  0.500000  0.338196  0.317821  1
  B  B4  1  0.500000  0.968967  0.587286  1
  B  B5  1  0.500000  0.034462  0.414287  1
  B  B6  1  0.500000  0.854298  0.900105  1
  B  B7  1  0.500000  0.147666  0.100661  1
  B  B8  1  0.500000  0.649350  0.400548  1
  B  B9  1  0.500000  0.351997  0.599153  1
  B  B10  1  0.500000  0.466138  0.914353  1
  B  B11  1  0.500000  0.532348  0.085024  1
  Mo  Mo12  1  0.000000  0.660461  0.952311  1
  Mo  Mo13  1  0.000000  0.338557  0.046409  1
  Mo  Mo14  1  0.000000  0.843792  0.454935  1
  Ru  Ru15  1  0.000000  0.163715  0.547796  1
  Ru  Ru16  1  0.000000  0.999493  0.000541  1
  Ru  Ru17  1  0.000000  0.406724  0.759344  1
  Ru  Ru18  1  0.000000  0.590414  0.239259  1
  Ru  Ru19  1  0.000000  0.497898  0.499451  1
  Ru  Ru20  1  0.000000  0.908180  0.737674  1
  Ru  Ru21  1  0.000000  0.090508  0.262122  1
