# generated using pymatgen
data_Er8Tc2B24IrRu
_symmetry_space_group_name_H-M   'P 1'
_cell_length_a   3.64768300
_cell_length_b   9.10556315
_cell_length_c   11.48951834
_cell_angle_alpha   89.78501947
_cell_angle_beta   90.00000000
_cell_angle_gamma   90.00000000
_symmetry_Int_Tables_number   1
_chemical_formula_structural   Er8Tc2B24IrRu
_chemical_formula_sum   'Er8 Tc2 B24 Ir1 Ru1'
_cell_volume   381.61256468
_cell_formula_units_Z   1
loop_
 _symmetry_equiv_pos_site_id
 _symmetry_equiv_pos_as_xyz
  1  'x, y, z'
loop_
 _atom_site_type_symbol
 _atom_site_label
 _atom_site_symmetry_multiplicity
 _atom_site_fract_x
 _atom_site_fract_y
 _atom_site_fract_z
 _atom_site_occupancy
  Er  Er0  1  0.000000  0.326660  0.418423  1
  Er  Er1  1  0.000000  0.675707  0.585029  1
  Er  Er2  1  0.000000  0.817253  0.085998  1
  Er  Er3  1  0.000000  0.180410  0.909371  1
  Er  Er4  1  0.000000  0.940669  0.373545  1
  Er  Er5  1  0.000000  0.057306  0.627820  1
  Er  Er6  1  0.000000  0.445571  0.128743  1
  Er  Er7  1  0.000000  0.556050  0.871071  1
  Tc  Tc8  1  0.000000  0.638217  0.319945  1
  Tc  Tc9  1  0.000000  0.361889  0.679896  1
  B  B10  1  0.500000  0.552853  0.433113  1
  B  B11  1  0.500000  0.447349  0.567276  1
  B  B12  1  0.500000  0.053799  0.065551  1
  B  B13  1  0.500000  0.946142  0.933535  1
  B  B14  1  0.500000  0.748178  0.419377  1
  B  B15  1  0.500000  0.251907  0.580811  1
  B  B16  1  0.500000  0.249438  0.078781  1
  B  B17  1  0.500000  0.751320  0.919791  1
  B  B18  1  0.500000  0.791883  0.265187  1
  B  B19  1  0.500000  0.208023  0.734362  1
  B  B20  1  0.500000  0.291080  0.234155  1
  B  B21  1  0.500000  0.709446  0.766277  1
  B  B22  1  0.500000  0.631366  0.184677  1
  B  B23  1  0.500000  0.368520  0.814886  1
  B  B24  1  0.500000  0.131204  0.316278  1
  B  B25  1  0.500000  0.869192  0.685534  1
  B  B26  1  0.500000  0.982040  0.212566  1
  B  B27  1  0.500000  0.017433  0.787817  1
  B  B28  1  0.500000  0.482172  0.287442  1
  B  B29  1  0.500000  0.518065  0.712818  1
  B  B30  1  0.500000  0.605871  0.029058  1
  B  B31  1  0.500000  0.393150  0.970956  1
  B  B32  1  0.500000  0.106266  0.470253  1
  B  B33  1  0.500000  0.894058  0.529606  1
  Ir  Ir34  1  0.000000  0.136929  0.178103  1
  Ru  Ru35  1  0.000000  0.862583  0.821951  1
