# generated using pymatgen
data_Rb3CoO4
_symmetry_space_group_name_H-M   'P 1'
_cell_length_a   6.42529400
_cell_length_b   8.72112100
_cell_length_c   11.96222200
_cell_angle_alpha   90.00000000
_cell_angle_beta   90.00000000
_cell_angle_gamma   90.00000000
_symmetry_Int_Tables_number   1
_chemical_formula_structural   Rb3CoO4
_chemical_formula_sum   'Rb12 Co4 O16'
_cell_volume   670.31227803
_cell_formula_units_Z   4
loop_
 _symmetry_equiv_pos_site_id
 _symmetry_equiv_pos_as_xyz
  1  'x, y, z'
loop_
 _atom_site_type_symbol
 _atom_site_label
 _atom_site_symmetry_multiplicity
 _atom_site_fract_x
 _atom_site_fract_y
 _atom_site_fract_z
 _atom_site_occupancy
  Rb  Rb0  1  0.684634  0.010001  0.146579  1
  Rb  Rb1  1  0.815366  0.489999  0.646579  1
  Rb  Rb2  1  0.315366  0.510001  0.853421  1
  Rb  Rb3  1  0.184634  0.989999  0.353421  1
  Rb  Rb4  1  0.315366  0.989999  0.853421  1
  Rb  Rb5  1  0.184634  0.510001  0.353421  1
  Rb  Rb6  1  0.684634  0.489999  0.146579  1
  Rb  Rb7  1  0.815366  0.010001  0.646579  1
  Rb  Rb8  1  0.131156  0.250000  0.066128  1
  Rb  Rb9  1  0.368844  0.250000  0.566128  1
  Rb  Rb10  1  0.868844  0.750000  0.933872  1
  Rb  Rb11  1  0.631156  0.750000  0.433872  1
  Co  Co12  1  0.282581  0.750000  0.113909  1
  Co  Co13  1  0.217419  0.750000  0.613909  1
  Co  Co14  1  0.717419  0.250000  0.886091  1
  Co  Co15  1  0.782581  0.250000  0.386091  1
  O  O16  1  0.425363  0.750000  0.234401  1
  O  O17  1  0.074637  0.750000  0.734401  1
  O  O18  1  0.574637  0.250000  0.765599  1
  O  O19  1  0.925363  0.250000  0.265599  1
  O  O20  1  0.453833  0.750000  0.004255  1
  O  O21  1  0.046167  0.750000  0.504255  1
  O  O22  1  0.546167  0.250000  0.995745  1
  O  O23  1  0.953833  0.250000  0.495745  1
  O  O24  1  0.133033  0.589103  0.108493  1
  O  O25  1  0.366967  0.910897  0.608493  1
  O  O26  1  0.866967  0.089103  0.891507  1
  O  O27  1  0.633033  0.410897  0.391507  1
  O  O28  1  0.866967  0.410897  0.891507  1
  O  O29  1  0.633033  0.089103  0.391507  1
  O  O30  1  0.133033  0.910897  0.108493  1
  O  O31  1  0.366967  0.589103  0.608493  1
