# generated using pymatgen
data_TmLuPa2(Al3Ir)6
_symmetry_space_group_name_H-M   'P 1'
_cell_length_a   7.58856000
_cell_length_b   7.59862394
_cell_length_c   9.34186500
_cell_angle_alpha   90.00000000
_cell_angle_beta   90.00000000
_cell_angle_gamma   119.72235164
_symmetry_Int_Tables_number   1
_chemical_formula_structural   TmLuPa2(Al3Ir)6
_chemical_formula_sum   'Tm1 Lu1 Pa2 Al18 Ir6'
_cell_volume   467.80710350
_cell_formula_units_Z   1
loop_
 _symmetry_equiv_pos_site_id
 _symmetry_equiv_pos_as_xyz
  1  'x, y, z'
loop_
 _atom_site_type_symbol
 _atom_site_label
 _atom_site_symmetry_multiplicity
 _atom_site_fract_x
 _atom_site_fract_y
 _atom_site_fract_z
 _atom_site_occupancy
  Tm  Tm0  1  0.669489  0.993316  0.250000  1
  Lu  Lu1  1  0.330459  0.006673  0.750000  1
  Pa  Pa2  1  0.997826  0.670860  0.250000  1
  Pa  Pa3  1  0.002155  0.329104  0.750000  1
  Al  Al4  1  0.130429  0.126896  0.250000  1
  Al  Al5  1  0.869681  0.873154  0.750000  1
  Al  Al6  1  0.999959  0.330650  0.078756  1
  Al  Al7  1  0.000179  0.669481  0.921163  1
  Al  Al8  1  0.000179  0.669481  0.578837  1
  Al  Al9  1  0.338747  0.003217  0.425613  1
  Al  Al10  1  0.999959  0.330650  0.421244  1
  Al  Al11  1  0.661133  0.996781  0.574572  1
  Al  Al12  1  0.661133  0.996781  0.925428  1
  Al  Al13  1  0.338747  0.003217  0.074387  1
  Al  Al14  1  0.335146  0.332650  0.554576  1
  Al  Al15  1  0.664854  0.667251  0.445513  1
  Al  Al16  1  0.664854  0.667251  0.054487  1
  Al  Al17  1  0.335146  0.332650  0.945424  1
  Al  Al18  1  0.341697  0.548540  0.250000  1
  Al  Al19  1  0.658212  0.451321  0.750000  1
  Al  Al20  1  0.548464  0.339886  0.250000  1
  Al  Al21  1  0.451496  0.660156  0.750000  1
  Ir  Ir22  1  0.675780  0.329292  0.999640  1
  Ir  Ir23  1  0.324160  0.670717  0.000268  1
  Ir  Ir24  1  0.324160  0.670717  0.499732  1
  Ir  Ir25  1  0.675780  0.329292  0.500360  1
  Ir  Ir26  1  0.000088  0.000008  0.999943  1
  Ir  Ir27  1  0.000088  0.000008  0.500057  1
