# generated using pymatgen
data_TbY5(Ho2Si3)2
_symmetry_space_group_name_H-M   'P 1'
_cell_length_a   8.44799960
_cell_length_b   8.43897858
_cell_length_c   6.35410900
_cell_angle_alpha   90.00000000
_cell_angle_beta   90.00000000
_cell_angle_gamma   119.96468296
_symmetry_Int_Tables_number   1
_chemical_formula_structural   TbY5(Ho2Si3)2
_chemical_formula_sum   'Tb1 Y5 Ho4 Si6'
_cell_volume   392.44925368
_cell_formula_units_Z   1
loop_
 _symmetry_equiv_pos_site_id
 _symmetry_equiv_pos_as_xyz
  1  'x, y, z'
loop_
 _atom_site_type_symbol
 _atom_site_label
 _atom_site_symmetry_multiplicity
 _atom_site_fract_x
 _atom_site_fract_y
 _atom_site_fract_z
 _atom_site_occupancy
  Tb  Tb0  1  0.000000  0.756065  0.750000  1
  Y  Y1  1  0.000000  0.243688  0.250000  1
  Y  Y2  1  0.755908  0.756031  0.250000  1
  Y  Y3  1  0.756082  0.000043  0.750000  1
  Y  Y4  1  0.243918  0.243962  0.750000  1
  Y  Y5  1  0.244092  0.000123  0.250000  1
  Ho  Ho6  1  0.333466  0.666637  0.499915  1
  Ho  Ho7  1  0.666534  0.333170  0.000085  1
  Ho  Ho8  1  0.666534  0.333170  0.499915  1
  Ho  Ho9  1  0.333466  0.666637  0.000085  1
  Si  Si10  1  0.395404  0.000511  0.750000  1
  Si  Si11  1  0.394540  0.394761  0.250000  1
  Si  Si12  1  0.000000  0.605574  0.250000  1
  Si  Si13  1  0.000000  0.394301  0.750000  1
  Si  Si14  1  0.604596  0.605107  0.750000  1
  Si  Si15  1  0.605460  0.000221  0.250000  1
