# generated using pymatgen
data_ErTh3(Ga8Pd3)3
_symmetry_space_group_name_H-M   'P 1'
_cell_length_a   7.66139102
_cell_length_b   7.65303157
_cell_length_c   13.39931235
_cell_angle_alpha   84.76231378
_cell_angle_beta   79.17188992
_cell_angle_gamma   60.05303982
_symmetry_Int_Tables_number   1
_chemical_formula_structural   ErTh3(Ga8Pd3)3
_chemical_formula_sum   'Er1 Th3 Ga24 Pd9'
_cell_volume   668.62419331
_cell_formula_units_Z   1
loop_
 _symmetry_equiv_pos_site_id
 _symmetry_equiv_pos_as_xyz
  1  'x, y, z'
loop_
 _atom_site_type_symbol
 _atom_site_label
 _atom_site_symmetry_multiplicity
 _atom_site_fract_x
 _atom_site_fract_y
 _atom_site_fract_z
 _atom_site_occupancy
  Er  Er0  1  0.266178  0.501778  0.193645  1
  Th  Th1  1  0.395578  0.167755  0.807967  1
  Th  Th2  1  0.603420  0.832523  0.192710  1
  Th  Th3  1  0.733380  0.498297  0.807812  1
  Ga  Ga4  1  0.689415  0.834080  0.942532  1
  Ga  Ga5  1  0.310738  0.171187  0.060943  1
  Ga  Ga6  1  0.144108  0.835554  0.558607  1
  Ga  Ga7  1  0.856039  0.163844  0.438631  1
  Ga  Ga8  1  0.480533  0.167676  0.556272  1
  Ga  Ga9  1  0.519460  0.833461  0.442892  1
  Ga  Ga10  1  0.216470  0.169034  0.328702  1
  Ga  Ga11  1  0.785312  0.833998  0.667626  1
  Ga  Ga12  1  0.435786  0.507499  0.668752  1
  Ga  Ga13  1  0.562119  0.492174  0.328231  1
  Ga  Ga14  1  0.110379  0.157595  0.666579  1
  Ga  Ga15  1  0.893762  0.838628  0.330111  1
  Ga  Ga16  1  0.349783  0.502686  0.945365  1
  Ga  Ga17  1  0.643130  0.497846  0.060455  1
  Ga  Ga18  1  0.017041  0.165172  0.950581  1
  Ga  Ga19  1  0.984530  0.830614  0.055213  1
  Ga  Ga20  1  0.187179  0.501117  0.440697  1
  Ga  Ga21  1  0.814250  0.498366  0.556435  1
  Ga  Ga22  1  0.732908  0.166895  0.184045  1
  Ga  Ga23  1  0.263176  0.836081  0.816919  1
  Ga  Ga24  1  0.063116  0.633429  0.815690  1
  Ga  Ga25  1  0.941092  0.366033  0.184683  1
  Ga  Ga26  1  0.862006  0.037296  0.815986  1
  Ga  Ga27  1  0.138347  0.958366  0.184057  1
  Pd  Pd28  1  0.120711  0.494306  0.637534  1
  Pd  Pd29  1  0.879857  0.505886  0.361265  1
  Pd  Pd30  1  0.659349  0.170040  0.999652  1
  Pd  Pd31  1  0.341292  0.830942  0.000849  1
  Pd  Pd32  1  0.539214  0.167358  0.361445  1
  Pd  Pd33  1  0.460730  0.832542  0.638029  1
  Pd  Pd34  1  0.780111  0.173216  0.637482  1
  Pd  Pd35  1  0.220874  0.826295  0.361122  1
  Pd  Pd36  1  0.998628  0.500429  0.000489  1
