# generated using pymatgen
data_Ba3TbLuS6
_symmetry_space_group_name_H-M   'P 1'
_cell_length_a   8.50161998
_cell_length_b   8.50161880
_cell_length_c   8.50161924
_cell_angle_alpha   92.52783044
_cell_angle_beta   92.52783423
_cell_angle_gamma   92.52783798
_symmetry_Int_Tables_number   1
_chemical_formula_structural   Ba3TbLuS6
_chemical_formula_sum   'Ba6 Tb2 Lu2 S12'
_cell_volume   612.62761831
_cell_formula_units_Z   2
loop_
 _symmetry_equiv_pos_site_id
 _symmetry_equiv_pos_as_xyz
  1  'x, y, z'
loop_
 _atom_site_type_symbol
 _atom_site_label
 _atom_site_symmetry_multiplicity
 _atom_site_fract_x
 _atom_site_fract_y
 _atom_site_fract_z
 _atom_site_occupancy
  Ba  Ba0  1  0.372252  0.750000  0.127748  1
  Ba  Ba1  1  0.127748  0.372252  0.750000  1
  Ba  Ba2  1  0.750000  0.127748  0.372252  1
  Ba  Ba3  1  0.627748  0.250000  0.872252  1
  Ba  Ba4  1  0.872252  0.627748  0.250000  1
  Ba  Ba5  1  0.250000  0.872252  0.627748  1
  Tb  Tb6  1  0.250000  0.250000  0.250000  1
  Tb  Tb7  1  0.750000  0.750000  0.750000  1
  Lu  Lu8  1  0.500000  0.500000  0.500000  1
  Lu  Lu9  1  0.000000  0.000000  0.000000  1
  S  S10  1  0.538075  0.408105  0.200521  1
  S  S11  1  0.200521  0.538075  0.408105  1
  S  S12  1  0.408105  0.200521  0.538075  1
  S  S13  1  0.961925  0.299479  0.091895  1
  S  S14  1  0.091895  0.961925  0.299479  1
  S  S15  1  0.299479  0.091895  0.961925  1
  S  S16  1  0.461925  0.591895  0.799479  1
  S  S17  1  0.799479  0.461925  0.591895  1
  S  S18  1  0.591895  0.799479  0.461925  1
  S  S19  1  0.038075  0.700521  0.908105  1
  S  S20  1  0.700521  0.908105  0.038075  1
  S  S21  1  0.908105  0.038075  0.700521  1
