# generated using pymatgen
data_La16Cd4Ir3Pt
_symmetry_space_group_name_H-M   'P 1'
_cell_length_a   10.13213911
_cell_length_b   10.17588824
_cell_length_c   10.17588800
_cell_angle_alpha   60.00000079
_cell_angle_beta   59.85706414
_cell_angle_gamma   59.85706258
_symmetry_Int_Tables_number   1
_chemical_formula_structural   La16Cd4Ir3Pt
_chemical_formula_sum   'La16 Cd4 Ir3 Pt1'
_cell_volume   740.26824810
_cell_formula_units_Z   1
loop_
 _symmetry_equiv_pos_site_id
 _symmetry_equiv_pos_as_xyz
  1  'x, y, z'
loop_
 _atom_site_type_symbol
 _atom_site_label
 _atom_site_symmetry_multiplicity
 _atom_site_fract_x
 _atom_site_fract_y
 _atom_site_fract_z
 _atom_site_occupancy
  La  La0  1  0.594899  0.599985  0.599985  1
  La  La1  1  0.594899  0.599985  0.205132  1
  La  La2  1  0.594899  0.205132  0.599985  1
  La  La3  1  0.209401  0.596867  0.596867  1
  La  La4  1  0.064053  0.440513  0.440513  1
  La  La5  1  0.439901  0.060647  0.060647  1
  La  La6  1  0.439901  0.060647  0.438805  1
  La  La7  1  0.064053  0.440513  0.054921  1
  La  La8  1  0.439901  0.438805  0.060647  1
  La  La9  1  0.064053  0.054921  0.440513  1
  La  La10  1  0.187761  0.811306  0.811306  1
  La  La11  1  0.810047  0.188311  0.188311  1
  La  La12  1  0.810047  0.188311  0.813331  1
  La  La13  1  0.187761  0.811306  0.189627  1
  La  La14  1  0.810047  0.813331  0.188311  1
  La  La15  1  0.187761  0.189627  0.811306  1
  Cd  Cd16  1  0.829719  0.829545  0.829545  1
  Cd  Cd17  1  0.829719  0.829545  0.511191  1
  Cd  Cd18  1  0.829719  0.511191  0.829545  1
  Cd  Cd19  1  0.511184  0.829605  0.829605  1
  Ir  Ir20  1  0.392262  0.391374  0.391374  1
  Ir  Ir21  1  0.392262  0.391374  0.824991  1
  Ir  Ir22  1  0.392262  0.824991  0.391374  1
  Pt  Pt23  1  0.823492  0.392169  0.392169  1
