# generated using pymatgen
data_Li2CePr7(Si6Rh)2
_symmetry_space_group_name_H-M   'P 1'
_cell_length_a   8.29255603
_cell_length_b   8.30544857
_cell_length_c   8.48786408
_cell_angle_alpha   90.00000017
_cell_angle_beta   89.98678047
_cell_angle_gamma   120.05143208
_symmetry_Int_Tables_number   1
_chemical_formula_structural   Li2CePr7(Si6Rh)2
_chemical_formula_sum   'Li2 Ce1 Pr7 Si12 Rh2'
_cell_volume   506.00548898
_cell_formula_units_Z   1
loop_
 _symmetry_equiv_pos_site_id
 _symmetry_equiv_pos_as_xyz
  1  'x, y, z'
loop_
 _atom_site_type_symbol
 _atom_site_label
 _atom_site_symmetry_multiplicity
 _atom_site_fract_x
 _atom_site_fract_y
 _atom_site_fract_z
 _atom_site_occupancy
  Li  Li0  1  0.333786  0.666894  0.492351  1
  Li  Li1  1  0.666047  0.333023  0.510976  1
  Ce  Ce2  1  0.003711  0.501856  0.761320  1
  Pr  Pr3  1  0.000064  0.000032  0.251463  1
  Pr  Pr4  1  0.999812  0.999906  0.749098  1
  Pr  Pr5  1  0.501902  0.498064  0.244324  1
  Pr  Pr6  1  0.501902  0.003839  0.244324  1
  Pr  Pr7  1  0.996260  0.498130  0.245809  1
  Pr  Pr8  1  0.498044  0.502008  0.754035  1
  Pr  Pr9  1  0.498044  0.996035  0.754035  1
  Si  Si10  1  0.165012  0.832891  0.505148  1
  Si  Si11  1  0.165012  0.332122  0.505148  1
  Si  Si12  1  0.669937  0.834969  0.500914  1
  Si  Si13  1  0.834838  0.166917  0.500499  1
  Si  Si14  1  0.834838  0.667920  0.500499  1
  Si  Si15  1  0.329735  0.164867  0.497002  1
  Si  Si16  1  0.833605  0.165852  0.997085  1
  Si  Si17  1  0.833605  0.667751  0.997085  1
  Si  Si18  1  0.335942  0.167970  0.997444  1
  Si  Si19  1  0.166517  0.834246  0.000437  1
  Si  Si20  1  0.166517  0.332273  0.000437  1
  Si  Si21  1  0.664438  0.832219  0.001232  1
  Rh  Rh22  1  0.671453  0.335727  0.989597  1
  Rh  Rh23  1  0.328980  0.664491  0.999737  1
