# generated using pymatgen
data_Nd3HoTl5
_symmetry_space_group_name_H-M   'P 1'
_cell_length_a   8.67402129
_cell_length_b   8.67402102
_cell_length_c   8.67402152
_cell_angle_alpha   66.38668021
_cell_angle_beta   66.38667754
_cell_angle_gamma   66.38664447
_symmetry_Int_Tables_number   1
_chemical_formula_structural   Nd3HoTl5
_chemical_formula_sum   'Nd6 Ho2 Tl10'
_cell_volume   525.02187930
_cell_formula_units_Z   2
loop_
 _symmetry_equiv_pos_site_id
 _symmetry_equiv_pos_as_xyz
  1  'x, y, z'
loop_
 _atom_site_type_symbol
 _atom_site_label
 _atom_site_symmetry_multiplicity
 _atom_site_fract_x
 _atom_site_fract_y
 _atom_site_fract_z
 _atom_site_occupancy
  Nd  Nd0  1  0.889658  0.186216  0.622363  1
  Nd  Nd1  1  0.622363  0.889658  0.186216  1
  Nd  Nd2  1  0.186216  0.622363  0.889658  1
  Nd  Nd3  1  0.110342  0.813784  0.377637  1
  Nd  Nd4  1  0.377637  0.110342  0.813784  1
  Nd  Nd5  1  0.813784  0.377637  0.110342  1
  Ho  Ho6  1  0.656895  0.656895  0.656895  1
  Ho  Ho7  1  0.343105  0.343105  0.343105  1
  Tl  Tl8  1  0.000000  0.000000  0.000000  1
  Tl  Tl9  1  0.500000  0.500000  0.500000  1
  Tl  Tl10  1  0.811993  0.811993  0.811993  1
  Tl  Tl11  1  0.188007  0.188007  0.188007  1
  Tl  Tl12  1  0.948749  0.567392  0.301140  1
  Tl  Tl13  1  0.301140  0.948749  0.567392  1
  Tl  Tl14  1  0.567392  0.301140  0.948749  1
  Tl  Tl15  1  0.051251  0.432608  0.698860  1
  Tl  Tl16  1  0.698860  0.051251  0.432608  1
  Tl  Tl17  1  0.432608  0.698860  0.051251  1
