# generated using pymatgen
data_IrPdCl6
_symmetry_space_group_name_H-M   'P 1'
_cell_length_a   11.96459838
_cell_length_b   11.45952983
_cell_length_c   6.18967351
_cell_angle_alpha   79.24149944
_cell_angle_beta   70.21189140
_cell_angle_gamma   31.15591301
_symmetry_Int_Tables_number   1
_chemical_formula_structural   IrPdCl6
_chemical_formula_sum   'Ir2 Pd2 Cl12'
_cell_volume   403.78162045
_cell_formula_units_Z   2
loop_
 _symmetry_equiv_pos_site_id
 _symmetry_equiv_pos_as_xyz
  1  'x, y, z'
loop_
 _atom_site_type_symbol
 _atom_site_label
 _atom_site_symmetry_multiplicity
 _atom_site_fract_x
 _atom_site_fract_y
 _atom_site_fract_z
 _atom_site_occupancy
  Ir  Ir0  1  0.665976  0.665976  0.834024  1
  Ir  Ir1  1  0.584024  0.584024  0.415976  1
  Pd  Pd2  1  0.416687  0.416687  0.583313  1
  Pd  Pd3  1  0.833313  0.833313  0.666687  1
  Cl  Cl4  1  0.721662  0.290075  0.275731  1
  Cl  Cl5  1  0.874059  0.448094  0.095055  1
  Cl  Cl6  1  0.375941  0.801906  0.154945  1
  Cl  Cl7  1  0.448094  0.874059  0.582791  1
  Cl  Cl8  1  0.175492  0.652366  0.360368  1
  Cl  Cl9  1  0.290075  0.721662  0.712532  1
  Cl  Cl10  1  0.528338  0.959925  0.974269  1
  Cl  Cl11  1  0.959925  0.528338  0.537468  1
  Cl  Cl12  1  0.074508  0.597634  0.889632  1
  Cl  Cl13  1  0.801906  0.375941  0.667209  1
  Cl  Cl14  1  0.652366  0.175492  0.811774  1
  Cl  Cl15  1  0.597634  0.074508  0.438226  1
