# generated using pymatgen
data_Zn10CuPt2
_symmetry_space_group_name_H-M   'P 1'
_cell_length_a   7.90759949
_cell_length_b   7.90759904
_cell_length_c   7.87390780
_cell_angle_alpha   70.63579907
_cell_angle_beta   70.63580455
_cell_angle_gamma   109.54117040
_symmetry_Int_Tables_number   1
_chemical_formula_structural   Zn10CuPt2
_chemical_formula_sum   'Zn20 Cu2 Pt4'
_cell_volume   379.68778250
_cell_formula_units_Z   2
loop_
 _symmetry_equiv_pos_site_id
 _symmetry_equiv_pos_as_xyz
  1  'x, y, z'
loop_
 _atom_site_type_symbol
 _atom_site_label
 _atom_site_symmetry_multiplicity
 _atom_site_fract_x
 _atom_site_fract_y
 _atom_site_fract_z
 _atom_site_occupancy
  Zn  Zn0  1  0.005569  0.005569  0.785019  1
  Zn  Zn1  1  0.772200  0.772200  0.227756  1
  Zn  Zn2  1  0.221200  0.999705  0.994098  1
  Zn  Zn3  1  0.999705  0.221200  0.994098  1
  Zn  Zn4  1  0.266880  0.266880  0.388324  1
  Zn  Zn5  1  0.008981  0.734862  0.646944  1
  Zn  Zn6  1  0.734862  0.008981  0.646944  1
  Zn  Zn7  1  0.650067  0.650067  0.631397  1
  Zn  Zn8  1  0.364506  0.641807  0.352624  1
  Zn  Zn9  1  0.641807  0.364506  0.352624  1
  Zn  Zn10  1  0.355380  0.734053  0.983462  1
  Zn  Zn11  1  0.625540  0.268012  0.722120  1
  Zn  Zn12  1  0.354143  0.005672  0.276462  1
  Zn  Zn13  1  0.734053  0.355380  0.983462  1
  Zn  Zn14  1  0.005672  0.354143  0.276462  1
  Zn  Zn15  1  0.268012  0.625540  0.722120  1
  Zn  Zn16  1  0.644259  0.644259  0.996156  1
  Zn  Zn17  1  0.001140  0.642512  0.360849  1
  Zn  Zn18  1  0.642512  0.001140  0.360849  1
  Zn  Zn19  1  0.355113  0.355113  0.005729  1
  Cu  Cu20  1  0.997022  0.358808  0.638878  1
  Cu  Cu21  1  0.358808  0.997022  0.638878  1
  Pt  Pt22  1  0.999774  0.999774  0.342982  1
  Pt  Pt23  1  0.352760  0.352760  0.654747  1
  Pt  Pt24  1  0.647602  0.992433  0.008508  1
  Pt  Pt25  1  0.992433  0.647602  0.008508  1
