# generated using pymatgen
data_Dy3Ho5Cd2RuPt
_symmetry_space_group_name_H-M   'P 1'
_cell_length_a   9.62734793
_cell_length_b   9.62734761
_cell_length_c   9.65499000
_cell_angle_alpha   59.90496786
_cell_angle_beta   59.90496896
_cell_angle_gamma   59.82705595
_symmetry_Int_Tables_number   1
_chemical_formula_structural   Dy3Ho5Cd2RuPt
_chemical_formula_sum   'Dy6 Ho10 Cd4 Ru2 Pt2'
_cell_volume   631.03814903
_cell_formula_units_Z   2
loop_
 _symmetry_equiv_pos_site_id
 _symmetry_equiv_pos_as_xyz
  1  'x, y, z'
loop_
 _atom_site_type_symbol
 _atom_site_label
 _atom_site_symmetry_multiplicity
 _atom_site_fract_x
 _atom_site_fract_y
 _atom_site_fract_z
 _atom_site_occupancy
  Dy  Dy0  1  0.937144  0.559600  0.566308  1
  Dy  Dy1  1  0.559600  0.937144  0.936947  1
  Dy  Dy2  1  0.559600  0.937144  0.566308  1
  Dy  Dy3  1  0.937144  0.559599  0.936947  1
  Dy  Dy4  1  0.563989  0.563989  0.936011  1
  Dy  Dy5  1  0.938101  0.938101  0.561898  1
  Ho  Ho6  1  0.349046  0.349046  0.352586  1
  Ho  Ho7  1  0.349046  0.349046  0.949323  1
  Ho  Ho8  1  0.346549  0.953553  0.349950  1
  Ho  Ho9  1  0.953553  0.346549  0.349950  1
  Ho  Ho10  1  0.815506  0.188172  0.189242  1
  Ho  Ho11  1  0.188172  0.815506  0.807082  1
  Ho  Ho12  1  0.188172  0.815506  0.189242  1
  Ho  Ho13  1  0.815506  0.188172  0.807082  1
  Ho  Ho14  1  0.187715  0.187715  0.812285  1
  Ho  Ho15  1  0.809069  0.809069  0.190931  1
  Cd  Cd16  1  0.580244  0.580244  0.581383  1
  Cd  Cd17  1  0.580244  0.580244  0.258128  1
  Cd  Cd18  1  0.581247  0.255501  0.581625  1
  Cd  Cd19  1  0.255501  0.581247  0.581625  1
  Ru  Ru20  1  0.143657  0.143657  0.138795  1
  Ru  Ru21  1  0.143657  0.143657  0.573892  1
  Pt  Pt22  1  0.143979  0.573561  0.141231  1
  Pt  Pt23  1  0.573561  0.143979  0.141231  1
