# generated using pymatgen
data_La9Nd7Hg4Ir3Pt
_symmetry_space_group_name_H-M   'P 1'
_cell_length_a   10.04651890
_cell_length_b   10.04775555
_cell_length_c   10.05344041
_cell_angle_alpha   60.19857681
_cell_angle_beta   60.19224304
_cell_angle_gamma   60.46844151
_symmetry_Int_Tables_number   1
_chemical_formula_structural   La9Nd7Hg4Ir3Pt
_chemical_formula_sum   'La9 Nd7 Hg4 Ir3 Pt1'
_cell_volume   722.24388379
_cell_formula_units_Z   1
loop_
 _symmetry_equiv_pos_site_id
 _symmetry_equiv_pos_as_xyz
  1  'x, y, z'
loop_
 _atom_site_type_symbol
 _atom_site_label
 _atom_site_symmetry_multiplicity
 _atom_site_fract_x
 _atom_site_fract_y
 _atom_site_fract_z
 _atom_site_occupancy
  La  La0  1  0.347239  0.347248  0.348105  1
  La  La1  1  0.352424  0.352576  0.948292  1
  La  La2  1  0.353777  0.951004  0.350525  1
  La  La3  1  0.951088  0.353782  0.350461  1
  La  La4  1  0.804082  0.189393  0.193087  1
  La  La5  1  0.188324  0.807343  0.809883  1
  La  La6  1  0.189318  0.804049  0.193096  1
  La  La7  1  0.807433  0.188351  0.809889  1
  La  La8  1  0.192107  0.192293  0.803702  1
  Nd  Nd9  1  0.805373  0.805328  0.193600  1
  Nd  Nd10  1  0.936870  0.565420  0.564117  1
  Nd  Nd11  1  0.564507  0.935187  0.936748  1
  Nd  Nd12  1  0.565440  0.936918  0.564055  1
  Nd  Nd13  1  0.935204  0.564491  0.936780  1
  Nd  Nd14  1  0.562917  0.562786  0.940395  1
  Nd  Nd15  1  0.937664  0.937621  0.562604  1
  Hg  Hg16  1  0.586037  0.586067  0.583278  1
  Hg  Hg17  1  0.586345  0.586368  0.243976  1
  Hg  Hg18  1  0.586321  0.243592  0.585130  1
  Hg  Hg19  1  0.243688  0.586307  0.585091  1
  Ir  Ir20  1  0.140663  0.140626  0.576283  1
  Ir  Ir21  1  0.145269  0.576129  0.139105  1
  Ir  Ir22  1  0.576128  0.145263  0.139119  1
  Pt  Pt23  1  0.141783  0.141858  0.142680  1
