# generated using pymatgen
data_Rb4Na2ScAlAs4
_symmetry_space_group_name_H-M   'P 1'
_cell_length_a   9.30483789
_cell_length_b   9.30483846
_cell_length_c   9.30483591
_cell_angle_alpha   138.13778624
_cell_angle_beta   135.97621545
_cell_angle_gamma   62.36720921
_symmetry_Int_Tables_number   1
_chemical_formula_structural   Rb4Na2ScAlAs4
_chemical_formula_sum   'Rb4 Na2 Sc1 Al1 As4'
_cell_volume   369.12842587
_cell_formula_units_Z   1
loop_
 _symmetry_equiv_pos_site_id
 _symmetry_equiv_pos_as_xyz
  1  'x, y, z'
loop_
 _atom_site_type_symbol
 _atom_site_label
 _atom_site_symmetry_multiplicity
 _atom_site_fract_x
 _atom_site_fract_y
 _atom_site_fract_z
 _atom_site_occupancy
  Rb  Rb0  1  0.096511  0.325245  0.776324  1
  Rb  Rb1  1  0.451079  0.174755  0.271266  1
  Rb  Rb2  1  0.903489  0.679813  0.228734  1
  Rb  Rb3  1  0.548921  0.820187  0.723676  1
  Na  Na4  1  0.500000  0.750000  0.250000  1
  Na  Na5  1  0.500000  0.250000  0.750000  1
  Sc  Sc6  1  0.000000  0.250000  0.250000  1
  Al  Al7  1  0.000000  0.750000  0.750000  1
  As  As8  1  0.114318  0.897414  0.195122  1
  As  As9  1  0.885682  0.080804  0.783097  1
  As  As10  1  0.297707  0.602586  0.716903  1
  As  As11  1  0.702293  0.419196  0.304878  1
