# generated using pymatgen
data_Tb2Pa2Ge6Ir7
_symmetry_space_group_name_H-M   'P 1'
_cell_length_a   7.30138085
_cell_length_b   7.33644921
_cell_length_c   7.30137941
_cell_angle_alpha   109.40377232
_cell_angle_beta   109.40318974
_cell_angle_gamma   109.40333699
_symmetry_Int_Tables_number   1
_chemical_formula_structural   Tb2Pa2Ge6Ir7
_chemical_formula_sum   'Tb2 Pa2 Ge6 Ir7'
_cell_volume   301.82774253
_cell_formula_units_Z   1
loop_
 _symmetry_equiv_pos_site_id
 _symmetry_equiv_pos_as_xyz
  1  'x, y, z'
loop_
 _atom_site_type_symbol
 _atom_site_label
 _atom_site_symmetry_multiplicity
 _atom_site_fract_x
 _atom_site_fract_y
 _atom_site_fract_z
 _atom_site_occupancy
  Tb  Tb0  1  0.000000  0.000000  0.500000  1
  Tb  Tb1  1  0.500000  0.000000  0.000000  1
  Pa  Pa2  1  0.000000  0.500000  0.000000  1
  Pa  Pa3  1  0.500000  0.500000  0.500000  1
  Ge  Ge4  1  0.682267  0.687032  0.004732  1
  Ge  Ge5  1  0.316950  0.000018  0.316941  1
  Ge  Ge6  1  0.995249  0.312954  0.317721  1
  Ge  Ge7  1  0.317733  0.312968  0.995268  1
  Ge  Ge8  1  0.683050  0.999982  0.683059  1
  Ge  Ge9  1  0.004751  0.687046  0.682279  1
  Ir  Ir10  1  0.749752  0.255143  0.505344  1
  Ir  Ir11  1  0.750017  0.500017  0.249996  1
  Ir  Ir12  1  0.505332  0.255115  0.749752  1
  Ir  Ir13  1  0.249983  0.499983  0.750004  1
  Ir  Ir14  1  0.250248  0.744857  0.494656  1
  Ir  Ir15  1  0.494668  0.744885  0.250248  1
  Ir  Ir16  1  0.000000  0.000000  0.000000  1
