# generated using pymatgen
data_La8Tm9Si16Ag3
_symmetry_space_group_name_H-M   'P 1'
_cell_length_a   7.23723200
_cell_length_b   7.77570069
_cell_length_c   14.74670900
_cell_angle_alpha   90.00000000
_cell_angle_beta   90.00000000
_cell_angle_gamma   89.84707993
_symmetry_Int_Tables_number   1
_chemical_formula_structural   La8Tm9Si16Ag3
_chemical_formula_sum   'La8 Tm9 Si16 Ag3'
_cell_volume   829.86145561
_cell_formula_units_Z   1
loop_
 _symmetry_equiv_pos_site_id
 _symmetry_equiv_pos_as_xyz
  1  'x, y, z'
loop_
 _atom_site_type_symbol
 _atom_site_label
 _atom_site_symmetry_multiplicity
 _atom_site_fract_x
 _atom_site_fract_y
 _atom_site_fract_z
 _atom_site_occupancy
  La  La0  1  0.021066  0.182551  0.395549  1
  La  La1  1  0.520449  0.315078  0.396859  1
  La  La2  1  0.475091  0.673712  0.899529  1
  La  La3  1  0.475091  0.673712  0.600471  1
  La  La4  1  0.986811  0.813769  0.599726  1
  La  La5  1  0.986811  0.813769  0.900274  1
  La  La6  1  0.520449  0.315078  0.103141  1
  La  La7  1  0.021066  0.182551  0.104451  1
  Tm  Tm8  1  0.319413  0.189738  0.625160  1
  Tm  Tm9  1  0.671079  0.819875  0.373627  1
  Tm  Tm10  1  0.653494  0.996278  0.750000  1
  Tm  Tm11  1  0.173609  0.683664  0.372041  1
  Tm  Tm12  1  0.833753  0.325680  0.874586  1
  Tm  Tm13  1  0.833753  0.325680  0.625414  1
  Tm  Tm14  1  0.319413  0.189738  0.874840  1
  Tm  Tm15  1  0.173609  0.683664  0.127959  1
  Tm  Tm16  1  0.671079  0.819875  0.126373  1
  Si  Si17  1  0.280261  0.894864  0.750000  1
  Si  Si18  1  0.474579  0.599225  0.250000  1
  Si  Si19  1  0.026504  0.099057  0.750000  1
  Si  Si20  1  0.535115  0.386955  0.750000  1
  Si  Si21  1  0.149162  0.462789  0.528063  1
  Si  Si22  1  0.972207  0.901554  0.250000  1
  Si  Si23  1  0.724161  0.106085  0.250000  1
  Si  Si24  1  0.847322  0.535976  0.035179  1
  Si  Si25  1  0.348113  0.964244  0.031388  1
  Si  Si26  1  0.149162  0.462789  0.971937  1
  Si  Si27  1  0.648186  0.029693  0.539598  1
  Si  Si28  1  0.348113  0.964244  0.468612  1
  Si  Si29  1  0.847322  0.535976  0.464821  1
  Si  Si30  1  0.772764  0.616595  0.750000  1
  Si  Si31  1  0.226268  0.394480  0.250000  1
  Si  Si32  1  0.648186  0.029693  0.960402  1
  Ag  Ag33  1  0.847830  0.491749  0.250000  1
  Ag  Ag34  1  0.347738  0.009067  0.250000  1
  Ag  Ag35  1  0.150969  0.510555  0.750000  1
