# generated using pymatgen
data_Tb8HfTa11Si16
_symmetry_space_group_name_H-M   'P 1'
_cell_length_a   7.07745517
_cell_length_b   7.07745405
_cell_length_c   13.06091939
_cell_angle_alpha   90.02136268
_cell_angle_beta   89.97863707
_cell_angle_gamma   89.95437601
_symmetry_Int_Tables_number   1
_chemical_formula_structural   Tb8HfTa11Si16
_chemical_formula_sum   'Tb8 Hf1 Ta11 Si16'
_cell_volume   654.22590437
_cell_formula_units_Z   1
loop_
 _symmetry_equiv_pos_site_id
 _symmetry_equiv_pos_as_xyz
  1  'x, y, z'
loop_
 _atom_site_type_symbol
 _atom_site_label
 _atom_site_symmetry_multiplicity
 _atom_site_fract_x
 _atom_site_fract_y
 _atom_site_fract_z
 _atom_site_occupancy
  Tb  Tb0  1  0.340881  0.003749  0.467540  1
  Tb  Tb1  1  0.496530  0.841499  0.718364  1
  Tb  Tb2  1  0.502188  0.158982  0.217173  1
  Tb  Tb3  1  0.841499  0.496530  0.281636  1
  Tb  Tb4  1  0.158982  0.502188  0.782827  1
  Tb  Tb5  1  0.658822  0.997484  0.967796  1
  Tb  Tb6  1  0.003749  0.340881  0.532460  1
  Tb  Tb7  1  0.997484  0.658822  0.032204  1
  Hf  Hf8  1  0.671417  0.671417  0.500000  1
  Ta  Ta9  1  0.328283  0.328283  0.000000  1
  Ta  Ta10  1  0.171542  0.828854  0.249340  1
  Ta  Ta11  1  0.828854  0.171542  0.750660  1
  Ta  Ta12  1  0.154182  0.007929  0.874214  1
  Ta  Ta13  1  0.492146  0.653780  0.123090  1
  Ta  Ta14  1  0.506777  0.344693  0.625125  1
  Ta  Ta15  1  0.653780  0.492146  0.876910  1
  Ta  Ta16  1  0.344693  0.506777  0.374875  1
  Ta  Ta17  1  0.846563  0.993485  0.372837  1
  Ta  Ta18  1  0.007929  0.154182  0.125786  1
  Ta  Ta19  1  0.993485  0.846563  0.627163  1
  Si  Si20  1  0.203489  0.133419  0.682423  1
  Si  Si21  1  0.366871  0.703124  0.932419  1
  Si  Si22  1  0.633034  0.294538  0.432417  1
  Si  Si23  1  0.703124  0.366871  0.067581  1
  Si  Si24  1  0.294538  0.633034  0.567583  1
  Si  Si25  1  0.796761  0.866649  0.182208  1
  Si  Si26  1  0.133419  0.203489  0.317577  1
  Si  Si27  1  0.866649  0.796761  0.817792  1
  Si  Si28  1  0.293317  0.954617  0.063609  1
  Si  Si29  1  0.543798  0.793922  0.312156  1
  Si  Si30  1  0.454928  0.206815  0.813792  1
  Si  Si31  1  0.793922  0.543798  0.687844  1
  Si  Si32  1  0.206815  0.454928  0.186208  1
  Si  Si33  1  0.707436  0.047492  0.563935  1
  Si  Si34  1  0.954617  0.293317  0.936391  1
  Si  Si35  1  0.047492  0.707436  0.436065  1
