# generated using pymatgen
data_ErLu15Tl5InCo2
_symmetry_space_group_name_H-M   'P 1'
_cell_length_a   10.11841508
_cell_length_b   10.12401989
_cell_length_c   6.95403427
_cell_angle_alpha   89.97339414
_cell_angle_beta   90.02422202
_cell_angle_gamma   119.93453635
_symmetry_Int_Tables_number   1
_chemical_formula_structural   ErLu15Tl5InCo2
_chemical_formula_sum   'Er1 Lu15 Tl5 In1 Co2'
_cell_volume   617.33228354
_cell_formula_units_Z   1
loop_
 _symmetry_equiv_pos_site_id
 _symmetry_equiv_pos_as_xyz
  1  'x, y, z'
loop_
 _atom_site_type_symbol
 _atom_site_label
 _atom_site_symmetry_multiplicity
 _atom_site_fract_x
 _atom_site_fract_y
 _atom_site_fract_z
 _atom_site_occupancy
  Er  Er0  1  0.534928  0.072192  0.521158  1
  Lu  Lu1  1  0.927059  0.464331  0.522456  1
  Lu  Lu2  1  0.536646  0.462924  0.523810  1
  Lu  Lu3  1  0.463318  0.925738  0.023445  1
  Lu  Lu4  1  0.073684  0.536842  0.024355  1
  Lu  Lu5  1  0.462811  0.537460  0.023555  1
  Lu  Lu6  1  0.178598  0.357978  0.724998  1
  Lu  Lu7  1  0.642048  0.820507  0.724796  1
  Lu  Lu8  1  0.178273  0.820069  0.727282  1
  Lu  Lu9  1  0.820516  0.641599  0.224829  1
  Lu  Lu10  1  0.358687  0.180859  0.222859  1
  Lu  Lu11  1  0.821325  0.179373  0.224049  1
  Lu  Lu12  1  0.667262  0.333922  0.913410  1
  Lu  Lu13  1  0.332646  0.666474  0.413724  1
  Lu  Lu14  1  0.001435  0.999256  0.505872  1
  Lu  Lu15  1  0.000496  0.999093  0.007462  1
  Tl  Tl16  1  0.837289  0.674304  0.772660  1
  Tl  Tl17  1  0.325043  0.162269  0.773113  1
  Tl  Tl18  1  0.837152  0.162077  0.773169  1
  Tl  Tl19  1  0.162316  0.325495  0.273730  1
  Tl  Tl20  1  0.674853  0.837510  0.273613  1
  In  In21  1  0.162975  0.838487  0.271654  1
  Co  Co22  1  0.667312  0.334759  0.294599  1
  Co  Co23  1  0.333331  0.666481  0.795083  1
