# generated using pymatgen
data_Tb3Lu3Al24(Ir3Ru)2
_symmetry_space_group_name_H-M   'P 1'
_cell_length_a   8.80879600
_cell_length_b   8.80879540
_cell_length_c   9.47362900
_cell_angle_alpha   90.00000000
_cell_angle_beta   90.00000000
_cell_angle_gamma   119.99999473
_symmetry_Int_Tables_number   1
_chemical_formula_structural   Tb3Lu3Al24(Ir3Ru)2
_chemical_formula_sum   'Tb3 Lu3 Al24 Ir6 Ru2'
_cell_volume   636.61974352
_cell_formula_units_Z   1
loop_
 _symmetry_equiv_pos_site_id
 _symmetry_equiv_pos_as_xyz
  1  'x, y, z'
loop_
 _atom_site_type_symbol
 _atom_site_label
 _atom_site_symmetry_multiplicity
 _atom_site_fract_x
 _atom_site_fract_y
 _atom_site_fract_z
 _atom_site_occupancy
  Tb  Tb0  1  0.615561  0.807781  0.750000  1
  Tb  Tb1  1  0.192219  0.807781  0.750000  1
  Tb  Tb2  1  0.192219  0.384439  0.750000  1
  Lu  Lu3  1  0.389702  0.194850  0.250000  1
  Lu  Lu4  1  0.805150  0.194850  0.250000  1
  Lu  Lu5  1  0.805150  0.610298  0.250000  1
  Al  Al6  1  0.437975  0.875949  0.250000  1
  Al  Al7  1  0.124051  0.562025  0.250000  1
  Al  Al8  1  0.437975  0.562025  0.250000  1
  Al  Al9  1  0.562789  0.125579  0.750000  1
  Al  Al10  1  0.874421  0.437211  0.750000  1
  Al  Al11  1  0.562789  0.437211  0.750000  1
  Al  Al12  1  0.162719  0.837281  0.422501  1
  Al  Al13  1  0.162719  0.325440  0.422501  1
  Al  Al14  1  0.674560  0.837281  0.422501  1
  Al  Al15  1  0.836832  0.163168  0.574641  1
  Al  Al16  1  0.836832  0.673663  0.574641  1
  Al  Al17  1  0.326337  0.163168  0.574641  1
  Al  Al18  1  0.836832  0.163168  0.925359  1
  Al  Al19  1  0.836832  0.673663  0.925359  1
  Al  Al20  1  0.326337  0.163168  0.925359  1
  Al  Al21  1  0.162719  0.837281  0.077499  1
  Al  Al22  1  0.162719  0.325440  0.077499  1
  Al  Al23  1  0.674560  0.837281  0.077499  1
  Al  Al24  1  0.333333  0.666667  0.528477  1
  Al  Al25  1  0.666667  0.333333  0.468656  1
  Al  Al26  1  0.666667  0.333333  0.031344  1
  Al  Al27  1  0.333333  0.666667  0.971523  1
  Al  Al28  1  0.000000  0.000000  0.250000  1
  Al  Al29  1  0.000000  0.000000  0.750000  1
  Ir  Ir30  1  0.500660  0.001319  0.498580  1
  Ir  Ir31  1  0.998681  0.499340  0.498580  1
  Ir  Ir32  1  0.500660  0.499340  0.498580  1
  Ir  Ir33  1  0.500660  0.001319  0.001420  1
  Ir  Ir34  1  0.998681  0.499340  0.001420  1
  Ir  Ir35  1  0.500660  0.499340  0.001420  1
  Ru  Ru36  1  0.000000  0.000000  0.499962  1
  Ru  Ru37  1  0.000000  0.000000  0.000038  1
