# generated using pymatgen
data_Rb2AlSn11
_symmetry_space_group_name_H-M   'P 1'
_cell_length_a   6.87141315
_cell_length_b   6.87141388
_cell_length_c   15.09191581
_cell_angle_alpha   90.10085712
_cell_angle_beta   89.89914403
_cell_angle_gamma   137.34503738
_symmetry_Int_Tables_number   1
_chemical_formula_structural   Rb2AlSn11
_chemical_formula_sum   'Rb2 Al1 Sn11'
_cell_volume   482.83360352
_cell_formula_units_Z   1
loop_
 _symmetry_equiv_pos_site_id
 _symmetry_equiv_pos_as_xyz
  1  'x, y, z'
loop_
 _atom_site_type_symbol
 _atom_site_label
 _atom_site_symmetry_multiplicity
 _atom_site_fract_x
 _atom_site_fract_y
 _atom_site_fract_z
 _atom_site_occupancy
  Rb  Rb0  1  0.722253  0.277747  0.243422  1
  Rb  Rb1  1  0.278014  0.721986  0.758033  1
  Al  Al2  1  0.755052  0.244948  0.954863  1
  Sn  Sn3  1  0.249291  0.750709  0.035469  1
  Sn  Sn4  1  0.750137  0.249863  0.549834  1
  Sn  Sn5  1  0.248488  0.751512  0.451303  1
  Sn  Sn6  1  0.570664  0.429336  0.857643  1
  Sn  Sn7  1  0.434156  0.565844  0.149690  1
  Sn  Sn8  1  0.560689  0.439311  0.660992  1
  Sn  Sn9  1  0.439190  0.560810  0.345030  1
  Sn  Sn10  1  0.961406  0.038594  0.903861  1
  Sn  Sn11  1  0.030308  0.969692  0.088184  1
  Sn  Sn12  1  0.972390  0.027610  0.594044  1
  Sn  Sn13  1  0.027962  0.972038  0.407631  1
