# generated using pymatgen
data_K3AgO3
_symmetry_space_group_name_H-M   'P 1'
_cell_length_a   6.42846540
_cell_length_b   6.77732511
_cell_length_c   12.51101800
_cell_angle_alpha   90.00277992
_cell_angle_beta   89.99982733
_cell_angle_gamma   86.67932648
_symmetry_Int_Tables_number   1
_chemical_formula_structural   K3AgO3
_chemical_formula_sum   'K12 Ag4 O12'
_cell_volume   544.16233332
_cell_formula_units_Z   4
loop_
 _symmetry_equiv_pos_site_id
 _symmetry_equiv_pos_as_xyz
  1  'x, y, z'
loop_
 _atom_site_type_symbol
 _atom_site_label
 _atom_site_symmetry_multiplicity
 _atom_site_fract_x
 _atom_site_fract_y
 _atom_site_fract_z
 _atom_site_occupancy
  K  K0  1  0.664025  0.826455  0.987158  1
  K  K1  1  0.335971  0.673547  0.487164  1
  K  K2  1  0.335975  0.173530  0.012819  1
  K  K3  1  0.664055  0.326484  0.512849  1
  K  K4  1  0.447398  0.515136  0.222263  1
  K  K5  1  0.552557  0.984847  0.722275  1
  K  K6  1  0.552553  0.484835  0.777723  1
  K  K7  1  0.447427  0.015155  0.277723  1
  K  K8  1  0.064681  0.627166  0.707753  1
  K  K9  1  0.935286  0.872840  0.207738  1
  K  K10  1  0.935288  0.372834  0.292261  1
  K  K11  1  0.064669  0.127170  0.792259  1
  Ag  Ag12  1  0.167504  0.164051  0.510604  1
  Ag  Ag13  1  0.167490  0.664051  0.989400  1
  Ag  Ag14  1  0.832515  0.335936  0.010602  1
  Ag  Ag15  1  0.832519  0.835946  0.489400  1
  O  O16  1  0.988430  0.486216  0.892480  1
  O  O17  1  0.011614  0.013809  0.392501  1
  O  O18  1  0.011628  0.513798  0.107510  1
  O  O19  1  0.988451  0.986216  0.607514  1
  O  O20  1  0.687810  0.178482  0.896965  1
  O  O21  1  0.312199  0.321516  0.396976  1
  O  O22  1  0.312195  0.821525  0.103032  1
  O  O23  1  0.687823  0.678496  0.603030  1
  O  O24  1  0.313867  0.796327  0.865812  1
  O  O25  1  0.686090  0.703655  0.365787  1
  O  O26  1  0.686088  0.203653  0.134210  1
  O  O27  1  0.313893  0.296329  0.634193  1
