# generated using pymatgen
data_TbFe2(PRh)3
_symmetry_space_group_name_H-M   'P 1'
_cell_length_a   3.80420700
_cell_length_b   10.57830100
_cell_length_c   12.27205300
_cell_angle_alpha   90.00000000
_cell_angle_beta   90.00000000
_cell_angle_gamma   90.00000000
_symmetry_Int_Tables_number   1
_chemical_formula_structural   TbFe2(PRh)3
_chemical_formula_sum   'Tb4 Fe8 P12 Rh12'
_cell_volume   493.85253008
_cell_formula_units_Z   4
loop_
 _symmetry_equiv_pos_site_id
 _symmetry_equiv_pos_as_xyz
  1  'x, y, z'
loop_
 _atom_site_type_symbol
 _atom_site_label
 _atom_site_symmetry_multiplicity
 _atom_site_fract_x
 _atom_site_fract_y
 _atom_site_fract_z
 _atom_site_occupancy
  Tb  Tb0  1  0.250000  0.578933  0.710055  1
  Tb  Tb1  1  0.250000  0.921067  0.210055  1
  Tb  Tb2  1  0.750000  0.421067  0.289945  1
  Tb  Tb3  1  0.750000  0.078933  0.789945  1
  Fe  Fe4  1  0.250000  0.875841  0.698146  1
  Fe  Fe5  1  0.250000  0.624159  0.198146  1
  Fe  Fe6  1  0.750000  0.124159  0.301854  1
  Fe  Fe7  1  0.750000  0.375841  0.801854  1
  Fe  Fe8  1  0.250000  0.459217  0.934656  1
  Fe  Fe9  1  0.250000  0.040783  0.434656  1
  Fe  Fe10  1  0.750000  0.540783  0.065344  1
  Fe  Fe11  1  0.750000  0.959217  0.565344  1
  P  P12  1  0.250000  0.440739  0.111551  1
  P  P13  1  0.250000  0.059261  0.611551  1
  P  P14  1  0.750000  0.559261  0.888449  1
  P  P15  1  0.750000  0.940739  0.388449  1
  P  P16  1  0.250000  0.272935  0.864086  1
  P  P17  1  0.250000  0.227065  0.364086  1
  P  P18  1  0.750000  0.727065  0.135914  1
  P  P19  1  0.750000  0.772935  0.635914  1
  P  P20  1  0.250000  0.602296  0.381104  1
  P  P21  1  0.250000  0.897704  0.881104  1
  P  P22  1  0.750000  0.397704  0.618896  1
  P  P23  1  0.750000  0.102296  0.118896  1
  Rh  Rh24  1  0.250000  0.713550  0.990703  1
  Rh  Rh25  1  0.250000  0.786450  0.490703  1
  Rh  Rh26  1  0.750000  0.286450  0.009297  1
  Rh  Rh27  1  0.750000  0.213550  0.509297  1
  Rh  Rh28  1  0.250000  0.407868  0.479408  1
  Rh  Rh29  1  0.250000  0.092132  0.979408  1
  Rh  Rh30  1  0.750000  0.592132  0.520592  1
  Rh  Rh31  1  0.750000  0.907868  0.020592  1
  Rh  Rh32  1  0.250000  0.231812  0.173947  1
  Rh  Rh33  1  0.250000  0.268188  0.673947  1
  Rh  Rh34  1  0.750000  0.768188  0.826053  1
  Rh  Rh35  1  0.750000  0.731812  0.326053  1
