# generated using pymatgen
data_Dy9YHg3Ru
_symmetry_space_group_name_H-M   'P 1'
_cell_length_a   9.62913203
_cell_length_b   9.62925090
_cell_length_c   9.70920700
_cell_angle_alpha   90.00000000
_cell_angle_beta   90.00000000
_cell_angle_gamma   119.99094820
_symmetry_Int_Tables_number   1
_chemical_formula_structural   Dy9YHg3Ru
_chemical_formula_sum   'Dy18 Y2 Hg6 Ru2'
_cell_volume   779.71096560
_cell_formula_units_Z   2
loop_
 _symmetry_equiv_pos_site_id
 _symmetry_equiv_pos_as_xyz
  1  'x, y, z'
loop_
 _atom_site_type_symbol
 _atom_site_label
 _atom_site_symmetry_multiplicity
 _atom_site_fract_x
 _atom_site_fract_y
 _atom_site_fract_z
 _atom_site_occupancy
  Dy  Dy0  1  0.999991  0.000008  0.500071  1
  Dy  Dy1  1  0.999991  0.000008  0.999929  1
  Dy  Dy2  1  0.209540  0.790465  0.439580  1
  Dy  Dy3  1  0.209603  0.419089  0.439620  1
  Dy  Dy4  1  0.580900  0.790393  0.439626  1
  Dy  Dy5  1  0.790417  0.209576  0.560282  1
  Dy  Dy6  1  0.790360  0.580902  0.560379  1
  Dy  Dy7  1  0.419109  0.209644  0.560372  1
  Dy  Dy8  1  0.790417  0.209576  0.939718  1
  Dy  Dy9  1  0.790360  0.580902  0.939621  1
  Dy  Dy10  1  0.419109  0.209644  0.939628  1
  Dy  Dy11  1  0.209540  0.790465  0.060420  1
  Dy  Dy12  1  0.209603  0.419089  0.060380  1
  Dy  Dy13  1  0.580900  0.790393  0.060374  1
  Dy  Dy14  1  0.541173  0.458813  0.250000  1
  Dy  Dy15  1  0.541180  0.082312  0.250000  1
  Dy  Dy16  1  0.917681  0.458811  0.250000  1
  Dy  Dy17  1  0.458943  0.541071  0.750000  1
  Y  Y18  1  0.458808  0.917672  0.750000  1
  Y  Y19  1  0.082335  0.541203  0.750000  1
  Hg  Hg20  1  0.881506  0.118505  0.250000  1
  Hg  Hg21  1  0.881448  0.762995  0.250000  1
  Hg  Hg22  1  0.237005  0.118555  0.250000  1
  Hg  Hg23  1  0.118437  0.881552  0.750000  1
  Hg  Hg24  1  0.118651  0.236981  0.750000  1
  Hg  Hg25  1  0.763019  0.881346  0.750000  1
  Ru  Ru26  1  0.333332  0.666676  0.250000  1
  Ru  Ru27  1  0.666639  0.333353  0.750000  1
