# generated using pymatgen
data_Dy2Si3Pt
_symmetry_space_group_name_H-M   'P 1'
_cell_length_a   8.14996009
_cell_length_b   8.13546479
_cell_length_c   5.75975885
_cell_angle_alpha   69.42263992
_cell_angle_beta   69.15288228
_cell_angle_gamma   41.42447751
_symmetry_Int_Tables_number   1
_chemical_formula_structural   Dy2Si3Pt
_chemical_formula_sum   'Dy4 Si6 Pt2'
_cell_volume   233.90926727
_cell_formula_units_Z   2
loop_
 _symmetry_equiv_pos_site_id
 _symmetry_equiv_pos_as_xyz
  1  'x, y, z'
loop_
 _atom_site_type_symbol
 _atom_site_label
 _atom_site_symmetry_multiplicity
 _atom_site_fract_x
 _atom_site_fract_y
 _atom_site_fract_z
 _atom_site_occupancy
  Dy  Dy0  1  0.250000  0.250000  0.250001  1
  Dy  Dy1  1  0.246197  0.753803  0.246198  1
  Dy  Dy2  1  0.753803  0.246198  0.753804  1
  Dy  Dy3  1  0.750001  0.749999  0.750000  1
  Si  Si4  1  0.834652  0.331500  0.165349  1
  Si  Si5  1  0.834034  0.834034  0.165967  1
  Si  Si6  1  0.668500  0.165349  0.331500  1
  Si  Si7  1  0.331500  0.834652  0.668501  1
  Si  Si8  1  0.165966  0.165967  0.834035  1
  Si  Si9  1  0.165348  0.668501  0.834652  1
  Pt  Pt10  1  0.666736  0.666737  0.333264  1
  Pt  Pt11  1  0.333263  0.333264  0.666737  1
