# generated using pymatgen
data_Ce2PaSb4Pd3
_symmetry_space_group_name_H-M   'P 1'
_cell_length_a   8.49220581
_cell_length_b   8.49220672
_cell_length_c   8.49220531
_cell_angle_alpha   109.40679728
_cell_angle_beta   109.60015787
_cell_angle_gamma   109.40678538
_symmetry_Int_Tables_number   1
_chemical_formula_structural   Ce2PaSb4Pd3
_chemical_formula_sum   'Ce4 Pa2 Sb8 Pd6'
_cell_volume   471.45256610
_cell_formula_units_Z   2
loop_
 _symmetry_equiv_pos_site_id
 _symmetry_equiv_pos_as_xyz
  1  'x, y, z'
loop_
 _atom_site_type_symbol
 _atom_site_label
 _atom_site_symmetry_multiplicity
 _atom_site_fract_x
 _atom_site_fract_y
 _atom_site_fract_z
 _atom_site_occupancy
  Ce  Ce0  1  0.250000  0.123966  0.873966  1
  Ce  Ce1  1  0.750000  0.376034  0.626034  1
  Ce  Ce2  1  0.126034  0.876034  0.250000  1
  Ce  Ce3  1  0.373966  0.623966  0.750000  1
  Pa  Pa4  1  0.875000  0.250000  0.125000  1
  Pa  Pa5  1  0.625000  0.750000  0.375000  1
  Sb  Sb6  1  0.671585  0.500292  0.001319  1
  Sb  Sb7  1  0.501027  0.999708  0.671293  1
  Sb  Sb8  1  0.998973  0.670266  0.498681  1
  Sb  Sb9  1  0.828415  0.829734  0.828707  1
  Sb  Sb10  1  0.501319  0.000292  0.171585  1
  Sb  Sb11  1  0.171293  0.499708  0.001027  1
  Sb  Sb12  1  0.998681  0.170266  0.498973  1
  Sb  Sb13  1  0.328707  0.329734  0.328415  1
  Pd  Pd14  1  0.375000  0.250000  0.625000  1
  Pd  Pd15  1  0.125000  0.750000  0.875000  1
  Pd  Pd16  1  0.250000  0.623084  0.373084  1
  Pd  Pd17  1  0.750000  0.876916  0.126916  1
  Pd  Pd18  1  0.626916  0.376916  0.250000  1
  Pd  Pd19  1  0.873084  0.123084  0.750000  1
