# generated using pymatgen
data_Cs2KFe3F12
_symmetry_space_group_name_H-M   'P 1'
_cell_length_a   7.75836750
_cell_length_b   7.75836781
_cell_length_c   7.75836774
_cell_angle_alpha   59.11370484
_cell_angle_beta   59.11370653
_cell_angle_gamma   59.11370535
_symmetry_Int_Tables_number   1
_chemical_formula_structural   Cs2KFe3F12
_chemical_formula_sum   'Cs2 K1 Fe3 F12'
_cell_volume   323.54302461
_cell_formula_units_Z   1
loop_
 _symmetry_equiv_pos_site_id
 _symmetry_equiv_pos_as_xyz
  1  'x, y, z'
loop_
 _atom_site_type_symbol
 _atom_site_label
 _atom_site_symmetry_multiplicity
 _atom_site_fract_x
 _atom_site_fract_y
 _atom_site_fract_z
 _atom_site_occupancy
  Cs  Cs0  1  0.619531  0.619531  0.619531  1
  Cs  Cs1  1  0.380469  0.380469  0.380469  1
  K  K2  1  0.000000  0.000000  0.000000  1
  Fe  Fe3  1  0.500000  0.000000  0.000000  1
  Fe  Fe4  1  0.000000  0.000000  0.500000  1
  Fe  Fe5  1  0.000000  0.500000  0.000000  1
  F  F6  1  0.111482  0.111482  0.574045  1
  F  F7  1  0.574045  0.111482  0.111482  1
  F  F8  1  0.111482  0.574045  0.111482  1
  F  F9  1  0.888518  0.425955  0.888518  1
  F  F10  1  0.888518  0.888518  0.425955  1
  F  F11  1  0.425955  0.888518  0.888518  1
  F  F12  1  0.906696  0.284244  0.284244  1
  F  F13  1  0.284244  0.284244  0.906696  1
  F  F14  1  0.284244  0.906696  0.284244  1
  F  F15  1  0.715756  0.093304  0.715756  1
  F  F16  1  0.093304  0.715756  0.715756  1
  F  F17  1  0.715756  0.715756  0.093304  1
