# generated using pymatgen
data_Dy5Y(Ir4Rh5)2
_symmetry_space_group_name_H-M   'P 1'
_cell_length_a   5.29326200
_cell_length_b   5.29326119
_cell_length_c   17.49211200
_cell_angle_alpha   90.00000000
_cell_angle_beta   90.00000000
_cell_angle_gamma   119.99999258
_symmetry_Int_Tables_number   1
_chemical_formula_structural   Dy5Y(Ir4Rh5)2
_chemical_formula_sum   'Dy5 Y1 Ir8 Rh10'
_cell_volume   424.44324718
_cell_formula_units_Z   1
loop_
 _symmetry_equiv_pos_site_id
 _symmetry_equiv_pos_as_xyz
  1  'x, y, z'
loop_
 _atom_site_type_symbol
 _atom_site_label
 _atom_site_symmetry_multiplicity
 _atom_site_fract_x
 _atom_site_fract_y
 _atom_site_fract_z
 _atom_site_occupancy
  Dy  Dy0  1  0.333333  0.666667  0.958044  1
  Dy  Dy1  1  0.666667  0.333333  0.041462  1
  Dy  Dy2  1  0.666667  0.333333  0.459979  1
  Dy  Dy3  1  0.333333  0.666667  0.540556  1
  Dy  Dy4  1  0.333333  0.666667  0.747660  1
  Y  Y5  1  0.666667  0.333333  0.252604  1
  Ir  Ir6  1  0.167555  0.832445  0.374190  1
  Ir  Ir7  1  0.167555  0.335110  0.374190  1
  Ir  Ir8  1  0.664890  0.832445  0.374190  1
  Ir  Ir9  1  0.832430  0.167570  0.626334  1
  Ir  Ir10  1  0.832430  0.664861  0.626334  1
  Ir  Ir11  1  0.335139  0.167570  0.626334  1
  Ir  Ir12  1  0.000000  0.000000  0.500388  1
  Ir  Ir13  1  0.000000  0.000000  0.999569  1
  Rh  Rh14  1  0.832662  0.167338  0.875053  1
  Rh  Rh15  1  0.832662  0.665324  0.875053  1
  Rh  Rh16  1  0.334676  0.167338  0.875053  1
  Rh  Rh17  1  0.167330  0.832670  0.124223  1
  Rh  Rh18  1  0.167330  0.334661  0.124223  1
  Rh  Rh19  1  0.665339  0.832670  0.124223  1
  Rh  Rh20  1  0.333333  0.666667  0.249092  1
  Rh  Rh21  1  0.666667  0.333333  0.751072  1
  Rh  Rh22  1  0.000000  0.000000  0.249787  1
  Rh  Rh23  1  0.000000  0.000000  0.750386  1
