# generated using pymatgen
data_Y4Tm4Mn3B24Ru
_symmetry_space_group_name_H-M   'P 1'
_cell_length_a   3.57374900
_cell_length_b   9.08535100
_cell_length_c   11.48425300
_cell_angle_alpha   89.99818020
_cell_angle_beta   90.00000000
_cell_angle_gamma   90.00000000
_symmetry_Int_Tables_number   1
_chemical_formula_structural   Y4Tm4Mn3B24Ru
_chemical_formula_sum   'Y4 Tm4 Mn3 B24 Ru1'
_cell_volume   372.87950086
_cell_formula_units_Z   1
loop_
 _symmetry_equiv_pos_site_id
 _symmetry_equiv_pos_as_xyz
  1  'x, y, z'
loop_
 _atom_site_type_symbol
 _atom_site_label
 _atom_site_symmetry_multiplicity
 _atom_site_fract_x
 _atom_site_fract_y
 _atom_site_fract_z
 _atom_site_occupancy
  Y  Y0  1  0.000000  0.324789  0.414815  1
  Y  Y1  1  0.000000  0.674257  0.582991  1
  Y  Y2  1  0.000000  0.822549  0.087507  1
  Y  Y3  1  0.000000  0.178530  0.915595  1
  Tm  Tm4  1  0.000000  0.941637  0.368762  1
  Tm  Tm5  1  0.000000  0.060074  0.629754  1
  Tm  Tm6  1  0.000000  0.442981  0.131968  1
  Tm  Tm7  1  0.000000  0.555036  0.868498  1
  Mn  Mn8  1  0.000000  0.638607  0.319735  1
  Mn  Mn9  1  0.000000  0.361262  0.680398  1
  Mn  Mn10  1  0.000000  0.138518  0.180076  1
  B  B11  1  0.500000  0.554635  0.431173  1
  B  B12  1  0.500000  0.445338  0.568132  1
  B  B13  1  0.500000  0.054570  0.068672  1
  B  B14  1  0.500000  0.946340  0.933117  1
  B  B15  1  0.500000  0.747639  0.416373  1
  B  B16  1  0.500000  0.252879  0.582807  1
  B  B17  1  0.500000  0.248691  0.083259  1
  B  B18  1  0.500000  0.750349  0.918443  1
  B  B19  1  0.500000  0.789963  0.265619  1
  B  B20  1  0.500000  0.210404  0.734376  1
  B  B21  1  0.500000  0.290792  0.235003  1
  B  B22  1  0.500000  0.708044  0.764515  1
  B  B23  1  0.500000  0.630475  0.186554  1
  B  B24  1  0.500000  0.369092  0.813778  1
  B  B25  1  0.500000  0.130573  0.314297  1
  B  B26  1  0.500000  0.869465  0.684556  1
  B  B27  1  0.500000  0.984018  0.212235  1
  B  B28  1  0.500000  0.017959  0.787645  1
  B  B29  1  0.500000  0.484995  0.288339  1
  B  B30  1  0.500000  0.514574  0.711349  1
  B  B31  1  0.500000  0.600633  0.028149  1
  B  B32  1  0.500000  0.398757  0.972510  1
  B  B33  1  0.500000  0.101142  0.471766  1
  B  B34  1  0.500000  0.899249  0.527363  1
  Ru  Ru35  1  0.000000  0.861184  0.819870  1
