# generated using pymatgen
data_Tm4FeOsRu6
_symmetry_space_group_name_H-M   'P 1'
_cell_length_a   5.37270487
_cell_length_b   5.14499947
_cell_length_c   8.82940300
_cell_angle_alpha   90.00000000
_cell_angle_beta   90.00000000
_cell_angle_gamma   121.35516095
_symmetry_Int_Tables_number   1
_chemical_formula_structural   Tm4FeOsRu6
_chemical_formula_sum   'Tm4 Fe1 Os1 Ru6'
_cell_volume   208.42331961
_cell_formula_units_Z   1
loop_
 _symmetry_equiv_pos_site_id
 _symmetry_equiv_pos_as_xyz
  1  'x, y, z'
loop_
 _atom_site_type_symbol
 _atom_site_label
 _atom_site_symmetry_multiplicity
 _atom_site_fract_x
 _atom_site_fract_y
 _atom_site_fract_z
 _atom_site_occupancy
  Tm  Tm0  1  0.670005  0.339588  0.565112  1
  Tm  Tm1  1  0.332101  0.663948  0.433220  1
  Tm  Tm2  1  0.332101  0.663948  0.066780  1
  Tm  Tm3  1  0.670005  0.339588  0.934888  1
  Fe  Fe4  1  0.833214  0.666782  0.250000  1
  Os  Os5  1  0.164142  0.327867  0.750000  1
  Ru  Ru6  1  0.002293  0.004237  0.497526  1
  Ru  Ru7  1  0.002293  0.004237  0.002474  1
  Ru  Ru8  1  0.169763  0.821492  0.750000  1
  Ru  Ru9  1  0.650827  0.821373  0.750000  1
  Ru  Ru10  1  0.826739  0.174039  0.250000  1
  Ru  Ru11  1  0.346517  0.172901  0.250000  1
