# generated using pymatgen
data_La6Pr7Y3(CdIr)4
_symmetry_space_group_name_H-M   'P 1'
_cell_length_a   9.97372602
_cell_length_b   10.02907685
_cell_length_c   9.99470727
_cell_angle_alpha   59.74765758
_cell_angle_beta   60.29881259
_cell_angle_gamma   60.37208344
_symmetry_Int_Tables_number   1
_chemical_formula_structural   La6Pr7Y3(CdIr)4
_chemical_formula_sum   'La6 Pr7 Y3 Cd4 Ir4'
_cell_volume   709.10946356
_cell_formula_units_Z   1
loop_
 _symmetry_equiv_pos_site_id
 _symmetry_equiv_pos_as_xyz
  1  'x, y, z'
loop_
 _atom_site_type_symbol
 _atom_site_label
 _atom_site_symmetry_multiplicity
 _atom_site_fract_x
 _atom_site_fract_y
 _atom_site_fract_z
 _atom_site_occupancy
  La  La0  1  0.343513  0.351248  0.350663  1
  La  La1  1  0.351251  0.343511  0.954572  1
  La  La2  1  0.348447  0.955246  0.344258  1
  La  La3  1  0.955235  0.348453  0.352058  1
  La  La4  1  0.815467  0.186008  0.184422  1
  La  La5  1  0.186007  0.815461  0.814103  1
  Pr  Pr6  1  0.809893  0.809907  0.190099  1
  Pr  Pr7  1  0.937583  0.561966  0.565348  1
  Pr  Pr8  1  0.561961  0.937576  0.935112  1
  Pr  Pr9  1  0.558489  0.941690  0.561596  1
  Pr  Pr10  1  0.941698  0.558484  0.938219  1
  Pr  Pr11  1  0.560449  0.560440  0.939558  1
  Pr  Pr12  1  0.939332  0.939330  0.560669  1
  Y  Y13  1  0.191772  0.809733  0.189622  1
  Y  Y14  1  0.809733  0.191769  0.808874  1
  Y  Y15  1  0.189419  0.189417  0.810576  1
  Cd  Cd16  1  0.582527  0.577420  0.580087  1
  Cd  Cd17  1  0.577415  0.582523  0.259977  1
  Cd  Cd18  1  0.579020  0.258987  0.583135  1
  Cd  Cd19  1  0.258991  0.579017  0.578855  1
  Ir  Ir20  1  0.138895  0.140065  0.141057  1
  Ir  Ir21  1  0.140057  0.138892  0.579986  1
  Ir  Ir22  1  0.145902  0.576946  0.137819  1
  Ir  Ir23  1  0.576941  0.145911  0.139332  1
