# generated using pymatgen
data_Cs4EuI6
_symmetry_space_group_name_H-M   'P 1'
_cell_length_a   10.68643818
_cell_length_b   10.68643915
_cell_length_c   10.68643921
_cell_angle_alpha   89.31360380
_cell_angle_beta   89.31360060
_cell_angle_gamma   89.31360713
_symmetry_Int_Tables_number   1
_chemical_formula_structural   Cs4EuI6
_chemical_formula_sum   'Cs8 Eu2 I12'
_cell_volume   1220.13041286
_cell_formula_units_Z   2
loop_
 _symmetry_equiv_pos_site_id
 _symmetry_equiv_pos_as_xyz
  1  'x, y, z'
loop_
 _atom_site_type_symbol
 _atom_site_label
 _atom_site_symmetry_multiplicity
 _atom_site_fract_x
 _atom_site_fract_y
 _atom_site_fract_z
 _atom_site_occupancy
  Cs  Cs0  1  0.250000  0.250000  0.250000  1
  Cs  Cs1  1  0.750000  0.750000  0.750000  1
  Cs  Cs2  1  0.250000  0.626270  0.873730  1
  Cs  Cs3  1  0.873730  0.250000  0.626270  1
  Cs  Cs4  1  0.626270  0.873730  0.250000  1
  Cs  Cs5  1  0.750000  0.373730  0.126270  1
  Cs  Cs6  1  0.126270  0.750000  0.373730  1
  Cs  Cs7  1  0.373730  0.126270  0.750000  1
  Eu  Eu8  1  0.000000  0.000000  0.000000  1
  Eu  Eu9  1  0.500000  0.500000  0.500000  1
  I  I10  1  0.560091  0.208873  0.428269  1
  I  I11  1  0.428269  0.560091  0.208873  1
  I  I12  1  0.208873  0.428269  0.560091  1
  I  I13  1  0.939909  0.071731  0.291127  1
  I  I14  1  0.291127  0.939909  0.071731  1
  I  I15  1  0.071731  0.291127  0.939909  1
  I  I16  1  0.439909  0.791127  0.571731  1
  I  I17  1  0.571731  0.439909  0.791127  1
  I  I18  1  0.791127  0.571731  0.439909  1
  I  I19  1  0.060091  0.928269  0.708873  1
  I  I20  1  0.928269  0.708873  0.060091  1
  I  I21  1  0.708873  0.060091  0.928269  1
