# generated using pymatgen
data_TbHfMn3Fe9P7
_symmetry_space_group_name_H-M   'P 1'
_cell_length_a   8.98592600
_cell_length_b   8.98592447
_cell_length_c   3.60531900
_cell_angle_alpha   90.00000000
_cell_angle_beta   90.00000000
_cell_angle_gamma   119.99999828
_symmetry_Int_Tables_number   1
_chemical_formula_structural   TbHfMn3Fe9P7
_chemical_formula_sum   'Tb1 Hf1 Mn3 Fe9 P7'
_cell_volume   252.11572713
_cell_formula_units_Z   1
loop_
 _symmetry_equiv_pos_site_id
 _symmetry_equiv_pos_as_xyz
  1  'x, y, z'
loop_
 _atom_site_type_symbol
 _atom_site_label
 _atom_site_symmetry_multiplicity
 _atom_site_fract_x
 _atom_site_fract_y
 _atom_site_fract_z
 _atom_site_occupancy
  Tb  Tb0  1  0.333333  0.666667  0.500000  1
  Hf  Hf1  1  0.666667  0.333333  0.000000  1
  Mn  Mn2  1  0.102531  0.882767  0.500000  1
  Mn  Mn3  1  0.780234  0.897469  0.500000  1
  Mn  Mn4  1  0.117233  0.219766  0.500000  1
  Fe  Fe5  1  0.053105  0.627347  0.000000  1
  Fe  Fe6  1  0.574242  0.946895  0.000000  1
  Fe  Fe7  1  0.372653  0.425758  0.000000  1
  Fe  Fe8  1  0.277024  0.121552  0.000000  1
  Fe  Fe9  1  0.844528  0.722976  0.000000  1
  Fe  Fe10  1  0.878448  0.155472  0.000000  1
  Fe  Fe11  1  0.438689  0.057244  0.500000  1
  Fe  Fe12  1  0.618555  0.561311  0.500000  1
  Fe  Fe13  1  0.942756  0.381445  0.500000  1
  P  P14  1  0.300086  0.887890  0.000000  1
  P  P15  1  0.587803  0.699914  0.000000  1
  P  P16  1  0.112110  0.412197  0.000000  1
  P  P17  1  0.411685  0.291847  0.500000  1
  P  P18  1  0.880163  0.588315  0.500000  1
  P  P19  1  0.708153  0.119837  0.500000  1
  P  P20  1  0.000000  0.000000  0.000000  1
