# generated using pymatgen
data_NpVP
_symmetry_space_group_name_H-M   'P 1'
_cell_length_a   3.42467600
_cell_length_b   7.19737402
_cell_length_c   7.58730002
_cell_angle_alpha   89.99110337
_cell_angle_beta   90.00000000
_cell_angle_gamma   90.00000000
_symmetry_Int_Tables_number   1
_chemical_formula_structural   NpVP
_chemical_formula_sum   'Np4 V4 P4'
_cell_volume   187.01688312
_cell_formula_units_Z   4
loop_
 _symmetry_equiv_pos_site_id
 _symmetry_equiv_pos_as_xyz
  1  'x, y, z'
loop_
 _atom_site_type_symbol
 _atom_site_label
 _atom_site_symmetry_multiplicity
 _atom_site_fract_x
 _atom_site_fract_y
 _atom_site_fract_z
 _atom_site_occupancy
  Np  Np0  1  0.250000  0.023251  0.887815  1
  Np  Np1  1  0.750000  0.976749  0.112185  1
  Np  Np2  1  0.250000  0.523176  0.612150  1
  Np  Np3  1  0.750000  0.476824  0.387850  1
  V  V4  1  0.750000  0.380997  0.940787  1
  V  V5  1  0.250000  0.619003  0.059213  1
  V  V6  1  0.750000  0.880999  0.559179  1
  V  V7  1  0.250000  0.119001  0.440821  1
  P  P8  1  0.250000  0.793179  0.346983  1
  P  P9  1  0.750000  0.206821  0.653017  1
  P  P10  1  0.250000  0.293181  0.152985  1
  P  P11  1  0.750000  0.706819  0.847015  1
