# generated using pymatgen
data_Ho2Th3In3C
_symmetry_space_group_name_H-M   'P 1'
_cell_length_a   9.35416700
_cell_length_b   9.35416566
_cell_length_c   6.34349500
_cell_angle_alpha   90.00000000
_cell_angle_beta   90.00000000
_cell_angle_gamma   120.00000119
_symmetry_Int_Tables_number   1
_chemical_formula_structural   Ho2Th3In3C
_chemical_formula_sum   'Ho4 Th6 In6 C2'
_cell_volume   480.69477842
_cell_formula_units_Z   2
loop_
 _symmetry_equiv_pos_site_id
 _symmetry_equiv_pos_as_xyz
  1  'x, y, z'
loop_
 _atom_site_type_symbol
 _atom_site_label
 _atom_site_symmetry_multiplicity
 _atom_site_fract_x
 _atom_site_fract_y
 _atom_site_fract_z
 _atom_site_occupancy
  Ho  Ho0  1  0.666667  0.333333  0.000000  1
  Ho  Ho1  1  0.333333  0.666667  0.000000  1
  Ho  Ho2  1  0.333333  0.666667  0.500000  1
  Ho  Ho3  1  0.666667  0.333333  0.500000  1
  Th  Th4  1  0.779622  0.779622  0.750000  1
  Th  Th5  1  0.220378  0.000000  0.750000  1
  Th  Th6  1  0.000000  0.220378  0.750000  1
  Th  Th7  1  0.220378  0.220378  0.250000  1
  Th  Th8  1  0.779622  0.000000  0.250000  1
  Th  Th9  1  0.000000  0.779622  0.250000  1
  In  In10  1  0.409158  0.409158  0.750000  1
  In  In11  1  0.590842  0.000000  0.750000  1
  In  In12  1  0.000000  0.590842  0.750000  1
  In  In13  1  0.590842  0.590842  0.250000  1
  In  In14  1  0.409158  0.000000  0.250000  1
  In  In15  1  0.000000  0.409158  0.250000  1
  C  C16  1  0.000000  0.000000  0.000000  1
  C  C17  1  0.000000  0.000000  0.500000  1
