# generated using pymatgen
data_Y5AsSe4
_symmetry_space_group_name_H-M   'P 1'
_cell_length_a   7.10056937
_cell_length_b   7.10057023
_cell_length_c   7.10057031
_cell_angle_alpha   99.61500264
_cell_angle_beta   99.61500314
_cell_angle_gamma   131.75494926
_symmetry_Int_Tables_number   1
_chemical_formula_structural   Y5AsSe4
_chemical_formula_sum   'Y5 As1 Se4'
_cell_volume   243.74396068
_cell_formula_units_Z   1
loop_
 _symmetry_equiv_pos_site_id
 _symmetry_equiv_pos_as_xyz
  1  'x, y, z'
loop_
 _atom_site_type_symbol
 _atom_site_label
 _atom_site_symmetry_multiplicity
 _atom_site_fract_x
 _atom_site_fract_y
 _atom_site_fract_z
 _atom_site_occupancy
  Y  Y0  1  0.401294  0.792581  0.193875  1
  Y  Y1  1  0.000000  0.000000  0.000000  1
  Y  Y2  1  0.598706  0.207419  0.806125  1
  Y  Y3  1  0.207419  0.401294  0.608712  1
  Y  Y4  1  0.792581  0.598706  0.391288  1
  As  As5  1  0.500000  0.500000  0.000000  1
  Se  Se6  1  0.097717  0.698303  0.796020  1
  Se  Se7  1  0.698303  0.902283  0.600586  1
  Se  Se8  1  0.301697  0.097717  0.399414  1
  Se  Se9  1  0.902283  0.301697  0.203980  1
