# generated using pymatgen
data_LaNd2WO7
_symmetry_space_group_name_H-M   'P 1'
_cell_length_a   6.70228742
_cell_length_b   6.70228804
_cell_length_c   7.78235700
_cell_angle_alpha   90.00000000
_cell_angle_beta   90.00000000
_cell_angle_gamma   109.03739425
_symmetry_Int_Tables_number   1
_chemical_formula_structural   LaNd2WO7
_chemical_formula_sum   'La2 Nd4 W2 O14'
_cell_volume   330.46818099
_cell_formula_units_Z   2
loop_
 _symmetry_equiv_pos_site_id
 _symmetry_equiv_pos_as_xyz
  1  'x, y, z'
loop_
 _atom_site_type_symbol
 _atom_site_label
 _atom_site_symmetry_multiplicity
 _atom_site_fract_x
 _atom_site_fract_y
 _atom_site_fract_z
 _atom_site_occupancy
  La  La0  1  0.500000  0.500000  0.500000  1
  La  La1  1  0.500000  0.500000  0.000000  1
  Nd  Nd2  1  0.999910  0.534522  0.250000  1
  Nd  Nd3  1  0.000090  0.465478  0.750000  1
  Nd  Nd4  1  0.534522  0.999910  0.750000  1
  Nd  Nd5  1  0.465478  0.000090  0.250000  1
  W  W6  1  0.000000  0.000000  0.500000  1
  W  W7  1  0.000000  0.000000  0.000000  1
  O  O8  1  0.935581  0.064419  0.750000  1
  O  O9  1  0.064419  0.935581  0.250000  1
  O  O10  1  0.363845  0.636155  0.250000  1
  O  O11  1  0.636155  0.363845  0.750000  1
  O  O12  1  0.368568  0.631432  0.750000  1
  O  O13  1  0.631432  0.368568  0.250000  1
  O  O14  1  0.313131  0.069011  0.972548  1
  O  O15  1  0.686869  0.930989  0.472548  1
  O  O16  1  0.313131  0.069011  0.527452  1
  O  O17  1  0.686869  0.930989  0.027452  1
  O  O18  1  0.069011  0.313131  0.472548  1
  O  O19  1  0.930989  0.686869  0.972548  1
  O  O20  1  0.930989  0.686869  0.527452  1
  O  O21  1  0.069011  0.313131  0.027452  1
