# generated using pymatgen
data_LiLa3Al7Zn
_symmetry_space_group_name_H-M   'P 1'
_cell_length_a   9.50407844
_cell_length_b   9.50407943
_cell_length_c   9.50407729
_cell_angle_alpha   34.83832507
_cell_angle_beta   34.83832916
_cell_angle_gamma   34.83831991
_symmetry_Int_Tables_number   1
_chemical_formula_structural   LiLa3Al7Zn
_chemical_formula_sum   'Li1 La3 Al7 Zn1'
_cell_volume   250.07799252
_cell_formula_units_Z   1
loop_
 _symmetry_equiv_pos_site_id
 _symmetry_equiv_pos_as_xyz
  1  'x, y, z'
loop_
 _atom_site_type_symbol
 _atom_site_label
 _atom_site_symmetry_multiplicity
 _atom_site_fract_x
 _atom_site_fract_y
 _atom_site_fract_z
 _atom_site_occupancy
  Li  Li0  1  0.334898  0.334898  0.334898  1
  La  La1  1  0.999851  0.999851  0.999851  1
  La  La2  1  0.140836  0.140836  0.140836  1
  La  La3  1  0.858542  0.858542  0.858542  1
  Al  Al4  1  0.416274  0.416274  0.925851  1
  Al  Al5  1  0.925851  0.416274  0.416274  1
  Al  Al6  1  0.501391  0.501391  0.501391  1
  Al  Al7  1  0.582599  0.582599  0.076464  1
  Al  Al8  1  0.416274  0.925851  0.416274  1
  Al  Al9  1  0.076464  0.582599  0.582599  1
  Al  Al10  1  0.582599  0.076464  0.582599  1
  Zn  Zn11  1  0.664421  0.664421  0.664421  1
