# generated using pymatgen
data_Ca5Np5O19
_symmetry_space_group_name_H-M   'P 1'
_cell_length_a   6.76443447
_cell_length_b   7.47481644
_cell_length_c   8.42722451
_cell_angle_alpha   97.80586286
_cell_angle_beta   97.62894767
_cell_angle_gamma   107.87817955
_symmetry_Int_Tables_number   1
_chemical_formula_structural   Ca5Np5O19
_chemical_formula_sum   'Ca5 Np5 O19'
_cell_volume   394.83475922
_cell_formula_units_Z   1
loop_
 _symmetry_equiv_pos_site_id
 _symmetry_equiv_pos_as_xyz
  1  'x, y, z'
loop_
 _atom_site_type_symbol
 _atom_site_label
 _atom_site_symmetry_multiplicity
 _atom_site_fract_x
 _atom_site_fract_y
 _atom_site_fract_z
 _atom_site_occupancy
  Ca  Ca0  1  0.802895  0.103808  0.605659  1
  Ca  Ca1  1  0.381047  0.294075  0.798073  1
  Ca  Ca2  1  0.608845  0.705798  0.204150  1
  Ca  Ca3  1  0.999590  0.498808  0.997760  1
  Ca  Ca4  1  0.208287  0.910849  0.386729  1
  Np  Np5  1  0.780490  0.597705  0.600332  1
  Np  Np6  1  0.604134  0.203501  0.196880  1
  Np  Np7  1  0.000138  0.004060  0.997914  1
  Np  Np8  1  0.407646  0.804227  0.811696  1
  Np  Np9  1  0.201522  0.390784  0.393969  1
  O  O10  1  0.333569  0.041971  0.952741  1
  O  O11  1  0.429489  0.978654  0.654754  1
  O  O12  1  0.036703  0.211142  0.864596  1
  O  O13  1  0.715699  0.394260  0.730294  1
  O  O14  1  0.153404  0.184662  0.524883  1
  O  O15  1  0.366012  0.608018  0.951510  1
  O  O16  1  0.950790  0.265494  0.174384  1
  O  O17  1  0.913886  0.407481  0.469168  1
  O  O18  1  0.746740  0.847915  0.770131  1
  O  O19  1  0.546538  0.446383  0.369551  1
  O  O20  1  0.394920  0.561634  0.625539  1
  O  O21  1  0.258795  0.140251  0.224297  1
  O  O22  1  0.066013  0.711729  0.780516  1
  O  O23  1  0.638056  0.398057  0.061132  1
  O  O24  1  0.863538  0.795746  0.467154  1
  O  O25  1  0.249856  0.613367  0.283472  1
  O  O26  1  0.960510  0.790070  0.119721  1
  O  O27  1  0.578801  0.018061  0.344913  1
  O  O28  1  0.666000  0.959131  0.046324  1
