# generated using pymatgen
data_Sc6Al16Fe6Ni
_symmetry_space_group_name_H-M   'P 1'
_cell_length_a   8.56169724
_cell_length_b   8.56058737
_cell_length_c   8.55981000
_cell_angle_alpha   60.00300384
_cell_angle_beta   60.00729146
_cell_angle_gamma   59.99071481
_symmetry_Int_Tables_number   1
_chemical_formula_structural   Sc6Al16Fe6Ni
_chemical_formula_sum   'Sc6 Al16 Fe6 Ni1'
_cell_volume   443.62483728
_cell_formula_units_Z   1
loop_
 _symmetry_equiv_pos_site_id
 _symmetry_equiv_pos_as_xyz
  1  'x, y, z'
loop_
 _atom_site_type_symbol
 _atom_site_label
 _atom_site_symmetry_multiplicity
 _atom_site_fract_x
 _atom_site_fract_y
 _atom_site_fract_z
 _atom_site_occupancy
  Sc  Sc0  1  0.708150  0.291921  0.291872  1
  Sc  Sc1  1  0.708150  0.291921  0.708057  1
  Sc  Sc2  1  0.708171  0.708008  0.291911  1
  Sc  Sc3  1  0.291850  0.708079  0.708128  1
  Sc  Sc4  1  0.291850  0.708079  0.291943  1
  Sc  Sc5  1  0.291829  0.291992  0.708089  1
  Al  Al6  1  0.636356  0.121187  0.121229  1
  Al  Al7  1  0.121073  0.636318  0.121305  1
  Al  Al8  1  0.121166  0.121369  0.636300  1
  Al  Al9  1  0.121166  0.121369  0.121166  1
  Al  Al10  1  0.363644  0.878813  0.878771  1
  Al  Al11  1  0.878927  0.363682  0.878695  1
  Al  Al12  1  0.878834  0.878631  0.363700  1
  Al  Al13  1  0.878834  0.878631  0.878834  1
  Al  Al14  1  0.992928  0.335878  0.335598  1
  Al  Al15  1  0.335683  0.992923  0.335698  1
  Al  Al16  1  0.335483  0.335787  0.992963  1
  Al  Al17  1  0.335483  0.335787  0.335766  1
  Al  Al18  1  0.007072  0.664122  0.664402  1
  Al  Al19  1  0.664317  0.007077  0.664302  1
  Al  Al20  1  0.664517  0.664213  0.007037  1
  Al  Al21  1  0.664517  0.664213  0.664234  1
  Fe  Fe22  1  0.500000  0.000000  0.000000  1
  Fe  Fe23  1  0.500000  0.000000  0.500000  1
  Fe  Fe24  1  0.500000  0.500000  0.000000  1
  Fe  Fe25  1  0.000000  0.500000  0.500000  1
  Fe  Fe26  1  0.000000  0.500000  0.000000  1
  Fe  Fe27  1  0.000000  0.000000  0.500000  1
  Ni  Ni28  1  0.000000  0.000000  0.000000  1
