# generated using pymatgen
data_Ce2OsC2
_symmetry_space_group_name_H-M   'P 1'
_cell_length_a   5.27532300
_cell_length_b   6.50879300
_cell_length_c   9.89934100
_cell_angle_alpha   90.00000000
_cell_angle_beta   90.00000000
_cell_angle_gamma   90.00000000
_symmetry_Int_Tables_number   1
_chemical_formula_structural   Ce2OsC2
_chemical_formula_sum   'Ce8 Os4 C8'
_cell_volume   339.90362820
_cell_formula_units_Z   4
loop_
 _symmetry_equiv_pos_site_id
 _symmetry_equiv_pos_as_xyz
  1  'x, y, z'
loop_
 _atom_site_type_symbol
 _atom_site_label
 _atom_site_symmetry_multiplicity
 _atom_site_fract_x
 _atom_site_fract_y
 _atom_site_fract_z
 _atom_site_occupancy
  Ce  Ce0  1  0.250000  0.694580  0.545185  1
  Ce  Ce1  1  0.750000  0.305420  0.454815  1
  Ce  Ce2  1  0.750000  0.805420  0.045185  1
  Ce  Ce3  1  0.250000  0.194580  0.954815  1
  Ce  Ce4  1  0.250000  0.518138  0.222959  1
  Ce  Ce5  1  0.750000  0.481862  0.777041  1
  Ce  Ce6  1  0.750000  0.981862  0.722959  1
  Ce  Ce7  1  0.250000  0.018138  0.277041  1
  Os  Os8  1  0.250000  0.728500  0.861762  1
  Os  Os9  1  0.750000  0.271500  0.138238  1
  Os  Os10  1  0.750000  0.771500  0.361762  1
  Os  Os11  1  0.250000  0.228500  0.638238  1
  C  C12  1  0.250000  0.469778  0.754413  1
  C  C13  1  0.750000  0.530222  0.245587  1
  C  C14  1  0.750000  0.030222  0.254413  1
  C  C15  1  0.250000  0.969778  0.745587  1
  C  C16  1  0.250000  0.830783  0.052750  1
  C  C17  1  0.750000  0.169217  0.947250  1
  C  C18  1  0.750000  0.669217  0.552750  1
  C  C19  1  0.250000  0.330783  0.447250  1
