# generated using pymatgen
data_Cs3Pr(NbS4)2
_symmetry_space_group_name_H-M   'P 1'
_cell_length_a   9.93617800
_cell_length_b   10.78621575
_cell_length_c   11.58667968
_cell_angle_alpha   106.88457630
_cell_angle_beta   103.80211481
_cell_angle_gamma   114.10567507
_symmetry_Int_Tables_number   1
_chemical_formula_structural   Cs3Pr(NbS4)2
_chemical_formula_sum   'Cs6 Pr2 Nb4 S16'
_cell_volume   989.79081201
_cell_formula_units_Z   2
loop_
 _symmetry_equiv_pos_site_id
 _symmetry_equiv_pos_as_xyz
  1  'x, y, z'
loop_
 _atom_site_type_symbol
 _atom_site_label
 _atom_site_symmetry_multiplicity
 _atom_site_fract_x
 _atom_site_fract_y
 _atom_site_fract_z
 _atom_site_occupancy
  Cs  Cs0  1  0.500000  0.500001  0.000000  1
  Cs  Cs1  1  0.000000  0.500000  0.999999  1
  Cs  Cs2  1  0.259857  0.009856  0.019606  1
  Cs  Cs3  1  0.483912  0.733860  0.467683  1
  Cs  Cs4  1  0.516089  0.266140  0.532320  1
  Cs  Cs5  1  0.740144  0.990144  0.980395  1
  Pr  Pr6  1  0.991907  0.241933  0.483893  1
  Pr  Pr7  1  0.008090  0.758065  0.516105  1
  Nb  Nb8  1  0.004336  0.907498  0.258971  1
  Nb  Nb9  1  0.754657  0.351513  0.259026  1
  Nb  Nb10  1  0.245350  0.648490  0.740979  1
  Nb  Nb11  1  0.995660  0.092500  0.741025  1
  S  S12  1  0.885781  0.762996  0.037387  1
  S  S13  1  0.651595  0.274436  0.037442  1
  S  S14  1  0.125892  0.159280  0.300516  1
  S  S15  1  0.674568  0.141279  0.300554  1
  S  S16  1  0.820910  0.867244  0.351214  1
  S  S17  1  0.030318  0.484001  0.351285  1
  S  S18  1  0.186670  0.851538  0.359251  1
  S  S19  1  0.672623  0.507774  0.359338  1
  S  S20  1  0.327379  0.492227  0.640663  1
  S  S21  1  0.813325  0.148460  0.640746  1
  S  S22  1  0.969690  0.516002  0.648719  1
  S  S23  1  0.179088  0.132755  0.648784  1
  S  S24  1  0.325432  0.858724  0.699449  1
  S  S25  1  0.874105  0.840718  0.699481  1
  S  S26  1  0.348408  0.725566  0.962563  1
  S  S27  1  0.114216  0.236999  0.962608  1
