# generated using pymatgen
data_Li3Yb2TmPb3
_symmetry_space_group_name_H-M   'P 1'
_cell_length_a   4.88848900
_cell_length_b   4.88848768
_cell_length_c   10.83457100
_cell_angle_alpha   90.00000000
_cell_angle_beta   90.00000000
_cell_angle_gamma   119.99998864
_symmetry_Int_Tables_number   1
_chemical_formula_structural   Li3Yb2TmPb3
_chemical_formula_sum   'Li3 Yb2 Tm1 Pb3'
_cell_volume   224.22889072
_cell_formula_units_Z   1
loop_
 _symmetry_equiv_pos_site_id
 _symmetry_equiv_pos_as_xyz
  1  'x, y, z'
loop_
 _atom_site_type_symbol
 _atom_site_label
 _atom_site_symmetry_multiplicity
 _atom_site_fract_x
 _atom_site_fract_y
 _atom_site_fract_z
 _atom_site_occupancy
  Li  Li0  1  0.000000  0.000000  0.805116  1
  Li  Li1  1  0.333333  0.666667  0.500000  1
  Li  Li2  1  0.000000  0.000000  0.194884  1
  Yb  Yb3  1  0.666667  0.333333  0.337036  1
  Yb  Yb4  1  0.666667  0.333333  0.662964  1
  Tm  Tm5  1  0.666667  0.333333  0.000000  1
  Pb  Pb6  1  0.333333  0.666667  0.151247  1
  Pb  Pb7  1  0.333333  0.666667  0.848753  1
  Pb  Pb8  1  0.000000  0.000000  0.500000  1
