# generated using pymatgen
data_Nd3In3CuRh2
_symmetry_space_group_name_H-M   'P 1'
_cell_length_a   7.59636514
_cell_length_b   7.59893389
_cell_length_c   4.05988500
_cell_angle_alpha   90.00000000
_cell_angle_beta   90.00000000
_cell_angle_gamma   120.01091096
_symmetry_Int_Tables_number   1
_chemical_formula_structural   Nd3In3CuRh2
_chemical_formula_sum   'Nd3 In3 Cu1 Rh2'
_cell_volume   202.93413410
_cell_formula_units_Z   1
loop_
 _symmetry_equiv_pos_site_id
 _symmetry_equiv_pos_as_xyz
  1  'x, y, z'
loop_
 _atom_site_type_symbol
 _atom_site_label
 _atom_site_symmetry_multiplicity
 _atom_site_fract_x
 _atom_site_fract_y
 _atom_site_fract_z
 _atom_site_occupancy
  Nd  Nd0  1  0.585594  0.999986  0.500000  1
  Nd  Nd1  1  0.414436  0.414400  0.500000  1
  Nd  Nd2  1  0.999967  0.585660  0.500000  1
  In  In3  1  0.247457  0.999976  0.000000  1
  In  In4  1  0.752514  0.752495  0.000000  1
  In  In5  1  0.000002  0.247474  0.000000  1
  Cu  Cu6  1  0.000057  0.000019  0.500000  1
  Rh  Rh7  1  0.333320  0.666686  0.000000  1
  Rh  Rh8  1  0.666653  0.333304  0.000000  1
