# generated using pymatgen
data_TbTi2(NbSn)4
_symmetry_space_group_name_H-M   'P 1'
_cell_length_a   8.49308706
_cell_length_b   8.16628655
_cell_length_c   8.49308727
_cell_angle_alpha   40.56101607
_cell_angle_beta   41.08949792
_cell_angle_gamma   40.56101193
_symmetry_Int_Tables_number   1
_chemical_formula_structural   TbTi2(NbSn)4
_chemical_formula_sum   'Tb1 Ti2 Nb4 Sn4'
_cell_volume   226.33080172
_cell_formula_units_Z   1
loop_
 _symmetry_equiv_pos_site_id
 _symmetry_equiv_pos_as_xyz
  1  'x, y, z'
loop_
 _atom_site_type_symbol
 _atom_site_label
 _atom_site_symmetry_multiplicity
 _atom_site_fract_x
 _atom_site_fract_y
 _atom_site_fract_z
 _atom_site_occupancy
  Tb  Tb0  1  0.991806  0.000000  0.008194  1
  Ti  Ti1  1  0.101432  0.629080  0.581349  1
  Ti  Ti2  1  0.418652  0.370920  0.898567  1
  Nb  Nb3  1  0.583309  0.626035  0.105020  1
  Nb  Nb4  1  0.894981  0.373965  0.416690  1
  Nb  Nb5  1  0.414750  0.843476  0.406609  1
  Nb  Nb6  1  0.593390  0.156524  0.585251  1
  Sn  Sn7  1  0.118978  0.155944  0.107033  1
  Sn  Sn8  1  0.330807  0.322605  0.341072  1
  Sn  Sn9  1  0.658928  0.677395  0.669193  1
  Sn  Sn10  1  0.892967  0.844056  0.881022  1
