# generated using pymatgen
data_Hf3Sc2Ni9As7
_symmetry_space_group_name_H-M   'P 1'
_cell_length_a   9.71588300
_cell_length_b   9.71588195
_cell_length_c   3.77436000
_cell_angle_alpha   90.00000000
_cell_angle_beta   90.00000000
_cell_angle_gamma   120.00000697
_symmetry_Int_Tables_number   1
_chemical_formula_structural   Hf3Sc2Ni9As7
_chemical_formula_sum   'Hf3 Sc2 Ni9 As7'
_cell_volume   308.55914895
_cell_formula_units_Z   1
loop_
 _symmetry_equiv_pos_site_id
 _symmetry_equiv_pos_as_xyz
  1  'x, y, z'
loop_
 _atom_site_type_symbol
 _atom_site_label
 _atom_site_symmetry_multiplicity
 _atom_site_fract_x
 _atom_site_fract_y
 _atom_site_fract_z
 _atom_site_occupancy
  Hf  Hf0  1  0.232076  0.124319  0.500000  1
  Hf  Hf1  1  0.875681  0.107757  0.500000  1
  Hf  Hf2  1  0.892243  0.767924  0.500000  1
  Sc  Sc3  1  0.333333  0.666667  0.000000  1
  Sc  Sc4  1  0.666667  0.333333  0.500000  1
  Ni  Ni5  1  0.125436  0.286873  0.000000  1
  Ni  Ni6  1  0.713127  0.838563  0.000000  1
  Ni  Ni7  1  0.161437  0.874564  0.000000  1
  Ni  Ni8  1  0.426836  0.364012  0.000000  1
  Ni  Ni9  1  0.635988  0.062825  0.000000  1
  Ni  Ni10  1  0.937175  0.573164  0.000000  1
  Ni  Ni11  1  0.055829  0.439987  0.500000  1
  Ni  Ni12  1  0.560013  0.615842  0.500000  1
  Ni  Ni13  1  0.384158  0.944171  0.500000  1
  As  As14  1  0.292246  0.423576  0.500000  1
  As  As15  1  0.576424  0.868668  0.500000  1
  As  As16  1  0.131332  0.707754  0.500000  1
  As  As17  1  0.430010  0.118332  0.000000  1
  As  As18  1  0.881668  0.311677  0.000000  1
  As  As19  1  0.688323  0.569990  0.000000  1
  As  As20  1  0.000000  0.000000  0.000000  1
