# generated using pymatgen
data_Tm4OsBr4
_symmetry_space_group_name_H-M   'P 1'
_cell_length_a   8.85244332
_cell_length_b   8.85244219
_cell_length_c   6.49370736
_cell_angle_alpha   89.48471837
_cell_angle_beta   89.48471761
_cell_angle_gamma   89.30978003
_symmetry_Int_Tables_number   1
_chemical_formula_structural   Tm4OsBr4
_chemical_formula_sum   'Tm8 Os2 Br8'
_cell_volume   508.80660910
_cell_formula_units_Z   2
loop_
 _symmetry_equiv_pos_site_id
 _symmetry_equiv_pos_as_xyz
  1  'x, y, z'
loop_
 _atom_site_type_symbol
 _atom_site_label
 _atom_site_symmetry_multiplicity
 _atom_site_fract_x
 _atom_site_fract_y
 _atom_site_fract_z
 _atom_site_occupancy
  Tm  Tm0  1  0.752133  0.098370  0.989992  1
  Tm  Tm1  1  0.098370  0.752133  0.489992  1
  Tm  Tm2  1  0.096953  0.246877  0.991573  1
  Tm  Tm3  1  0.246877  0.096953  0.491573  1
  Tm  Tm4  1  0.903047  0.753123  0.008427  1
  Tm  Tm5  1  0.901630  0.247867  0.510008  1
  Tm  Tm6  1  0.247867  0.901630  0.010008  1
  Tm  Tm7  1  0.753123  0.903047  0.508427  1
  Os  Os8  1  0.994734  0.005266  0.250000  1
  Os  Os9  1  0.005266  0.994734  0.750000  1
  Br  Br10  1  0.579913  0.183629  0.592199  1
  Br  Br11  1  0.809535  0.584481  0.405429  1
  Br  Br12  1  0.415519  0.190465  0.094571  1
  Br  Br13  1  0.190465  0.415519  0.594571  1
  Br  Br14  1  0.584481  0.809535  0.905429  1
  Br  Br15  1  0.420087  0.816371  0.407801  1
  Br  Br16  1  0.183629  0.579913  0.092199  1
  Br  Br17  1  0.816371  0.420087  0.907801  1
