# generated using pymatgen
data_Y3LuMg2Ir3
_symmetry_space_group_name_H-M   'P 1'
_cell_length_a   7.40834300
_cell_length_b   7.41333401
_cell_length_c   4.12311900
_cell_angle_alpha   90.00000000
_cell_angle_beta   90.00000000
_cell_angle_gamma   119.97772719
_symmetry_Int_Tables_number   1
_chemical_formula_structural   Y3LuMg2Ir3
_chemical_formula_sum   'Y3 Lu1 Mg2 Ir3'
_cell_volume   196.15011988
_cell_formula_units_Z   1
loop_
 _symmetry_equiv_pos_site_id
 _symmetry_equiv_pos_as_xyz
  1  'x, y, z'
loop_
 _atom_site_type_symbol
 _atom_site_label
 _atom_site_symmetry_multiplicity
 _atom_site_fract_x
 _atom_site_fract_y
 _atom_site_fract_z
 _atom_site_occupancy
  Y  Y0  1  0.392490  0.000000  0.499999  1
  Y  Y1  1  0.013350  0.426220  0.499999  1
  Y  Y2  1  0.587129  0.573780  0.499999  1
  Lu  Lu3  1  0.751645  0.000000  0.000000  1
  Mg  Mg4  1  0.248512  0.249373  0.000000  1
  Mg  Mg5  1  0.999140  0.750628  0.000000  1
  Ir  Ir6  1  0.669708  0.329628  0.000000  1
  Ir  Ir7  1  0.340079  0.670371  0.000000  1
  Ir  Ir8  1  0.997948  0.000000  0.499999  1
