# generated using pymatgen
data_DyTa8RhS16
_symmetry_space_group_name_H-M   'P 1'
_cell_length_a   6.68187000
_cell_length_b   6.68186899
_cell_length_c   12.98907100
_cell_angle_alpha   90.00000000
_cell_angle_beta   90.00000000
_cell_angle_gamma   120.00000499
_symmetry_Int_Tables_number   1
_chemical_formula_structural   DyTa8RhS16
_chemical_formula_sum   'Dy1 Ta8 Rh1 S16'
_cell_volume   502.23234489
_cell_formula_units_Z   1
loop_
 _symmetry_equiv_pos_site_id
 _symmetry_equiv_pos_as_xyz
  1  'x, y, z'
loop_
 _atom_site_type_symbol
 _atom_site_label
 _atom_site_symmetry_multiplicity
 _atom_site_fract_x
 _atom_site_fract_y
 _atom_site_fract_z
 _atom_site_occupancy
  Dy  Dy0  1  0.000000  0.000000  0.500000  1
  Ta  Ta1  1  0.506339  0.493661  0.768041  1
  Ta  Ta2  1  0.012676  0.506339  0.231959  1
  Ta  Ta3  1  0.493661  0.987324  0.231959  1
  Ta  Ta4  1  0.506339  0.012676  0.768041  1
  Ta  Ta5  1  0.987324  0.493661  0.768041  1
  Ta  Ta6  1  0.493661  0.506339  0.231959  1
  Ta  Ta7  1  0.000000  0.000000  0.765874  1
  Ta  Ta8  1  0.000000  0.000000  0.234126  1
  Rh  Rh9  1  0.000000  0.000000  0.000000  1
  S  S10  1  0.831174  0.168826  0.353787  1
  S  S11  1  0.831174  0.662348  0.353787  1
  S  S12  1  0.337652  0.168826  0.353787  1
  S  S13  1  0.664390  0.832195  0.885911  1
  S  S14  1  0.168826  0.337652  0.646213  1
  S  S15  1  0.167805  0.832195  0.885911  1
  S  S16  1  0.167805  0.335610  0.885911  1
  S  S17  1  0.832195  0.167805  0.114089  1
  S  S18  1  0.335610  0.167805  0.114089  1
  S  S19  1  0.662348  0.831174  0.646213  1
  S  S20  1  0.333333  0.666667  0.108690  1
  S  S21  1  0.666667  0.333333  0.642328  1
  S  S22  1  0.666667  0.333333  0.891310  1
  S  S23  1  0.333333  0.666667  0.357672  1
  S  S24  1  0.832195  0.664390  0.114089  1
  S  S25  1  0.168826  0.831174  0.646213  1
