# generated using pymatgen
data_Hf5Zr3(Pd2N)2
_symmetry_space_group_name_H-M   'P 1'
_cell_length_a   8.81032502
_cell_length_b   8.81032513
_cell_length_c   8.81032500
_cell_angle_alpha   59.99999672
_cell_angle_beta   59.99999632
_cell_angle_gamma   59.99999577
_symmetry_Int_Tables_number   1
_chemical_formula_structural   Hf5Zr3(Pd2N)2
_chemical_formula_sum   'Hf10 Zr6 Pd8 N4'
_cell_volume   483.57157018
_cell_formula_units_Z   2
loop_
 _symmetry_equiv_pos_site_id
 _symmetry_equiv_pos_as_xyz
  1  'x, y, z'
loop_
 _atom_site_type_symbol
 _atom_site_label
 _atom_site_symmetry_multiplicity
 _atom_site_fract_x
 _atom_site_fract_y
 _atom_site_fract_z
 _atom_site_occupancy
  Hf  Hf0  1  0.123659  0.625447  0.625447  1
  Hf  Hf1  1  0.625447  0.123659  0.625447  1
  Hf  Hf2  1  0.625447  0.625447  0.123659  1
  Hf  Hf3  1  0.625447  0.625447  0.625447  1
  Hf  Hf4  1  0.819485  0.819485  0.180515  1
  Hf  Hf5  1  0.180515  0.180515  0.819485  1
  Hf  Hf6  1  0.819485  0.180515  0.819485  1
  Hf  Hf7  1  0.180515  0.819485  0.180515  1
  Hf  Hf8  1  0.180515  0.819485  0.819485  1
  Hf  Hf9  1  0.819485  0.180515  0.180515  1
  Zr  Zr10  1  0.431441  0.431441  0.068559  1
  Zr  Zr11  1  0.068559  0.068559  0.431441  1
  Zr  Zr12  1  0.431441  0.068559  0.431441  1
  Zr  Zr13  1  0.068559  0.431441  0.068559  1
  Zr  Zr14  1  0.068559  0.431441  0.431441  1
  Zr  Zr15  1  0.431441  0.068559  0.068559  1
  Pd  Pd16  1  0.763889  0.412037  0.412037  1
  Pd  Pd17  1  0.412037  0.763889  0.412037  1
  Pd  Pd18  1  0.412037  0.412037  0.763889  1
  Pd  Pd19  1  0.412037  0.412037  0.412037  1
  Pd  Pd20  1  0.477258  0.840914  0.840914  1
  Pd  Pd21  1  0.840914  0.477258  0.840914  1
  Pd  Pd22  1  0.840914  0.840914  0.477258  1
  Pd  Pd23  1  0.840914  0.840914  0.840914  1
  N  N24  1  0.632988  0.122337  0.122337  1
  N  N25  1  0.122337  0.632988  0.122337  1
  N  N26  1  0.122337  0.122337  0.632988  1
  N  N27  1  0.122337  0.122337  0.122337  1
