# generated using pymatgen
data_Y4AlMoRu6
_symmetry_space_group_name_H-M   'P 1'
_cell_length_a   5.47228925
_cell_length_b   5.30378272
_cell_length_c   8.98519100
_cell_angle_alpha   90.00000000
_cell_angle_beta   90.00000000
_cell_angle_gamma   122.31843536
_symmetry_Int_Tables_number   1
_chemical_formula_structural   Y4AlMoRu6
_chemical_formula_sum   'Y4 Al1 Mo1 Ru6'
_cell_volume   220.38649193
_cell_formula_units_Z   1
loop_
 _symmetry_equiv_pos_site_id
 _symmetry_equiv_pos_as_xyz
  1  'x, y, z'
loop_
 _atom_site_type_symbol
 _atom_site_label
 _atom_site_symmetry_multiplicity
 _atom_site_fract_x
 _atom_site_fract_y
 _atom_site_fract_z
 _atom_site_occupancy
  Y  Y0  1  0.336412  0.665366  0.436432  1
  Y  Y1  1  0.671322  0.344739  0.564474  1
  Y  Y2  1  0.671322  0.344739  0.935526  1
  Y  Y3  1  0.336412  0.665366  0.063568  1
  Al  Al4  1  0.330893  0.162544  0.250000  1
  Mo  Mo5  1  0.167381  0.328303  0.750000  1
  Ru  Ru6  1  0.172964  0.824900  0.750000  1
  Ru  Ru7  1  0.831024  0.649239  0.250000  1
  Ru  Ru8  1  0.655504  0.826520  0.750000  1
  Ru  Ru9  1  0.998882  0.009937  0.001255  1
  Ru  Ru10  1  0.829005  0.168408  0.250000  1
  Ru  Ru11  1  0.998882  0.009937  0.498745  1
