# generated using pymatgen
data_Tm4LuScGa10
_symmetry_space_group_name_H-M   'P 1'
_cell_length_a   5.93905000
_cell_length_b   9.46975100
_cell_length_c   11.43617200
_cell_angle_alpha   90.00000000
_cell_angle_beta   90.00000000
_cell_angle_gamma   90.00000000
_symmetry_Int_Tables_number   1
_chemical_formula_structural   Tm4LuScGa10
_chemical_formula_sum   'Tm8 Lu2 Sc2 Ga20'
_cell_volume   643.18546251
_cell_formula_units_Z   2
loop_
 _symmetry_equiv_pos_site_id
 _symmetry_equiv_pos_as_xyz
  1  'x, y, z'
loop_
 _atom_site_type_symbol
 _atom_site_label
 _atom_site_symmetry_multiplicity
 _atom_site_fract_x
 _atom_site_fract_y
 _atom_site_fract_z
 _atom_site_occupancy
  Tm  Tm0  1  0.893825  0.503018  0.351151  1
  Tm  Tm1  1  0.606175  0.996982  0.851151  1
  Tm  Tm2  1  0.110590  0.004476  0.647224  1
  Tm  Tm3  1  0.389410  0.495524  0.147224  1
  Tm  Tm4  1  0.110590  0.495524  0.647224  1
  Tm  Tm5  1  0.389410  0.004476  0.147224  1
  Tm  Tm6  1  0.893825  0.996982  0.351151  1
  Tm  Tm7  1  0.606175  0.503018  0.851151  1
  Lu  Lu8  1  0.847762  0.750000  0.072475  1
  Lu  Lu9  1  0.652238  0.750000  0.572475  1
  Sc  Sc10  1  0.144575  0.250000  0.926055  1
  Sc  Sc11  1  0.355425  0.250000  0.426055  1
  Ga  Ga12  1  0.875913  0.057605  0.090530  1
  Ga  Ga13  1  0.624087  0.442395  0.590530  1
  Ga  Ga14  1  0.119666  0.547950  0.908539  1
  Ga  Ga15  1  0.380334  0.952050  0.408539  1
  Ga  Ga16  1  0.119666  0.952050  0.908539  1
  Ga  Ga17  1  0.380334  0.547950  0.408539  1
  Ga  Ga18  1  0.875913  0.442395  0.090530  1
  Ga  Ga19  1  0.624087  0.057605  0.590530  1
  Ga  Ga20  1  0.165541  0.750000  0.253804  1
  Ga  Ga21  1  0.334459  0.750000  0.753804  1
  Ga  Ga22  1  0.842113  0.250000  0.746588  1
  Ga  Ga23  1  0.657887  0.250000  0.246588  1
  Ga  Ga24  1  0.375557  0.750000  0.000276  1
  Ga  Ga25  1  0.124443  0.750000  0.500276  1
  Ga  Ga26  1  0.602149  0.250000  0.999326  1
  Ga  Ga27  1  0.897851  0.250000  0.499326  1
  Ga  Ga28  1  0.613207  0.750000  0.299968  1
  Ga  Ga29  1  0.886793  0.750000  0.799968  1
  Ga  Ga30  1  0.384620  0.250000  0.706618  1
  Ga  Ga31  1  0.115380  0.250000  0.206618  1
