# generated using pymatgen
data_Y2Al6Si3Os2Rh
_symmetry_space_group_name_H-M   'P 1'
_cell_length_a   7.46764888
_cell_length_b   7.45385130
_cell_length_c   9.43871522
_cell_angle_alpha   90.05814538
_cell_angle_beta   90.08316555
_cell_angle_gamma   119.93477849
_symmetry_Int_Tables_number   1
_chemical_formula_structural   Y2Al6Si3Os2Rh
_chemical_formula_sum   'Y4 Al12 Si6 Os4 Rh2'
_cell_volume   455.29391615
_cell_formula_units_Z   2
loop_
 _symmetry_equiv_pos_site_id
 _symmetry_equiv_pos_as_xyz
  1  'x, y, z'
loop_
 _atom_site_type_symbol
 _atom_site_label
 _atom_site_symmetry_multiplicity
 _atom_site_fract_x
 _atom_site_fract_y
 _atom_site_fract_z
 _atom_site_occupancy
  Y  Y0  1  0.999877  0.665177  0.252688  1
  Y  Y1  1  0.000123  0.334823  0.747312  1
  Y  Y2  1  0.673852  0.006019  0.255491  1
  Y  Y3  1  0.326148  0.993981  0.744509  1
  Al  Al4  1  0.127825  0.128114  0.250007  1
  Al  Al5  1  0.872175  0.871886  0.749993  1
  Al  Al6  1  0.660637  0.995306  0.929057  1
  Al  Al7  1  0.339363  0.004694  0.070943  1
  Al  Al8  1  0.337694  0.336665  0.558091  1
  Al  Al9  1  0.662306  0.663335  0.441909  1
  Al  Al10  1  0.662540  0.665791  0.057265  1
  Al  Al11  1  0.337460  0.334209  0.942735  1
  Al  Al12  1  0.339407  0.549072  0.249851  1
  Al  Al13  1  0.660593  0.450928  0.750149  1
  Al  Al14  1  0.548063  0.342202  0.250342  1
  Al  Al15  1  0.451937  0.657798  0.749658  1
  Si  Si16  1  0.002587  0.330815  0.066097  1
  Si  Si17  1  0.997413  0.669185  0.933903  1
  Si  Si18  1  0.990321  0.662736  0.571449  1
  Si  Si19  1  0.337266  0.008147  0.423698  1
  Si  Si20  1  0.009679  0.337264  0.428551  1
  Si  Si21  1  0.662734  0.991853  0.576302  1
  Os  Os22  1  0.687892  0.335675  0.001797  1
  Os  Os23  1  0.312108  0.664325  0.998203  1
  Os  Os24  1  0.318644  0.680980  0.500264  1
  Os  Os25  1  0.681356  0.319020  0.499736  1
  Rh  Rh26  1  0.000000  0.000000  0.000000  1
  Rh  Rh27  1  0.000000  0.000000  0.500000  1
