# generated using pymatgen
data_Li4Ac3Sn3Pb
_symmetry_space_group_name_H-M   'P 1'
_cell_length_a   4.95114347
_cell_length_b   7.51783088
_cell_length_c   9.37434200
_cell_angle_alpha   113.63940053
_cell_angle_beta   105.31228182
_cell_angle_gamma   90.00000333
_symmetry_Int_Tables_number   1
_chemical_formula_structural   Li4Ac3Sn3Pb
_chemical_formula_sum   'Li4 Ac3 Sn3 Pb1'
_cell_volume   306.08133756
_cell_formula_units_Z   1
loop_
 _symmetry_equiv_pos_site_id
 _symmetry_equiv_pos_as_xyz
  1  'x, y, z'
loop_
 _atom_site_type_symbol
 _atom_site_label
 _atom_site_symmetry_multiplicity
 _atom_site_fract_x
 _atom_site_fract_y
 _atom_site_fract_z
 _atom_site_occupancy
  Li  Li0  1  0.669925  0.976782  0.339848  1
  Li  Li1  1  0.331079  0.017059  0.662159  1
  Li  Li2  1  0.331079  0.645098  0.662159  1
  Li  Li3  1  0.669925  0.363066  0.339848  1
  Ac  Ac4  1  0.997891  0.997891  0.995784  1
  Ac  Ac5  1  0.132368  0.632368  0.264739  1
  Ac  Ac6  1  0.868017  0.368017  0.736034  1
  Sn  Sn7  1  0.500581  0.692697  0.001164  1
  Sn  Sn8  1  0.500581  0.308468  0.001164  1
  Sn  Sn9  1  0.786437  0.786437  0.572873  1
  Pb  Pb10  1  0.212115  0.212115  0.424230  1
