# generated using pymatgen
data_SmTmReB6
_symmetry_space_group_name_H-M   'P 1'
_cell_length_a   3.68847200
_cell_length_b   9.18137900
_cell_length_c   11.60987500
_cell_angle_alpha   90.00000000
_cell_angle_beta   90.00000000
_cell_angle_gamma   90.00000000
_symmetry_Int_Tables_number   1
_chemical_formula_structural   SmTmReB6
_chemical_formula_sum   'Sm4 Tm4 Re4 B24'
_cell_volume   393.17142805
_cell_formula_units_Z   4
loop_
 _symmetry_equiv_pos_site_id
 _symmetry_equiv_pos_as_xyz
  1  'x, y, z'
loop_
 _atom_site_type_symbol
 _atom_site_label
 _atom_site_symmetry_multiplicity
 _atom_site_fract_x
 _atom_site_fract_y
 _atom_site_fract_z
 _atom_site_occupancy
  Sm  Sm0  1  0.000000  0.322983  0.414001  1
  Sm  Sm1  1  0.000000  0.677017  0.585999  1
  Sm  Sm2  1  0.000000  0.822983  0.085999  1
  Sm  Sm3  1  0.000000  0.177017  0.914001  1
  Tm  Tm4  1  0.000000  0.943598  0.370153  1
  Tm  Tm5  1  0.000000  0.056402  0.629847  1
  Tm  Tm6  1  0.000000  0.443598  0.129847  1
  Tm  Tm7  1  0.000000  0.556402  0.870153  1
  Re  Re8  1  0.000000  0.639617  0.319495  1
  Re  Re9  1  0.000000  0.360383  0.680505  1
  Re  Re10  1  0.000000  0.139617  0.180505  1
  Re  Re11  1  0.000000  0.860383  0.819495  1
  B  B12  1  0.500000  0.554582  0.431380  1
  B  B13  1  0.500000  0.445418  0.568620  1
  B  B14  1  0.500000  0.054582  0.068620  1
  B  B15  1  0.500000  0.945418  0.931380  1
  B  B16  1  0.500000  0.750495  0.417198  1
  B  B17  1  0.500000  0.249505  0.582802  1
  B  B18  1  0.500000  0.250495  0.082802  1
  B  B19  1  0.500000  0.749505  0.917198  1
  B  B20  1  0.500000  0.792514  0.266235  1
  B  B21  1  0.500000  0.207486  0.733765  1
  B  B22  1  0.500000  0.292514  0.233765  1
  B  B23  1  0.500000  0.707486  0.766235  1
  B  B24  1  0.500000  0.629938  0.185877  1
  B  B25  1  0.500000  0.370062  0.814123  1
  B  B26  1  0.500000  0.129938  0.314123  1
  B  B27  1  0.500000  0.870062  0.685877  1
  B  B28  1  0.500000  0.983095  0.213125  1
  B  B29  1  0.500000  0.016905  0.786875  1
  B  B30  1  0.500000  0.483095  0.286875  1
  B  B31  1  0.500000  0.516905  0.713125  1
  B  B32  1  0.500000  0.597266  0.026994  1
  B  B33  1  0.500000  0.402734  0.973006  1
  B  B34  1  0.500000  0.097266  0.473006  1
  B  B35  1  0.500000  0.902734  0.526994  1
