# generated using pymatgen
data_Y3Mg2TiIr3
_symmetry_space_group_name_H-M   'P 1'
_cell_length_a   7.05161100
_cell_length_b   7.24788028
_cell_length_c   4.19724600
_cell_angle_alpha   90.00000000
_cell_angle_beta   90.00000000
_cell_angle_gamma   119.10818250
_symmetry_Int_Tables_number   1
_chemical_formula_structural   Y3Mg2TiIr3
_chemical_formula_sum   'Y3 Mg2 Ti1 Ir3'
_cell_volume   187.42498676
_cell_formula_units_Z   1
loop_
 _symmetry_equiv_pos_site_id
 _symmetry_equiv_pos_as_xyz
  1  'x, y, z'
loop_
 _atom_site_type_symbol
 _atom_site_label
 _atom_site_symmetry_multiplicity
 _atom_site_fract_x
 _atom_site_fract_y
 _atom_site_fract_z
 _atom_site_occupancy
  Y  Y0  1  0.408248  0.000000  0.499999  1
  Y  Y1  1  0.000476  0.414616  0.499999  1
  Y  Y2  1  0.585859  0.585384  0.499999  1
  Mg  Mg3  1  0.244827  0.245358  0.000000  1
  Mg  Mg4  1  0.999470  0.754643  0.000000  1
  Ti  Ti5  1  0.756051  0.000000  0.000000  1
  Ir  Ir6  1  0.676961  0.314572  0.000000  1
  Ir  Ir7  1  0.362388  0.685427  0.000000  1
  Ir  Ir8  1  0.965719  0.000000  0.499999  1
