# generated using pymatgen
data_CePa2(AlOs)3
_symmetry_space_group_name_H-M   'P 1'
_cell_length_a   7.03572493
_cell_length_b   6.89103313
_cell_length_c   4.13880100
_cell_angle_alpha   90.00000000
_cell_angle_beta   90.00000000
_cell_angle_gamma   119.32241305
_symmetry_Int_Tables_number   1
_chemical_formula_structural   CePa2(AlOs)3
_chemical_formula_sum   'Ce1 Pa2 Al3 Os3'
_cell_volume   174.95378355
_cell_formula_units_Z   1
loop_
 _symmetry_equiv_pos_site_id
 _symmetry_equiv_pos_as_xyz
  1  'x, y, z'
loop_
 _atom_site_type_symbol
 _atom_site_label
 _atom_site_symmetry_multiplicity
 _atom_site_fract_x
 _atom_site_fract_y
 _atom_site_fract_z
 _atom_site_occupancy
  Ce  Ce0  1  0.000024  0.580244  0.500000  1
  Pa  Pa1  1  0.419085  0.418244  0.500000  1
  Pa  Pa2  1  0.580938  0.999152  0.500000  1
  Al  Al3  1  0.772672  0.769570  0.000000  1
  Al  Al4  1  0.227313  0.996899  0.000000  1
  Al  Al5  1  0.000010  0.241260  0.000000  1
  Os  Os6  1  0.643687  0.312955  0.000000  1
  Os  Os7  1  0.356292  0.669296  0.000000  1
  Os  Os8  1  0.999978  0.012379  0.500000  1
