# generated using pymatgen
data_PuMg6NbN8
_symmetry_space_group_name_H-M   'P 1'
_cell_length_a   5.42133769
_cell_length_b   6.28538137
_cell_length_c   6.28517675
_cell_angle_alpha   60.45492541
_cell_angle_beta   73.35271691
_cell_angle_gamma   73.35707263
_symmetry_Int_Tables_number   1
_chemical_formula_structural   PuMg6NbN8
_chemical_formula_sum   'Pu1 Mg6 Nb1 N8'
_cell_volume   175.78315782
_cell_formula_units_Z   1
loop_
 _symmetry_equiv_pos_site_id
 _symmetry_equiv_pos_as_xyz
  1  'x, y, z'
loop_
 _atom_site_type_symbol
 _atom_site_label
 _atom_site_symmetry_multiplicity
 _atom_site_fract_x
 _atom_site_fract_y
 _atom_site_fract_z
 _atom_site_occupancy
  Pu  Pu0  1  0.250000  0.865582  0.634446  1
  Mg  Mg1  1  0.244400  0.371580  0.631546  1
  Mg  Mg2  1  0.756163  0.626304  0.373465  1
  Mg  Mg3  1  0.749991  0.625703  0.874260  1
  Mg  Mg4  1  0.250045  0.376469  0.123593  1
  Mg  Mg5  1  0.255626  0.868461  0.128459  1
  Mg  Mg6  1  0.743748  0.126502  0.873650  1
  Nb  Nb7  1  0.750033  0.165412  0.334526  1
  N  N8  1  0.013944  0.758977  0.505976  1
  N  N9  1  0.996701  0.230765  0.504743  1
  N  N10  1  0.514162  0.485821  0.257606  1
  N  N11  1  0.488082  0.513233  0.746489  1
  N  N12  1  0.486036  0.994001  0.741131  1
  N  N13  1  0.503318  0.995251  0.269225  1
  N  N14  1  0.011894  0.753507  0.986790  1
  N  N15  1  0.985858  0.242434  0.014095  1
