# generated using pymatgen
data_Ac2GaN3
_symmetry_space_group_name_H-M   'P 1'
_cell_length_a   6.38349817
_cell_length_b   6.38349861
_cell_length_c   12.39842775
_cell_angle_alpha   88.52773397
_cell_angle_beta   88.52773007
_cell_angle_gamma   125.09509349
_symmetry_Int_Tables_number   1
_chemical_formula_structural   Ac2GaN3
_chemical_formula_sum   'Ac8 Ga4 N12'
_cell_volume   412.73141219
_cell_formula_units_Z   4
loop_
 _symmetry_equiv_pos_site_id
 _symmetry_equiv_pos_as_xyz
  1  'x, y, z'
loop_
 _atom_site_type_symbol
 _atom_site_label
 _atom_site_symmetry_multiplicity
 _atom_site_fract_x
 _atom_site_fract_y
 _atom_site_fract_z
 _atom_site_occupancy
  Ac  Ac0  1  0.967156  0.555298  0.848231  1
  Ac  Ac1  1  0.444702  0.032844  0.651769  1
  Ac  Ac2  1  0.657381  0.865643  0.925422  1
  Ac  Ac3  1  0.134357  0.342619  0.574578  1
  Ac  Ac4  1  0.032844  0.444702  0.151769  1
  Ac  Ac5  1  0.865643  0.657381  0.425422  1
  Ac  Ac6  1  0.555298  0.967156  0.348231  1
  Ac  Ac7  1  0.342619  0.134357  0.074578  1
  Ga  Ga8  1  0.732152  0.729817  0.663789  1
  Ga  Ga9  1  0.270183  0.267848  0.836211  1
  Ga  Ga10  1  0.729817  0.732152  0.163789  1
  Ga  Ga11  1  0.267848  0.270183  0.336211  1
  N  N12  1  0.119954  0.317671  0.968658  1
  N  N13  1  0.992872  0.007128  0.250000  1
  N  N14  1  0.007128  0.992872  0.750000  1
  N  N15  1  0.404896  0.595104  0.750000  1
  N  N16  1  0.595104  0.404896  0.250000  1
  N  N17  1  0.682329  0.880046  0.531342  1
  N  N18  1  0.880046  0.682329  0.031342  1
  N  N19  1  0.150078  0.498457  0.369097  1
  N  N20  1  0.498457  0.150078  0.869097  1
  N  N21  1  0.849922  0.501543  0.630903  1
  N  N22  1  0.317671  0.119954  0.468658  1
  N  N23  1  0.501543  0.849922  0.130903  1
