# generated using pymatgen
data_Lu3HfAl15(GaIr2)3
_symmetry_space_group_name_H-M   'P 1'
_cell_length_a   7.49973124
_cell_length_b   7.49733650
_cell_length_c   9.41097900
_cell_angle_alpha   90.00000000
_cell_angle_beta   90.00000000
_cell_angle_gamma   119.67288314
_symmetry_Int_Tables_number   1
_chemical_formula_structural   Lu3HfAl15(GaIr2)3
_chemical_formula_sum   'Lu3 Hf1 Al15 Ga3 Ir6'
_cell_volume   459.76961298
_cell_formula_units_Z   1
loop_
 _symmetry_equiv_pos_site_id
 _symmetry_equiv_pos_as_xyz
  1  'x, y, z'
loop_
 _atom_site_type_symbol
 _atom_site_label
 _atom_site_symmetry_multiplicity
 _atom_site_fract_x
 _atom_site_fract_y
 _atom_site_fract_z
 _atom_site_occupancy
  Lu  Lu0  1  0.005256  0.326662  0.750000  1
  Lu  Lu1  1  0.671825  0.997960  0.250000  1
  Lu  Lu2  1  0.328611  0.006783  0.750000  1
  Hf  Hf3  1  0.999926  0.672382  0.250000  1
  Al  Al4  1  0.125997  0.123620  0.250000  1
  Al  Al5  1  0.999723  0.337243  0.078939  1
  Al  Al6  1  0.998267  0.665134  0.929754  1
  Al  Al7  1  0.998267  0.665134  0.570246  1
  Al  Al8  1  0.333352  0.998599  0.421057  1
  Al  Al9  1  0.999723  0.337243  0.421061  1
  Al  Al10  1  0.664449  0.997178  0.573575  1
  Al  Al11  1  0.664449  0.997178  0.926425  1
  Al  Al12  1  0.333352  0.998599  0.078943  1
  Al  Al13  1  0.334612  0.335023  0.547325  1
  Al  Al14  1  0.669925  0.668045  0.433064  1
  Al  Al15  1  0.669925  0.668045  0.066936  1
  Al  Al16  1  0.334612  0.335023  0.952675  1
  Al  Al17  1  0.334960  0.549767  0.250000  1
  Al  Al18  1  0.554977  0.341751  0.250000  1
  Ga  Ga19  1  0.870978  0.869852  0.750000  1
  Ga  Ga20  1  0.658527  0.450800  0.750000  1
  Ga  Ga21  1  0.448521  0.657032  0.750000  1
  Ir  Ir22  1  0.672610  0.327713  0.002698  1
  Ir  Ir23  1  0.327525  0.672879  0.003483  1
  Ir  Ir24  1  0.327525  0.672879  0.496517  1
  Ir  Ir25  1  0.672610  0.327713  0.497302  1
  Ir  Ir26  1  0.999751  0.999883  0.002914  1
  Ir  Ir27  1  0.999751  0.999883  0.497086  1
