# generated using pymatgen
data_Yb15CeMg2(ZnRu2)2
_symmetry_space_group_name_H-M   'P 1'
_cell_length_a   9.85048624
_cell_length_b   9.86609318
_cell_length_c   9.84348444
_cell_angle_alpha   60.36663648
_cell_angle_beta   59.05880910
_cell_angle_gamma   60.22279917
_symmetry_Int_Tables_number   1
_chemical_formula_structural   Yb15CeMg2(ZnRu2)2
_chemical_formula_sum   'Yb15 Ce1 Mg2 Zn2 Ru4'
_cell_volume   674.44154892
_cell_formula_units_Z   1
loop_
 _symmetry_equiv_pos_site_id
 _symmetry_equiv_pos_as_xyz
  1  'x, y, z'
loop_
 _atom_site_type_symbol
 _atom_site_label
 _atom_site_symmetry_multiplicity
 _atom_site_fract_x
 _atom_site_fract_y
 _atom_site_fract_z
 _atom_site_occupancy
  Yb  Yb0  1  0.344116  0.340836  0.343141  1
  Yb  Yb1  1  0.954246  0.549489  0.540853  1
  Yb  Yb2  1  0.542751  0.550016  0.958977  1
  Yb  Yb3  1  0.554330  0.951079  0.556531  1
  Yb  Yb4  1  0.810784  0.195824  0.196867  1
  Yb  Yb5  1  0.193808  0.191315  0.816115  1
  Yb  Yb6  1  0.193730  0.809242  0.191838  1
  Yb  Yb7  1  0.947203  0.959361  0.542620  1
  Yb  Yb8  1  0.543660  0.953228  0.952343  1
  Yb  Yb9  1  0.944471  0.550304  0.955425  1
  Yb  Yb10  1  0.337646  0.343942  0.971817  1
  Yb  Yb11  1  0.969397  0.344317  0.338838  1
  Yb  Yb12  1  0.341829  0.973930  0.342024  1
  Yb  Yb13  1  0.812808  0.803240  0.192819  1
  Yb  Yb14  1  0.191484  0.803218  0.817019  1
  Ce  Ce15  1  0.812503  0.188679  0.813632  1
  Mg  Mg16  1  0.278815  0.571565  0.565279  1
  Mg  Mg17  1  0.581146  0.569911  0.570880  1
  Zn  Zn18  1  0.578161  0.261587  0.576694  1
  Zn  Zn19  1  0.577215  0.581278  0.256680  1
  Ru  Ru20  1  0.142280  0.125391  0.145587  1
  Ru  Ru21  1  0.140767  0.589317  0.144492  1
  Ru  Ru22  1  0.623003  0.146683  0.085314  1
  Ru  Ru23  1  0.083850  0.146248  0.624215  1
