# generated using pymatgen
data_Zr8Nb12Ga3Si13
_symmetry_space_group_name_H-M   'P 1'
_cell_length_a   6.93791567
_cell_length_b   6.92653357
_cell_length_c   12.84385342
_cell_angle_alpha   90.04758770
_cell_angle_beta   89.94803527
_cell_angle_gamma   90.10593698
_symmetry_Int_Tables_number   1
_chemical_formula_structural   Zr8Nb12Ga3Si13
_chemical_formula_sum   'Zr8 Nb12 Ga3 Si13'
_cell_volume   617.21891996
_cell_formula_units_Z   1
loop_
 _symmetry_equiv_pos_site_id
 _symmetry_equiv_pos_as_xyz
  1  'x, y, z'
loop_
 _atom_site_type_symbol
 _atom_site_label
 _atom_site_symmetry_multiplicity
 _atom_site_fract_x
 _atom_site_fract_y
 _atom_site_fract_z
 _atom_site_occupancy
  Zr  Zr0  1  0.000772  0.661708  0.032349  1
  Zr  Zr1  1  0.000419  0.341426  0.532378  1
  Zr  Zr2  1  0.655235  0.999033  0.968940  1
  Zr  Zr3  1  0.160451  0.500732  0.780931  1
  Zr  Zr4  1  0.839384  0.498036  0.280269  1
  Zr  Zr5  1  0.499682  0.157461  0.217714  1
  Zr  Zr6  1  0.498373  0.840163  0.719946  1
  Zr  Zr7  1  0.341530  0.999787  0.467862  1
  Nb  Nb8  1  0.352504  0.502361  0.375194  1
  Nb  Nb9  1  0.844494  0.999828  0.368960  1
  Nb  Nb10  1  0.005194  0.152892  0.129069  1
  Nb  Nb11  1  0.999204  0.844685  0.630628  1
  Nb  Nb12  1  0.648139  0.497520  0.875676  1
  Nb  Nb13  1  0.502103  0.352543  0.625047  1
  Nb  Nb14  1  0.495270  0.652519  0.123515  1
  Nb  Nb15  1  0.156081  0.999707  0.872185  1
  Nb  Nb16  1  0.665901  0.666364  0.500125  1
  Nb  Nb17  1  0.829767  0.170224  0.749972  1
  Nb  Nb18  1  0.172260  0.831767  0.248047  1
  Nb  Nb19  1  0.334157  0.329696  0.001365  1
  Ga  Ga20  1  0.041573  0.702977  0.435558  1
  Ga  Ga21  1  0.957907  0.299012  0.936252  1
  Ga  Ga22  1  0.702492  0.041583  0.563685  1
  Si  Si23  1  0.201686  0.455478  0.187232  1
  Si  Si24  1  0.798518  0.544511  0.687037  1
  Si  Si25  1  0.455551  0.202150  0.812995  1
  Si  Si26  1  0.545031  0.797790  0.313611  1
  Si  Si27  1  0.295791  0.955757  0.062529  1
  Si  Si28  1  0.863291  0.792948  0.823262  1
  Si  Si29  1  0.136258  0.208055  0.323244  1
  Si  Si30  1  0.792616  0.863746  0.177193  1
  Si  Si31  1  0.293596  0.637898  0.571760  1
  Si  Si32  1  0.707169  0.363901  0.072562  1
  Si  Si33  1  0.637476  0.293322  0.427732  1
  Si  Si34  1  0.362967  0.705964  0.927806  1
  Si  Si35  1  0.207159  0.136455  0.677371  1
