# generated using pymatgen
data_K3RbHfSe4
_symmetry_space_group_name_H-M   'P 1'
_cell_length_a   8.52580200
_cell_length_b   10.30785700
_cell_length_c   15.46780900
_cell_angle_alpha   90.00000000
_cell_angle_beta   90.00000000
_cell_angle_gamma   90.00000000
_symmetry_Int_Tables_number   1
_chemical_formula_structural   K3RbHfSe4
_chemical_formula_sum   'K12 Rb4 Hf4 Se16'
_cell_volume   1359.35355777
_cell_formula_units_Z   4
loop_
 _symmetry_equiv_pos_site_id
 _symmetry_equiv_pos_as_xyz
  1  'x, y, z'
loop_
 _atom_site_type_symbol
 _atom_site_label
 _atom_site_symmetry_multiplicity
 _atom_site_fract_x
 _atom_site_fract_y
 _atom_site_fract_z
 _atom_site_occupancy
  K  K0  1  0.974668  0.750000  0.432504  1
  K  K1  1  0.474668  0.250000  0.067496  1
  K  K2  1  0.025332  0.250000  0.567496  1
  K  K3  1  0.525332  0.750000  0.932504  1
  K  K4  1  0.837685  0.056869  0.273016  1
  K  K5  1  0.337685  0.943131  0.226984  1
  K  K6  1  0.162315  0.556869  0.726984  1
  K  K7  1  0.662315  0.443131  0.773016  1
  K  K8  1  0.162315  0.943131  0.726984  1
  K  K9  1  0.662315  0.056869  0.773016  1
  K  K10  1  0.837685  0.443131  0.273016  1
  K  K11  1  0.337685  0.556869  0.226984  1
  Rb  Rb12  1  0.000000  0.000000  0.000000  1
  Rb  Rb13  1  0.500000  0.000000  0.500000  1
  Rb  Rb14  1  0.000000  0.500000  0.000000  1
  Rb  Rb15  1  0.500000  0.500000  0.500000  1
  Hf  Hf16  1  0.763006  0.750000  0.671654  1
  Hf  Hf17  1  0.236994  0.250000  0.328346  1
  Hf  Hf18  1  0.736994  0.750000  0.171654  1
  Hf  Hf19  1  0.263006  0.250000  0.828346  1
  Se  Se20  1  0.966959  0.250000  0.821792  1
  Se  Se21  1  0.533041  0.250000  0.321792  1
  Se  Se22  1  0.466959  0.750000  0.678208  1
  Se  Se23  1  0.033041  0.750000  0.178208  1
  Se  Se24  1  0.643663  0.548601  0.095651  1
  Se  Se25  1  0.143663  0.451399  0.404349  1
  Se  Se26  1  0.356337  0.048601  0.904349  1
  Se  Se27  1  0.856337  0.951399  0.595651  1
  Se  Se28  1  0.356337  0.451399  0.904349  1
  Se  Se29  1  0.856337  0.548601  0.595651  1
  Se  Se30  1  0.643663  0.951399  0.095651  1
  Se  Se31  1  0.143663  0.048601  0.404349  1
  Se  Se32  1  0.624176  0.750000  0.323830  1
  Se  Se33  1  0.124176  0.250000  0.176170  1
  Se  Se34  1  0.375824  0.250000  0.676170  1
  Se  Se35  1  0.875824  0.750000  0.823830  1
