# generated using pymatgen
data_Tb2HfZrIr2
_symmetry_space_group_name_H-M   'P 1'
_cell_length_a   4.55295600
_cell_length_b   7.11475900
_cell_length_c   8.33456600
_cell_angle_alpha   90.00000000
_cell_angle_beta   90.00000000
_cell_angle_gamma   90.00000000
_symmetry_Int_Tables_number   1
_chemical_formula_structural   Tb2HfZrIr2
_chemical_formula_sum   'Tb4 Hf2 Zr2 Ir4'
_cell_volume   269.98313565
_cell_formula_units_Z   2
loop_
 _symmetry_equiv_pos_site_id
 _symmetry_equiv_pos_as_xyz
  1  'x, y, z'
loop_
 _atom_site_type_symbol
 _atom_site_label
 _atom_site_symmetry_multiplicity
 _atom_site_fract_x
 _atom_site_fract_y
 _atom_site_fract_z
 _atom_site_occupancy
  Tb  Tb0  1  0.250000  0.014248  0.324015  1
  Tb  Tb1  1  0.250000  0.514248  0.175985  1
  Tb  Tb2  1  0.750000  0.984063  0.677848  1
  Tb  Tb3  1  0.750000  0.484063  0.822152  1
  Hf  Hf4  1  0.250000  0.141313  0.925338  1
  Hf  Hf5  1  0.250000  0.641313  0.574662  1
  Zr  Zr6  1  0.750000  0.858781  0.073814  1
  Zr  Zr7  1  0.750000  0.358781  0.426186  1
  Ir  Ir8  1  0.250000  0.268884  0.594388  1
  Ir  Ir9  1  0.250000  0.768884  0.905612  1
  Ir  Ir10  1  0.750000  0.732710  0.412584  1
  Ir  Ir11  1  0.750000  0.232710  0.087416  1
