# generated using pymatgen
data_Lu4TcOsRu6
_symmetry_space_group_name_H-M   'P 1'
_cell_length_a   5.14356800
_cell_length_b   5.32267197
_cell_length_c   8.90783300
_cell_angle_alpha   90.00000000
_cell_angle_beta   90.00000000
_cell_angle_gamma   119.46298859
_symmetry_Int_Tables_number   1
_chemical_formula_structural   Lu4TcOsRu6
_chemical_formula_sum   'Lu4 Tc1 Os1 Ru6'
_cell_volume   212.33502305
_cell_formula_units_Z   1
loop_
 _symmetry_equiv_pos_site_id
 _symmetry_equiv_pos_as_xyz
  1  'x, y, z'
loop_
 _atom_site_type_symbol
 _atom_site_label
 _atom_site_symmetry_multiplicity
 _atom_site_fract_x
 _atom_site_fract_y
 _atom_site_fract_z
 _atom_site_occupancy
  Lu  Lu0  1  0.330551  0.668947  0.432675  1
  Lu  Lu1  1  0.659572  0.328923  0.565906  1
  Lu  Lu2  1  0.659572  0.328923  0.934094  1
  Lu  Lu3  1  0.330551  0.668947  0.067325  1
  Tc  Tc4  1  0.674947  0.836394  0.750000  1
  Os  Os5  1  0.837763  0.164064  0.250000  1
  Ru  Ru6  1  0.985097  0.000828  0.499288  1
  Ru  Ru7  1  0.985097  0.000828  0.000712  1
  Ru  Ru8  1  0.829734  0.652464  0.250000  1
  Ru  Ru9  1  0.350384  0.171909  0.250000  1
  Ru  Ru10  1  0.178631  0.828820  0.750000  1
  Ru  Ru11  1  0.178102  0.348952  0.750000  1
