# generated using pymatgen
data_PrAg6NO11
_symmetry_space_group_name_H-M   'P 1'
_cell_length_a   7.15585320
_cell_length_b   7.15585324
_cell_length_c   7.15585339
_cell_angle_alpha   61.56789858
_cell_angle_beta   61.56790433
_cell_angle_gamma   61.56789536
_symmetry_Int_Tables_number   1
_chemical_formula_structural   PrAg6NO11
_chemical_formula_sum   'Pr1 Ag6 N1 O11'
_cell_volume   268.21591502
_cell_formula_units_Z   1
loop_
 _symmetry_equiv_pos_site_id
 _symmetry_equiv_pos_as_xyz
  1  'x, y, z'
loop_
 _atom_site_type_symbol
 _atom_site_label
 _atom_site_symmetry_multiplicity
 _atom_site_fract_x
 _atom_site_fract_y
 _atom_site_fract_z
 _atom_site_occupancy
  Pr  Pr0  1  0.999039  0.999039  0.999039  1
  Ag  Ag1  1  0.498424  0.000894  0.000894  1
  Ag  Ag2  1  0.500312  0.500312  0.000329  1
  Ag  Ag3  1  0.500312  0.000329  0.500312  1
  Ag  Ag4  1  0.000894  0.000894  0.498424  1
  Ag  Ag5  1  0.000329  0.500312  0.500312  1
  Ag  Ag6  1  0.000894  0.498424  0.000894  1
  N  N7  1  0.500102  0.500102  0.500102  1
  O  O8  1  0.576855  0.146089  0.146089  1
  O  O9  1  0.146089  0.576855  0.146089  1
  O  O10  1  0.141858  0.141858  0.141858  1
  O  O11  1  0.146089  0.146089  0.576855  1
  O  O12  1  0.599797  0.599797  0.300560  1
  O  O13  1  0.599797  0.300560  0.599797  1
  O  O14  1  0.300560  0.599797  0.599797  1
  O  O15  1  0.854921  0.854921  0.421328  1
  O  O16  1  0.854921  0.421328  0.854921  1
  O  O17  1  0.857478  0.857478  0.857478  1
  O  O18  1  0.421328  0.854921  0.854921  1
