# generated using pymatgen
data_K3Sc12TlSe20
_symmetry_space_group_name_H-M   'P 1'
_cell_length_a   3.92133300
_cell_length_b   11.74124528
_cell_length_c   20.93011000
_cell_angle_alpha   90.13846164
_cell_angle_beta   90.00000000
_cell_angle_gamma   90.00000000
_symmetry_Int_Tables_number   1
_chemical_formula_structural   K3Sc12TlSe20
_chemical_formula_sum   'K3 Sc12 Tl1 Se20'
_cell_volume   963.64734190
_cell_formula_units_Z   1
loop_
 _symmetry_equiv_pos_site_id
 _symmetry_equiv_pos_as_xyz
  1  'x, y, z'
loop_
 _atom_site_type_symbol
 _atom_site_label
 _atom_site_symmetry_multiplicity
 _atom_site_fract_x
 _atom_site_fract_y
 _atom_site_fract_z
 _atom_site_occupancy
  K  K0  1  0.250000  0.850697  0.092827  1
  K  K1  1  0.750000  0.149386  0.907303  1
  K  K2  1  0.750000  0.350704  0.407083  1
  Sc  Sc3  1  0.750000  0.799010  0.826850  1
  Sc  Sc4  1  0.250000  0.201056  0.173674  1
  Sc  Sc5  1  0.250000  0.297848  0.674105  1
  Sc  Sc6  1  0.750000  0.701180  0.325873  1
  Sc  Sc7  1  0.250000  0.956763  0.698535  1
  Sc  Sc8  1  0.750000  0.044025  0.301556  1
  Sc  Sc9  1  0.750000  0.455536  0.802206  1
  Sc  Sc10  1  0.250000  0.544019  0.198311  1
  Sc  Sc11  1  0.750000  0.391249  0.054797  1
  Sc  Sc12  1  0.250000  0.608709  0.945312  1
  Sc  Sc13  1  0.250000  0.891932  0.444978  1
  Sc  Sc14  1  0.750000  0.109106  0.554626  1
  Tl  Tl15  1  0.250000  0.646967  0.591180  1
  Se  Se16  1  0.250000  0.946850  0.569308  1
  Se  Se17  1  0.750000  0.054084  0.430701  1
  Se  Se18  1  0.750000  0.446660  0.931011  1
  Se  Se19  1  0.250000  0.553402  0.069198  1
  Se  Se20  1  0.750000  0.768249  0.954914  1
  Se  Se21  1  0.250000  0.231893  0.045328  1
  Se  Se22  1  0.250000  0.268235  0.545692  1
  Se  Se23  1  0.750000  0.733096  0.453672  1
  Se  Se24  1  0.250000  0.954711  0.827711  1
  Se  Se25  1  0.750000  0.045651  0.172512  1
  Se  Se26  1  0.750000  0.453171  0.673499  1
  Se  Se27  1  0.250000  0.545682  0.327149  1
  Se  Se28  1  0.750000  0.126807  0.685855  1
  Se  Se29  1  0.250000  0.873326  0.313980  1
  Se  Se30  1  0.250000  0.627213  0.814443  1
  Se  Se31  1  0.750000  0.372974  0.185665  1
  Se  Se32  1  0.750000  0.696908  0.197301  1
  Se  Se33  1  0.250000  0.302611  0.802888  1
  Se  Se34  1  0.250000  0.197012  0.302402  1
  Se  Se35  1  0.750000  0.803280  0.697554  1
