# generated using pymatgen
data_Er3In4NiPt
_symmetry_space_group_name_H-M   'P 1'
_cell_length_a   7.85675600
_cell_length_b   7.85675575
_cell_length_c   3.76047100
_cell_angle_alpha   90.00000000
_cell_angle_beta   90.00000000
_cell_angle_gamma   120.00000105
_symmetry_Int_Tables_number   1
_chemical_formula_structural   Er3In4NiPt
_chemical_formula_sum   'Er3 In4 Ni1 Pt1'
_cell_volume   201.02931320
_cell_formula_units_Z   1
loop_
 _symmetry_equiv_pos_site_id
 _symmetry_equiv_pos_as_xyz
  1  'x, y, z'
loop_
 _atom_site_type_symbol
 _atom_site_label
 _atom_site_symmetry_multiplicity
 _atom_site_fract_x
 _atom_site_fract_y
 _atom_site_fract_z
 _atom_site_occupancy
  Er  Er0  1  0.301124  0.255965  0.500000  1
  Er  Er1  1  0.744035  0.045158  0.500000  1
  Er  Er2  1  0.954842  0.698876  0.500000  1
  In  In3  1  0.081073  0.420696  0.000000  1
  In  In4  1  0.579304  0.660377  0.000000  1
  In  In5  1  0.339623  0.918927  0.000000  1
  In  In6  1  0.666667  0.333333  0.000000  1
  Ni  Ni7  1  0.333333  0.666667  0.500000  1
  Pt  Pt8  1  0.000000  0.000000  0.000000  1
