# generated using pymatgen
data_Hf3CuIr2N
_symmetry_space_group_name_H-M   'P 1'
_cell_length_a   8.42779476
_cell_length_b   8.42779464
_cell_length_c   8.42779300
_cell_angle_alpha   59.99999465
_cell_angle_beta   59.99999513
_cell_angle_gamma   59.99999401
_symmetry_Int_Tables_number   1
_chemical_formula_structural   Hf3CuIr2N
_chemical_formula_sum   'Hf12 Cu4 Ir8 N4'
_cell_volume   423.27898214
_cell_formula_units_Z   4
loop_
 _symmetry_equiv_pos_site_id
 _symmetry_equiv_pos_as_xyz
  1  'x, y, z'
loop_
 _atom_site_type_symbol
 _atom_site_label
 _atom_site_symmetry_multiplicity
 _atom_site_fract_x
 _atom_site_fract_y
 _atom_site_fract_z
 _atom_site_occupancy
  Hf  Hf0  1  0.806551  0.193449  0.193449  1
  Hf  Hf1  1  0.193449  0.806551  0.193449  1
  Hf  Hf2  1  0.806551  0.806551  0.193449  1
  Hf  Hf3  1  0.193449  0.806551  0.806551  1
  Hf  Hf4  1  0.806551  0.193449  0.806551  1
  Hf  Hf5  1  0.193449  0.193449  0.806551  1
  Hf  Hf6  1  0.443449  0.056551  0.056551  1
  Hf  Hf7  1  0.056551  0.443449  0.056551  1
  Hf  Hf8  1  0.443449  0.443449  0.056551  1
  Hf  Hf9  1  0.056551  0.443449  0.443449  1
  Hf  Hf10  1  0.443449  0.056551  0.443449  1
  Hf  Hf11  1  0.056551  0.056551  0.443449  1
  Cu  Cu12  1  0.625000  0.625000  0.125000  1
  Cu  Cu13  1  0.625000  0.625000  0.625000  1
  Cu  Cu14  1  0.125000  0.625000  0.625000  1
  Cu  Cu15  1  0.625000  0.125000  0.625000  1
  Ir  Ir16  1  0.414226  0.414226  0.757320  1
  Ir  Ir17  1  0.414226  0.414226  0.414226  1
  Ir  Ir18  1  0.757320  0.414226  0.414226  1
  Ir  Ir19  1  0.414226  0.757320  0.414226  1
  Ir  Ir20  1  0.835774  0.835774  0.492680  1
  Ir  Ir21  1  0.835774  0.835774  0.835774  1
  Ir  Ir22  1  0.492680  0.835774  0.835774  1
  Ir  Ir23  1  0.835774  0.492680  0.835774  1
  N  N24  1  0.125000  0.125000  0.625000  1
  N  N25  1  0.125000  0.125000  0.125000  1
  N  N26  1  0.625000  0.125000  0.125000  1
  N  N27  1  0.125000  0.625000  0.125000  1
