# generated using pymatgen
data_Ho12AlFe4Au
_symmetry_space_group_name_H-M   'P 1'
_cell_length_a   8.27745065
_cell_length_b   8.27745011
_cell_length_c   8.27745000
_cell_angle_alpha   111.01812905
_cell_angle_beta   110.71679041
_cell_angle_gamma   106.71359595
_symmetry_Int_Tables_number   1
_chemical_formula_structural   Ho12AlFe4Au
_chemical_formula_sum   'Ho12 Al1 Fe4 Au1'
_cell_volume   435.82694399
_cell_formula_units_Z   1
loop_
 _symmetry_equiv_pos_site_id
 _symmetry_equiv_pos_as_xyz
  1  'x, y, z'
loop_
 _atom_site_type_symbol
 _atom_site_label
 _atom_site_symmetry_multiplicity
 _atom_site_fract_x
 _atom_site_fract_y
 _atom_site_fract_z
 _atom_site_occupancy
  Ho  Ho0  1  0.314749  0.613627  0.298878  1
  Ho  Ho1  1  0.685251  0.386373  0.701122  1
  Ho  Ho2  1  0.314749  0.015869  0.701122  1
  Ho  Ho3  1  0.685251  0.984131  0.298878  1
  Ho  Ho4  1  0.188319  0.290503  0.478822  1
  Ho  Ho5  1  0.811681  0.709497  0.521178  1
  Ho  Ho6  1  0.188319  0.709497  0.897816  1
  Ho  Ho7  1  0.811681  0.290503  0.102184  1
  Ho  Ho8  1  0.426928  0.223650  0.203278  1
  Ho  Ho9  1  0.573072  0.776350  0.796722  1
  Ho  Ho10  1  0.020372  0.223650  0.796722  1
  Ho  Ho11  1  0.979628  0.776350  0.203278  1
  Al  Al12  1  0.500000  0.500000  0.000000  1
  Fe  Fe13  1  0.109119  0.609119  0.500000  1
  Fe  Fe14  1  0.890881  0.390881  0.500000  1
  Fe  Fe15  1  0.383991  0.000000  0.383991  1
  Fe  Fe16  1  0.616009  0.000000  0.616009  1
  Au  Au17  1  0.000000  0.000000  0.000000  1
