# generated using pymatgen
data_Th2SiGe3(OsPt)2
_symmetry_space_group_name_H-M   'P 1'
_cell_length_a   4.32389500
_cell_length_b   4.32389500
_cell_length_c   9.99179200
_cell_angle_alpha   90.00000000
_cell_angle_beta   90.00000000
_cell_angle_gamma   90.00000000
_symmetry_Int_Tables_number   1
_chemical_formula_structural   Th2SiGe3(OsPt)2
_chemical_formula_sum   'Th2 Si1 Ge3 Os2 Pt2'
_cell_volume   186.80722238
_cell_formula_units_Z   1
loop_
 _symmetry_equiv_pos_site_id
 _symmetry_equiv_pos_as_xyz
  1  'x, y, z'
loop_
 _atom_site_type_symbol
 _atom_site_label
 _atom_site_symmetry_multiplicity
 _atom_site_fract_x
 _atom_site_fract_y
 _atom_site_fract_z
 _atom_site_occupancy
  Th  Th0  1  0.000000  0.500000  0.240769  1
  Th  Th1  1  0.500000  0.000000  0.762470  1
  Si  Si2  1  0.500000  0.000000  0.118801  1
  Ge  Ge3  1  0.000000  0.000000  0.498332  1
  Ge  Ge4  1  0.500000  0.500000  0.498332  1
  Ge  Ge5  1  0.000000  0.500000  0.878618  1
  Os  Os6  1  0.000000  0.000000  0.005420  1
  Os  Os7  1  0.500000  0.500000  0.005420  1
  Pt  Pt8  1  0.000000  0.500000  0.631479  1
  Pt  Pt9  1  0.500000  0.000000  0.360360  1
