# generated using pymatgen
data_Sm2Al20FeRh3
_symmetry_space_group_name_H-M   'P 1'
_cell_length_a   6.84570559
_cell_length_b   6.84739371
_cell_length_c   9.15046897
_cell_angle_alpha   90.12662232
_cell_angle_beta   89.96606841
_cell_angle_gamma   97.37991444
_symmetry_Int_Tables_number   1
_chemical_formula_structural   Sm2Al20FeRh3
_chemical_formula_sum   'Sm2 Al20 Fe1 Rh3'
_cell_volume   425.37623099
_cell_formula_units_Z   1
loop_
 _symmetry_equiv_pos_site_id
 _symmetry_equiv_pos_as_xyz
  1  'x, y, z'
loop_
 _atom_site_type_symbol
 _atom_site_label
 _atom_site_symmetry_multiplicity
 _atom_site_fract_x
 _atom_site_fract_y
 _atom_site_fract_z
 _atom_site_occupancy
  Sm  Sm0  1  0.871121  0.126760  0.748938  1
  Sm  Sm1  1  0.128879  0.873240  0.251062  1
  Al  Al2  1  0.619392  0.372085  0.546137  1
  Al  Al3  1  0.380608  0.627915  0.453863  1
  Al  Al4  1  0.378895  0.622348  0.049422  1
  Al  Al5  1  0.621105  0.377652  0.950578  1
  Al  Al6  1  0.227921  0.219566  0.497748  1
  Al  Al7  1  0.772079  0.780434  0.502252  1
  Al  Al8  1  0.775344  0.776302  0.001147  1
  Al  Al9  1  0.224656  0.223698  0.998853  1
  Al  Al10  1  0.843622  0.156729  0.104325  1
  Al  Al11  1  0.156378  0.843271  0.895675  1
  Al  Al12  1  0.161364  0.846278  0.601057  1
  Al  Al13  1  0.838636  0.153722  0.398943  1
  Al  Al14  1  0.858005  0.591667  0.749020  1
  Al  Al15  1  0.141995  0.408333  0.250980  1
  Al  Al16  1  0.411061  0.138755  0.745148  1
  Al  Al17  1  0.588939  0.861245  0.254852  1
  Al  Al18  1  0.226338  0.480355  0.748984  1
  Al  Al19  1  0.773662  0.519645  0.251016  1
  Al  Al20  1  0.518005  0.777001  0.743893  1
  Al  Al21  1  0.481995  0.222999  0.256107  1
  Fe  Fe22  1  0.500000  0.000000  0.500000  1
  Rh  Rh23  1  0.000000  0.500000  0.500000  1
  Rh  Rh24  1  0.000000  0.500000  0.000000  1
  Rh  Rh25  1  0.500000  0.000000  0.000000  1
