# generated using pymatgen
data_Zr16Ir6PdPtN4
_symmetry_space_group_name_H-M   'P 1'
_cell_length_a   8.85044698
_cell_length_b   8.84730766
_cell_length_c   8.85015900
_cell_angle_alpha   59.98934212
_cell_angle_beta   60.00108010
_cell_angle_gamma   60.01921055
_symmetry_Int_Tables_number   1
_chemical_formula_structural   Zr16Ir6PdPtN4
_chemical_formula_sum   'Zr16 Ir6 Pd1 Pt1 N4'
_cell_volume   490.05402971
_cell_formula_units_Z   1
loop_
 _symmetry_equiv_pos_site_id
 _symmetry_equiv_pos_as_xyz
  1  'x, y, z'
loop_
 _atom_site_type_symbol
 _atom_site_label
 _atom_site_symmetry_multiplicity
 _atom_site_fract_x
 _atom_site_fract_y
 _atom_site_fract_z
 _atom_site_occupancy
  Zr  Zr0  1  0.132316  0.618801  0.624442  1
  Zr  Zr1  1  0.617981  0.136390  0.622815  1
  Zr  Zr2  1  0.625698  0.625134  0.120756  1
  Zr  Zr3  1  0.625698  0.625134  0.628412  1
  Zr  Zr4  1  0.818425  0.818118  0.181729  1
  Zr  Zr5  1  0.181381  0.182010  0.818305  1
  Zr  Zr6  1  0.816146  0.182328  0.818073  1
  Zr  Zr7  1  0.181167  0.816916  0.182937  1
  Zr  Zr8  1  0.181167  0.816916  0.818980  1
  Zr  Zr9  1  0.816146  0.182328  0.183453  1
  Zr  Zr10  1  0.433632  0.433395  0.066487  1
  Zr  Zr11  1  0.063880  0.063836  0.436142  1
  Zr  Zr12  1  0.433401  0.067643  0.434752  1
  Zr  Zr13  1  0.068296  0.433171  0.063964  1
  Zr  Zr14  1  0.068296  0.433171  0.434570  1
  Zr  Zr15  1  0.433401  0.067643  0.064204  1
  Ir  Ir16  1  0.405113  0.406909  0.787584  1
  Ir  Ir17  1  0.405113  0.406909  0.400395  1
  Ir  Ir18  1  0.478583  0.845856  0.837780  1
  Ir  Ir19  1  0.843831  0.478605  0.838781  1
  Ir  Ir20  1  0.840019  0.842317  0.484478  1
  Ir  Ir21  1  0.840019  0.842317  0.833184  1
  Pd  Pd22  1  0.413799  0.767573  0.409315  1
  Pt  Pt23  1  0.778960  0.411358  0.404841  1
  N  N24  1  0.625957  0.122531  0.125756  1
  N  N25  1  0.123393  0.625551  0.125528  1
  N  N26  1  0.124093  0.123570  0.625603  1
  N  N27  1  0.124093  0.123570  0.126735  1
