# generated using pymatgen
data_Dy3Y(OF4)2
_symmetry_space_group_name_H-M   'P 1'
_cell_length_a   6.77922707
_cell_length_b   6.77902709
_cell_length_c   5.72987741
_cell_angle_alpha   79.84868908
_cell_angle_beta   79.85095608
_cell_angle_gamma   46.28831699
_symmetry_Int_Tables_number   1
_chemical_formula_structural   Dy3Y(OF4)2
_chemical_formula_sum   'Dy3 Y1 O2 F8'
_cell_volume   186.81020268
_cell_formula_units_Z   1
loop_
 _symmetry_equiv_pos_site_id
 _symmetry_equiv_pos_as_xyz
  1  'x, y, z'
loop_
 _atom_site_type_symbol
 _atom_site_label
 _atom_site_symmetry_multiplicity
 _atom_site_fract_x
 _atom_site_fract_y
 _atom_site_fract_z
 _atom_site_occupancy
  Dy  Dy0  1  0.681142  0.103819  0.077166  1
  Dy  Dy1  1  0.318878  0.896116  0.922879  1
  Dy  Dy2  1  0.896136  0.318810  0.422884  1
  Y  Y3  1  0.103721  0.681370  0.577105  1
  O  O4  1  0.950730  0.049572  0.750275  1
  O  O5  1  0.048908  0.951421  0.249415  1
  F  F6  1  0.317384  0.513249  0.921641  1
  F  F7  1  0.514117  0.316532  0.420892  1
  F  F8  1  0.705756  0.853300  0.829209  1
  F  F9  1  0.852832  0.706202  0.328521  1
  F  F10  1  0.146946  0.293426  0.671228  1
  F  F11  1  0.293763  0.146881  0.171136  1
  F  F12  1  0.486811  0.682838  0.578838  1
  F  F13  1  0.682875  0.486463  0.078810  1
