# generated using pymatgen
data_DyYLuThNi4
_symmetry_space_group_name_H-M   'P 1'
_cell_length_a   4.30946000
_cell_length_b   5.37579356
_cell_length_c   6.88712286
_cell_angle_alpha   90.88767160
_cell_angle_beta   90.00000000
_cell_angle_gamma   90.00000000
_symmetry_Int_Tables_number   1
_chemical_formula_structural   DyYLuThNi4
_chemical_formula_sum   'Dy1 Y1 Lu1 Th1 Ni4'
_cell_volume   159.53322487
_cell_formula_units_Z   1
loop_
 _symmetry_equiv_pos_site_id
 _symmetry_equiv_pos_as_xyz
  1  'x, y, z'
loop_
 _atom_site_type_symbol
 _atom_site_label
 _atom_site_symmetry_multiplicity
 _atom_site_fract_x
 _atom_site_fract_y
 _atom_site_fract_z
 _atom_site_occupancy
  Dy  Dy0  1  0.000000  0.111979  0.684910  1
  Y  Y1  1  0.500000  0.614925  0.818342  1
  Lu  Lu2  1  0.000000  0.886132  0.179264  1
  Th  Th3  1  0.500000  0.385735  0.318088  1
  Ni  Ni4  1  0.000000  0.618919  0.529975  1
  Ni  Ni5  1  0.000000  0.380181  0.043960  1
  Ni  Ni6  1  0.500000  0.888397  0.454966  1
  Ni  Ni7  1  0.500000  0.113733  0.970498  1
