# generated using pymatgen
data_Dy3Bi3(SbO7)2
_symmetry_space_group_name_H-M   'P 1'
_cell_length_a   6.48496221
_cell_length_b   6.69873553
_cell_length_c   7.63910027
_cell_angle_alpha   106.53269055
_cell_angle_beta   89.71296078
_cell_angle_gamma   98.44787156
_symmetry_Int_Tables_number   1
_chemical_formula_structural   Dy3Bi3(SbO7)2
_chemical_formula_sum   'Dy3 Bi3 Sb2 O14'
_cell_volume   314.44225929
_cell_formula_units_Z   1
loop_
 _symmetry_equiv_pos_site_id
 _symmetry_equiv_pos_as_xyz
  1  'x, y, z'
loop_
 _atom_site_type_symbol
 _atom_site_label
 _atom_site_symmetry_multiplicity
 _atom_site_fract_x
 _atom_site_fract_y
 _atom_site_fract_z
 _atom_site_occupancy
  Dy  Dy0  1  0.543687  0.996387  0.752626  1
  Dy  Dy1  1  0.458815  0.001701  0.251449  1
  Dy  Dy2  1  0.256212  0.531606  0.882588  1
  Bi  Bi3  1  0.742219  0.483451  0.117076  1
  Bi  Bi4  1  0.727923  0.464589  0.614180  1
  Bi  Bi5  1  0.260715  0.527845  0.388070  1
  Sb  Sb6  1  0.002694  0.006822  0.502134  1
  Sb  Sb7  1  0.004309  0.001078  0.999480  1
  O  O8  1  0.444205  0.649820  0.165051  1
  O  O9  1  0.543564  0.346518  0.825555  1
  O  O10  1  0.293714  0.929916  0.953203  1
  O  O11  1  0.709099  0.042153  0.046188  1
  O  O12  1  0.290028  0.930796  0.515164  1
  O  O13  1  0.711800  0.076402  0.488626  1
  O  O14  1  0.530680  0.352685  0.347463  1
  O  O15  1  0.454163  0.645173  0.659481  1
  O  O16  1  0.936493  0.681715  0.954811  1
  O  O17  1  0.087451  0.310140  0.033954  1
  O  O18  1  0.094309  0.315564  0.620094  1
  O  O19  1  0.903915  0.699357  0.382041  1
  O  O20  1  0.900853  0.945524  0.735936  1
  O  O21  1  0.103153  0.060759  0.264830  1
