# generated using pymatgen
data_SmPu(Sb2Pd)2
_symmetry_space_group_name_H-M   'P 1'
_cell_length_a   4.45059500
_cell_length_b   4.45059500
_cell_length_c   9.72638700
_cell_angle_alpha   90.00000000
_cell_angle_beta   90.00000000
_cell_angle_gamma   90.00000000
_symmetry_Int_Tables_number   1
_chemical_formula_structural   SmPu(Sb2Pd)2
_chemical_formula_sum   'Sm1 Pu1 Sb4 Pd2'
_cell_volume   192.65828809
_cell_formula_units_Z   1
loop_
 _symmetry_equiv_pos_site_id
 _symmetry_equiv_pos_as_xyz
  1  'x, y, z'
loop_
 _atom_site_type_symbol
 _atom_site_label
 _atom_site_symmetry_multiplicity
 _atom_site_fract_x
 _atom_site_fract_y
 _atom_site_fract_z
 _atom_site_occupancy
  Sm  Sm0  1  0.500000  0.000000  0.254375  1
  Pu  Pu1  1  0.000000  0.500000  0.747025  1
  Sb  Sb2  1  0.500000  0.500000  0.994414  1
  Sb  Sb3  1  0.000000  0.000000  0.994414  1
  Sb  Sb4  1  0.000000  0.500000  0.337923  1
  Sb  Sb5  1  0.500000  0.000000  0.667602  1
  Pd  Pd6  1  0.500000  0.500000  0.502123  1
  Pd  Pd7  1  0.000000  0.000000  0.502123  1
