# generated using pymatgen
data_Cs2MnCu3F12
_symmetry_space_group_name_H-M   'P 1'
_cell_length_a   7.08811000
_cell_length_b   7.90588407
_cell_length_c   12.32949625
_cell_angle_alpha   58.26758561
_cell_angle_beta   90.00000000
_cell_angle_gamma   90.00000000
_symmetry_Int_Tables_number   1
_chemical_formula_structural   Cs2MnCu3F12
_chemical_formula_sum   'Cs4 Mn2 Cu6 F24'
_cell_volume   587.63483641
_cell_formula_units_Z   2
loop_
 _symmetry_equiv_pos_site_id
 _symmetry_equiv_pos_as_xyz
  1  'x, y, z'
loop_
 _atom_site_type_symbol
 _atom_site_label
 _atom_site_symmetry_multiplicity
 _atom_site_fract_x
 _atom_site_fract_y
 _atom_site_fract_z
 _atom_site_occupancy
  Cs  Cs0  1  0.497178  0.345256  0.383839  1
  Cs  Cs1  1  0.002822  0.345256  0.883839  1
  Cs  Cs2  1  0.502822  0.654744  0.616161  1
  Cs  Cs3  1  0.997178  0.654744  0.116161  1
  Mn  Mn4  1  0.500000  0.500000  0.000000  1
  Mn  Mn5  1  0.000000  0.500000  0.500000  1
  Cu  Cu6  1  0.500000  0.000000  0.000000  1
  Cu  Cu7  1  0.000000  0.000000  0.500000  1
  Cu  Cu8  1  0.728991  0.988793  0.258227  1
  Cu  Cu9  1  0.771009  0.988793  0.758227  1
  Cu  Cu10  1  0.271009  0.011207  0.741773  1
  Cu  Cu11  1  0.228991  0.011207  0.241773  1
  F  F12  1  0.672861  0.902150  0.141435  1
  F  F13  1  0.827139  0.902150  0.641435  1
  F  F14  1  0.327139  0.097850  0.858565  1
  F  F15  1  0.172861  0.097850  0.358565  1
  F  F16  1  0.217568  0.965363  0.605171  1
  F  F17  1  0.282432  0.965363  0.105171  1
  F  F18  1  0.782432  0.034637  0.394829  1
  F  F19  1  0.717568  0.034637  0.894829  1
  F  F20  1  0.472297  0.932009  0.322012  1
  F  F21  1  0.027703  0.932009  0.822012  1
  F  F22  1  0.527703  0.067991  0.677988  1
  F  F23  1  0.972297  0.067991  0.177988  1
  F  F24  1  0.853059  0.336609  0.641511  1
  F  F25  1  0.646941  0.336609  0.141511  1
  F  F26  1  0.146941  0.663391  0.358489  1
  F  F27  1  0.353059  0.663391  0.858489  1
  F  F28  1  0.285615  0.357463  0.085074  1
  F  F29  1  0.214385  0.357463  0.585074  1
  F  F30  1  0.714385  0.642537  0.914926  1
  F  F31  1  0.785615  0.642537  0.414926  1
  F  F32  1  0.542831  0.336450  0.936488  1
  F  F33  1  0.957169  0.336450  0.436488  1
  F  F34  1  0.457169  0.663550  0.063512  1
  F  F35  1  0.042831  0.663550  0.563512  1
