# generated using pymatgen
data_Tm2HgPdPb
_symmetry_space_group_name_H-M   'P 1'
_cell_length_a   8.20722000
_cell_length_b   8.07465600
_cell_length_c   3.63993600
_cell_angle_alpha   90.00000000
_cell_angle_beta   90.00000000
_cell_angle_gamma   90.00000000
_symmetry_Int_Tables_number   1
_chemical_formula_structural   Tm2HgPdPb
_chemical_formula_sum   'Tm4 Hg2 Pd2 Pb2'
_cell_volume   241.22029940
_cell_formula_units_Z   2
loop_
 _symmetry_equiv_pos_site_id
 _symmetry_equiv_pos_as_xyz
  1  'x, y, z'
loop_
 _atom_site_type_symbol
 _atom_site_label
 _atom_site_symmetry_multiplicity
 _atom_site_fract_x
 _atom_site_fract_y
 _atom_site_fract_z
 _atom_site_occupancy
  Tm  Tm0  1  0.313082  0.833475  0.500000  1
  Tm  Tm1  1  0.639486  0.174987  0.500000  1
  Tm  Tm2  1  0.186918  0.333475  0.500000  1
  Tm  Tm3  1  0.860514  0.674987  0.500000  1
  Hg  Hg4  1  0.875762  0.369437  0.000000  1
  Hg  Hg5  1  0.624238  0.869437  0.000000  1
  Pd  Pd6  1  0.372671  0.121863  0.000000  1
  Pd  Pd7  1  0.127329  0.621863  0.000000  1
  Pb  Pb8  1  0.489566  0.500238  0.000000  1
  Pb  Pb9  1  0.010434  0.000238  0.000000  1
