# generated using pymatgen
data_Eu4TaMn3O12
_symmetry_space_group_name_H-M   'P 1'
_cell_length_a   5.56805135
_cell_length_b   5.74421893
_cell_length_c   7.85758889
_cell_angle_alpha   90.21239980
_cell_angle_beta   90.33865386
_cell_angle_gamma   90.20246939
_symmetry_Int_Tables_number   1
_chemical_formula_structural   Eu4TaMn3O12
_chemical_formula_sum   'Eu4 Ta1 Mn3 O12'
_cell_volume   251.31025030
_cell_formula_units_Z   1
loop_
 _symmetry_equiv_pos_site_id
 _symmetry_equiv_pos_as_xyz
  1  'x, y, z'
loop_
 _atom_site_type_symbol
 _atom_site_label
 _atom_site_symmetry_multiplicity
 _atom_site_fract_x
 _atom_site_fract_y
 _atom_site_fract_z
 _atom_site_occupancy
  Eu  Eu0  1  0.988158  0.055217  0.262210  1
  Eu  Eu1  1  0.493152  0.455053  0.737655  1
  Eu  Eu2  1  0.506848  0.544947  0.262345  1
  Eu  Eu3  1  0.011842  0.944783  0.737790  1
  Ta  Ta4  1  0.500000  0.000000  0.000000  1
  Mn  Mn5  1  0.500000  0.000000  0.500000  1
  Mn  Mn6  1  0.000000  0.500000  0.000000  1
  Mn  Mn7  1  0.000000  0.500000  0.500000  1
  O  O8  1  0.589706  0.025864  0.754285  1
  O  O9  1  0.218510  0.197100  0.540183  1
  O  O10  1  0.210513  0.193289  0.951060  1
  O  O11  1  0.691893  0.288485  0.050701  1
  O  O12  1  0.716428  0.302751  0.460057  1
  O  O13  1  0.085315  0.472908  0.243028  1
  O  O14  1  0.914685  0.527092  0.756972  1
  O  O15  1  0.308107  0.711515  0.949299  1
  O  O16  1  0.283572  0.697249  0.539943  1
  O  O17  1  0.789487  0.806711  0.048940  1
  O  O18  1  0.781490  0.802900  0.459817  1
  O  O19  1  0.410294  0.974136  0.245715  1
