# generated using pymatgen
data_Ac2ReC2
_symmetry_space_group_name_H-M   'P 1'
_cell_length_a   5.67581300
_cell_length_b   6.91570500
_cell_length_c   10.84420500
_cell_angle_alpha   90.00000000
_cell_angle_beta   90.00000000
_cell_angle_gamma   90.00000000
_symmetry_Int_Tables_number   1
_chemical_formula_structural   Ac2ReC2
_chemical_formula_sum   'Ac8 Re4 C8'
_cell_volume   425.65942774
_cell_formula_units_Z   4
loop_
 _symmetry_equiv_pos_site_id
 _symmetry_equiv_pos_as_xyz
  1  'x, y, z'
loop_
 _atom_site_type_symbol
 _atom_site_label
 _atom_site_symmetry_multiplicity
 _atom_site_fract_x
 _atom_site_fract_y
 _atom_site_fract_z
 _atom_site_occupancy
  Ac  Ac0  1  0.750000  0.528997  0.788402  1
  Ac  Ac1  1  0.250000  0.971003  0.288402  1
  Ac  Ac2  1  0.750000  0.695353  0.451577  1
  Ac  Ac3  1  0.250000  0.804647  0.951577  1
  Ac  Ac4  1  0.750000  0.195353  0.048423  1
  Ac  Ac5  1  0.250000  0.304647  0.548423  1
  Ac  Ac6  1  0.250000  0.471003  0.211598  1
  Ac  Ac7  1  0.750000  0.028997  0.711598  1
  Re  Re8  1  0.250000  0.266230  0.848971  1
  Re  Re9  1  0.250000  0.766230  0.651029  1
  Re  Re10  1  0.750000  0.233770  0.348971  1
  Re  Re11  1  0.750000  0.733770  0.151029  1
  C  C12  1  0.250000  0.697793  0.479219  1
  C  C13  1  0.250000  0.526241  0.755727  1
  C  C14  1  0.750000  0.473759  0.244273  1
  C  C15  1  0.750000  0.802207  0.979219  1
  C  C16  1  0.250000  0.026241  0.744273  1
  C  C17  1  0.250000  0.197793  0.020781  1
  C  C18  1  0.750000  0.302207  0.520781  1
  C  C19  1  0.750000  0.973759  0.255727  1
