# generated using pymatgen
data_LiY2TmHg4
_symmetry_space_group_name_H-M   'P 1'
_cell_length_a   7.29961700
_cell_length_b   7.30006200
_cell_length_c   7.34443900
_cell_angle_alpha   90.00000000
_cell_angle_beta   90.00000000
_cell_angle_gamma   90.00000000
_symmetry_Int_Tables_number   1
_chemical_formula_structural   LiY2TmHg4
_chemical_formula_sum   'Li2 Y4 Tm2 Hg8'
_cell_volume   391.36794391
_cell_formula_units_Z   2
loop_
 _symmetry_equiv_pos_site_id
 _symmetry_equiv_pos_as_xyz
  1  'x, y, z'
loop_
 _atom_site_type_symbol
 _atom_site_label
 _atom_site_symmetry_multiplicity
 _atom_site_fract_x
 _atom_site_fract_y
 _atom_site_fract_z
 _atom_site_occupancy
  Li  Li0  1  0.250022  0.750000  0.501073  1
  Li  Li1  1  0.750021  0.250000  0.998928  1
  Y  Y2  1  0.249973  0.250000  0.999994  1
  Y  Y3  1  0.750023  0.750000  0.999993  1
  Y  Y4  1  0.749973  0.750000  0.500004  1
  Y  Y5  1  0.250024  0.250000  0.500009  1
  Tm  Tm6  1  0.249988  0.750000  0.000592  1
  Tm  Tm7  1  0.749988  0.250000  0.499408  1
  Hg  Hg8  1  0.500224  0.000195  0.249928  1
  Hg  Hg9  1  0.500224  0.499805  0.249928  1
  Hg  Hg10  1  0.000225  0.500195  0.250073  1
  Hg  Hg11  1  0.000225  0.999805  0.250073  1
  Hg  Hg12  1  0.999771  0.000194  0.750013  1
  Hg  Hg13  1  0.999771  0.499806  0.750013  1
  Hg  Hg14  1  0.499771  0.500194  0.749987  1
  Hg  Hg15  1  0.499771  0.999806  0.749987  1
