# generated using pymatgen
data_Nb4(FeSe4)3
_symmetry_space_group_name_H-M   'P 1'
_cell_length_a   7.44047043
_cell_length_b   7.44047063
_cell_length_c   19.48256695
_cell_angle_alpha   68.24808940
_cell_angle_beta   68.24808931
_cell_angle_gamma   26.33234602
_symmetry_Int_Tables_number   1
_chemical_formula_structural   Nb4(FeSe4)3
_chemical_formula_sum   'Nb4 Fe3 Se12'
_cell_volume   442.42243139
_cell_formula_units_Z   1
loop_
 _symmetry_equiv_pos_site_id
 _symmetry_equiv_pos_as_xyz
  1  'x, y, z'
loop_
 _atom_site_type_symbol
 _atom_site_label
 _atom_site_symmetry_multiplicity
 _atom_site_fract_x
 _atom_site_fract_y
 _atom_site_fract_z
 _atom_site_occupancy
  Nb  Nb0  1  0.616256  0.616256  0.855878  1
  Nb  Nb1  1  0.383744  0.383744  0.144122  1
  Nb  Nb2  1  0.743771  0.743771  0.592147  1
  Nb  Nb3  1  0.256229  0.256229  0.407853  1
  Fe  Fe4  1  0.000000  0.000000  0.000000  1
  Fe  Fe5  1  0.225786  0.225786  0.716344  1
  Fe  Fe6  1  0.774214  0.774214  0.283656  1
  Se  Se7  1  0.968040  0.968040  0.889086  1
  Se  Se8  1  0.031960  0.031960  0.110914  1
  Se  Se9  1  0.628871  0.628871  0.395569  1
  Se  Se10  1  0.371129  0.371129  0.604431  1
  Se  Se11  1  0.134340  0.134340  0.551589  1
  Se  Se12  1  0.865660  0.865660  0.448411  1
  Se  Se13  1  0.800468  0.800468  0.766846  1
  Se  Se14  1  0.199532  0.199532  0.233154  1
  Se  Se15  1  0.176573  0.176573  0.932259  1
  Se  Se16  1  0.823427  0.823427  0.067741  1
  Se  Se17  1  0.602395  0.602395  0.723679  1
  Se  Se18  1  0.397605  0.397605  0.276321  1
