# generated using pymatgen
data_Tm8Ti9Ge16Mo3
_symmetry_space_group_name_H-M   'P 1'
_cell_length_a   7.08908657
_cell_length_b   7.08908590
_cell_length_c   12.98990806
_cell_angle_alpha   89.97992135
_cell_angle_beta   90.02008017
_cell_angle_gamma   89.94514226
_symmetry_Int_Tables_number   1
_chemical_formula_structural   Tm8Ti9Ge16Mo3
_chemical_formula_sum   'Tm8 Ti9 Ge16 Mo3'
_cell_volume   652.80931574
_cell_formula_units_Z   1
loop_
 _symmetry_equiv_pos_site_id
 _symmetry_equiv_pos_as_xyz
  1  'x, y, z'
loop_
 _atom_site_type_symbol
 _atom_site_label
 _atom_site_symmetry_multiplicity
 _atom_site_fract_x
 _atom_site_fract_y
 _atom_site_fract_z
 _atom_site_occupancy
  Tm  Tm0  1  0.000520  0.660856  0.031828  1
  Tm  Tm1  1  0.997374  0.339980  0.530973  1
  Tm  Tm2  1  0.660856  0.000520  0.968172  1
  Tm  Tm3  1  0.158150  0.498278  0.779295  1
  Tm  Tm4  1  0.841435  0.502928  0.281186  1
  Tm  Tm5  1  0.498278  0.158150  0.220705  1
  Tm  Tm6  1  0.502928  0.841435  0.718814  1
  Tm  Tm7  1  0.339980  0.997374  0.469027  1
  Ti  Ti8  1  0.343830  0.508185  0.375745  1
  Ti  Ti9  1  0.844790  0.991612  0.375128  1
  Ti  Ti10  1  0.007483  0.155064  0.126499  1
  Ti  Ti11  1  0.991612  0.844790  0.624872  1
  Ti  Ti12  1  0.508185  0.343830  0.624255  1
  Ti  Ti13  1  0.155064  0.007483  0.873501  1
  Ti  Ti14  1  0.328489  0.328489  0.000000  1
  Ti  Ti15  1  0.492209  0.657278  0.126113  1
  Ti  Ti16  1  0.657278  0.492209  0.873887  1
  Ge  Ge17  1  0.040149  0.707205  0.432934  1
  Ge  Ge18  1  0.960962  0.293824  0.931976  1
  Ge  Ge19  1  0.707205  0.040149  0.567066  1
  Ge  Ge20  1  0.207999  0.460027  0.181749  1
  Ge  Ge21  1  0.791870  0.540640  0.682210  1
  Ge  Ge22  1  0.460027  0.207999  0.818251  1
  Ge  Ge23  1  0.540640  0.791870  0.317790  1
  Ge  Ge24  1  0.293824  0.960962  0.068024  1
  Ge  Ge25  1  0.800513  0.872835  0.178604  1
  Ge  Ge26  1  0.301491  0.627960  0.571903  1
  Ge  Ge27  1  0.698119  0.371062  0.071717  1
  Ge  Ge28  1  0.627960  0.301491  0.428097  1
  Ge  Ge29  1  0.371062  0.698119  0.928283  1
  Ge  Ge30  1  0.128123  0.198943  0.321618  1
  Ge  Ge31  1  0.198943  0.128123  0.678382  1
  Ge  Ge32  1  0.872835  0.800513  0.821396  1
  Mo  Mo33  1  0.670573  0.670573  0.500000  1
  Mo  Mo34  1  0.827651  0.171590  0.749612  1
  Mo  Mo35  1  0.171590  0.827651  0.250388  1
