# generated using pymatgen
data_LiLa4Si6Hg
_symmetry_space_group_name_H-M   'P 1'
_cell_length_a   11.43095140
_cell_length_b   9.72196831
_cell_length_c   8.46965912
_cell_angle_alpha   77.52098664
_cell_angle_beta   56.14009212
_cell_angle_gamma   46.33892117
_symmetry_Int_Tables_number   1
_chemical_formula_structural   LiLa4Si6Hg
_chemical_formula_sum   'Li2 La8 Si12 Hg2'
_cell_volume   542.72645955
_cell_formula_units_Z   2
loop_
 _symmetry_equiv_pos_site_id
 _symmetry_equiv_pos_as_xyz
  1  'x, y, z'
loop_
 _atom_site_type_symbol
 _atom_site_label
 _atom_site_symmetry_multiplicity
 _atom_site_fract_x
 _atom_site_fract_y
 _atom_site_fract_z
 _atom_site_occupancy
  Li  Li0  1  0.167206  0.832794  0.167206  1
  Li  Li1  1  0.417206  0.082794  0.417206  1
  La  La2  1  0.126143  0.121903  0.875135  1
  La  La3  1  0.875136  0.876820  0.126142  1
  La  La4  1  0.128098  0.123858  0.373180  1
  La  La5  1  0.373181  0.374865  0.128097  1
  La  La6  1  0.621822  0.623323  0.377816  1
  La  La7  1  0.377816  0.377039  0.621822  1
  La  La8  1  0.626678  0.628178  0.872961  1
  La  La9  1  0.872962  0.872185  0.626677  1
  Si  Si10  1  0.912167  0.595188  0.429101  1
  Si  Si11  1  0.081271  0.412900  0.585686  1
  Si  Si12  1  0.429101  0.063543  0.912167  1
  Si  Si13  1  0.585686  0.920143  0.081271  1
  Si  Si14  1  0.329857  0.664314  0.837100  1
  Si  Si15  1  0.654812  0.337833  0.186457  1
  Si  Si16  1  0.837100  0.168729  0.329857  1
  Si  Si17  1  0.186457  0.820899  0.654812  1
  Si  Si18  1  0.908586  0.591415  0.908585  1
  Si  Si19  1  0.582393  0.917608  0.582392  1
  Si  Si20  1  0.332393  0.667608  0.332393  1
  Si  Si21  1  0.658585  0.341415  0.658585  1
  Hg  Hg22  1  0.082674  0.417326  0.082674  1
  Hg  Hg23  1  0.832674  0.167326  0.832674  1
