# generated using pymatgen
data_LaDy2Ga8Ag3
_symmetry_space_group_name_H-M   'P 1'
_cell_length_a   4.39653363
_cell_length_b   8.42012761
_cell_length_c   8.42012671
_cell_angle_alpha   68.89902440
_cell_angle_beta   74.86625744
_cell_angle_gamma   74.86625790
_symmetry_Int_Tables_number   1
_chemical_formula_structural   LaDy2Ga8Ag3
_chemical_formula_sum   'La1 Dy2 Ga8 Ag3'
_cell_volume   275.84801954
_cell_formula_units_Z   1
loop_
 _symmetry_equiv_pos_site_id
 _symmetry_equiv_pos_as_xyz
  1  'x, y, z'
loop_
 _atom_site_type_symbol
 _atom_site_label
 _atom_site_symmetry_multiplicity
 _atom_site_fract_x
 _atom_site_fract_y
 _atom_site_fract_z
 _atom_site_occupancy
  La  La0  1  0.500000  0.500000  0.500000  1
  Dy  Dy1  1  0.800652  0.199348  0.199348  1
  Dy  Dy2  1  0.199348  0.800652  0.800652  1
  Ga  Ga3  1  0.645186  0.071781  0.637848  1
  Ga  Ga4  1  0.354814  0.928219  0.362152  1
  Ga  Ga5  1  0.645186  0.637848  0.071781  1
  Ga  Ga6  1  0.354814  0.362152  0.928219  1
  Ga  Ga7  1  0.838495  0.794169  0.528841  1
  Ga  Ga8  1  0.161505  0.205831  0.471159  1
  Ga  Ga9  1  0.838495  0.528841  0.794169  1
  Ga  Ga10  1  0.161505  0.471159  0.205831  1
  Ag  Ag11  1  0.500000  0.000000  0.000000  1
  Ag  Ag12  1  0.000000  0.806931  0.193069  1
  Ag  Ag13  1  0.000000  0.193069  0.806931  1
