# generated using pymatgen
data_NaFe(Te3O7)2
_symmetry_space_group_name_H-M   'P 1'
_cell_length_a   11.07269200
_cell_length_b   11.07269200
_cell_length_c   11.07269200
_cell_angle_alpha   90.00000000
_cell_angle_beta   90.00000000
_cell_angle_gamma   90.00000000
_symmetry_Int_Tables_number   1
_chemical_formula_structural   NaFe(Te3O7)2
_chemical_formula_sum   'Na4 Fe4 Te24 O56'
_cell_volume   1357.56195630
_cell_formula_units_Z   4
loop_
 _symmetry_equiv_pos_site_id
 _symmetry_equiv_pos_as_xyz
  1  'x, y, z'
loop_
 _atom_site_type_symbol
 _atom_site_label
 _atom_site_symmetry_multiplicity
 _atom_site_fract_x
 _atom_site_fract_y
 _atom_site_fract_z
 _atom_site_occupancy
  Na  Na0  1  0.500000  0.500000  0.000000  1
  Na  Na1  1  0.000000  0.500000  0.500000  1
  Na  Na2  1  0.000000  0.000000  0.000000  1
  Na  Na3  1  0.500000  0.000000  0.500000  1
  Fe  Fe4  1  0.000000  0.000000  0.500000  1
  Fe  Fe5  1  0.500000  0.500000  0.500000  1
  Fe  Fe6  1  0.500000  0.000000  0.000000  1
  Fe  Fe7  1  0.000000  0.500000  0.000000  1
  Te  Te8  1  0.993476  0.740275  0.773436  1
  Te  Te9  1  0.493476  0.740275  0.726564  1
  Te  Te10  1  0.759725  0.273436  0.993476  1
  Te  Te11  1  0.259725  0.226564  0.006524  1
  Te  Te12  1  0.740275  0.773436  0.993476  1
  Te  Te13  1  0.740275  0.726564  0.493476  1
  Te  Te14  1  0.273436  0.993476  0.759725  1
  Te  Te15  1  0.773436  0.993476  0.740275  1
  Te  Te16  1  0.226564  0.006524  0.259725  1
  Te  Te17  1  0.993476  0.759725  0.273436  1
  Te  Te18  1  0.773436  0.506524  0.240275  1
  Te  Te19  1  0.006524  0.240275  0.726564  1
  Te  Te20  1  0.726564  0.493476  0.740275  1
  Te  Te21  1  0.259725  0.273436  0.506524  1
  Te  Te22  1  0.240275  0.726564  0.006524  1
  Te  Te23  1  0.273436  0.506524  0.259725  1
  Te  Te24  1  0.493476  0.759725  0.226564  1
  Te  Te25  1  0.726564  0.006524  0.240275  1
  Te  Te26  1  0.226564  0.493476  0.759725  1
  Te  Te27  1  0.506524  0.259725  0.273436  1
  Te  Te28  1  0.759725  0.226564  0.493476  1
  Te  Te29  1  0.506524  0.240275  0.773436  1
  Te  Te30  1  0.006524  0.259725  0.226564  1
  Te  Te31  1  0.240275  0.773436  0.506524  1
  O  O32  1  0.879552  0.386209  0.310164  1
  O  O33  1  0.620448  0.613791  0.810164  1
  O  O34  1  0.124667  0.433631  0.881973  1
  O  O35  1  0.113791  0.810164  0.879552  1
  O  O36  1  0.620448  0.886209  0.310164  1
  O  O37  1  0.120448  0.886209  0.189836  1
  O  O38  1  0.433631  0.618027  0.624667  1
  O  O39  1  0.379552  0.113791  0.689836  1
  O  O40  1  0.624667  0.433631  0.618027  1
  O  O41  1  0.066369  0.118027  0.624667  1
  O  O42  1  0.310164  0.879552  0.386209  1
  O  O43  1  0.881973  0.124667  0.433631  1
  O  O44  1  0.140132  0.140132  0.140132  1
  O  O45  1  0.386209  0.310164  0.879552  1
  O  O46  1  0.875333  0.566369  0.118027  1
  O  O47  1  0.875333  0.933631  0.618027  1
  O  O48  1  0.886209  0.310164  0.620448  1
  O  O49  1  0.566369  0.381973  0.375333  1
  O  O50  1  0.066369  0.381973  0.124667  1
  O  O51  1  0.859868  0.640132  0.359868  1
  O  O52  1  0.375333  0.933631  0.881973  1
  O  O53  1  0.933631  0.881973  0.375333  1
  O  O54  1  0.140132  0.359868  0.640132  1
  O  O55  1  0.433631  0.881973  0.124667  1
  O  O56  1  0.379552  0.386209  0.189836  1
  O  O57  1  0.120448  0.613791  0.689836  1
  O  O58  1  0.566369  0.118027  0.875333  1
  O  O59  1  0.386209  0.189836  0.379552  1
  O  O60  1  0.810164  0.879552  0.113791  1
  O  O61  1  0.189836  0.379552  0.386209  1
  O  O62  1  0.375333  0.566369  0.381973  1
  O  O63  1  0.113791  0.689836  0.379552  1
  O  O64  1  0.859868  0.859868  0.859868  1
  O  O65  1  0.886209  0.189836  0.120448  1
  O  O66  1  0.124667  0.066369  0.381973  1
  O  O67  1  0.689836  0.379552  0.113791  1
  O  O68  1  0.640132  0.359868  0.859868  1
  O  O69  1  0.118027  0.875333  0.566369  1
  O  O70  1  0.189836  0.120448  0.886209  1
  O  O71  1  0.613791  0.810164  0.620448  1
  O  O72  1  0.310164  0.620448  0.886209  1
  O  O73  1  0.933631  0.618027  0.875333  1
  O  O74  1  0.613791  0.689836  0.120448  1
  O  O75  1  0.118027  0.624667  0.066369  1
  O  O76  1  0.618027  0.624667  0.433631  1
  O  O77  1  0.689836  0.120448  0.613791  1
  O  O78  1  0.810164  0.620448  0.613791  1
  O  O79  1  0.359868  0.859868  0.640132  1
  O  O80  1  0.879552  0.113791  0.810164  1
  O  O81  1  0.618027  0.875333  0.933631  1
  O  O82  1  0.881973  0.375333  0.933631  1
  O  O83  1  0.640132  0.140132  0.359868  1
  O  O84  1  0.359868  0.640132  0.140132  1
  O  O85  1  0.624667  0.066369  0.118027  1
  O  O86  1  0.381973  0.124667  0.066369  1
  O  O87  1  0.381973  0.375333  0.566369  1
