# generated using pymatgen
data_Y3MgMnW3O14
_symmetry_space_group_name_H-M   'P 1'
_cell_length_a   7.18977980
_cell_length_b   7.18968958
_cell_length_c   7.18960933
_cell_angle_alpha   117.47932569
_cell_angle_beta   62.52088302
_cell_angle_gamma   117.47867853
_symmetry_Int_Tables_number   1
_chemical_formula_structural   Y3MgMnW3O14
_chemical_formula_sum   'Y3 Mg1 Mn1 W3 O14'
_cell_volume   277.55588275
_cell_formula_units_Z   1
loop_
 _symmetry_equiv_pos_site_id
 _symmetry_equiv_pos_as_xyz
  1  'x, y, z'
loop_
 _atom_site_type_symbol
 _atom_site_label
 _atom_site_symmetry_multiplicity
 _atom_site_fract_x
 _atom_site_fract_y
 _atom_site_fract_z
 _atom_site_occupancy
  Y  Y0  1  0.999906  0.499998  0.999940  1
  Y  Y1  1  0.500045  0.000067  0.999992  1
  Y  Y2  1  0.500073  0.499916  0.499998  1
  Mg  Mg3  1  0.000056  0.999994  0.499952  1
  Mn  Mn4  1  0.499183  0.500195  0.000756  1
  W  W5  1  0.500066  0.000011  0.499982  1
  W  W6  1  0.000008  0.499995  0.500025  1
  W  W7  1  0.000045  0.999950  0.999942  1
  O  O8  1  0.622731  0.377271  0.122766  1
  O  O9  1  0.377215  0.622771  0.877275  1
  O  O10  1  0.083630  0.327989  0.171981  1
  O  O11  1  0.672064  0.916467  0.172017  1
  O  O12  1  0.672093  0.327918  0.583369  1
  O  O13  1  0.916621  0.672063  0.827898  1
  O  O14  1  0.327995  0.083461  0.827926  1
  O  O15  1  0.328018  0.672005  0.416375  1
  O  O16  1  0.654763  0.910548  0.589383  1
  O  O17  1  0.089444  0.345283  0.589338  1
  O  O18  1  0.089411  0.910622  0.154715  1
  O  O19  1  0.345303  0.089341  0.410581  1
  O  O20  1  0.910676  0.654750  0.410554  1
  O  O21  1  0.910657  0.089388  0.845235  1
