# generated using pymatgen
data_Tb4PaOs6W
_symmetry_space_group_name_H-M   'P 1'
_cell_length_a   5.32503722
_cell_length_b   5.32503614
_cell_length_c   9.23180800
_cell_angle_alpha   90.00000000
_cell_angle_beta   90.00000000
_cell_angle_gamma   116.36400818
_symmetry_Int_Tables_number   1
_chemical_formula_structural   Tb4PaOs6W
_chemical_formula_sum   'Tb4 Pa1 Os6 W1'
_cell_volume   234.55006968
_cell_formula_units_Z   1
loop_
 _symmetry_equiv_pos_site_id
 _symmetry_equiv_pos_as_xyz
  1  'x, y, z'
loop_
 _atom_site_type_symbol
 _atom_site_label
 _atom_site_symmetry_multiplicity
 _atom_site_fract_x
 _atom_site_fract_y
 _atom_site_fract_z
 _atom_site_occupancy
  Tb  Tb0  1  0.331525  0.668475  0.444677  1
  Tb  Tb1  1  0.665252  0.334748  0.572146  1
  Tb  Tb2  1  0.665252  0.334748  0.927854  1
  Tb  Tb3  1  0.331525  0.668475  0.055323  1
  Pa  Pa4  1  0.845191  0.154809  0.250000  1
  Os  Os5  1  0.005692  0.994308  0.506747  1
  Os  Os6  1  0.005692  0.994308  0.993253  1
  Os  Os7  1  0.830679  0.645966  0.250000  1
  Os  Os8  1  0.354034  0.169321  0.250000  1
  Os  Os9  1  0.171622  0.358348  0.750000  1
  Os  Os10  1  0.641652  0.828378  0.750000  1
  W  W11  1  0.151885  0.848115  0.750000  1
