# generated using pymatgen
data_DyY5(AuO7)2
_symmetry_space_group_name_H-M   'P 1'
_cell_length_a   6.50616606
_cell_length_b   6.50809714
_cell_length_c   7.45657800
_cell_angle_alpha   90.00000000
_cell_angle_beta   90.00000000
_cell_angle_gamma   108.88994187
_symmetry_Int_Tables_number   1
_chemical_formula_structural   DyY5(AuO7)2
_chemical_formula_sum   'Dy1 Y5 Au2 O14'
_cell_volume   298.72746413
_cell_formula_units_Z   1
loop_
 _symmetry_equiv_pos_site_id
 _symmetry_equiv_pos_as_xyz
  1  'x, y, z'
loop_
 _atom_site_type_symbol
 _atom_site_label
 _atom_site_symmetry_multiplicity
 _atom_site_fract_x
 _atom_site_fract_y
 _atom_site_fract_z
 _atom_site_occupancy
  Dy  Dy0  1  0.528940  0.997784  0.750000  1
  Y  Y1  1  0.002492  0.471568  0.750000  1
  Y  Y2  1  0.499998  0.500014  0.999926  1
  Y  Y3  1  0.997542  0.528494  0.250000  1
  Y  Y4  1  0.471523  0.002437  0.250000  1
  Y  Y5  1  0.499998  0.500014  0.500074  1
  Au  Au6  1  0.000010  0.000032  0.999953  1
  Au  Au7  1  0.000010  0.000032  0.500047  1
  O  O8  1  0.081605  0.329392  0.475499  1
  O  O9  1  0.920217  0.079171  0.750000  1
  O  O10  1  0.081605  0.329392  0.024501  1
  O  O11  1  0.918376  0.670616  0.524486  1
  O  O12  1  0.638578  0.360820  0.750000  1
  O  O13  1  0.670415  0.918520  0.475804  1
  O  O14  1  0.329581  0.081364  0.524948  1
  O  O15  1  0.329581  0.081364  0.975052  1
  O  O16  1  0.670415  0.918520  0.024196  1
  O  O17  1  0.918376  0.670616  0.975514  1
  O  O18  1  0.631783  0.368198  0.250000  1
  O  O19  1  0.361298  0.638731  0.250000  1
  O  O20  1  0.368331  0.632182  0.750000  1
  O  O21  1  0.079324  0.920737  0.250000  1
