# generated using pymatgen
data_CeDy3(CrB4)4
_symmetry_space_group_name_H-M   'P 1'
_cell_length_a   5.94628417
_cell_length_b   11.49885795
_cell_length_c   3.46432700
_cell_angle_alpha   90.00000000
_cell_angle_beta   90.00000000
_cell_angle_gamma   89.92779160
_symmetry_Int_Tables_number   1
_chemical_formula_structural   CeDy3(CrB4)4
_chemical_formula_sum   'Ce1 Dy3 Cr4 B16'
_cell_volume   236.87482293
_cell_formula_units_Z   1
loop_
 _symmetry_equiv_pos_site_id
 _symmetry_equiv_pos_as_xyz
  1  'x, y, z'
loop_
 _atom_site_type_symbol
 _atom_site_label
 _atom_site_symmetry_multiplicity
 _atom_site_fract_x
 _atom_site_fract_y
 _atom_site_fract_z
 _atom_site_occupancy
  Ce  Ce0  1  0.624288  0.349014  0.000000  1
  Dy  Dy1  1  0.375353  0.652019  0.000000  1
  Dy  Dy2  1  0.123830  0.149797  0.000000  1
  Dy  Dy3  1  0.875942  0.849092  0.000000  1
  Cr  Cr4  1  0.623197  0.081205  0.000000  1
  Cr  Cr5  1  0.375761  0.918497  0.000000  1
  Cr  Cr6  1  0.124066  0.418747  0.000000  1
  Cr  Cr7  1  0.876078  0.581409  0.000000  1
  B  B8  1  0.781530  0.182883  0.500000  1
  B  B9  1  0.218554  0.815682  0.500000  1
  B  B10  1  0.279690  0.315995  0.500000  1
  B  B11  1  0.719196  0.685149  0.500000  1
  B  B12  1  0.862833  0.031902  0.500000  1
  B  B13  1  0.137281  0.966819  0.500000  1
  B  B14  1  0.361425  0.467809  0.500000  1
  B  B15  1  0.638754  0.534039  0.500000  1
  B  B16  1  0.888411  0.454351  0.500000  1
  B  B17  1  0.114136  0.547619  0.500000  1
  B  B18  1  0.385759  0.045735  0.500000  1
  B  B19  1  0.613486  0.953024  0.500000  1
  B  B20  1  0.975500  0.308948  0.500000  1
  B  B21  1  0.025227  0.691927  0.500000  1
  B  B22  1  0.474458  0.189671  0.500000  1
  B  B23  1  0.525244  0.808668  0.500000  1
