# generated using pymatgen
data_Hf2Ti4GaBi2
_symmetry_space_group_name_H-M   'P 1'
_cell_length_a   7.35221000
_cell_length_b   7.29714942
_cell_length_c   3.93541800
_cell_angle_alpha   90.00000000
_cell_angle_beta   90.00000000
_cell_angle_gamma   120.24991832
_symmetry_Int_Tables_number   1
_chemical_formula_structural   Hf2Ti4GaBi2
_chemical_formula_sum   'Hf2 Ti4 Ga1 Bi2'
_cell_volume   182.38680761
_cell_formula_units_Z   1
loop_
 _symmetry_equiv_pos_site_id
 _symmetry_equiv_pos_as_xyz
  1  'x, y, z'
loop_
 _atom_site_type_symbol
 _atom_site_label
 _atom_site_symmetry_multiplicity
 _atom_site_fract_x
 _atom_site_fract_y
 _atom_site_fract_z
 _atom_site_occupancy
  Hf  Hf0  1  0.000902  0.387078  0.000000  1
  Hf  Hf1  1  0.613825  0.612922  0.000000  1
  Ti  Ti2  1  0.379199  0.000000  0.000000  1
  Ti  Ti3  1  0.776833  0.000000  0.500000  1
  Ti  Ti4  1  0.229726  0.231658  0.500000  1
  Ti  Ti5  1  0.998068  0.768342  0.500000  1
  Ga  Ga6  1  0.006282  0.000000  0.000000  1
  Bi  Bi7  1  0.658288  0.321413  0.500000  1
  Bi  Bi8  1  0.336877  0.678587  0.500000  1
