# generated using pymatgen
data_Nd2Y4FeI10
_symmetry_space_group_name_H-M   'P 1'
_cell_length_a   7.78670722
_cell_length_b   9.81818609
_cell_length_c   9.68982879
_cell_angle_alpha   106.60853878
_cell_angle_beta   95.98107844
_cell_angle_gamma   105.11430613
_symmetry_Int_Tables_number   1
_chemical_formula_structural   Nd2Y4FeI10
_chemical_formula_sum   'Nd2 Y4 Fe1 I10'
_cell_volume   672.42593345
_cell_formula_units_Z   1
loop_
 _symmetry_equiv_pos_site_id
 _symmetry_equiv_pos_as_xyz
  1  'x, y, z'
loop_
 _atom_site_type_symbol
 _atom_site_label
 _atom_site_symmetry_multiplicity
 _atom_site_fract_x
 _atom_site_fract_y
 _atom_site_fract_z
 _atom_site_occupancy
  Nd  Nd0  1  0.891080  0.959463  0.220352  1
  Nd  Nd1  1  0.108920  0.040537  0.779648  1
  Y  Y2  1  0.030820  0.713582  0.914022  1
  Y  Y3  1  0.969180  0.286418  0.085978  1
  Y  Y4  1  0.650365  0.875399  0.833630  1
  Y  Y5  1  0.349635  0.124601  0.166370  1
  Fe  Fe6  1  0.000000  0.000000  0.000000  1
  I  I7  1  0.651832  0.552755  0.730243  1
  I  I8  1  0.348168  0.447245  0.269757  1
  I  I9  1  0.739145  0.912396  0.544860  1
  I  I10  1  0.260855  0.087604  0.455140  1
  I  I11  1  0.084931  0.374129  0.820945  1
  I  I12  1  0.915069  0.625871  0.179055  1
  I  I13  1  0.452863  0.817347  0.092527  1
  I  I14  1  0.547137  0.182653  0.907473  1
  I  I15  1  0.223084  0.741029  0.656058  1
  I  I16  1  0.776916  0.258971  0.343942  1
