# generated using pymatgen
data_Lu5ScTcRh
_symmetry_space_group_name_H-M   'P 1'
_cell_length_a   6.26865300
_cell_length_b   7.06447200
_cell_length_c   8.96594200
_cell_angle_alpha   90.00000000
_cell_angle_beta   90.00000000
_cell_angle_gamma   90.00000000
_symmetry_Int_Tables_number   1
_chemical_formula_structural   Lu5ScTcRh
_chemical_formula_sum   'Lu10 Sc2 Tc2 Rh2'
_cell_volume   397.05426325
_cell_formula_units_Z   2
loop_
 _symmetry_equiv_pos_site_id
 _symmetry_equiv_pos_as_xyz
  1  'x, y, z'
loop_
 _atom_site_type_symbol
 _atom_site_label
 _atom_site_symmetry_multiplicity
 _atom_site_fract_x
 _atom_site_fract_y
 _atom_site_fract_z
 _atom_site_occupancy
  Lu  Lu0  1  0.326655  0.679197  0.068115  1
  Lu  Lu1  1  0.173345  0.179197  0.431885  1
  Lu  Lu2  1  0.670177  0.321309  0.555175  1
  Lu  Lu3  1  0.829823  0.821309  0.944825  1
  Lu  Lu4  1  0.670177  0.321309  0.944825  1
  Lu  Lu5  1  0.829823  0.821309  0.555175  1
  Lu  Lu6  1  0.326655  0.679197  0.431885  1
  Lu  Lu7  1  0.173345  0.179197  0.068115  1
  Lu  Lu8  1  0.133503  0.459089  0.750000  1
  Lu  Lu9  1  0.366497  0.959089  0.750000  1
  Sc  Sc10  1  0.874003  0.543179  0.250000  1
  Sc  Sc11  1  0.625997  0.043179  0.250000  1
  Tc  Tc12  1  0.018724  0.886177  0.250000  1
  Tc  Tc13  1  0.481276  0.386177  0.250000  1
  Rh  Rh14  1  0.961008  0.110544  0.750000  1
  Rh  Rh15  1  0.538992  0.610544  0.750000  1
