# generated using pymatgen
data_Er3Tm5Mn2(B12Os)2
_symmetry_space_group_name_H-M   'P 1'
_cell_length_a   3.57626300
_cell_length_b   9.05333890
_cell_length_c   11.42755608
_cell_angle_alpha   90.05280725
_cell_angle_beta   90.00000000
_cell_angle_gamma   90.00000000
_symmetry_Int_Tables_number   1
_chemical_formula_structural   Er3Tm5Mn2(B12Os)2
_chemical_formula_sum   'Er3 Tm5 Mn2 B24 Os2'
_cell_volume   369.99120791
_cell_formula_units_Z   1
loop_
 _symmetry_equiv_pos_site_id
 _symmetry_equiv_pos_as_xyz
  1  'x, y, z'
loop_
 _atom_site_type_symbol
 _atom_site_label
 _atom_site_symmetry_multiplicity
 _atom_site_fract_x
 _atom_site_fract_y
 _atom_site_fract_z
 _atom_site_occupancy
  Er  Er0  1  0.000000  0.326418  0.416032  1
  Er  Er1  1  0.000000  0.673501  0.584031  1
  Er  Er2  1  0.000000  0.820220  0.087678  1
  Tm  Tm3  1  0.000000  0.179849  0.912278  1
  Tm  Tm4  1  0.000000  0.939745  0.371315  1
  Tm  Tm5  1  0.000000  0.060321  0.628735  1
  Tm  Tm6  1  0.000000  0.445861  0.131217  1
  Tm  Tm7  1  0.000000  0.554010  0.868728  1
  Mn  Mn8  1  0.000000  0.638250  0.320238  1
  Mn  Mn9  1  0.000000  0.361674  0.679837  1
  B  B10  1  0.500000  0.553883  0.432484  1
  B  B11  1  0.500000  0.446102  0.567540  1
  B  B12  1  0.500000  0.053474  0.066659  1
  B  B13  1  0.500000  0.946774  0.933209  1
  B  B14  1  0.500000  0.746365  0.418174  1
  B  B15  1  0.500000  0.253645  0.581869  1
  B  B16  1  0.500000  0.249648  0.080771  1
  B  B17  1  0.500000  0.750332  0.919004  1
  B  B18  1  0.500000  0.789724  0.266273  1
  B  B19  1  0.500000  0.210196  0.733900  1
  B  B20  1  0.500000  0.292374  0.235303  1
  B  B21  1  0.500000  0.707633  0.764672  1
  B  B22  1  0.500000  0.631209  0.186678  1
  B  B23  1  0.500000  0.368613  0.813428  1
  B  B24  1  0.500000  0.130927  0.315156  1
  B  B25  1  0.500000  0.869109  0.684854  1
  B  B26  1  0.500000  0.981394  0.212802  1
  B  B27  1  0.500000  0.018868  0.787281  1
  B  B28  1  0.500000  0.484921  0.288746  1
  B  B29  1  0.500000  0.515023  0.711259  1
  B  B30  1  0.500000  0.603070  0.028532  1
  B  B31  1  0.500000  0.396645  0.971374  1
  B  B32  1  0.500000  0.103863  0.471308  1
  B  B33  1  0.500000  0.896161  0.528708  1
  Os  Os34  1  0.000000  0.138006  0.178826  1
  Os  Os35  1  0.000000  0.862191  0.821101  1
