# generated using pymatgen
data_Yb10InPt4Pb
_symmetry_space_group_name_H-M   'P 1'
_cell_length_a   9.09571450
_cell_length_b   9.09571500
_cell_length_c   9.09571400
_cell_angle_alpha   129.33733351
_cell_angle_beta   129.33733610
_cell_angle_gamma   74.46838915
_symmetry_Int_Tables_number   1
_chemical_formula_structural   Yb10InPt4Pb
_chemical_formula_sum   'Yb10 In1 Pt4 Pb1'
_cell_volume   438.69555257
_cell_formula_units_Z   1
loop_
 _symmetry_equiv_pos_site_id
 _symmetry_equiv_pos_as_xyz
  1  'x, y, z'
loop_
 _atom_site_type_symbol
 _atom_site_label
 _atom_site_symmetry_multiplicity
 _atom_site_fract_x
 _atom_site_fract_y
 _atom_site_fract_z
 _atom_site_occupancy
  Yb  Yb0  1  0.999918  0.999918  0.000000  1
  Yb  Yb1  1  0.500082  0.500082  0.000000  1
  Yb  Yb2  1  0.796087  0.295853  0.831433  1
  Yb  Yb3  1  0.204147  0.703913  0.168567  1
  Yb  Yb4  1  0.464419  0.964653  0.168567  1
  Yb  Yb5  1  0.295853  0.464419  0.499766  1
  Yb  Yb6  1  0.035581  0.204147  0.500234  1
  Yb  Yb7  1  0.535347  0.035581  0.831433  1
  Yb  Yb8  1  0.703913  0.535347  0.499766  1
  Yb  Yb9  1  0.964653  0.796087  0.500234  1
  In  In10  1  0.250000  0.250000  0.000000  1
  Pt  Pt11  1  0.132394  0.632394  0.764788  1
  Pt  Pt12  1  0.867606  0.367606  0.235212  1
  Pt  Pt13  1  0.632394  0.867606  0.500000  1
  Pt  Pt14  1  0.367606  0.132394  0.500000  1
  Pb  Pb15  1  0.750000  0.750000  0.000000  1
