# generated using pymatgen
data_Th4NbReOs6
_symmetry_space_group_name_H-M   'P 1'
_cell_length_a   5.72679500
_cell_length_b   5.28978184
_cell_length_c   9.33320300
_cell_angle_alpha   90.00000000
_cell_angle_beta   90.00000000
_cell_angle_gamma   122.77269586
_symmetry_Int_Tables_number   1
_chemical_formula_structural   Th4NbReOs6
_chemical_formula_sum   'Th4 Nb1 Re1 Os6'
_cell_volume   237.73085324
_cell_formula_units_Z   1
loop_
 _symmetry_equiv_pos_site_id
 _symmetry_equiv_pos_as_xyz
  1  'x, y, z'
loop_
 _atom_site_type_symbol
 _atom_site_label
 _atom_site_symmetry_multiplicity
 _atom_site_fract_x
 _atom_site_fract_y
 _atom_site_fract_z
 _atom_site_occupancy
  Th  Th0  1  0.332832  0.665664  0.063317  1
  Th  Th1  1  0.666036  0.332072  0.568074  1
  Th  Th2  1  0.666036  0.332072  0.931926  1
  Th  Th3  1  0.332832  0.665664  0.436683  1
  Nb  Nb4  1  0.836635  0.673272  0.250000  1
  Re  Re5  1  0.163458  0.326916  0.750000  1
  Os  Os6  1  0.004221  0.008443  0.995670  1
  Os  Os7  1  0.004221  0.008443  0.504330  1
  Os  Os8  1  0.163937  0.817472  0.750000  1
  Os  Os9  1  0.653536  0.817472  0.750000  1
  Os  Os10  1  0.341473  0.176255  0.250000  1
  Os  Os11  1  0.834781  0.176255  0.250000  1
