# generated using pymatgen
data_Ta2CoSn(BRu2)2
_symmetry_space_group_name_H-M   'P 1'
_cell_length_a   9.31401400
_cell_length_b   9.31401400
_cell_length_c   3.03831700
_cell_angle_alpha   90.00000000
_cell_angle_beta   90.00000000
_cell_angle_gamma   90.00000000
_symmetry_Int_Tables_number   1
_chemical_formula_structural   Ta2CoSn(BRu2)2
_chemical_formula_sum   'Ta4 Co2 Sn2 B4 Ru8'
_cell_volume   263.57660296
_cell_formula_units_Z   2
loop_
 _symmetry_equiv_pos_site_id
 _symmetry_equiv_pos_as_xyz
  1  'x, y, z'
loop_
 _atom_site_type_symbol
 _atom_site_label
 _atom_site_symmetry_multiplicity
 _atom_site_fract_x
 _atom_site_fract_y
 _atom_site_fract_z
 _atom_site_occupancy
  Ta  Ta0  1  0.824416  0.675584  0.000000  1
  Ta  Ta1  1  0.175584  0.324416  0.000000  1
  Ta  Ta2  1  0.324416  0.824416  0.000000  1
  Ta  Ta3  1  0.675584  0.175584  0.000000  1
  Co  Co4  1  0.500000  0.000000  0.500000  1
  Co  Co5  1  0.000000  0.500000  0.500000  1
  Sn  Sn6  1  0.500000  0.500000  0.000000  1
  Sn  Sn7  1  0.000000  0.000000  0.000000  1
  B  B8  1  0.611291  0.888709  0.000000  1
  B  B9  1  0.388709  0.111291  0.000000  1
  B  B10  1  0.111291  0.611291  0.000000  1
  B  B11  1  0.888709  0.388709  0.000000  1
  Ru  Ru12  1  0.563377  0.727978  0.500000  1
  Ru  Ru13  1  0.436623  0.272022  0.500000  1
  Ru  Ru14  1  0.063377  0.772022  0.500000  1
  Ru  Ru15  1  0.936623  0.227978  0.500000  1
  Ru  Ru16  1  0.272022  0.563377  0.500000  1
  Ru  Ru17  1  0.727978  0.436623  0.500000  1
  Ru  Ru18  1  0.227978  0.063377  0.500000  1
  Ru  Ru19  1  0.772022  0.936623  0.500000  1
