# generated using pymatgen
data_Dy7Y3(SiBi2)2
_symmetry_space_group_name_H-M   'P 1'
_cell_length_a   8.06361605
_cell_length_b   9.18327430
_cell_length_c   12.06233035
_cell_angle_alpha   89.97293140
_cell_angle_beta   90.00481356
_cell_angle_gamma   90.01113571
_symmetry_Int_Tables_number   1
_chemical_formula_structural   Dy7Y3(SiBi2)2
_chemical_formula_sum   'Dy14 Y6 Si4 Bi8'
_cell_volume   893.22024319
_cell_formula_units_Z   2
loop_
 _symmetry_equiv_pos_site_id
 _symmetry_equiv_pos_as_xyz
  1  'x, y, z'
loop_
 _atom_site_type_symbol
 _atom_site_label
 _atom_site_symmetry_multiplicity
 _atom_site_fract_x
 _atom_site_fract_y
 _atom_site_fract_z
 _atom_site_occupancy
  Dy  Dy0  1  0.679161  0.947122  0.562688  1
  Dy  Dy1  1  0.179165  0.052715  0.937211  1
  Dy  Dy2  1  0.320784  0.447312  0.437192  1
  Dy  Dy3  1  0.179627  0.447293  0.937089  1
  Dy  Dy4  1  0.320767  0.052737  0.437219  1
  Dy  Dy5  1  0.821043  0.947319  0.062787  1
  Dy  Dy6  1  0.679179  0.552869  0.562711  1
  Dy  Dy7  1  0.038902  0.749979  0.501402  1
  Dy  Dy8  1  0.538792  0.249889  0.998759  1
  Dy  Dy9  1  0.961184  0.250054  0.498726  1
  Dy  Dy10  1  0.637021  0.750168  0.295689  1
  Dy  Dy11  1  0.862886  0.750102  0.795530  1
  Dy  Dy12  1  0.363052  0.249944  0.704343  1
  Dy  Dy13  1  0.136868  0.249990  0.204393  1
  Y  Y14  1  0.820713  0.552305  0.062892  1
  Y  Y15  1  0.166263  0.750087  0.212432  1
  Y  Y16  1  0.333492  0.750052  0.712238  1
  Y  Y17  1  0.833600  0.249956  0.787649  1
  Y  Y18  1  0.666473  0.249945  0.287642  1
  Y  Y19  1  0.460742  0.750169  0.001207  1
  Si  Si20  1  0.412309  0.749967  0.479065  1
  Si  Si21  1  0.087846  0.749967  0.979099  1
  Si  Si22  1  0.587779  0.249997  0.521061  1
  Si  Si23  1  0.912361  0.249974  0.020935  1
  Bi  Bi24  1  0.932999  0.510826  0.325754  1
  Bi  Bi25  1  0.567138  0.989160  0.825624  1
  Bi  Bi26  1  0.067085  0.010788  0.674310  1
  Bi  Bi27  1  0.432907  0.489216  0.174363  1
  Bi  Bi28  1  0.066992  0.489211  0.674315  1
  Bi  Bi29  1  0.432932  0.010829  0.174387  1
  Bi  Bi30  1  0.932899  0.989188  0.325698  1
  Bi  Bi31  1  0.567043  0.510869  0.825595  1
