# generated using pymatgen
data_Tb5Co19Si11P
_symmetry_space_group_name_H-M   'P 1'
_cell_length_a   12.15318975
_cell_length_b   12.15318990
_cell_length_c   3.73542100
_cell_angle_alpha   90.00000000
_cell_angle_beta   90.00000000
_cell_angle_gamma   119.84067004
_symmetry_Int_Tables_number   1
_chemical_formula_structural   Tb5Co19Si11P
_chemical_formula_sum   'Tb5 Co19 Si11 P1'
_cell_volume   478.57034054
_cell_formula_units_Z   1
loop_
 _symmetry_equiv_pos_site_id
 _symmetry_equiv_pos_as_xyz
  1  'x, y, z'
loop_
 _atom_site_type_symbol
 _atom_site_label
 _atom_site_symmetry_multiplicity
 _atom_site_fract_x
 _atom_site_fract_y
 _atom_site_fract_z
 _atom_site_occupancy
  Tb  Tb0  1  0.333382  0.666313  0.000000  1
  Tb  Tb1  1  0.666313  0.333382  0.000000  1
  Tb  Tb2  1  0.186243  0.001046  0.500000  1
  Tb  Tb3  1  0.001046  0.186243  0.500000  1
  Tb  Tb4  1  0.813731  0.813731  0.500000  1
  Co  Co5  1  0.197710  0.374412  0.000000  1
  Co  Co6  1  0.621915  0.819539  0.000000  1
  Co  Co7  1  0.180484  0.802422  0.000000  1
  Co  Co8  1  0.819539  0.621915  0.000000  1
  Co  Co9  1  0.802422  0.180484  0.000000  1
  Co  Co10  1  0.374412  0.197710  0.000000  1
  Co  Co11  1  0.559442  0.000288  0.000000  1
  Co  Co12  1  0.000288  0.559442  0.000000  1
  Co  Co13  1  0.440895  0.440895  0.000000  1
  Co  Co14  1  0.123162  0.479144  0.500000  1
  Co  Co15  1  0.519885  0.642431  0.500000  1
  Co  Co16  1  0.357231  0.877696  0.500000  1
  Co  Co17  1  0.642431  0.519885  0.500000  1
  Co  Co18  1  0.877696  0.357231  0.500000  1
  Co  Co19  1  0.479144  0.123162  0.500000  1
  Co  Co20  1  0.717883  0.999933  0.500000  1
  Co  Co21  1  0.999933  0.717883  0.500000  1
  Co  Co22  1  0.278870  0.278870  0.500000  1
  Co  Co23  1  0.004712  0.004712  0.000000  1
  Si  Si24  1  0.372249  0.000213  0.000000  1
  Si  Si25  1  0.000213  0.372249  0.000000  1
  Si  Si26  1  0.627730  0.627730  0.000000  1
  Si  Si27  1  0.317405  0.477527  0.500000  1
  Si  Si28  1  0.522321  0.839109  0.500000  1
  Si  Si29  1  0.161149  0.683116  0.500000  1
  Si  Si30  1  0.839109  0.522321  0.500000  1
  Si  Si31  1  0.683116  0.161149  0.500000  1
  Si  Si32  1  0.477527  0.317405  0.500000  1
  Si  Si33  1  0.815717  0.999913  0.000000  1
  Si  Si34  1  0.999913  0.815717  0.000000  1
  P  P35  1  0.184784  0.184784  0.000000  1
