# generated using pymatgen
data_Ho7Tm3(Sn3Ge)2
_symmetry_space_group_name_H-M   'P 1'
_cell_length_a   9.14891400
_cell_length_b   9.14891542
_cell_length_c   6.41910200
_cell_angle_alpha   90.00000000
_cell_angle_beta   90.00000000
_cell_angle_gamma   120.00000211
_symmetry_Int_Tables_number   1
_chemical_formula_structural   Ho7Tm3(Sn3Ge)2
_chemical_formula_sum   'Ho7 Tm3 Sn6 Ge2'
_cell_volume   465.31179017
_cell_formula_units_Z   1
loop_
 _symmetry_equiv_pos_site_id
 _symmetry_equiv_pos_as_xyz
  1  'x, y, z'
loop_
 _atom_site_type_symbol
 _atom_site_label
 _atom_site_symmetry_multiplicity
 _atom_site_fract_x
 _atom_site_fract_y
 _atom_site_fract_z
 _atom_site_occupancy
  Ho  Ho0  1  0.666667  0.333333  0.000000  1
  Ho  Ho1  1  0.744936  0.745017  0.750498  1
  Ho  Ho2  1  0.254983  0.999920  0.750498  1
  Ho  Ho3  1  0.000080  0.255064  0.750498  1
  Ho  Ho4  1  0.254983  0.255064  0.249502  1
  Ho  Ho5  1  0.744936  0.999920  0.249502  1
  Ho  Ho6  1  0.000080  0.745017  0.249502  1
  Tm  Tm7  1  0.333333  0.666667  0.000000  1
  Tm  Tm8  1  0.333333  0.666667  0.500000  1
  Tm  Tm9  1  0.666667  0.333333  0.500000  1
  Sn  Sn10  1  0.392955  0.393493  0.749772  1
  Sn  Sn11  1  0.606507  0.999463  0.749772  1
  Sn  Sn12  1  0.000537  0.607045  0.749772  1
  Sn  Sn13  1  0.606507  0.607045  0.250228  1
  Sn  Sn14  1  0.392955  0.999463  0.250228  1
  Sn  Sn15  1  0.000537  0.393493  0.250228  1
  Ge  Ge16  1  0.000000  0.000000  0.000000  1
  Ge  Ge17  1  0.000000  0.000000  0.500000  1
