# generated using pymatgen
data_Sc2Mo3P7Rh9
_symmetry_space_group_name_H-M   'P 1'
_cell_length_a   3.90044563
_cell_length_b   9.47134267
_cell_length_c   9.46565626
_cell_angle_alpha   120.01258260
_cell_angle_beta   89.99850761
_cell_angle_gamma   90.00063062
_symmetry_Int_Tables_number   1
_chemical_formula_structural   Sc2Mo3P7Rh9
_chemical_formula_sum   'Sc2 Mo3 P7 Rh9'
_cell_volume   302.79734331
_cell_formula_units_Z   1
loop_
 _symmetry_equiv_pos_site_id
 _symmetry_equiv_pos_as_xyz
  1  'x, y, z'
loop_
 _atom_site_type_symbol
 _atom_site_label
 _atom_site_symmetry_multiplicity
 _atom_site_fract_x
 _atom_site_fract_y
 _atom_site_fract_z
 _atom_site_occupancy
  Sc  Sc0  1  0.261660  0.666530  0.333241  1
  Sc  Sc1  1  0.761841  0.333348  0.666646  1
  Mo  Mo2  1  0.761978  0.090703  0.871952  1
  Mo  Mo3  1  0.761966  0.128150  0.218854  1
  Mo  Mo4  1  0.761959  0.781221  0.909310  1
  P  P5  1  0.262077  0.999984  0.999973  1
  P  P6  1  0.761847  0.878243  0.591373  1
  P  P7  1  0.761850  0.408630  0.286848  1
  P  P8  1  0.761841  0.713173  0.121773  1
  P  P9  1  0.261908  0.118951  0.416052  1
  P  P10  1  0.261913  0.584032  0.703004  1
  P  P11  1  0.261913  0.297058  0.881010  1
  Rh  Rh12  1  0.261899  0.883335  0.161632  1
  Rh  Rh13  1  0.261899  0.838338  0.721644  1
  Rh  Rh14  1  0.261912  0.278327  0.116661  1
  Rh  Rh15  1  0.761927  0.611094  0.555761  1
  Rh  Rh16  1  0.761934  0.444239  0.055236  1
  Rh  Rh17  1  0.761911  0.944730  0.388976  1
  Rh  Rh18  1  0.261914  0.367946  0.440414  1
  Rh  Rh19  1  0.261941  0.559619  0.927618  1
  Rh  Rh20  1  0.261910  0.072348  0.632023  1
