# generated using pymatgen
data_La2Er4(CuRh5)3
_symmetry_space_group_name_H-M   'P 1'
_cell_length_a   5.33459000
_cell_length_b   5.33458910
_cell_length_c   17.07812800
_cell_angle_alpha   90.00000000
_cell_angle_beta   90.00000000
_cell_angle_gamma   119.99999316
_symmetry_Int_Tables_number   1
_chemical_formula_structural   La2Er4(CuRh5)3
_chemical_formula_sum   'La2 Er4 Cu3 Rh15'
_cell_volume   420.89420459
_cell_formula_units_Z   1
loop_
 _symmetry_equiv_pos_site_id
 _symmetry_equiv_pos_as_xyz
  1  'x, y, z'
loop_
 _atom_site_type_symbol
 _atom_site_label
 _atom_site_symmetry_multiplicity
 _atom_site_fract_x
 _atom_site_fract_y
 _atom_site_fract_z
 _atom_site_occupancy
  La  La0  1  0.333333  0.666667  0.750000  1
  La  La1  1  0.666667  0.333333  0.250000  1
  Er  Er2  1  0.333333  0.666667  0.539349  1
  Er  Er3  1  0.666667  0.333333  0.038972  1
  Er  Er4  1  0.666667  0.333333  0.461028  1
  Er  Er5  1  0.333333  0.666667  0.960651  1
  Cu  Cu6  1  0.000000  0.000000  0.250000  1
  Cu  Cu7  1  0.000000  0.000000  0.750000  1
  Cu  Cu8  1  0.333333  0.666667  0.250000  1
  Rh  Rh9  1  0.169087  0.338175  0.125346  1
  Rh  Rh10  1  0.832377  0.664754  0.623098  1
  Rh  Rh11  1  0.661825  0.830913  0.125346  1
  Rh  Rh12  1  0.169087  0.830913  0.125346  1
  Rh  Rh13  1  0.832377  0.167623  0.623098  1
  Rh  Rh14  1  0.335246  0.167623  0.623098  1
  Rh  Rh15  1  0.832377  0.664754  0.876902  1
  Rh  Rh16  1  0.832377  0.167623  0.876902  1
  Rh  Rh17  1  0.335246  0.167623  0.876902  1
  Rh  Rh18  1  0.661825  0.830913  0.374654  1
  Rh  Rh19  1  0.169087  0.830913  0.374654  1
  Rh  Rh20  1  0.169087  0.338175  0.374654  1
  Rh  Rh21  1  0.666667  0.333333  0.750000  1
  Rh  Rh22  1  0.000000  0.000000  0.002491  1
  Rh  Rh23  1  0.000000  0.000000  0.497509  1
