# generated using pymatgen
data_Dy6InHg7
_symmetry_space_group_name_H-M   'P 1'
_cell_length_a   8.31675802
_cell_length_b   8.31675721
_cell_length_c   8.31675800
_cell_angle_alpha   113.53274105
_cell_angle_beta   113.53273110
_cell_angle_gamma   113.53273370
_symmetry_Int_Tables_number   1
_chemical_formula_structural   Dy6InHg7
_chemical_formula_sum   'Dy6 In1 Hg7'
_cell_volume   361.28725192
_cell_formula_units_Z   1
loop_
 _symmetry_equiv_pos_site_id
 _symmetry_equiv_pos_as_xyz
  1  'x, y, z'
loop_
 _atom_site_type_symbol
 _atom_site_label
 _atom_site_symmetry_multiplicity
 _atom_site_fract_x
 _atom_site_fract_y
 _atom_site_fract_z
 _atom_site_occupancy
  Dy  Dy0  1  0.997967  0.259366  0.391778  1
  Dy  Dy1  1  0.259366  0.391778  0.997967  1
  Dy  Dy2  1  0.391778  0.997967  0.259366  1
  Dy  Dy3  1  0.002033  0.740634  0.608222  1
  Dy  Dy4  1  0.740634  0.608222  0.002033  1
  Dy  Dy5  1  0.608222  0.002033  0.740634  1
  In  In6  1  0.500000  0.500000  0.500000  1
  Hg  Hg7  1  0.000000  0.000000  0.000000  1
  Hg  Hg8  1  0.096585  0.564577  0.251917  1
  Hg  Hg9  1  0.564577  0.251917  0.096585  1
  Hg  Hg10  1  0.251917  0.096585  0.564577  1
  Hg  Hg11  1  0.903415  0.435423  0.748083  1
  Hg  Hg12  1  0.435423  0.748083  0.903415  1
  Hg  Hg13  1  0.748083  0.903415  0.435423  1
