# generated using pymatgen
data_Cs3Nb8(O5F2)2
_symmetry_space_group_name_H-M   'P 1'
_cell_length_a   4.20216900
_cell_length_b   4.20216900
_cell_length_c   23.88431300
_cell_angle_alpha   90.00000000
_cell_angle_beta   90.00000000
_cell_angle_gamma   90.00000000
_symmetry_Int_Tables_number   1
_chemical_formula_structural   Cs3Nb8(O5F2)2
_chemical_formula_sum   'Cs3 Nb8 O10 F4'
_cell_volume   421.75455631
_cell_formula_units_Z   1
loop_
 _symmetry_equiv_pos_site_id
 _symmetry_equiv_pos_as_xyz
  1  'x, y, z'
loop_
 _atom_site_type_symbol
 _atom_site_label
 _atom_site_symmetry_multiplicity
 _atom_site_fract_x
 _atom_site_fract_y
 _atom_site_fract_z
 _atom_site_occupancy
  Cs  Cs0  1  0.500000  0.500000  0.685459  1
  Cs  Cs1  1  0.500000  0.500000  0.295667  1
  Cs  Cs2  1  0.000000  0.000000  0.815255  1
  Nb  Nb3  1  0.000000  0.000000  0.584354  1
  Nb  Nb4  1  0.000000  0.000000  0.412938  1
  Nb  Nb5  1  0.000000  0.500000  0.001954  1
  Nb  Nb6  1  0.500000  0.000000  0.001954  1
  Nb  Nb7  1  0.500000  0.500000  0.917280  1
  Nb  Nb8  1  0.500000  0.500000  0.093214  1
  Nb  Nb9  1  0.000000  0.500000  0.499332  1
  Nb  Nb10  1  0.500000  0.000000  0.499332  1
  O  O11  1  0.000000  0.500000  0.588715  1
  O  O12  1  0.500000  0.000000  0.588715  1
  O  O13  1  0.000000  0.500000  0.410959  1
  O  O14  1  0.500000  0.000000  0.410959  1
  O  O15  1  0.500000  0.500000  0.499830  1
  O  O16  1  0.500000  0.000000  0.912348  1
  O  O17  1  0.000000  0.500000  0.912348  1
  O  O18  1  0.500000  0.000000  0.089146  1
  O  O19  1  0.000000  0.500000  0.089146  1
  O  O20  1  0.000000  0.000000  0.001949  1
  F  F21  1  0.000000  0.000000  0.678864  1
  F  F22  1  0.000000  0.000000  0.323495  1
  F  F23  1  0.500000  0.500000  0.822789  1
  F  F24  1  0.500000  0.500000  0.177197  1
