# generated using pymatgen
data_Sc8Mn10CrSi16Mo
_symmetry_space_group_name_H-M   'P 1'
_cell_length_a   6.44418994
_cell_length_b   6.48747359
_cell_length_c   12.15021372
_cell_angle_alpha   90.05154450
_cell_angle_beta   90.01229816
_cell_angle_gamma   90.07004041
_symmetry_Int_Tables_number   1
_chemical_formula_structural   Sc8Mn10CrSi16Mo
_chemical_formula_sum   'Sc8 Mn10 Cr1 Si16 Mo1'
_cell_volume   507.95745917
_cell_formula_units_Z   1
loop_
 _symmetry_equiv_pos_site_id
 _symmetry_equiv_pos_as_xyz
  1  'x, y, z'
loop_
 _atom_site_type_symbol
 _atom_site_label
 _atom_site_symmetry_multiplicity
 _atom_site_fract_x
 _atom_site_fract_y
 _atom_site_fract_z
 _atom_site_occupancy
  Sc  Sc0  1  0.493922  0.334362  0.095235  1
  Sc  Sc1  1  0.997050  0.164027  0.403117  1
  Sc  Sc2  1  0.509006  0.664534  0.595739  1
  Sc  Sc3  1  0.005239  0.832934  0.910033  1
  Sc  Sc4  1  0.508881  0.666083  0.910457  1
  Sc  Sc5  1  0.008824  0.837348  0.594743  1
  Sc  Sc6  1  0.493137  0.336527  0.402508  1
  Sc  Sc7  1  0.992789  0.165958  0.094685  1
  Mn  Mn8  1  0.325923  0.151097  0.879322  1
  Mn  Mn9  1  0.169158  0.657267  0.116484  1
  Mn  Mn10  1  0.673356  0.837704  0.378812  1
  Mn  Mn11  1  0.164697  0.660432  0.378011  1
  Mn  Mn12  1  0.666665  0.844187  0.116490  1
  Mn  Mn13  1  0.829122  0.348641  0.880579  1
  Mn  Mn14  1  0.674638  0.988806  0.750600  1
  Mn  Mn15  1  0.174246  0.509802  0.751218  1
  Mn  Mn16  1  0.325876  0.009962  0.247013  1
  Mn  Mn17  1  0.825407  0.490588  0.248575  1
  Cr  Cr18  1  0.832491  0.338250  0.623656  1
  Si  Si19  1  0.667735  0.042293  0.544074  1
  Si  Si20  1  0.162777  0.448555  0.949664  1
  Si  Si21  1  0.336873  0.952670  0.048899  1
  Si  Si22  1  0.836661  0.546463  0.450717  1
  Si  Si23  1  0.342377  0.947093  0.446094  1
  Si  Si24  1  0.838366  0.548838  0.050501  1
  Si  Si25  1  0.660318  0.052120  0.949026  1
  Si  Si26  1  0.157510  0.464165  0.544648  1
  Si  Si27  1  0.537735  0.356672  0.759072  1
  Si  Si28  1  0.026311  0.143864  0.757791  1
  Si  Si29  1  0.464115  0.651830  0.248096  1
  Si  Si30  1  0.964782  0.850272  0.247041  1
  Si  Si31  1  0.811275  0.631149  0.751234  1
  Si  Si32  1  0.308083  0.862231  0.754239  1
  Si  Si33  1  0.191749  0.377607  0.248444  1
  Si  Si34  1  0.692410  0.122506  0.249212  1
  Mo  Mo35  1  0.330496  0.163166  0.623970  1
