# generated using pymatgen
data_Y6Ho14Cd6CoRu
_symmetry_space_group_name_H-M   'P 1'
_cell_length_a   9.59041000
_cell_length_b   9.59040940
_cell_length_c   9.75213300
_cell_angle_alpha   90.00000000
_cell_angle_beta   90.00000000
_cell_angle_gamma   120.00000207
_symmetry_Int_Tables_number   1
_chemical_formula_structural   Y6Ho14Cd6CoRu
_chemical_formula_sum   'Y6 Ho14 Cd6 Co1 Ru1'
_cell_volume   776.79166918
_cell_formula_units_Z   1
loop_
 _symmetry_equiv_pos_site_id
 _symmetry_equiv_pos_as_xyz
  1  'x, y, z'
loop_
 _atom_site_type_symbol
 _atom_site_label
 _atom_site_symmetry_multiplicity
 _atom_site_fract_x
 _atom_site_fract_y
 _atom_site_fract_z
 _atom_site_occupancy
  Y  Y0  1  0.541418  0.458582  0.250000  1
  Y  Y1  1  0.541418  0.082835  0.250000  1
  Y  Y2  1  0.917165  0.458582  0.250000  1
  Y  Y3  1  0.458508  0.541492  0.750000  1
  Y  Y4  1  0.458508  0.917017  0.750000  1
  Y  Y5  1  0.082983  0.541492  0.750000  1
  Ho  Ho6  1  0.000000  0.000000  0.499868  1
  Ho  Ho7  1  0.000000  0.000000  0.000132  1
  Ho  Ho8  1  0.212192  0.787808  0.435910  1
  Ho  Ho9  1  0.212192  0.424386  0.435910  1
  Ho  Ho10  1  0.575614  0.787808  0.435910  1
  Ho  Ho11  1  0.790538  0.209462  0.560192  1
  Ho  Ho12  1  0.790538  0.581076  0.560192  1
  Ho  Ho13  1  0.418924  0.209462  0.560192  1
  Ho  Ho14  1  0.790538  0.209462  0.939808  1
  Ho  Ho15  1  0.790538  0.581076  0.939808  1
  Ho  Ho16  1  0.418924  0.209462  0.939808  1
  Ho  Ho17  1  0.212192  0.787808  0.064090  1
  Ho  Ho18  1  0.212192  0.424386  0.064090  1
  Ho  Ho19  1  0.575614  0.787808  0.064090  1
  Cd  Cd20  1  0.885337  0.114663  0.250000  1
  Cd  Cd21  1  0.885337  0.770674  0.250000  1
  Cd  Cd22  1  0.229326  0.114663  0.250000  1
  Cd  Cd23  1  0.114591  0.885409  0.750000  1
  Cd  Cd24  1  0.114591  0.229181  0.750000  1
  Cd  Cd25  1  0.770819  0.885409  0.750000  1
  Co  Co26  1  0.333333  0.666667  0.250000  1
  Ru  Ru27  1  0.666667  0.333333  0.750000  1
