# generated using pymatgen
data_Al7CdPt16
_symmetry_space_group_name_H-M   'P 1'
_cell_length_a   16.58411400
_cell_length_b   3.97573800
_cell_length_c   5.54936000
_cell_angle_alpha   90.00000000
_cell_angle_beta   90.00000000
_cell_angle_gamma   90.00000000
_symmetry_Int_Tables_number   1
_chemical_formula_structural   Al7CdPt16
_chemical_formula_sum   'Al7 Cd1 Pt16'
_cell_volume   365.89201404
_cell_formula_units_Z   1
loop_
 _symmetry_equiv_pos_site_id
 _symmetry_equiv_pos_as_xyz
  1  'x, y, z'
loop_
 _atom_site_type_symbol
 _atom_site_label
 _atom_site_symmetry_multiplicity
 _atom_site_fract_x
 _atom_site_fract_y
 _atom_site_fract_z
 _atom_site_occupancy
  Al  Al0  1  0.000892  0.499999  0.998440  1
  Al  Al1  1  0.499108  0.499999  0.998440  1
  Al  Al2  1  0.091855  0.000000  0.310683  1
  Al  Al3  1  0.408145  0.000000  0.310683  1
  Al  Al4  1  0.591880  0.000000  0.689936  1
  Al  Al5  1  0.908120  0.000000  0.689936  1
  Al  Al6  1  0.250000  0.000000  0.792927  1
  Cd  Cd7  1  0.750000  0.000000  0.202914  1
  Pt  Pt8  1  0.156049  0.499999  0.052109  1
  Pt  Pt9  1  0.343951  0.499999  0.052109  1
  Pt  Pt10  1  0.565058  0.000000  0.203888  1
  Pt  Pt11  1  0.934942  0.000000  0.203888  1
  Pt  Pt12  1  0.250000  0.000000  0.267556  1
  Pt  Pt13  1  0.662956  0.499999  0.454614  1
  Pt  Pt14  1  0.837044  0.499999  0.454614  1
  Pt  Pt15  1  0.002400  0.499999  0.499987  1
  Pt  Pt16  1  0.497600  0.499999  0.499987  1
  Pt  Pt17  1  0.168356  0.499999  0.556585  1
  Pt  Pt18  1  0.331644  0.499999  0.556585  1
  Pt  Pt19  1  0.750000  0.000000  0.714817  1
  Pt  Pt20  1  0.069106  0.000000  0.797335  1
  Pt  Pt21  1  0.430893  0.000000  0.797335  1
  Pt  Pt22  1  0.652481  0.499999  0.947315  1
  Pt  Pt23  1  0.847519  0.499999  0.947315  1
