# generated using pymatgen
data_Y12Tc3Pt
_symmetry_space_group_name_H-M   'P 1'
_cell_length_a   6.34255782
_cell_length_b   7.42048431
_cell_length_c   9.25310100
_cell_angle_alpha   90.00000000
_cell_angle_beta   90.00000000
_cell_angle_gamma   90.08807926
_symmetry_Int_Tables_number   1
_chemical_formula_structural   Y12Tc3Pt
_chemical_formula_sum   'Y12 Tc3 Pt1'
_cell_volume   435.49530331
_cell_formula_units_Z   1
loop_
 _symmetry_equiv_pos_site_id
 _symmetry_equiv_pos_as_xyz
  1  'x, y, z'
loop_
 _atom_site_type_symbol
 _atom_site_label
 _atom_site_symmetry_multiplicity
 _atom_site_fract_x
 _atom_site_fract_y
 _atom_site_fract_z
 _atom_site_occupancy
  Y  Y0  1  0.125333  0.039815  0.250000  1
  Y  Y1  1  0.629001  0.454896  0.750000  1
  Y  Y2  1  0.371677  0.542950  0.250000  1
  Y  Y3  1  0.870210  0.963608  0.750000  1
  Y  Y4  1  0.666521  0.176432  0.063868  1
  Y  Y5  1  0.169017  0.319948  0.940811  1
  Y  Y6  1  0.827940  0.675380  0.432664  1
  Y  Y7  1  0.336045  0.827493  0.560026  1
  Y  Y8  1  0.336045  0.827493  0.939974  1
  Y  Y9  1  0.827940  0.675380  0.067336  1
  Y  Y10  1  0.169017  0.319948  0.559189  1
  Y  Y11  1  0.666521  0.176432  0.436132  1
  Tc  Tc12  1  0.963384  0.387025  0.250000  1
  Tc  Tc13  1  0.457663  0.114097  0.750000  1
  Tc  Tc14  1  0.538512  0.885760  0.250000  1
  Pt  Pt15  1  0.045171  0.613341  0.750000  1
