# generated using pymatgen
data_AcNd15(DySn4)4
_symmetry_space_group_name_H-M   'P 1'
_cell_length_a   8.27506937
_cell_length_b   8.40704795
_cell_length_c   16.01307700
_cell_angle_alpha   90.03276071
_cell_angle_beta   89.86979589
_cell_angle_gamma   89.65601432
_symmetry_Int_Tables_number   1
_chemical_formula_structural   AcNd15(DySn4)4
_chemical_formula_sum   'Ac1 Nd15 Dy4 Sn16'
_cell_volume   1113.98908817
_cell_formula_units_Z   1
loop_
 _symmetry_equiv_pos_site_id
 _symmetry_equiv_pos_as_xyz
  1  'x, y, z'
loop_
 _atom_site_type_symbol
 _atom_site_label
 _atom_site_symmetry_multiplicity
 _atom_site_fract_x
 _atom_site_fract_y
 _atom_site_fract_z
 _atom_site_occupancy
  Ac  Ac0  1  0.016727  0.181684  0.404182  1
  Nd  Nd1  1  0.367195  0.837556  0.120329  1
  Nd  Nd2  1  0.134484  0.338193  0.621116  1
  Nd  Nd3  1  0.481288  0.680311  0.901311  1
  Nd  Nd4  1  0.867002  0.661945  0.119344  1
  Nd  Nd5  1  0.132840  0.337787  0.879601  1
  Nd  Nd6  1  0.481459  0.680520  0.599125  1
  Nd  Nd7  1  0.633894  0.163222  0.622114  1
  Nd  Nd8  1  0.866012  0.661424  0.379471  1
  Nd  Nd9  1  0.018684  0.180651  0.098339  1
  Nd  Nd10  1  0.981488  0.819568  0.901253  1
  Nd  Nd11  1  0.632881  0.162552  0.879054  1
  Nd  Nd12  1  0.518676  0.320006  0.097234  1
  Nd  Nd13  1  0.366811  0.837911  0.377855  1
  Nd  Nd14  1  0.982121  0.817649  0.599306  1
  Nd  Nd15  1  0.519001  0.321506  0.401188  1
  Dy  Dy16  1  0.199329  0.502872  0.248783  1
  Dy  Dy17  1  0.698182  0.997367  0.248835  1
  Dy  Dy18  1  0.302045  0.001811  0.750684  1
  Dy  Dy19  1  0.801298  0.498086  0.750070  1
  Sn  Sn20  1  0.790624  0.466417  0.545098  1
  Sn  Sn21  1  0.699645  0.959386  0.458489  1
  Sn  Sn22  1  0.675083  0.853755  0.750354  1
  Sn  Sn23  1  0.210823  0.540085  0.457408  1
  Sn  Sn24  1  0.292306  0.034109  0.955921  1
  Sn  Sn25  1  0.819758  0.356718  0.246740  1
  Sn  Sn26  1  0.791698  0.465125  0.955627  1
  Sn  Sn27  1  0.564203  0.617864  0.249533  1
  Sn  Sn28  1  0.208594  0.534918  0.043596  1
  Sn  Sn29  1  0.435003  0.383453  0.750617  1
  Sn  Sn30  1  0.175751  0.645639  0.750173  1
  Sn  Sn31  1  0.936033  0.117597  0.750085  1
  Sn  Sn32  1  0.298334  0.030513  0.546820  1
  Sn  Sn33  1  0.707999  0.965968  0.043733  1
  Sn  Sn34  1  0.328759  0.146631  0.248217  1
  Sn  Sn35  1  0.063970  0.879197  0.248398  1
