# generated using pymatgen
data_Cs4Zr6GaI18
_symmetry_space_group_name_H-M   'P 1'
_cell_length_a   11.63348683
_cell_length_b   12.06165723
_cell_length_c   12.16843662
_cell_angle_alpha   118.62333568
_cell_angle_beta   100.73317439
_cell_angle_gamma   104.26652725
_symmetry_Int_Tables_number   1
_chemical_formula_structural   Cs4Zr6GaI18
_chemical_formula_sum   'Cs4 Zr6 Ga1 I18'
_cell_volume   1356.46989970
_cell_formula_units_Z   1
loop_
 _symmetry_equiv_pos_site_id
 _symmetry_equiv_pos_as_xyz
  1  'x, y, z'
loop_
 _atom_site_type_symbol
 _atom_site_label
 _atom_site_symmetry_multiplicity
 _atom_site_fract_x
 _atom_site_fract_y
 _atom_site_fract_z
 _atom_site_occupancy
  Cs  Cs0  1  0.662225  0.538063  0.229108  1
  Cs  Cs1  1  0.337775  0.461937  0.770892  1
  Cs  Cs2  1  0.697632  0.229936  0.567106  1
  Cs  Cs3  1  0.302368  0.770064  0.432894  1
  Zr  Zr4  1  0.149535  0.054056  0.225403  1
  Zr  Zr5  1  0.850465  0.945944  0.774597  1
  Zr  Zr6  1  0.862557  0.120979  0.127284  1
  Zr  Zr7  1  0.137443  0.879021  0.872716  1
  Zr  Zr8  1  0.143734  0.232838  0.043129  1
  Zr  Zr9  1  0.856266  0.767162  0.956871  1
  Ga  Ga10  1  0.000000  0.000000  0.000000  1
  I  I11  1  0.008214  0.393074  0.188202  1
  I  I12  1  0.991786  0.606926  0.811798  1
  I  I13  1  0.324335  0.322456  0.301421  1
  I  I14  1  0.675665  0.677544  0.698579  1
  I  I15  1  0.316504  0.504729  0.099628  1
  I  I16  1  0.683496  0.495271  0.900372  1
  I  I17  1  0.004837  0.802721  0.202613  1
  I  I18  1  0.995163  0.197279  0.797387  1
  I  I19  1  0.708325  0.259392  0.272788  1
  I  I20  1  0.291675  0.740608  0.727212  1
  I  I21  1  0.311667  0.126090  0.910185  1
  I  I22  1  0.688333  0.873910  0.089815  1
  I  I23  1  0.016539  0.196630  0.392691  1
  I  I24  1  0.983461  0.803370  0.607309  1
  I  I25  1  0.317126  0.930257  0.110183  1
  I  I26  1  0.682874  0.069743  0.889817  1
  I  I27  1  0.330098  0.121388  0.487199  1
  I  I28  1  0.669902  0.878612  0.512801  1
