# generated using pymatgen
data_TbNd3Mn4F28
_symmetry_space_group_name_H-M   'P 1'
_cell_length_a   5.52367557
_cell_length_b   8.95587628
_cell_length_c   11.98870909
_cell_angle_alpha   61.94700754
_cell_angle_beta   89.94939015
_cell_angle_gamma   89.96864020
_symmetry_Int_Tables_number   1
_chemical_formula_structural   TbNd3Mn4F28
_chemical_formula_sum   'Tb1 Nd3 Mn4 F28'
_cell_volume   523.39504788
_cell_formula_units_Z   1
loop_
 _symmetry_equiv_pos_site_id
 _symmetry_equiv_pos_as_xyz
  1  'x, y, z'
loop_
 _atom_site_type_symbol
 _atom_site_label
 _atom_site_symmetry_multiplicity
 _atom_site_fract_x
 _atom_site_fract_y
 _atom_site_fract_z
 _atom_site_occupancy
  Tb  Tb0  1  0.236797  0.808667  0.763701  1
  Nd  Nd1  1  0.261404  0.808275  0.263468  1
  Nd  Nd2  1  0.739076  0.188480  0.736143  1
  Nd  Nd3  1  0.760849  0.190615  0.236101  1
  Mn  Mn4  1  0.757978  0.724798  0.039121  1
  Mn  Mn5  1  0.242349  0.278820  0.955640  1
  Mn  Mn6  1  0.256348  0.272480  0.458993  1
  Mn  Mn7  1  0.740174  0.726035  0.546256  1
  F  F8  1  0.932236  0.708595  0.427557  1
  F  F9  1  0.072312  0.291092  0.579616  1
  F  F10  1  0.428885  0.293870  0.076681  1
  F  F11  1  0.566686  0.708402  0.920064  1
  F  F12  1  0.485099  0.727857  0.126594  1
  F  F13  1  0.517356  0.272094  0.871108  1
  F  F14  1  0.979627  0.269946  0.374408  1
  F  F15  1  0.011763  0.730239  0.634795  1
  F  F16  1  0.946232  0.738061  0.162465  1
  F  F17  1  0.058716  0.264418  0.831915  1
  F  F18  1  0.438775  0.259278  0.334436  1
  F  F19  1  0.546619  0.742845  0.667010  1
  F  F20  1  0.768300  0.492827  0.133017  1
  F  F21  1  0.235454  0.512406  0.862267  1
  F  F22  1  0.265749  0.505345  0.365531  1
  F  F23  1  0.730441  0.493663  0.638949  1
  F  F24  1  0.962010  0.287068  0.036652  1
  F  F25  1  0.037691  0.717088  0.955809  1
  F  F26  1  0.464383  0.716595  0.462330  1
  F  F27  1  0.538365  0.282354  0.538469  1
  F  F28  1  0.737762  0.957690  0.454935  1
  F  F29  1  0.259922  0.040310  0.549030  1
  F  F30  1  0.237861  0.046469  0.045397  1
  F  F31  1  0.760805  0.956957  0.951961  1
  F  F32  1  0.608415  0.963306  0.225145  1
  F  F33  1  0.397927  0.024847  0.772822  1
  F  F34  1  0.107495  0.035317  0.274081  1
  F  F35  1  0.908141  0.962891  0.727536  1
