# generated using pymatgen
data_Tb18Er2(Ir3Pt)3
_symmetry_space_group_name_H-M   'P 1'
_cell_length_a   11.01074756
_cell_length_b   11.01074713
_cell_length_c   6.36009100
_cell_angle_alpha   89.98169365
_cell_angle_beta   89.98168845
_cell_angle_gamma   90.19922046
_symmetry_Int_Tables_number   1
_chemical_formula_structural   Tb18Er2(Ir3Pt)3
_chemical_formula_sum   'Tb18 Er2 Ir9 Pt3'
_cell_volume   771.07079537
_cell_formula_units_Z   1
loop_
 _symmetry_equiv_pos_site_id
 _symmetry_equiv_pos_as_xyz
  1  'x, y, z'
loop_
 _atom_site_type_symbol
 _atom_site_label
 _atom_site_symmetry_multiplicity
 _atom_site_fract_x
 _atom_site_fract_y
 _atom_site_fract_z
 _atom_site_occupancy
  Tb  Tb0  1  0.293774  0.087023  0.371761  1
  Tb  Tb1  1  0.293158  0.908134  0.877037  1
  Tb  Tb2  1  0.705176  0.090291  0.873766  1
  Tb  Tb3  1  0.704090  0.909431  0.373200  1
  Tb  Tb4  1  0.585048  0.790140  0.878375  1
  Tb  Tb5  1  0.585514  0.209773  0.378248  1
  Tb  Tb6  1  0.410606  0.790458  0.378240  1
  Tb  Tb7  1  0.414117  0.209828  0.878150  1
  Tb  Tb8  1  0.209860  0.414952  0.621625  1
  Tb  Tb9  1  0.209542  0.589394  0.121760  1
  Tb  Tb10  1  0.790227  0.414486  0.121752  1
  Tb  Tb11  1  0.790172  0.585883  0.621850  1
  Tb  Tb12  1  0.912977  0.706226  0.128239  1
  Tb  Tb13  1  0.909709  0.294824  0.626234  1
  Tb  Tb14  1  0.091866  0.706842  0.622963  1
  Tb  Tb15  1  0.090569  0.295910  0.126800  1
  Tb  Tb16  1  0.001120  0.998045  0.499914  1
  Tb  Tb17  1  0.001955  0.998880  0.000086  1
  Er  Er18  1  0.499708  0.499810  0.000337  1
  Er  Er19  1  0.500190  0.500292  0.499663  1
  Ir  Ir20  1  0.152699  0.847301  0.250000  1
  Ir  Ir21  1  0.652572  0.347428  0.750000  1
  Ir  Ir22  1  0.653183  0.652638  0.249446  1
  Ir  Ir23  1  0.347362  0.346817  0.250554  1
  Ir  Ir24  1  0.348292  0.651708  0.750000  1
  Ir  Ir25  1  0.500374  0.999971  0.122172  1
  Ir  Ir26  1  0.500083  0.000229  0.623466  1
  Ir  Ir27  1  0.999771  0.499917  0.876534  1
  Ir  Ir28  1  0.000029  0.499626  0.377828  1
  Pt  Pt29  1  0.846655  0.153345  0.250000  1
  Pt  Pt30  1  0.845052  0.845450  0.749989  1
  Pt  Pt31  1  0.154550  0.154948  0.750011  1
