# generated using pymatgen
data_Li2Y3ScSi2Ag
_symmetry_space_group_name_H-M   'P 1'
_cell_length_a   7.19959600
_cell_length_b   7.25823993
_cell_length_c   4.24091800
_cell_angle_alpha   90.00000000
_cell_angle_beta   90.00000000
_cell_angle_gamma   120.26983738
_symmetry_Int_Tables_number   1
_chemical_formula_structural   Li2Y3ScSi2Ag
_chemical_formula_sum   'Li2 Y3 Sc1 Si2 Ag1'
_cell_volume   191.40031499
_cell_formula_units_Z   1
loop_
 _symmetry_equiv_pos_site_id
 _symmetry_equiv_pos_as_xyz
  1  'x, y, z'
loop_
 _atom_site_type_symbol
 _atom_site_label
 _atom_site_symmetry_multiplicity
 _atom_site_fract_x
 _atom_site_fract_y
 _atom_site_fract_z
 _atom_site_occupancy
  Li  Li0  1  0.746401  0.744935  0.000000  1
  Li  Li1  1  0.253599  0.998535  0.000000  1
  Y  Y2  1  0.434168  0.435919  0.500000  1
  Y  Y3  1  0.000000  0.583930  0.500000  1
  Y  Y4  1  0.565832  0.001751  0.500000  1
  Sc  Sc5  1  0.000000  0.243897  0.000000  1
  Si  Si6  1  0.670551  0.334436  0.000000  1
  Si  Si7  1  0.329449  0.663886  0.000000  1
  Ag  Ag8  1  0.000000  0.992711  0.500000  1
