# generated using pymatgen
data_Tb4Fe12P12Ir7W
_symmetry_space_group_name_H-M   'P 1'
_cell_length_a   3.79617500
_cell_length_b   10.29264264
_cell_length_c   12.20728589
_cell_angle_alpha   90.27215507
_cell_angle_beta   90.00000000
_cell_angle_gamma   90.00000000
_symmetry_Int_Tables_number   1
_chemical_formula_structural   Tb4Fe12P12Ir7W
_chemical_formula_sum   'Tb4 Fe12 P12 Ir7 W1'
_cell_volume   476.96590508
_cell_formula_units_Z   1
loop_
 _symmetry_equiv_pos_site_id
 _symmetry_equiv_pos_as_xyz
  1  'x, y, z'
loop_
 _atom_site_type_symbol
 _atom_site_label
 _atom_site_symmetry_multiplicity
 _atom_site_fract_x
 _atom_site_fract_y
 _atom_site_fract_z
 _atom_site_occupancy
  Tb  Tb0  1  0.250000  0.581471  0.713974  1
  Tb  Tb1  1  0.250000  0.918755  0.211443  1
  Tb  Tb2  1  0.750000  0.418965  0.287726  1
  Tb  Tb3  1  0.750000  0.079665  0.787570  1
  Fe  Fe4  1  0.250000  0.223191  0.170639  1
  Fe  Fe5  1  0.250000  0.276714  0.670293  1
  Fe  Fe6  1  0.750000  0.778804  0.827650  1
  Fe  Fe7  1  0.750000  0.723516  0.328497  1
  Fe  Fe8  1  0.250000  0.878316  0.694135  1
  Fe  Fe9  1  0.250000  0.622606  0.197107  1
  Fe  Fe10  1  0.750000  0.122380  0.304306  1
  Fe  Fe11  1  0.750000  0.379319  0.804981  1
  Fe  Fe12  1  0.250000  0.456825  0.938556  1
  Fe  Fe13  1  0.250000  0.041881  0.436490  1
  Fe  Fe14  1  0.750000  0.536976  0.063581  1
  Fe  Fe15  1  0.750000  0.958589  0.561445  1
  P  P16  1  0.250000  0.428721  0.114614  1
  P  P17  1  0.250000  0.071286  0.612575  1
  P  P18  1  0.750000  0.575615  0.888601  1
  P  P19  1  0.750000  0.928304  0.385617  1
  P  P20  1  0.250000  0.273176  0.851112  1
  P  P21  1  0.250000  0.226128  0.352059  1
  P  P22  1  0.750000  0.725444  0.144358  1
  P  P23  1  0.750000  0.774684  0.646672  1
  P  P24  1  0.250000  0.603570  0.376919  1
  P  P25  1  0.250000  0.895782  0.876348  1
  P  P26  1  0.750000  0.395858  0.624484  1
  P  P27  1  0.750000  0.105985  0.123085  1
  Ir  Ir28  1  0.250000  0.791842  0.483174  1
  Ir  Ir29  1  0.750000  0.292891  0.015160  1
  Ir  Ir30  1  0.750000  0.207912  0.516766  1
  Ir  Ir31  1  0.250000  0.404546  0.478367  1
  Ir  Ir32  1  0.250000  0.097790  0.975558  1
  Ir  Ir33  1  0.750000  0.594789  0.522922  1
  Ir  Ir34  1  0.750000  0.905991  0.023464  1
  W  W35  1  0.250000  0.701714  0.989756  1
