# generated using pymatgen
data_Cs5Th2S4Br9
_symmetry_space_group_name_H-M   'P 1'
_cell_length_a   11.41916498
_cell_length_b   11.41916583
_cell_length_c   11.41916534
_cell_angle_alpha   139.60018683
_cell_angle_beta   121.08845222
_cell_angle_gamma   73.86502168
_symmetry_Int_Tables_number   1
_chemical_formula_structural   Cs5Th2S4Br9
_chemical_formula_sum   'Cs5 Th2 S4 Br9'
_cell_volume   808.41595436
_cell_formula_units_Z   1
loop_
 _symmetry_equiv_pos_site_id
 _symmetry_equiv_pos_as_xyz
  1  'x, y, z'
loop_
 _atom_site_type_symbol
 _atom_site_label
 _atom_site_symmetry_multiplicity
 _atom_site_fract_x
 _atom_site_fract_y
 _atom_site_fract_z
 _atom_site_occupancy
  Cs  Cs0  1  0.429890  0.656764  0.773126  1
  Cs  Cs1  1  0.883638  0.656764  0.226874  1
  Cs  Cs2  1  0.500000  0.000000  0.500000  1
  Cs  Cs3  1  0.570110  0.343236  0.226874  1
  Cs  Cs4  1  0.116362  0.343236  0.773126  1
  Th  Th5  1  0.107013  0.107013  0.000000  1
  Th  Th6  1  0.892987  0.892987  0.000000  1
  S  S7  1  0.093018  0.768565  0.861583  1
  S  S8  1  0.906982  0.768565  0.675547  1
  S  S9  1  0.906982  0.231435  0.138417  1
  S  S10  1  0.093018  0.231435  0.324453  1
  Br  Br11  1  0.220676  0.475001  0.254327  1
  Br  Br12  1  0.122965  0.861564  0.261401  1
  Br  Br13  1  0.399838  0.138436  0.261401  1
  Br  Br14  1  0.220676  0.966349  0.745673  1
  Br  Br15  1  0.779324  0.033651  0.254327  1
  Br  Br16  1  0.600162  0.861564  0.738599  1
  Br  Br17  1  0.779324  0.524999  0.745673  1
  Br  Br18  1  0.500000  0.500000  0.000000  1
  Br  Br19  1  0.877035  0.138436  0.738599  1
