# generated using pymatgen
data_Nd16InGa5Co2
_symmetry_space_group_name_H-M   'P 1'
_cell_length_a   10.45702126
_cell_length_b   10.47996825
_cell_length_c   7.19023905
_cell_angle_alpha   89.99708673
_cell_angle_beta   89.98626889
_cell_angle_gamma   119.94918266
_symmetry_Int_Tables_number   1
_chemical_formula_structural   Nd16InGa5Co2
_chemical_formula_sum   'Nd16 In1 Ga5 Co2'
_cell_volume   682.75369534
_cell_formula_units_Z   1
loop_
 _symmetry_equiv_pos_site_id
 _symmetry_equiv_pos_as_xyz
  1  'x, y, z'
loop_
 _atom_site_type_symbol
 _atom_site_label
 _atom_site_symmetry_multiplicity
 _atom_site_fract_x
 _atom_site_fract_y
 _atom_site_fract_z
 _atom_site_occupancy
  Nd  Nd0  1  0.828205  0.656409  0.500497  1
  Nd  Nd1  1  0.340740  0.169941  0.484124  1
  Nd  Nd2  1  0.829190  0.169936  0.484115  1
  Nd  Nd3  1  0.171899  0.343778  0.989162  1
  Nd  Nd4  1  0.653304  0.834290  0.982895  1
  Nd  Nd5  1  0.181001  0.834297  0.982885  1
  Nd  Nd6  1  0.662138  0.324265  0.179888  1
  Nd  Nd7  1  0.333193  0.666387  0.675773  1
  Nd  Nd8  1  0.540755  0.081517  0.789768  1
  Nd  Nd9  1  0.923833  0.454778  0.788595  1
  Nd  Nd10  1  0.530948  0.454769  0.788607  1
  Nd  Nd11  1  0.459581  0.919146  0.296057  1
  Nd  Nd12  1  0.078549  0.541313  0.289282  1
  Nd  Nd13  1  0.462779  0.541320  0.289292  1
  Nd  Nd14  1  0.002914  0.005815  0.772988  1
  Nd  Nd15  1  0.000988  0.002028  0.273497  1
  In  In16  1  0.834881  0.669770  0.039718  1
  Ga  Ga17  1  0.326644  0.165118  0.043324  1
  Ga  Ga18  1  0.838442  0.165118  0.043333  1
  Ga  Ga19  1  0.164798  0.329597  0.542381  1
  Ga  Ga20  1  0.672951  0.836603  0.542734  1
  Ga  Ga21  1  0.163662  0.836595  0.542754  1
  Co  Co22  1  0.665384  0.330784  0.552546  1
  Co  Co23  1  0.333224  0.666422  0.052022  1
