# generated using pymatgen
data_Lu20CoBi11
_symmetry_space_group_name_H-M   'P 1'
_cell_length_a   8.01831682
_cell_length_b   9.34595500
_cell_length_c   11.81399277
_cell_angle_alpha   90.00000000
_cell_angle_beta   89.76800989
_cell_angle_gamma   90.00000000
_symmetry_Int_Tables_number   1
_chemical_formula_structural   Lu20CoBi11
_chemical_formula_sum   'Lu20 Co1 Bi11'
_cell_volume   885.31951692
_cell_formula_units_Z   1
loop_
 _symmetry_equiv_pos_site_id
 _symmetry_equiv_pos_as_xyz
  1  'x, y, z'
loop_
 _atom_site_type_symbol
 _atom_site_label
 _atom_site_symmetry_multiplicity
 _atom_site_fract_x
 _atom_site_fract_y
 _atom_site_fract_z
 _atom_site_occupancy
  Lu  Lu0  1  0.049706  0.250000  0.506077  1
  Lu  Lu1  1  0.987277  0.750000  0.493477  1
  Lu  Lu2  1  0.478460  0.750000  0.012165  1
  Lu  Lu3  1  0.527599  0.250000  0.990196  1
  Lu  Lu4  1  0.357055  0.250000  0.308337  1
  Lu  Lu5  1  0.658199  0.750000  0.718581  1
  Lu  Lu6  1  0.143399  0.750000  0.778674  1
  Lu  Lu7  1  0.849664  0.250000  0.215208  1
  Lu  Lu8  1  0.204368  0.250000  0.773694  1
  Lu  Lu9  1  0.808977  0.750000  0.216939  1
  Lu  Lu10  1  0.315490  0.750000  0.280841  1
  Lu  Lu11  1  0.636620  0.250000  0.697200  1
  Lu  Lu12  1  0.193543  0.067629  0.065346  1
  Lu  Lu13  1  0.807809  0.933368  0.940974  1
  Lu  Lu14  1  0.317671  0.975790  0.558544  1
  Lu  Lu15  1  0.807809  0.566632  0.940974  1
  Lu  Lu16  1  0.677030  0.076255  0.446405  1
  Lu  Lu17  1  0.193543  0.432371  0.065346  1
  Lu  Lu18  1  0.677030  0.423745  0.446405  1
  Lu  Lu19  1  0.317671  0.524210  0.558544  1
  Co  Co20  1  0.416005  0.250000  0.527898  1
  Bi  Bi21  1  0.594574  0.750000  0.460514  1
  Bi  Bi22  1  0.098006  0.750000  0.042436  1
  Bi  Bi23  1  0.910304  0.250000  0.950600  1
  Bi  Bi24  1  0.057720  0.999330  0.322862  1
  Bi  Bi25  1  0.930912  0.003426  0.674561  1
  Bi  Bi26  1  0.433745  0.991538  0.829008  1
  Bi  Bi27  1  0.930912  0.496574  0.674561  1
  Bi  Bi28  1  0.563720  0.005403  0.175884  1
  Bi  Bi29  1  0.057720  0.500670  0.322862  1
  Bi  Bi30  1  0.563720  0.494597  0.175884  1
  Bi  Bi31  1  0.433745  0.508462  0.829008  1
