# generated using pymatgen
data_Dy3Sc3Sn6PtRh5
_symmetry_space_group_name_H-M   'P 1'
_cell_length_a   7.59901400
_cell_length_b   7.59901349
_cell_length_c   7.30324400
_cell_angle_alpha   90.00000000
_cell_angle_beta   90.00000000
_cell_angle_gamma   120.00001093
_symmetry_Int_Tables_number   1
_chemical_formula_structural   Dy3Sc3Sn6PtRh5
_chemical_formula_sum   'Dy3 Sc3 Sn6 Pt1 Rh5'
_cell_volume   365.22529999
_cell_formula_units_Z   1
loop_
 _symmetry_equiv_pos_site_id
 _symmetry_equiv_pos_as_xyz
  1  'x, y, z'
loop_
 _atom_site_type_symbol
 _atom_site_label
 _atom_site_symmetry_multiplicity
 _atom_site_fract_x
 _atom_site_fract_y
 _atom_site_fract_z
 _atom_site_occupancy
  Dy  Dy0  1  0.401863  0.998447  0.250065  1
  Dy  Dy1  1  0.596584  0.598137  0.250065  1
  Dy  Dy2  1  0.001553  0.403416  0.250065  1
  Sc  Sc3  1  0.395613  0.996566  0.751050  1
  Sc  Sc4  1  0.600952  0.604387  0.751050  1
  Sc  Sc5  1  0.003434  0.399048  0.751050  1
  Sn  Sn6  1  0.277413  0.276297  0.990437  1
  Sn  Sn7  1  0.998884  0.722587  0.990437  1
  Sn  Sn8  1  0.003883  0.738774  0.509126  1
  Sn  Sn9  1  0.734890  0.996117  0.509126  1
  Sn  Sn10  1  0.261226  0.265110  0.509126  1
  Sn  Sn11  1  0.723703  0.001116  0.990437  1
  Pt  Pt12  1  0.666667  0.333333  0.521934  1
  Rh  Rh13  1  0.000000  0.000000  0.764827  1
  Rh  Rh14  1  0.000000  0.000000  0.234935  1
  Rh  Rh15  1  0.666667  0.333333  0.976446  1
  Rh  Rh16  1  0.333333  0.666667  0.522754  1
  Rh  Rh17  1  0.333333  0.666667  0.977065  1
