# generated using pymatgen
data_Dy2Tm10Ir3Os
_symmetry_space_group_name_H-M   'P 1'
_cell_length_a   7.23750815
_cell_length_b   8.95107300
_cell_length_c   6.35885361
_cell_angle_alpha   90.00000000
_cell_angle_beta   90.11027398
_cell_angle_gamma   90.00000000
_symmetry_Int_Tables_number   1
_chemical_formula_structural   Dy2Tm10Ir3Os
_chemical_formula_sum   'Dy2 Tm10 Ir3 Os1'
_cell_volume   411.94779980
_cell_formula_units_Z   1
loop_
 _symmetry_equiv_pos_site_id
 _symmetry_equiv_pos_as_xyz
  1  'x, y, z'
loop_
 _atom_site_type_symbol
 _atom_site_label
 _atom_site_symmetry_multiplicity
 _atom_site_fract_x
 _atom_site_fract_y
 _atom_site_fract_z
 _atom_site_occupancy
  Dy  Dy0  1  0.033630  0.250000  0.623270  1
  Dy  Dy1  1  0.964842  0.750000  0.375286  1
  Tm  Tm2  1  0.465140  0.750000  0.126554  1
  Tm  Tm3  1  0.535017  0.250000  0.875670  1
  Tm  Tm4  1  0.176489  0.063110  0.169393  1
  Tm  Tm5  1  0.822367  0.940148  0.833194  1
  Tm  Tm6  1  0.324569  0.938886  0.672918  1
  Tm  Tm7  1  0.822367  0.559852  0.833194  1
  Tm  Tm8  1  0.676827  0.062887  0.324674  1
  Tm  Tm9  1  0.176489  0.436890  0.169393  1
  Tm  Tm10  1  0.676827  0.437113  0.324674  1
  Tm  Tm11  1  0.324569  0.561114  0.672918  1
  Ir  Ir12  1  0.386696  0.250000  0.462330  1
  Ir  Ir13  1  0.613193  0.750000  0.540392  1
  Ir  Ir14  1  0.117258  0.750000  0.958553  1
  Os  Os15  1  0.883720  0.250000  0.037587  1
