# generated using pymatgen
data_Dy11YIn20
_symmetry_space_group_name_H-M   'P 1'
_cell_length_a   6.51990804
_cell_length_b   10.44959758
_cell_length_c   12.28152567
_cell_angle_alpha   89.96295863
_cell_angle_beta   89.99355591
_cell_angle_gamma   90.01025547
_symmetry_Int_Tables_number   1
_chemical_formula_structural   Dy11YIn20
_chemical_formula_sum   'Dy11 Y1 In20'
_cell_volume   836.74525012
_cell_formula_units_Z   1
loop_
 _symmetry_equiv_pos_site_id
 _symmetry_equiv_pos_as_xyz
  1  'x, y, z'
loop_
 _atom_site_type_symbol
 _atom_site_label
 _atom_site_symmetry_multiplicity
 _atom_site_fract_x
 _atom_site_fract_y
 _atom_site_fract_z
 _atom_site_occupancy
  Dy  Dy0  1  0.349759  0.749943  0.056150  1
  Dy  Dy1  1  0.150086  0.750027  0.556087  1
  Dy  Dy2  1  0.650168  0.250111  0.943851  1
  Dy  Dy3  1  0.849848  0.249898  0.443851  1
  Dy  Dy4  1  0.890632  0.493731  0.141879  1
  Dy  Dy5  1  0.609248  0.006223  0.641864  1
  Dy  Dy6  1  0.109343  0.993723  0.858148  1
  Dy  Dy7  1  0.390546  0.506327  0.357867  1
  Dy  Dy8  1  0.109322  0.506293  0.858084  1
  Dy  Dy9  1  0.390731  0.993728  0.358114  1
  Dy  Dy10  1  0.890637  0.006285  0.141849  1
  Y  Y11  1  0.609599  0.493706  0.642175  1
  In  In12  1  0.617033  0.750193  0.505044  1
  In  In13  1  0.882890  0.750073  0.005275  1
  In  In14  1  0.382781  0.249954  0.494605  1
  In  In15  1  0.117126  0.249962  0.994776  1
  In  In16  1  0.651029  0.749962  0.246271  1
  In  In17  1  0.849022  0.750340  0.746373  1
  In  In18  1  0.348708  0.249736  0.753836  1
  In  In19  1  0.151038  0.249909  0.253744  1
  In  In20  1  0.126280  0.750184  0.285336  1
  In  In21  1  0.373593  0.750212  0.785393  1
  In  In22  1  0.874115  0.249510  0.714775  1
  In  In23  1  0.626295  0.249954  0.214642  1
  In  In24  1  0.875656  0.544135  0.400882  1
  In  In25  1  0.624340  0.955879  0.901024  1
  In  In26  1  0.124349  0.044134  0.599007  1
  In  In27  1  0.375572  0.455804  0.098968  1
  In  In28  1  0.124363  0.455718  0.598890  1
  In  In29  1  0.375668  0.044139  0.099007  1
  In  In30  1  0.875745  0.955885  0.400929  1
  In  In31  1  0.624478  0.544320  0.901301  1
