# generated using pymatgen
data_Hf6Si3Ge
_symmetry_space_group_name_H-M   'P 1'
_cell_length_a   7.05209332
_cell_length_b   7.05209332
_cell_length_c   3.69693500
_cell_angle_alpha   90.00000000
_cell_angle_beta   90.00000000
_cell_angle_gamma   89.84652534
_symmetry_Int_Tables_number   1
_chemical_formula_structural   Hf6Si3Ge
_chemical_formula_sum   'Hf6 Si3 Ge1'
_cell_volume   183.85538674
_cell_formula_units_Z   1
loop_
 _symmetry_equiv_pos_site_id
 _symmetry_equiv_pos_as_xyz
  1  'x, y, z'
loop_
 _atom_site_type_symbol
 _atom_site_label
 _atom_site_symmetry_multiplicity
 _atom_site_fract_x
 _atom_site_fract_y
 _atom_site_fract_z
 _atom_site_occupancy
  Hf  Hf0  1  0.823076  0.672728  0.500000  1
  Hf  Hf1  1  0.330383  0.830383  0.500000  1
  Hf  Hf2  1  0.172728  0.323076  0.500000  1
  Hf  Hf3  1  0.672629  0.172629  0.500000  1
  Hf  Hf4  1  0.502392  0.499444  0.000000  1
  Hf  Hf5  1  0.999444  0.002392  0.000000  1
  Si  Si6  1  0.624193  0.875854  0.000000  1
  Si  Si7  1  0.375854  0.124193  0.000000  1
  Si  Si8  1  0.873189  0.373189  0.000000  1
  Ge  Ge9  1  0.126113  0.626113  0.000000  1
