# generated using pymatgen
data_Zr10Cu2Sn3BiPb2
_symmetry_space_group_name_H-M   'P 1'
_cell_length_a   8.74165202
_cell_length_b   8.73617098
_cell_length_c   5.92519900
_cell_angle_alpha   90.00000000
_cell_angle_beta   90.00000000
_cell_angle_gamma   119.88843508
_symmetry_Int_Tables_number   1
_chemical_formula_structural   Zr10Cu2Sn3BiPb2
_chemical_formula_sum   'Zr10 Cu2 Sn3 Bi1 Pb2'
_cell_volume   392.31539463
_cell_formula_units_Z   1
loop_
 _symmetry_equiv_pos_site_id
 _symmetry_equiv_pos_as_xyz
  1  'x, y, z'
loop_
 _atom_site_type_symbol
 _atom_site_label
 _atom_site_symmetry_multiplicity
 _atom_site_fract_x
 _atom_site_fract_y
 _atom_site_fract_z
 _atom_site_occupancy
  Zr  Zr0  1  0.672548  0.333734  0.499599  1
  Zr  Zr1  1  0.329879  0.666735  0.499676  1
  Zr  Zr2  1  0.329879  0.666735  0.000324  1
  Zr  Zr3  1  0.672548  0.333734  0.000401  1
  Zr  Zr4  1  0.741303  0.741379  0.250000  1
  Zr  Zr5  1  0.259036  0.992659  0.250000  1
  Zr  Zr6  1  0.992723  0.259573  0.250000  1
  Zr  Zr7  1  0.258936  0.264274  0.750000  1
  Zr  Zr8  1  0.741841  0.005604  0.750000  1
  Zr  Zr9  1  0.000338  0.735363  0.750000  1
  Cu  Cu10  1  0.000908  0.999722  0.501449  1
  Cu  Cu11  1  0.000908  0.999722  0.998551  1
  Sn  Sn12  1  0.610840  0.997720  0.250000  1
  Sn  Sn13  1  0.999037  0.611722  0.250000  1
  Sn  Sn14  1  0.001155  0.388877  0.750000  1
  Bi  Bi15  1  0.385876  0.384575  0.250000  1
  Pb  Pb16  1  0.614826  0.615704  0.750000  1
  Pb  Pb17  1  0.387421  0.002168  0.750000  1
