# generated using pymatgen
data_Rb3LaIr2O9
_symmetry_space_group_name_H-M   'P 1'
_cell_length_a   6.21919980
_cell_length_b   6.21985886
_cell_length_c   15.04474841
_cell_angle_alpha   89.78219368
_cell_angle_beta   89.78239605
_cell_angle_gamma   119.96741924
_symmetry_Int_Tables_number   1
_chemical_formula_structural   Rb3LaIr2O9
_chemical_formula_sum   'Rb6 La2 Ir4 O18'
_cell_volume   504.15091507
_cell_formula_units_Z   2
loop_
 _symmetry_equiv_pos_site_id
 _symmetry_equiv_pos_as_xyz
  1  'x, y, z'
loop_
 _atom_site_type_symbol
 _atom_site_label
 _atom_site_symmetry_multiplicity
 _atom_site_fract_x
 _atom_site_fract_y
 _atom_site_fract_z
 _atom_site_occupancy
  Rb  Rb0  1  0.998399  0.001421  0.249972  1
  Rb  Rb1  1  0.001601  0.998579  0.750028  1
  Rb  Rb2  1  0.329790  0.663987  0.102845  1
  Rb  Rb3  1  0.670210  0.336013  0.897155  1
  Rb  Rb4  1  0.664188  0.329995  0.602719  1
  Rb  Rb5  1  0.335812  0.670005  0.397281  1
  La  La6  1  0.000000  0.000000  0.000000  1
  La  La7  1  0.000000  0.000000  0.500000  1
  Ir  Ir8  1  0.670327  0.337946  0.343660  1
  Ir  Ir9  1  0.329673  0.662054  0.656340  1
  Ir  Ir10  1  0.337853  0.670234  0.843643  1
  Ir  Ir11  1  0.662147  0.329766  0.156357  1
  O  O12  1  0.640492  0.823035  0.908806  1
  O  O13  1  0.533192  0.467068  0.250001  1
  O  O14  1  0.176719  0.808929  0.588765  1
  O  O15  1  0.533353  0.067914  0.252102  1
  O  O16  1  0.190716  0.822999  0.911329  1
  O  O17  1  0.932428  0.466949  0.247903  1
  O  O18  1  0.359508  0.176965  0.091194  1
  O  O19  1  0.823281  0.191071  0.411235  1
  O  O20  1  0.466647  0.932086  0.747898  1
  O  O21  1  0.466808  0.532932  0.749999  1
  O  O22  1  0.823322  0.640729  0.408685  1
  O  O23  1  0.809090  0.626445  0.086336  1
  O  O24  1  0.626119  0.808752  0.586420  1
  O  O25  1  0.190910  0.373555  0.913664  1
  O  O26  1  0.067572  0.533051  0.752097  1
  O  O27  1  0.373881  0.191248  0.413580  1
  O  O28  1  0.176678  0.359271  0.591315  1
  O  O29  1  0.809284  0.177001  0.088671  1
