# generated using pymatgen
data_SrPr6IrI12
_symmetry_space_group_name_H-M   'P 1'
_cell_length_a   10.15450502
_cell_length_b   10.15450470
_cell_length_c   10.15450611
_cell_angle_alpha   106.56958027
_cell_angle_beta   106.56957713
_cell_angle_gamma   106.56958070
_symmetry_Int_Tables_number   1
_chemical_formula_structural   SrPr6IrI12
_chemical_formula_sum   'Sr1 Pr6 Ir1 I12'
_cell_volume   882.04947836
_cell_formula_units_Z   1
loop_
 _symmetry_equiv_pos_site_id
 _symmetry_equiv_pos_as_xyz
  1  'x, y, z'
loop_
 _atom_site_type_symbol
 _atom_site_label
 _atom_site_symmetry_multiplicity
 _atom_site_fract_x
 _atom_site_fract_y
 _atom_site_fract_z
 _atom_site_occupancy
  Sr  Sr0  1  0.500000  0.500000  0.500000  1
  Pr  Pr1  1  0.980672  0.904660  0.699228  1
  Pr  Pr2  1  0.019328  0.095340  0.300772  1
  Pr  Pr3  1  0.095340  0.300772  0.019328  1
  Pr  Pr4  1  0.300772  0.019328  0.095340  1
  Pr  Pr5  1  0.904660  0.699228  0.980672  1
  Pr  Pr6  1  0.699228  0.980672  0.904660  1
  Ir  Ir7  1  0.000000  0.000000  0.000000  1
  I  I8  1  0.547554  0.628622  0.855405  1
  I  I9  1  0.452446  0.371378  0.144595  1
  I  I10  1  0.321734  0.926296  0.774277  1
  I  I11  1  0.371378  0.144595  0.452446  1
  I  I12  1  0.926296  0.774277  0.321734  1
  I  I13  1  0.678266  0.073704  0.225723  1
  I  I14  1  0.073704  0.225723  0.678266  1
  I  I15  1  0.774277  0.321734  0.926296  1
  I  I16  1  0.225723  0.678266  0.073704  1
  I  I17  1  0.855405  0.547554  0.628622  1
  I  I18  1  0.144595  0.452446  0.371378  1
  I  I19  1  0.628622  0.855405  0.547554  1
