# generated using pymatgen
data_Lu5Ni18Pt
_symmetry_space_group_name_H-M   'P 1'
_cell_length_a   4.84134721
_cell_length_b   4.84134793
_cell_length_c   16.51652282
_cell_angle_alpha   81.57232721
_cell_angle_beta   81.57232638
_cell_angle_gamma   59.99999172
_symmetry_Int_Tables_number   1
_chemical_formula_structural   Lu5Ni18Pt
_chemical_formula_sum   'Lu5 Ni18 Pt1'
_cell_volume   330.42418639
_cell_formula_units_Z   1
loop_
 _symmetry_equiv_pos_site_id
 _symmetry_equiv_pos_as_xyz
  1  'x, y, z'
loop_
 _atom_site_type_symbol
 _atom_site_label
 _atom_site_symmetry_multiplicity
 _atom_site_fract_x
 _atom_site_fract_y
 _atom_site_fract_z
 _atom_site_occupancy
  Lu  Lu0  1  0.000000  0.000000  0.000000  1
  Lu  Lu1  1  0.922770  0.922770  0.231692  1
  Lu  Lu2  1  0.077230  0.077230  0.768308  1
  Lu  Lu3  1  0.849950  0.849950  0.450149  1
  Lu  Lu4  1  0.150050  0.150050  0.549851  1
  Ni  Ni5  1  0.748025  0.748026  0.755924  1
  Ni  Ni6  1  0.251974  0.251974  0.244077  1
  Ni  Ni7  1  0.666716  0.666716  0.999854  1
  Ni  Ni8  1  0.333284  0.333284  0.000146  1
  Ni  Ni9  1  0.585394  0.585394  0.243817  1
  Ni  Ni10  1  0.414606  0.414606  0.756183  1
  Ni  Ni11  1  0.376762  0.376762  0.365366  1
  Ni  Ni12  1  0.881108  0.376762  0.365366  1
  Ni  Ni13  1  0.376762  0.881108  0.365366  1
  Ni  Ni14  1  0.623238  0.623238  0.634634  1
  Ni  Ni15  1  0.118892  0.623238  0.634634  1
  Ni  Ni16  1  0.623238  0.118892  0.634634  1
  Ni  Ni17  1  0.459688  0.459688  0.120805  1
  Ni  Ni18  1  0.959820  0.459688  0.120805  1
  Ni  Ni19  1  0.459688  0.959820  0.120805  1
  Ni  Ni20  1  0.540312  0.540312  0.879195  1
  Ni  Ni21  1  0.040180  0.540312  0.879195  1
  Ni  Ni22  1  0.540312  0.040180  0.879195  1
  Pt  Pt23  1  0.500000  0.500000  0.500000  1
