# generated using pymatgen
data_Hf7Mn4WN2
_symmetry_space_group_name_H-M   'P 1'
_cell_length_a   8.47274928
_cell_length_b   8.46394685
_cell_length_c   8.46394542
_cell_angle_alpha   59.84460577
_cell_angle_beta   59.96559759
_cell_angle_gamma   59.96559389
_symmetry_Int_Tables_number   1
_chemical_formula_structural   Hf7Mn4WN2
_chemical_formula_sum   'Hf14 Mn8 W2 N4'
_cell_volume   428.46662884
_cell_formula_units_Z   2
loop_
 _symmetry_equiv_pos_site_id
 _symmetry_equiv_pos_as_xyz
  1  'x, y, z'
loop_
 _atom_site_type_symbol
 _atom_site_label
 _atom_site_symmetry_multiplicity
 _atom_site_fract_x
 _atom_site_fract_y
 _atom_site_fract_z
 _atom_site_occupancy
  Hf  Hf0  1  0.625000  0.125000  0.625000  1
  Hf  Hf1  1  0.625000  0.625000  0.125000  1
  Hf  Hf2  1  0.812948  0.811300  0.189528  1
  Hf  Hf3  1  0.186224  0.189528  0.811300  1
  Hf  Hf4  1  0.812948  0.189528  0.811300  1
  Hf  Hf5  1  0.186224  0.811300  0.189528  1
  Hf  Hf6  1  0.189078  0.810922  0.810922  1
  Hf  Hf7  1  0.814284  0.185716  0.185716  1
  Hf  Hf8  1  0.437052  0.438700  0.060472  1
  Hf  Hf9  1  0.063776  0.060472  0.438700  1
  Hf  Hf10  1  0.437052  0.060472  0.438700  1
  Hf  Hf11  1  0.063776  0.438700  0.060472  1
  Hf  Hf12  1  0.060922  0.439078  0.439078  1
  Hf  Hf13  1  0.435716  0.064284  0.064284  1
  Mn  Mn14  1  0.741698  0.425083  0.425083  1
  Mn  Mn15  1  0.414599  0.742141  0.428663  1
  Mn  Mn16  1  0.414599  0.428663  0.742141  1
  Mn  Mn17  1  0.408136  0.425083  0.425083  1
  Mn  Mn18  1  0.508302  0.824917  0.824917  1
  Mn  Mn19  1  0.835401  0.507859  0.821337  1
  Mn  Mn20  1  0.835401  0.821337  0.507859  1
  Mn  Mn21  1  0.841864  0.824917  0.824917  1
  W  W22  1  0.125000  0.625000  0.625000  1
  W  W23  1  0.625000  0.625000  0.625000  1
  N  N24  1  0.625000  0.125000  0.125000  1
  N  N25  1  0.125000  0.625000  0.125000  1
  N  N26  1  0.125000  0.125000  0.625000  1
  N  N27  1  0.125000  0.125000  0.125000  1
