# generated using pymatgen
data_Ho6Al23SiNiOs7
_symmetry_space_group_name_H-M   'P 1'
_cell_length_a   8.76365700
_cell_length_b   8.76365674
_cell_length_c   9.55848200
_cell_angle_alpha   90.00000000
_cell_angle_beta   90.00000000
_cell_angle_gamma   120.00000477
_symmetry_Int_Tables_number   1
_chemical_formula_structural   Ho6Al23SiNiOs7
_chemical_formula_sum   'Ho6 Al23 Si1 Ni1 Os7'
_cell_volume   635.75570682
_cell_formula_units_Z   1
loop_
 _symmetry_equiv_pos_site_id
 _symmetry_equiv_pos_as_xyz
  1  'x, y, z'
loop_
 _atom_site_type_symbol
 _atom_site_label
 _atom_site_symmetry_multiplicity
 _atom_site_fract_x
 _atom_site_fract_y
 _atom_site_fract_z
 _atom_site_occupancy
  Ho  Ho0  1  0.195296  0.390592  0.249140  1
  Ho  Ho1  1  0.805998  0.611997  0.751200  1
  Ho  Ho2  1  0.609408  0.804704  0.249140  1
  Ho  Ho3  1  0.388003  0.194002  0.751200  1
  Ho  Ho4  1  0.195296  0.804704  0.249140  1
  Ho  Ho5  1  0.805998  0.194002  0.751200  1
  Al  Al6  1  0.666667  0.333333  0.983262  1
  Al  Al7  1  0.666667  0.333333  0.519431  1
  Al  Al8  1  0.333333  0.666667  0.480781  1
  Al  Al9  1  0.162508  0.325014  0.575431  1
  Al  Al10  1  0.837517  0.675034  0.423490  1
  Al  Al11  1  0.674986  0.837492  0.575431  1
  Al  Al12  1  0.837906  0.675812  0.075666  1
  Al  Al13  1  0.324966  0.162483  0.423490  1
  Al  Al14  1  0.163397  0.326793  0.922032  1
  Al  Al15  1  0.162508  0.837492  0.575431  1
  Al  Al16  1  0.324188  0.162094  0.075666  1
  Al  Al17  1  0.837517  0.162483  0.423490  1
  Al  Al18  1  0.673207  0.836603  0.922032  1
  Al  Al19  1  0.837906  0.162094  0.075666  1
  Al  Al20  1  0.163397  0.836603  0.922032  1
  Al  Al21  1  0.561695  0.123390  0.248419  1
  Al  Al22  1  0.437897  0.875794  0.748839  1
  Al  Al23  1  0.876610  0.438305  0.248419  1
  Al  Al24  1  0.124206  0.562103  0.748839  1
  Al  Al25  1  0.561695  0.438305  0.248419  1
  Al  Al26  1  0.437897  0.562103  0.748839  1
  Al  Al27  1  0.000000  0.000000  0.242441  1
  Al  Al28  1  0.000000  0.000000  0.756664  1
  Si  Si29  1  0.333333  0.666667  0.036887  1
  Ni  Ni30  1  0.000000  0.000000  0.999009  1
  Os  Os31  1  0.496156  0.992313  0.000392  1
  Os  Os32  1  0.007687  0.503844  0.000392  1
  Os  Os33  1  0.500555  0.001110  0.499333  1
  Os  Os34  1  0.496156  0.503844  0.000392  1
  Os  Os35  1  0.998890  0.499445  0.499333  1
  Os  Os36  1  0.500555  0.499445  0.499333  1
  Os  Os37  1  0.000000  0.000000  0.499700  1
