# generated using pymatgen
data_Nd2ThScBi5
_symmetry_space_group_name_H-M   'P 1'
_cell_length_a   9.73277800
_cell_length_b   9.73670483
_cell_length_c   6.56919900
_cell_angle_alpha   90.00000000
_cell_angle_beta   90.00000000
_cell_angle_gamma   119.98665980
_symmetry_Int_Tables_number   1
_chemical_formula_structural   Nd2ThScBi5
_chemical_formula_sum   'Nd4 Th2 Sc2 Bi10'
_cell_volume   539.20043729
_cell_formula_units_Z   2
loop_
 _symmetry_equiv_pos_site_id
 _symmetry_equiv_pos_as_xyz
  1  'x, y, z'
loop_
 _atom_site_type_symbol
 _atom_site_label
 _atom_site_symmetry_multiplicity
 _atom_site_fract_x
 _atom_site_fract_y
 _atom_site_fract_z
 _atom_site_occupancy
  Nd  Nd0  1  0.382712  0.000000  0.750000  1
  Nd  Nd1  1  0.620396  0.620820  0.750000  1
  Nd  Nd2  1  0.621050  0.000000  0.250000  1
  Nd  Nd3  1  0.999576  0.379180  0.750000  1
  Th  Th4  1  0.999025  0.618944  0.250000  1
  Th  Th5  1  0.380081  0.381056  0.250000  1
  Sc  Sc6  1  0.998881  0.000000  0.998072  1
  Sc  Sc7  1  0.998881  0.000000  0.501928  1
  Bi  Bi8  1  0.000486  0.265485  0.250000  1
  Bi  Bi9  1  0.331850  0.665465  0.498972  1
  Bi  Bi10  1  0.666385  0.334535  0.001028  1
  Bi  Bi11  1  0.331850  0.665465  0.001028  1
  Bi  Bi12  1  0.267595  0.267186  0.750000  1
  Bi  Bi13  1  0.735316  0.000000  0.750000  1
  Bi  Bi14  1  0.000409  0.732814  0.750000  1
  Bi  Bi15  1  0.735001  0.734515  0.250000  1
  Bi  Bi16  1  0.264115  0.000000  0.250000  1
  Bi  Bi17  1  0.666385  0.334535  0.498972  1
