# generated using pymatgen
data_Dy3Tm(Al8Pt3)3
_symmetry_space_group_name_H-M   'P 1'
_cell_length_a   7.52095642
_cell_length_b   7.54489887
_cell_length_c   13.16343718
_cell_angle_alpha   84.58609131
_cell_angle_beta   79.12405213
_cell_angle_gamma   59.97994571
_symmetry_Int_Tables_number   1
_chemical_formula_structural   Dy3Tm(Al8Pt3)3
_chemical_formula_sum   'Dy3 Tm1 Al24 Pt9'
_cell_volume   635.13629163
_cell_formula_units_Z   1
loop_
 _symmetry_equiv_pos_site_id
 _symmetry_equiv_pos_as_xyz
  1  'x, y, z'
loop_
 _atom_site_type_symbol
 _atom_site_label
 _atom_site_symmetry_multiplicity
 _atom_site_fract_x
 _atom_site_fract_y
 _atom_site_fract_z
 _atom_site_occupancy
  Dy  Dy0  1  0.393525  0.168722  0.807814  1
  Dy  Dy1  1  0.606538  0.831308  0.192194  1
  Dy  Dy2  1  0.734061  0.498604  0.807619  1
  Tm  Tm3  1  0.265582  0.501394  0.192940  1
  Al  Al4  1  0.684434  0.833902  0.944356  1
  Al  Al5  1  0.315478  0.166548  0.055857  1
  Al  Al6  1  0.146528  0.832435  0.561268  1
  Al  Al7  1  0.853499  0.167542  0.438683  1
  Al  Al8  1  0.479428  0.166621  0.558465  1
  Al  Al9  1  0.520546  0.833411  0.441491  1
  Al  Al10  1  0.217218  0.165555  0.329166  1
  Al  Al11  1  0.782897  0.834718  0.670597  1
  Al  Al12  1  0.437402  0.506360  0.670718  1
  Al  Al13  1  0.562294  0.493650  0.329053  1
  Al  Al14  1  0.109482  0.159901  0.669607  1
  Al  Al15  1  0.890960  0.839761  0.330123  1
  Al  Al16  1  0.353090  0.499470  0.944688  1
  Al  Al17  1  0.646308  0.500519  0.055784  1
  Al  Al18  1  0.015747  0.167647  0.952601  1
  Al  Al19  1  0.984580  0.831973  0.047649  1
  Al  Al20  1  0.186807  0.499300  0.441309  1
  Al  Al21  1  0.813278  0.500693  0.558543  1
  Al  Al22  1  0.733720  0.164308  0.183353  1
  Al  Al23  1  0.265836  0.836083  0.816645  1
  Al  Al24  1  0.061764  0.631399  0.815484  1
  Al  Al25  1  0.938693  0.368637  0.184502  1
  Al  Al26  1  0.855436  0.041498  0.816038  1
  Al  Al27  1  0.144633  0.957962  0.183958  1
  Pt  Pt28  1  0.119906  0.491723  0.638905  1
  Pt  Pt29  1  0.880584  0.508313  0.360827  1
  Pt  Pt30  1  0.657067  0.171465  0.999928  1
  Pt  Pt31  1  0.342807  0.828561  0.000253  1
  Pt  Pt32  1  0.537401  0.167191  0.360899  1
  Pt  Pt33  1  0.462273  0.833195  0.638832  1
  Pt  Pt34  1  0.778537  0.175099  0.637342  1
  Pt  Pt35  1  0.221640  0.824471  0.362396  1
  Pt  Pt36  1  0.000025  0.500061  0.000115  1
