# generated using pymatgen
data_Pa2SnSe6
_symmetry_space_group_name_H-M   'P 1'
_cell_length_a   7.82796500
_cell_length_b   7.82796514
_cell_length_c   4.12001000
_cell_angle_alpha   90.00000000
_cell_angle_beta   90.00000000
_cell_angle_gamma   119.99999518
_symmetry_Int_Tables_number   1
_chemical_formula_structural   Pa2SnSe6
_chemical_formula_sum   'Pa2 Sn1 Se6'
_cell_volume   218.63852110
_cell_formula_units_Z   1
loop_
 _symmetry_equiv_pos_site_id
 _symmetry_equiv_pos_as_xyz
  1  'x, y, z'
loop_
 _atom_site_type_symbol
 _atom_site_label
 _atom_site_symmetry_multiplicity
 _atom_site_fract_x
 _atom_site_fract_y
 _atom_site_fract_z
 _atom_site_occupancy
  Pa  Pa0  1  0.666667  0.333333  0.500000  1
  Pa  Pa1  1  0.000000  0.000000  0.000000  1
  Sn  Sn2  1  0.333333  0.666667  0.500000  1
  Se  Se3  1  0.736939  0.746136  0.500000  1
  Se  Se4  1  0.253864  0.990803  0.500000  1
  Se  Se5  1  0.009197  0.263061  0.500000  1
  Se  Se6  1  0.415247  0.377128  0.000000  1
  Se  Se7  1  0.622872  0.038119  0.000000  1
  Se  Se8  1  0.961881  0.584753  0.000000  1
