# generated using pymatgen
data_CaHoGa2(Co3B)2
_symmetry_space_group_name_H-M   'P 1'
_cell_length_a   5.15561000
_cell_length_b   5.15560980
_cell_length_c   6.67590400
_cell_angle_alpha   90.00000000
_cell_angle_beta   90.00000000
_cell_angle_gamma   120.00000129
_symmetry_Int_Tables_number   1
_chemical_formula_structural   CaHoGa2(Co3B)2
_chemical_formula_sum   'Ca1 Ho1 Ga2 Co6 B2'
_cell_volume   153.67414545
_cell_formula_units_Z   1
loop_
 _symmetry_equiv_pos_site_id
 _symmetry_equiv_pos_as_xyz
  1  'x, y, z'
loop_
 _atom_site_type_symbol
 _atom_site_label
 _atom_site_symmetry_multiplicity
 _atom_site_fract_x
 _atom_site_fract_y
 _atom_site_fract_z
 _atom_site_occupancy
  Ca  Ca0  1  0.000000  0.000000  0.500000  1
  Ho  Ho1  1  0.000000  0.000000  0.000000  1
  Ga  Ga2  1  0.666667  0.333333  0.500000  1
  Ga  Ga3  1  0.333333  0.666667  0.500000  1
  Co  Co4  1  0.500000  0.500000  0.796466  1
  Co  Co5  1  0.500000  0.000000  0.796466  1
  Co  Co6  1  0.000000  0.500000  0.796466  1
  Co  Co7  1  0.500000  0.500000  0.203534  1
  Co  Co8  1  0.500000  0.000000  0.203534  1
  Co  Co9  1  0.000000  0.500000  0.203534  1
  B  B10  1  0.666667  0.333333  0.000000  1
  B  B11  1  0.333333  0.666667  0.000000  1
