# generated using pymatgen
data_Er6Th2MgInCo2
_symmetry_space_group_name_H-M   'P 1'
_cell_length_a   9.60624944
_cell_length_b   9.60625012
_cell_length_c   9.60122300
_cell_angle_alpha   60.01731313
_cell_angle_beta   60.01731081
_cell_angle_gamma   60.13154156
_symmetry_Int_Tables_number   1
_chemical_formula_structural   Er6Th2MgInCo2
_chemical_formula_sum   'Er12 Th4 Mg2 In2 Co4'
_cell_volume   627.28226833
_cell_formula_units_Z   2
loop_
 _symmetry_equiv_pos_site_id
 _symmetry_equiv_pos_as_xyz
  1  'x, y, z'
loop_
 _atom_site_type_symbol
 _atom_site_label
 _atom_site_symmetry_multiplicity
 _atom_site_fract_x
 _atom_site_fract_y
 _atom_site_fract_z
 _atom_site_occupancy
  Er  Er0  1  0.063244  0.436122  0.437836  1
  Er  Er1  1  0.436122  0.063244  0.062797  1
  Er  Er2  1  0.436122  0.063244  0.437836  1
  Er  Er3  1  0.063244  0.436122  0.062797  1
  Er  Er4  1  0.436128  0.436128  0.063872  1
  Er  Er5  1  0.062651  0.062651  0.437349  1
  Er  Er6  1  0.185473  0.815073  0.814736  1
  Er  Er7  1  0.815073  0.185473  0.184719  1
  Er  Er8  1  0.815073  0.185473  0.814736  1
  Er  Er9  1  0.185473  0.815073  0.184719  1
  Er  Er10  1  0.814347  0.814347  0.185653  1
  Er  Er11  1  0.185127  0.185127  0.814873  1
  Th  Th12  1  0.594862  0.594862  0.594245  1
  Th  Th13  1  0.594862  0.594862  0.216032  1
  Th  Th14  1  0.595403  0.214179  0.595210  1
  Th  Th15  1  0.214179  0.595403  0.595210  1
  Mg  Mg16  1  0.830084  0.510137  0.829890  1
  Mg  Mg17  1  0.510137  0.830084  0.829890  1
  In  In18  1  0.832226  0.832226  0.833326  1
  In  In19  1  0.832226  0.832226  0.502224  1
  Co  Co20  1  0.393529  0.393529  0.394423  1
  Co  Co21  1  0.393529  0.393529  0.818519  1
  Co  Co22  1  0.393687  0.817202  0.394556  1
  Co  Co23  1  0.817202  0.393687  0.394556  1
