# generated using pymatgen
data_Tb3Tm7Cd3Ru
_symmetry_space_group_name_H-M   'P 1'
_cell_length_a   9.52523400
_cell_length_b   9.52523433
_cell_length_c   9.75054700
_cell_angle_alpha   90.00000000
_cell_angle_beta   90.00000000
_cell_angle_gamma   119.99999886
_symmetry_Int_Tables_number   1
_chemical_formula_structural   Tb3Tm7Cd3Ru
_chemical_formula_sum   'Tb6 Tm14 Cd6 Ru2'
_cell_volume   766.14494188
_cell_formula_units_Z   2
loop_
 _symmetry_equiv_pos_site_id
 _symmetry_equiv_pos_as_xyz
  1  'x, y, z'
loop_
 _atom_site_type_symbol
 _atom_site_label
 _atom_site_symmetry_multiplicity
 _atom_site_fract_x
 _atom_site_fract_y
 _atom_site_fract_z
 _atom_site_occupancy
  Tb  Tb0  1  0.540404  0.459596  0.250000  1
  Tb  Tb1  1  0.540404  0.080809  0.250000  1
  Tb  Tb2  1  0.919191  0.459596  0.250000  1
  Tb  Tb3  1  0.459596  0.540404  0.750000  1
  Tb  Tb4  1  0.459596  0.919191  0.750000  1
  Tb  Tb5  1  0.080809  0.540404  0.750000  1
  Tm  Tm6  1  0.000000  0.000000  0.500000  1
  Tm  Tm7  1  0.000000  0.000000  0.000000  1
  Tm  Tm8  1  0.210047  0.789953  0.439968  1
  Tm  Tm9  1  0.210047  0.420095  0.439968  1
  Tm  Tm10  1  0.579905  0.789953  0.439968  1
  Tm  Tm11  1  0.789953  0.210047  0.560032  1
  Tm  Tm12  1  0.789953  0.579905  0.560032  1
  Tm  Tm13  1  0.420095  0.210047  0.560032  1
  Tm  Tm14  1  0.789953  0.210047  0.939968  1
  Tm  Tm15  1  0.789953  0.579905  0.939968  1
  Tm  Tm16  1  0.420095  0.210047  0.939968  1
  Tm  Tm17  1  0.210047  0.789953  0.060032  1
  Tm  Tm18  1  0.210047  0.420095  0.060032  1
  Tm  Tm19  1  0.579905  0.789953  0.060032  1
  Cd  Cd20  1  0.886147  0.113853  0.250000  1
  Cd  Cd21  1  0.886147  0.772294  0.250000  1
  Cd  Cd22  1  0.227706  0.113853  0.250000  1
  Cd  Cd23  1  0.113853  0.886147  0.750000  1
  Cd  Cd24  1  0.113853  0.227706  0.750000  1
  Cd  Cd25  1  0.772294  0.886147  0.750000  1
  Ru  Ru26  1  0.333333  0.666667  0.250000  1
  Ru  Ru27  1  0.666667  0.333333  0.750000  1
