# generated using pymatgen
data_Y4Th4Ag7As16Au
_symmetry_space_group_name_H-M   'P 1'
_cell_length_a   5.78435081
_cell_length_b   5.78609200
_cell_length_c   20.57664803
_cell_angle_alpha   90.00000000
_cell_angle_beta   89.95772914
_cell_angle_gamma   90.00000000
_symmetry_Int_Tables_number   1
_chemical_formula_structural   Y4Th4Ag7As16Au
_chemical_formula_sum   'Y4 Th4 Ag7 As16 Au1'
_cell_volume   688.67524108
_cell_formula_units_Z   1
loop_
 _symmetry_equiv_pos_site_id
 _symmetry_equiv_pos_as_xyz
  1  'x, y, z'
loop_
 _atom_site_type_symbol
 _atom_site_label
 _atom_site_symmetry_multiplicity
 _atom_site_fract_x
 _atom_site_fract_y
 _atom_site_fract_z
 _atom_site_occupancy
  Y  Y0  1  0.751681  0.493196  0.611791  1
  Y  Y1  1  0.249975  0.505211  0.389361  1
  Y  Y2  1  0.248319  0.493196  0.888209  1
  Y  Y3  1  0.750025  0.505211  0.110639  1
  Th  Th4  1  0.247946  0.997113  0.611122  1
  Th  Th5  1  0.749592  0.004766  0.389948  1
  Th  Th6  1  0.752054  0.997113  0.888878  1
  Th  Th7  1  0.250408  0.004766  0.110052  1
  Ag  Ag8  1  0.500000  0.742851  0.750000  1
  Ag  Ag9  1  0.000000  0.258306  0.250000  1
  Ag  Ag10  1  0.500000  0.258347  0.250000  1
  Ag  Ag11  1  0.000000  0.737025  0.750000  1
  Ag  Ag12  1  0.500000  0.243331  0.750000  1
  Ag  Ag13  1  0.000000  0.758458  0.250000  1
  Ag  Ag14  1  0.500000  0.758376  0.250000  1
  As  As15  1  0.748924  0.994190  0.655011  1
  As  As16  1  0.249812  0.005833  0.344750  1
  As  As17  1  0.251076  0.994190  0.844989  1
  As  As18  1  0.750188  0.005833  0.155250  1
  As  As19  1  0.250194  0.495385  0.656454  1
  As  As20  1  0.749835  0.505763  0.343318  1
  As  As21  1  0.749806  0.495385  0.843546  1
  As  As22  1  0.250165  0.505763  0.156682  1
  As  As23  1  0.001075  0.260460  0.500312  1
  As  As24  1  0.501024  0.740555  0.500606  1
  As  As25  1  0.998925  0.260460  0.999688  1
  As  As26  1  0.498976  0.740555  0.999394  1
  As  As27  1  0.998102  0.740571  0.500402  1
  As  As28  1  0.498143  0.260647  0.500531  1
  As  As29  1  0.001898  0.740571  0.999598  1
  As  As30  1  0.501857  0.260647  0.999469  1
  Au  Au31  1  0.000000  0.235932  0.750000  1
