# generated using pymatgen
data_Zr2Mn3Cr5P4
_symmetry_space_group_name_H-M   'P 1'
_cell_length_a   7.10817961
_cell_length_b   6.64743925
_cell_length_c   3.76529800
_cell_angle_alpha   90.00000000
_cell_angle_beta   90.00000000
_cell_angle_gamma   90.10575039
_symmetry_Int_Tables_number   1
_chemical_formula_structural   Zr2Mn3Cr5P4
_chemical_formula_sum   'Zr2 Mn3 Cr5 P4'
_cell_volume   177.91451618
_cell_formula_units_Z   1
loop_
 _symmetry_equiv_pos_site_id
 _symmetry_equiv_pos_as_xyz
  1  'x, y, z'
loop_
 _atom_site_type_symbol
 _atom_site_label
 _atom_site_symmetry_multiplicity
 _atom_site_fract_x
 _atom_site_fract_y
 _atom_site_fract_z
 _atom_site_occupancy
  Zr  Zr0  1  0.498409  0.500537  0.000000  1
  Zr  Zr1  1  0.000386  0.002899  0.500000  1
  Mn  Mn2  1  0.837192  0.422621  0.500000  1
  Mn  Mn3  1  0.341166  0.077085  0.000000  1
  Mn  Mn4  1  0.661845  0.923829  0.000000  1
  Cr  Cr5  1  0.602863  0.144346  0.500000  1
  Cr  Cr6  1  0.397378  0.851971  0.500000  1
  Cr  Cr7  1  0.103379  0.350743  0.000000  1
  Cr  Cr8  1  0.897306  0.648191  0.000000  1
  Cr  Cr9  1  0.156893  0.574797  0.500000  1
  P  P10  1  0.697922  0.727852  0.500000  1
  P  P11  1  0.305148  0.270263  0.500000  1
  P  P12  1  0.197977  0.775290  0.000000  1
  P  P13  1  0.802138  0.229576  0.000000  1
