# generated using pymatgen
data_TbY(Zr4Sn3)2
_symmetry_space_group_name_H-M   'P 1'
_cell_length_a   8.71524640
_cell_length_b   8.71524540
_cell_length_c   5.90340800
_cell_angle_alpha   90.00000000
_cell_angle_beta   90.00000000
_cell_angle_gamma   121.14528502
_symmetry_Int_Tables_number   1
_chemical_formula_structural   TbY(Zr4Sn3)2
_chemical_formula_sum   'Tb1 Y1 Zr8 Sn6'
_cell_volume   383.76387480
_cell_formula_units_Z   1
loop_
 _symmetry_equiv_pos_site_id
 _symmetry_equiv_pos_as_xyz
  1  'x, y, z'
loop_
 _atom_site_type_symbol
 _atom_site_label
 _atom_site_symmetry_multiplicity
 _atom_site_fract_x
 _atom_site_fract_y
 _atom_site_fract_z
 _atom_site_occupancy
  Tb  Tb0  1  0.771121  0.771121  0.250000  1
  Y  Y1  1  0.229349  0.229349  0.750000  1
  Zr  Zr2  1  0.999828  0.253629  0.250000  1
  Zr  Zr3  1  0.745986  0.999308  0.750000  1
  Zr  Zr4  1  0.334631  0.666142  0.499724  1
  Zr  Zr5  1  0.253629  0.999828  0.250000  1
  Zr  Zr6  1  0.666142  0.334631  0.499724  1
  Zr  Zr7  1  0.999308  0.745986  0.750000  1
  Zr  Zr8  1  0.334631  0.666142  0.000276  1
  Zr  Zr9  1  0.666142  0.334631  0.000276  1
  Sn  Sn10  1  0.609017  0.609017  0.750000  1
  Sn  Sn11  1  0.392674  0.996317  0.750000  1
  Sn  Sn12  1  0.606792  0.003836  0.250000  1
  Sn  Sn13  1  0.996317  0.392674  0.750000  1
  Sn  Sn14  1  0.390596  0.390596  0.250000  1
  Sn  Sn15  1  0.003836  0.606792  0.250000  1
