# generated using pymatgen
data_Er6Lu2ReOsBr8
_symmetry_space_group_name_H-M   'P 1'
_cell_length_a   8.84943284
_cell_length_b   8.88536965
_cell_length_c   6.52042893
_cell_angle_alpha   89.42381749
_cell_angle_beta   89.62758605
_cell_angle_gamma   89.26119270
_symmetry_Int_Tables_number   1
_chemical_formula_structural   Er6Lu2ReOsBr8
_chemical_formula_sum   'Er6 Lu2 Re1 Os1 Br8'
_cell_volume   512.62552011
_cell_formula_units_Z   1
loop_
 _symmetry_equiv_pos_site_id
 _symmetry_equiv_pos_as_xyz
  1  'x, y, z'
loop_
 _atom_site_type_symbol
 _atom_site_label
 _atom_site_symmetry_multiplicity
 _atom_site_fract_x
 _atom_site_fract_y
 _atom_site_fract_z
 _atom_site_occupancy
  Er  Er0  1  0.099255  0.751238  0.488194  1
  Er  Er1  1  0.900356  0.249446  0.510472  1
  Er  Er2  1  0.751326  0.902917  0.508019  1
  Er  Er3  1  0.248622  0.097048  0.490646  1
  Er  Er4  1  0.097451  0.247309  0.992232  1
  Er  Er5  1  0.902469  0.752649  0.009029  1
  Lu  Lu6  1  0.245630  0.902443  0.012871  1
  Lu  Lu7  1  0.753560  0.097969  0.988508  1
  Re  Re8  1  0.994168  0.005407  0.250084  1
  Os  Os9  1  0.005921  0.994330  0.750662  1
  Br  Br10  1  0.421497  0.816135  0.404697  1
  Br  Br11  1  0.579056  0.183678  0.596362  1
  Br  Br12  1  0.184607  0.579522  0.093257  1
  Br  Br13  1  0.815444  0.420197  0.905805  1
  Br  Br14  1  0.418538  0.191536  0.095954  1
  Br  Br15  1  0.582093  0.808605  0.903287  1
  Br  Br16  1  0.806861  0.583274  0.403673  1
  Br  Br17  1  0.193145  0.416297  0.596247  1
