# generated using pymatgen
data_Sc4ZnIr2Ru
_symmetry_space_group_name_H-M   'P 1'
_cell_length_a   6.44585600
_cell_length_b   4.59754000
_cell_length_c   9.23658300
_cell_angle_alpha   90.00000000
_cell_angle_beta   90.00000000
_cell_angle_gamma   90.00000000
_symmetry_Int_Tables_number   1
_chemical_formula_structural   Sc4ZnIr2Ru
_chemical_formula_sum   'Sc8 Zn2 Ir4 Ru2'
_cell_volume   273.72688347
_cell_formula_units_Z   2
loop_
 _symmetry_equiv_pos_site_id
 _symmetry_equiv_pos_as_xyz
  1  'x, y, z'
loop_
 _atom_site_type_symbol
 _atom_site_label
 _atom_site_symmetry_multiplicity
 _atom_site_fract_x
 _atom_site_fract_y
 _atom_site_fract_z
 _atom_site_occupancy
  Sc  Sc0  1  0.995712  0.750000  0.120852  1
  Sc  Sc1  1  0.504057  0.750000  0.120885  1
  Sc  Sc2  1  0.004056  0.250000  0.379115  1
  Sc  Sc3  1  0.495713  0.250000  0.379147  1
  Sc  Sc4  1  0.497553  0.750000  0.628784  1
  Sc  Sc5  1  0.002686  0.750000  0.628758  1
  Sc  Sc6  1  0.502685  0.250000  0.871242  1
  Sc  Sc7  1  0.997552  0.250000  0.871216  1
  Zn  Zn8  1  0.249911  0.250000  0.124409  1
  Zn  Zn9  1  0.749910  0.750000  0.375590  1
  Ir  Ir10  1  0.749923  0.250000  0.127019  1
  Ir  Ir11  1  0.249922  0.750000  0.372981  1
  Ir  Ir12  1  0.750084  0.250000  0.622359  1
  Ir  Ir13  1  0.250083  0.750000  0.877640  1
  Ru  Ru14  1  0.250079  0.250000  0.624207  1
  Ru  Ru15  1  0.750078  0.750000  0.875792  1
