# generated using pymatgen
data_Nb3CrOs2N
_symmetry_space_group_name_H-M   'P 1'
_cell_length_a   8.28981355
_cell_length_b   8.28981331
_cell_length_c   8.28981400
_cell_angle_alpha   59.99999724
_cell_angle_beta   59.99999821
_cell_angle_gamma   59.99999783
_symmetry_Int_Tables_number   1
_chemical_formula_structural   Nb3CrOs2N
_chemical_formula_sum   'Nb12 Cr4 Os8 N4'
_cell_volume   402.82765608
_cell_formula_units_Z   4
loop_
 _symmetry_equiv_pos_site_id
 _symmetry_equiv_pos_as_xyz
  1  'x, y, z'
loop_
 _atom_site_type_symbol
 _atom_site_label
 _atom_site_symmetry_multiplicity
 _atom_site_fract_x
 _atom_site_fract_y
 _atom_site_fract_z
 _atom_site_occupancy
  Nb  Nb0  1  0.818160  0.431840  0.431840  1
  Nb  Nb1  1  0.431841  0.818159  0.818159  1
  Nb  Nb2  1  0.431840  0.818160  0.431840  1
  Nb  Nb3  1  0.431840  0.431840  0.818160  1
  Nb  Nb4  1  0.818159  0.431841  0.818159  1
  Nb  Nb5  1  0.818159  0.818159  0.431841  1
  Nb  Nb6  1  0.568159  0.181841  0.568159  1
  Nb  Nb7  1  0.181840  0.568160  0.181840  1
  Nb  Nb8  1  0.181841  0.568159  0.568159  1
  Nb  Nb9  1  0.568159  0.568159  0.181841  1
  Nb  Nb10  1  0.568160  0.181840  0.181840  1
  Nb  Nb11  1  0.181840  0.181840  0.568160  1
  Cr  Cr12  1  0.000000  0.000000  0.000000  1
  Cr  Cr13  1  0.000000  0.000000  0.500000  1
  Cr  Cr14  1  0.500000  0.000000  0.000000  1
  Cr  Cr15  1  0.000000  0.500000  0.000000  1
  Os  Os16  1  0.206715  0.206715  0.206715  1
  Os  Os17  1  0.206715  0.206715  0.879855  1
  Os  Os18  1  0.879855  0.206715  0.206715  1
  Os  Os19  1  0.206715  0.879855  0.206715  1
  Os  Os20  1  0.793284  0.793284  0.793284  1
  Os  Os21  1  0.793284  0.793284  0.120144  1
  Os  Os22  1  0.793284  0.120144  0.793284  1
  Os  Os23  1  0.120144  0.793284  0.793284  1
  N  N24  1  0.500000  0.500000  0.500000  1
  N  N25  1  0.500000  0.500000  0.999998  1
  N  N26  1  0.999998  0.500000  0.500000  1
  N  N27  1  0.500000  0.999998  0.500000  1
