# generated using pymatgen
data_Ba3(ScS3)2
_symmetry_space_group_name_H-M   'P 1'
_cell_length_a   8.33520317
_cell_length_b   8.33520237
_cell_length_c   8.33520296
_cell_angle_alpha   93.64350138
_cell_angle_beta   93.64350079
_cell_angle_gamma   93.64349587
_symmetry_Int_Tables_number   1
_chemical_formula_structural   Ba3(ScS3)2
_chemical_formula_sum   'Ba6 Sc4 S12'
_cell_volume   575.42514565
_cell_formula_units_Z   2
loop_
 _symmetry_equiv_pos_site_id
 _symmetry_equiv_pos_as_xyz
  1  'x, y, z'
loop_
 _atom_site_type_symbol
 _atom_site_label
 _atom_site_symmetry_multiplicity
 _atom_site_fract_x
 _atom_site_fract_y
 _atom_site_fract_z
 _atom_site_occupancy
  Ba  Ba0  1  0.369168  0.750000  0.130832  1
  Ba  Ba1  1  0.130832  0.369168  0.750000  1
  Ba  Ba2  1  0.750000  0.130832  0.369168  1
  Ba  Ba3  1  0.630832  0.250000  0.869168  1
  Ba  Ba4  1  0.869168  0.630832  0.250000  1
  Ba  Ba5  1  0.250000  0.869168  0.630832  1
  Sc  Sc6  1  0.500000  0.500000  0.500000  1
  Sc  Sc7  1  0.000000  0.000000  0.000000  1
  Sc  Sc8  1  0.250000  0.250000  0.250000  1
  Sc  Sc9  1  0.750000  0.750000  0.750000  1
  S  S10  1  0.529876  0.405852  0.202951  1
  S  S11  1  0.202951  0.529876  0.405852  1
  S  S12  1  0.405852  0.202951  0.529876  1
  S  S13  1  0.970124  0.297049  0.094148  1
  S  S14  1  0.094148  0.970124  0.297049  1
  S  S15  1  0.297049  0.094148  0.970124  1
  S  S16  1  0.470124  0.594148  0.797049  1
  S  S17  1  0.797049  0.470124  0.594148  1
  S  S18  1  0.594148  0.797049  0.470124  1
  S  S19  1  0.029876  0.702951  0.905852  1
  S  S20  1  0.702951  0.905852  0.029876  1
  S  S21  1  0.905852  0.029876  0.702951  1
