# generated using pymatgen
data_Er4Zn5Ni9
_symmetry_space_group_name_H-M   'P 1'
_cell_length_a   5.11036559
_cell_length_b   5.11036463
_cell_length_c   12.21830305
_cell_angle_alpha   77.92878010
_cell_angle_beta   77.92878358
_cell_angle_gamma   60.00000183
_symmetry_Int_Tables_number   1
_chemical_formula_structural   Er4Zn5Ni9
_chemical_formula_sum   'Er4 Zn5 Ni9'
_cell_volume   268.16298527
_cell_formula_units_Z   1
loop_
 _symmetry_equiv_pos_site_id
 _symmetry_equiv_pos_as_xyz
  1  'x, y, z'
loop_
 _atom_site_type_symbol
 _atom_site_label
 _atom_site_symmetry_multiplicity
 _atom_site_fract_x
 _atom_site_fract_y
 _atom_site_fract_z
 _atom_site_occupancy
  Er  Er0  1  0.952878  0.952878  0.141366  1
  Er  Er1  1  0.047122  0.047122  0.858634  1
  Er  Er2  1  0.855096  0.855096  0.434711  1
  Er  Er3  1  0.144904  0.144904  0.565289  1
  Zn  Zn4  1  0.500000  0.500000  0.500000  1
  Zn  Zn5  1  0.722579  0.722579  0.832264  1
  Zn  Zn6  1  0.277421  0.277421  0.167736  1
  Zn  Zn7  1  0.610509  0.610509  0.168471  1
  Zn  Zn8  1  0.389491  0.389491  0.831529  1
  Ni  Ni9  1  0.000000  0.500000  0.000000  1
  Ni  Ni10  1  0.500000  0.000000  0.000000  1
  Ni  Ni11  1  0.500000  0.500000  0.000000  1
  Ni  Ni12  1  0.385717  0.385717  0.334450  1
  Ni  Ni13  1  0.894115  0.385717  0.334450  1
  Ni  Ni14  1  0.385717  0.894115  0.334450  1
  Ni  Ni15  1  0.614283  0.614283  0.665550  1
  Ni  Ni16  1  0.105885  0.614283  0.665550  1
  Ni  Ni17  1  0.614283  0.105885  0.665550  1
