# generated using pymatgen
data_Li3Nd5(P3Rh4)4
_symmetry_space_group_name_H-M   'P 1'
_cell_length_a   12.69779700
_cell_length_b   12.69779695
_cell_length_c   3.94366900
_cell_angle_alpha   90.00000000
_cell_angle_beta   90.00000000
_cell_angle_gamma   119.99999754
_symmetry_Int_Tables_number   1
_chemical_formula_structural   Li3Nd5(P3Rh4)4
_chemical_formula_sum   'Li3 Nd5 P12 Rh16'
_cell_volume   550.66548542
_cell_formula_units_Z   1
loop_
 _symmetry_equiv_pos_site_id
 _symmetry_equiv_pos_as_xyz
  1  'x, y, z'
loop_
 _atom_site_type_symbol
 _atom_site_label
 _atom_site_symmetry_multiplicity
 _atom_site_fract_x
 _atom_site_fract_y
 _atom_site_fract_z
 _atom_site_occupancy
  Li  Li0  1  0.000000  0.441194  0.500000  1
  Li  Li1  1  0.558806  0.558806  0.500000  1
  Li  Li2  1  0.441194  0.000000  0.500000  1
  Nd  Nd3  1  0.333333  0.666667  0.500000  1
  Nd  Nd4  1  0.666667  0.333333  0.500000  1
  Nd  Nd5  1  0.000000  0.808858  0.000000  1
  Nd  Nd6  1  0.191142  0.191142  0.000000  1
  Nd  Nd7  1  0.808858  0.000000  0.000000  1
  P  P8  1  0.000000  0.627516  0.500000  1
  P  P9  1  0.372484  0.372484  0.500000  1
  P  P10  1  0.627516  0.000000  0.500000  1
  P  P11  1  0.518141  0.690380  0.000000  1
  P  P12  1  0.309620  0.827761  0.000000  1
  P  P13  1  0.172239  0.481859  0.000000  1
  P  P14  1  0.481859  0.172239  0.000000  1
  P  P15  1  0.690380  0.518141  0.000000  1
  P  P16  1  0.827761  0.309620  0.000000  1
  P  P17  1  0.000000  0.182553  0.500000  1
  P  P18  1  0.817447  0.817447  0.500000  1
  P  P19  1  0.182553  0.000000  0.500000  1
  Rh  Rh20  1  0.511145  0.872072  0.000000  1
  Rh  Rh21  1  0.127928  0.639074  0.000000  1
  Rh  Rh22  1  0.360926  0.488855  0.000000  1
  Rh  Rh23  1  0.488855  0.360926  0.000000  1
  Rh  Rh24  1  0.872072  0.511145  0.000000  1
  Rh  Rh25  1  0.639074  0.127928  0.000000  1
  Rh  Rh26  1  0.000000  0.284792  0.000000  1
  Rh  Rh27  1  0.715208  0.715208  0.000000  1
  Rh  Rh28  1  0.284792  0.000000  0.000000  1
  Rh  Rh29  1  0.622010  0.801566  0.500000  1
  Rh  Rh30  1  0.198434  0.820445  0.500000  1
  Rh  Rh31  1  0.179555  0.377990  0.500000  1
  Rh  Rh32  1  0.377990  0.179555  0.500000  1
  Rh  Rh33  1  0.801566  0.622010  0.500000  1
  Rh  Rh34  1  0.820445  0.198434  0.500000  1
  Rh  Rh35  1  0.000000  0.000000  0.500000  1
