# generated using pymatgen
data_Zr10Sn6Te
_symmetry_space_group_name_H-M   'P 1'
_cell_length_a   5.93732003
_cell_length_b   8.69682651
_cell_length_c   8.69636604
_cell_angle_alpha   120.00176722
_cell_angle_beta   90.00330780
_cell_angle_gamma   89.99337636
_symmetry_Int_Tables_number   1
_chemical_formula_structural   Zr10Sn6Te
_chemical_formula_sum   'Zr10 Sn6 Te1'
_cell_volume   388.87674361
_cell_formula_units_Z   1
loop_
 _symmetry_equiv_pos_site_id
 _symmetry_equiv_pos_as_xyz
  1  'x, y, z'
loop_
 _atom_site_type_symbol
 _atom_site_label
 _atom_site_symmetry_multiplicity
 _atom_site_fract_x
 _atom_site_fract_y
 _atom_site_fract_z
 _atom_site_occupancy
  Zr  Zr0  1  0.500001  0.333325  0.666650  1
  Zr  Zr1  1  0.500001  0.666675  0.333350  1
  Zr  Zr2  1  0.000003  0.666659  0.333336  1
  Zr  Zr3  1  0.000003  0.333323  0.666664  1
  Zr  Zr4  1  0.772409  0.266606  0.000000  1
  Zr  Zr5  1  0.772433  0.733381  0.733363  1
  Zr  Zr6  1  0.772433  0.000017  0.266637  1
  Zr  Zr7  1  0.227559  0.733372  0.000000  1
  Zr  Zr8  1  0.227581  0.266627  0.266616  1
  Zr  Zr9  1  0.227581  0.000012  0.733384  1
  Sn  Sn10  1  0.744403  0.611130  0.000000  1
  Sn  Sn11  1  0.744382  0.388886  0.388886  1
  Sn  Sn12  1  0.744382  0.000000  0.611114  1
  Sn  Sn13  1  0.255619  0.388898  0.000000  1
  Sn  Sn14  1  0.255606  0.611125  0.611133  1
  Sn  Sn15  1  0.255606  0.999992  0.388867  1
  Te  Te16  1  0.499997  0.999974  0.000000  1
