# generated using pymatgen
data_Hf6GaBiPb
_symmetry_space_group_name_H-M   'P 1'
_cell_length_a   7.71998000
_cell_length_b   7.71997881
_cell_length_c   3.88819700
_cell_angle_alpha   90.00000000
_cell_angle_beta   90.00000000
_cell_angle_gamma   119.99999653
_symmetry_Int_Tables_number   1
_chemical_formula_structural   Hf6GaBiPb
_chemical_formula_sum   'Hf6 Ga1 Bi1 Pb1'
_cell_volume   200.68328029
_cell_formula_units_Z   1
loop_
 _symmetry_equiv_pos_site_id
 _symmetry_equiv_pos_as_xyz
  1  'x, y, z'
loop_
 _atom_site_type_symbol
 _atom_site_label
 _atom_site_symmetry_multiplicity
 _atom_site_fract_x
 _atom_site_fract_y
 _atom_site_fract_z
 _atom_site_occupancy
  Hf  Hf0  1  0.611852  0.999311  0.500000  1
  Hf  Hf1  1  0.387458  0.388148  0.500000  1
  Hf  Hf2  1  0.000689  0.612542  0.500000  1
  Hf  Hf3  1  0.238982  0.997405  0.000000  1
  Hf  Hf4  1  0.758424  0.761018  0.000000  1
  Hf  Hf5  1  0.002595  0.241576  0.000000  1
  Ga  Ga6  1  0.000000  0.000000  0.500000  1
  Bi  Bi7  1  0.666667  0.333333  0.000000  1
  Pb  Pb8  1  0.333333  0.666667  0.000000  1
