# generated using pymatgen
data_Tb3EuY3RhI12
_symmetry_space_group_name_H-M   'P 1'
_cell_length_a   9.82882291
_cell_length_b   9.82882205
_cell_length_c   9.82882199
_cell_angle_alpha   106.54045688
_cell_angle_beta   106.54045220
_cell_angle_gamma   106.54045660
_symmetry_Int_Tables_number   1
_chemical_formula_structural   Tb3EuY3RhI12
_chemical_formula_sum   'Tb3 Eu1 Y3 Rh1 I12'
_cell_volume   800.47609921
_cell_formula_units_Z   1
loop_
 _symmetry_equiv_pos_site_id
 _symmetry_equiv_pos_as_xyz
  1  'x, y, z'
loop_
 _atom_site_type_symbol
 _atom_site_label
 _atom_site_symmetry_multiplicity
 _atom_site_fract_x
 _atom_site_fract_y
 _atom_site_fract_z
 _atom_site_occupancy
  Tb  Tb0  1  0.089592  0.016868  0.295340  1
  Tb  Tb1  1  0.016868  0.295340  0.089592  1
  Tb  Tb2  1  0.295340  0.089592  0.016868  1
  Eu  Eu3  1  0.500314  0.500314  0.500314  1
  Y  Y4  1  0.909761  0.982452  0.703432  1
  Y  Y5  1  0.982452  0.703432  0.909761  1
  Y  Y6  1  0.703432  0.909761  0.982452  1
  Rh  Rh7  1  0.999826  0.999826  0.999826  1
  I  I8  1  0.554245  0.862870  0.632511  1
  I  I9  1  0.862870  0.632511  0.554245  1
  I  I10  1  0.632511  0.554245  0.862870  1
  I  I11  1  0.446515  0.138050  0.368153  1
  I  I12  1  0.138050  0.368153  0.446515  1
  I  I13  1  0.368153  0.446515  0.138050  1
  I  I14  1  0.675456  0.227216  0.076946  1
  I  I15  1  0.227216  0.076946  0.675456  1
  I  I16  1  0.076946  0.675456  0.227216  1
  I  I17  1  0.325139  0.772080  0.923233  1
  I  I18  1  0.772080  0.923233  0.325139  1
  I  I19  1  0.923233  0.325139  0.772080  1
