# generated using pymatgen
data_Th3Sb25
_symmetry_space_group_name_H-M   'P 1'
_cell_length_a   4.28627600
_cell_length_b   13.59142096
_cell_length_c   15.26855597
_cell_angle_alpha   79.45759129
_cell_angle_beta   90.00000000
_cell_angle_gamma   90.00000000
_symmetry_Int_Tables_number   1
_chemical_formula_structural   Th3Sb25
_chemical_formula_sum   'Th3 Sb25'
_cell_volume   874.47899809
_cell_formula_units_Z   1
loop_
 _symmetry_equiv_pos_site_id
 _symmetry_equiv_pos_as_xyz
  1  'x, y, z'
loop_
 _atom_site_type_symbol
 _atom_site_label
 _atom_site_symmetry_multiplicity
 _atom_site_fract_x
 _atom_site_fract_y
 _atom_site_fract_z
 _atom_site_occupancy
  Th  Th0  1  0.250000  0.662808  0.564965  1
  Th  Th1  1  0.750000  0.313090  0.438738  1
  Th  Th2  1  0.250000  0.381231  0.775083  1
  Sb  Sb3  1  0.750000  0.708178  0.190300  1
  Sb  Sb4  1  0.250000  0.886412  0.393773  1
  Sb  Sb5  1  0.750000  0.078976  0.597998  1
  Sb  Sb6  1  0.250000  0.599571  0.849478  1
  Sb  Sb7  1  0.750000  0.377605  0.200548  1
  Sb  Sb8  1  0.250000  0.414148  0.558053  1
  Sb  Sb9  1  0.750000  0.552278  0.454679  1
  Sb  Sb10  1  0.250000  0.747646  0.041883  1
  Sb  Sb11  1  0.750000  0.277036  0.935528  1
  Sb  Sb12  1  0.250000  0.399695  0.001489  1
  Sb  Sb13  1  0.750000  0.597310  0.993231  1
  Sb  Sb14  1  0.250000  0.813093  0.737184  1
  Sb  Sb15  1  0.750000  0.155655  0.275779  1
  Sb  Sb16  1  0.250000  0.177555  0.139548  1
  Sb  Sb17  1  0.750000  0.839214  0.866761  1
  Sb  Sb18  1  0.250000  0.686765  0.338356  1
  Sb  Sb19  1  0.750000  0.276491  0.660663  1
  Sb  Sb20  1  0.250000  0.129715  0.780324  1
  Sb  Sb21  1  0.750000  0.914233  0.215000  1
  Sb  Sb22  1  0.250000  0.453967  0.298228  1
  Sb  Sb23  1  0.750000  0.555097  0.708740  1
  Sb  Sb24  1  0.250000  0.126108  0.459844  1
  Sb  Sb25  1  0.750000  0.854039  0.534490  1
  Sb  Sb26  1  0.250000  0.977661  0.083530  1
  Sb  Sb27  1  0.750000  0.044427  0.905810  1
