# generated using pymatgen
data_BaMnFe2Sb12Os
_symmetry_space_group_name_H-M   'P 1'
_cell_length_a   8.08619540
_cell_length_b   8.13139816
_cell_length_c   8.13311530
_cell_angle_alpha   109.78258922
_cell_angle_beta   109.48970901
_cell_angle_gamma   109.47807331
_symmetry_Int_Tables_number   1
_chemical_formula_structural   BaMnFe2Sb12Os
_chemical_formula_sum   'Ba1 Mn1 Fe2 Sb12 Os1'
_cell_volume   409.94316013
_cell_formula_units_Z   1
loop_
 _symmetry_equiv_pos_site_id
 _symmetry_equiv_pos_as_xyz
  1  'x, y, z'
loop_
 _atom_site_type_symbol
 _atom_site_label
 _atom_site_symmetry_multiplicity
 _atom_site_fract_x
 _atom_site_fract_y
 _atom_site_fract_z
 _atom_site_occupancy
  Ba  Ba0  1  0.000000  0.000000  0.000000  1
  Mn  Mn1  1  0.500000  0.500000  0.500000  1
  Fe  Fe2  1  0.000000  0.000000  0.500000  1
  Fe  Fe3  1  0.000000  0.500000  0.000000  1
  Sb  Sb4  1  0.333155  0.177196  0.832955  1
  Sb  Sb5  1  0.666845  0.822804  0.167045  1
  Sb  Sb6  1  0.666820  0.498413  0.848908  1
  Sb  Sb7  1  0.333180  0.501587  0.151092  1
  Sb  Sb8  1  0.171455  0.836197  0.335197  1
  Sb  Sb9  1  0.828545  0.163803  0.664803  1
  Sb  Sb10  1  0.497588  0.844447  0.656267  1
  Sb  Sb11  1  0.502412  0.155553  0.343733  1
  Sb  Sb12  1  0.844482  0.344202  0.177160  1
  Sb  Sb13  1  0.155518  0.655798  0.822840  1
  Sb  Sb14  1  0.848838  0.667263  0.498662  1
  Sb  Sb15  1  0.151162  0.332737  0.501338  1
  Os  Os16  1  0.500000  0.000000  0.000000  1
