# generated using pymatgen
data_Tm5LuV2O12
_symmetry_space_group_name_H-M   'P 1'
_cell_length_a   6.44112737
_cell_length_b   6.44130877
_cell_length_c   6.44725209
_cell_angle_alpha   92.23894295
_cell_angle_beta   92.22068913
_cell_angle_gamma   92.27831829
_symmetry_Int_Tables_number   1
_chemical_formula_structural   Tm5LuV2O12
_chemical_formula_sum   'Tm5 Lu1 V2 O12'
_cell_volume   266.85875936
_cell_formula_units_Z   1
loop_
 _symmetry_equiv_pos_site_id
 _symmetry_equiv_pos_as_xyz
  1  'x, y, z'
loop_
 _atom_site_type_symbol
 _atom_site_label
 _atom_site_symmetry_multiplicity
 _atom_site_fract_x
 _atom_site_fract_y
 _atom_site_fract_z
 _atom_site_occupancy
  Tm  Tm0  1  0.436805  0.745982  0.929263  1
  Tm  Tm1  1  0.254169  0.071153  0.563760  1
  Tm  Tm2  1  0.071059  0.563144  0.253961  1
  Tm  Tm3  1  0.928629  0.436347  0.746400  1
  Tm  Tm4  1  0.746223  0.929398  0.436078  1
  Lu  Lu5  1  0.563350  0.253914  0.070983  1
  V  V6  1  0.500172  0.499684  0.499799  1
  V  V7  1  0.000133  0.000428  0.000216  1
  O  O8  1  0.083858  0.695252  0.929160  1
  O  O9  1  0.305773  0.072358  0.917767  1
  O  O10  1  0.195541  0.408640  0.538064  1
  O  O11  1  0.071088  0.916266  0.305131  1
  O  O12  1  0.590897  0.460255  0.805627  1
  O  O13  1  0.461948  0.804487  0.591655  1
  O  O14  1  0.538055  0.195373  0.406282  1
  O  O15  1  0.409323  0.536341  0.194438  1
  O  O16  1  0.929249  0.083624  0.694910  1
  O  O17  1  0.804497  0.591469  0.462187  1
  O  O18  1  0.694954  0.930694  0.083013  1
  O  O19  1  0.914274  0.305190  0.071308  1
