# generated using pymatgen
data_Pr8HoThIr4
_symmetry_space_group_name_H-M   'P 1'
_cell_length_a   6.72299698
_cell_length_b   7.29355583
_cell_length_c   9.08340569
_cell_angle_alpha   96.51493808
_cell_angle_beta   111.71994658
_cell_angle_gamma   90.00000398
_symmetry_Int_Tables_number   1
_chemical_formula_structural   Pr8HoThIr4
_chemical_formula_sum   'Pr8 Ho1 Th1 Ir4'
_cell_volume   410.68131218
_cell_formula_units_Z   1
loop_
 _symmetry_equiv_pos_site_id
 _symmetry_equiv_pos_as_xyz
  1  'x, y, z'
loop_
 _atom_site_type_symbol
 _atom_site_label
 _atom_site_symmetry_multiplicity
 _atom_site_fract_x
 _atom_site_fract_y
 _atom_site_fract_z
 _atom_site_occupancy
  Pr  Pr0  1  0.980301  0.926378  0.184115  1
  Pr  Pr1  1  0.796186  0.573622  0.815885  1
  Pr  Pr2  1  0.018053  0.080040  0.816623  1
  Pr  Pr3  1  0.201429  0.419960  0.183377  1
  Pr  Pr4  1  0.649890  0.814094  0.434522  1
  Pr  Pr5  1  0.215368  0.685906  0.565478  1
  Pr  Pr6  1  0.356582  0.186836  0.572535  1
  Pr  Pr7  1  0.784048  0.313164  0.427465  1
  Ho  Ho8  1  0.563308  0.250000  0.000000  1
  Th  Th9  1  0.433572  0.750000  0.000000  1
  Ir  Ir10  1  0.800106  0.572869  0.206315  1
  Ir  Ir11  1  0.593792  0.927131  0.793685  1
  Ir  Ir12  1  0.199962  0.433646  0.792558  1
  Ir  Ir13  1  0.407403  0.066354  0.207442  1
