# generated using pymatgen
data_Pr3PaZn2Rh3
_symmetry_space_group_name_H-M   'P 1'
_cell_length_a   7.59795948
_cell_length_b   7.59795954
_cell_length_c   4.07214000
_cell_angle_alpha   90.00000000
_cell_angle_beta   90.00000000
_cell_angle_gamma   120.56681318
_symmetry_Int_Tables_number   1
_chemical_formula_structural   Pr3PaZn2Rh3
_chemical_formula_sum   'Pr3 Pa1 Zn2 Rh3'
_cell_volume   202.41296553
_cell_formula_units_Z   1
loop_
 _symmetry_equiv_pos_site_id
 _symmetry_equiv_pos_as_xyz
  1  'x, y, z'
loop_
 _atom_site_type_symbol
 _atom_site_label
 _atom_site_symmetry_multiplicity
 _atom_site_fract_x
 _atom_site_fract_y
 _atom_site_fract_z
 _atom_site_occupancy
  Pr  Pr0  1  0.037477  0.584877  0.500000  1
  Pr  Pr1  1  0.366349  0.366349  0.500000  1
  Pr  Pr2  1  0.584877  0.037477  0.500000  1
  Pa  Pa3  1  0.744851  0.744851  0.000000  1
  Zn  Zn4  1  0.987194  0.236220  0.000000  1
  Zn  Zn5  1  0.236220  0.987194  0.000000  1
  Rh  Rh6  1  0.378918  0.684715  0.000000  1
  Rh  Rh7  1  0.979398  0.979398  0.500000  1
  Rh  Rh8  1  0.684715  0.378918  0.000000  1
