# generated using pymatgen
data_Nd8Co2CuSi12Pd
_symmetry_space_group_name_H-M   'P 1'
_cell_length_a   8.14126600
_cell_length_b   8.14126758
_cell_length_c   8.49267800
_cell_angle_alpha   90.00000000
_cell_angle_beta   90.00000000
_cell_angle_gamma   119.99999358
_symmetry_Int_Tables_number   1
_chemical_formula_structural   Nd8Co2CuSi12Pd
_chemical_formula_sum   'Nd8 Co2 Cu1 Si12 Pd1'
_cell_volume   487.48279401
_cell_formula_units_Z   1
loop_
 _symmetry_equiv_pos_site_id
 _symmetry_equiv_pos_as_xyz
  1  'x, y, z'
loop_
 _atom_site_type_symbol
 _atom_site_label
 _atom_site_symmetry_multiplicity
 _atom_site_fract_x
 _atom_site_fract_y
 _atom_site_fract_z
 _atom_site_occupancy
  Nd  Nd0  1  0.495961  0.504039  0.749769  1
  Nd  Nd1  1  0.495300  0.504700  0.250106  1
  Nd  Nd2  1  0.008078  0.504039  0.749769  1
  Nd  Nd3  1  0.009400  0.504700  0.250106  1
  Nd  Nd4  1  0.495961  0.991922  0.749769  1
  Nd  Nd5  1  0.495300  0.990600  0.250106  1
  Nd  Nd6  1  0.000000  0.000000  0.750680  1
  Nd  Nd7  1  0.000000  0.000000  0.249217  1
  Co  Co8  1  0.333333  0.666667  0.997701  1
  Co  Co9  1  0.333333  0.666667  0.502362  1
  Cu  Cu10  1  0.666667  0.333333  0.001986  1
  Si  Si11  1  0.832689  0.167311  0.000041  1
  Si  Si12  1  0.172122  0.827878  0.000029  1
  Si  Si13  1  0.334622  0.167311  0.000041  1
  Si  Si14  1  0.172585  0.827415  0.499932  1
  Si  Si15  1  0.655756  0.827878  0.000029  1
  Si  Si16  1  0.835222  0.164778  0.499986  1
  Si  Si17  1  0.832689  0.665378  0.000041  1
  Si  Si18  1  0.654829  0.827415  0.499932  1
  Si  Si19  1  0.172122  0.344244  0.000029  1
  Si  Si20  1  0.329556  0.164778  0.499986  1
  Si  Si21  1  0.172585  0.345171  0.499932  1
  Si  Si22  1  0.835222  0.670444  0.499986  1
  Pd  Pd23  1  0.666667  0.333333  0.498465  1
