# generated using pymatgen
data_Er6Al24CuOs7
_symmetry_space_group_name_H-M   'P 1'
_cell_length_a   8.81144685
_cell_length_b   8.81144673
_cell_length_c   9.52487539
_cell_angle_alpha   89.60301916
_cell_angle_beta   90.39697837
_cell_angle_gamma   119.73448606
_symmetry_Int_Tables_number   1
_chemical_formula_structural   Er6Al24CuOs7
_chemical_formula_sum   'Er6 Al24 Cu1 Os7'
_cell_volume   642.13477408
_cell_formula_units_Z   1
loop_
 _symmetry_equiv_pos_site_id
 _symmetry_equiv_pos_as_xyz
  1  'x, y, z'
loop_
 _atom_site_type_symbol
 _atom_site_label
 _atom_site_symmetry_multiplicity
 _atom_site_fract_x
 _atom_site_fract_y
 _atom_site_fract_z
 _atom_site_occupancy
  Er  Er0  1  0.190094  0.387963  0.251384  1
  Er  Er1  1  0.809906  0.612037  0.748616  1
  Er  Er2  1  0.612037  0.809906  0.251384  1
  Er  Er3  1  0.387963  0.190094  0.748616  1
  Er  Er4  1  0.195229  0.804771  0.251185  1
  Er  Er5  1  0.804771  0.195229  0.748815  1
  Al  Al6  1  0.332696  0.667304  0.021103  1
  Al  Al7  1  0.667304  0.332696  0.978897  1
  Al  Al8  1  0.666431  0.333569  0.517070  1
  Al  Al9  1  0.333569  0.666431  0.482930  1
  Al  Al10  1  0.163679  0.325616  0.576481  1
  Al  Al11  1  0.836321  0.674384  0.423519  1
  Al  Al12  1  0.674384  0.836321  0.576481  1
  Al  Al13  1  0.842100  0.675713  0.078671  1
  Al  Al14  1  0.325616  0.163679  0.423519  1
  Al  Al15  1  0.157900  0.324287  0.921329  1
  Al  Al16  1  0.163317  0.836683  0.575203  1
  Al  Al17  1  0.324287  0.157900  0.078671  1
  Al  Al18  1  0.836683  0.163317  0.424797  1
  Al  Al19  1  0.675713  0.842100  0.921329  1
  Al  Al20  1  0.836239  0.163761  0.075601  1
  Al  Al21  1  0.163761  0.836239  0.924399  1
  Al  Al22  1  0.560597  0.122241  0.249035  1
  Al  Al23  1  0.439403  0.877759  0.750965  1
  Al  Al24  1  0.877759  0.439403  0.249035  1
  Al  Al25  1  0.122241  0.560597  0.750965  1
  Al  Al26  1  0.560400  0.439600  0.249404  1
  Al  Al27  1  0.439600  0.560400  0.750596  1
  Al  Al28  1  0.999345  0.000655  0.250299  1
  Al  Al29  1  0.000655  0.999345  0.749701  1
  Cu  Cu30  1  0.500000  0.500000  0.000000  1
  Os  Os31  1  0.500000  0.000000  0.000000  1
  Os  Os32  1  0.000000  0.500000  0.000000  1
  Os  Os33  1  0.500000  0.000000  0.500000  1
  Os  Os34  1  0.000000  0.500000  0.500000  1
  Os  Os35  1  0.500000  0.500000  0.500000  1
  Os  Os36  1  0.000000  0.000000  0.000000  1
  Os  Os37  1  0.000000  0.000000  0.500000  1
