# generated using pymatgen
data_NaVAgF6
_symmetry_space_group_name_H-M   'P 1'
_cell_length_a   5.42565500
_cell_length_b   9.40383500
_cell_length_c   10.89434200
_cell_angle_alpha   90.00000000
_cell_angle_beta   90.00000000
_cell_angle_gamma   90.00000000
_symmetry_Int_Tables_number   1
_chemical_formula_structural   NaVAgF6
_chemical_formula_sum   'Na4 V4 Ag4 F24'
_cell_volume   555.85072954
_cell_formula_units_Z   4
loop_
 _symmetry_equiv_pos_site_id
 _symmetry_equiv_pos_as_xyz
  1  'x, y, z'
loop_
 _atom_site_type_symbol
 _atom_site_label
 _atom_site_symmetry_multiplicity
 _atom_site_fract_x
 _atom_site_fract_y
 _atom_site_fract_z
 _atom_site_occupancy
  Na  Na0  1  0.040109  0.639276  0.087708  1
  Na  Na1  1  0.459891  0.360724  0.587707  1
  Na  Na2  1  0.959891  0.139276  0.412293  1
  Na  Na3  1  0.540109  0.860724  0.912293  1
  V  V4  1  0.025364  0.999574  0.126930  1
  V  V5  1  0.474636  0.000426  0.626930  1
  V  V6  1  0.974636  0.499574  0.373070  1
  V  V7  1  0.525364  0.500426  0.873070  1
  Ag  Ag8  1  0.505630  0.312706  0.171813  1
  Ag  Ag9  1  0.994370  0.687294  0.671813  1
  Ag  Ag10  1  0.494370  0.812706  0.328187  1
  Ag  Ag11  1  0.005630  0.187294  0.828187  1
  F  F12  1  0.251429  0.141412  0.564683  1
  F  F13  1  0.248571  0.858588  0.064683  1
  F  F14  1  0.748571  0.641412  0.935317  1
  F  F15  1  0.751429  0.358588  0.435317  1
  F  F16  1  0.200999  0.624835  0.295474  1
  F  F17  1  0.299001  0.375165  0.795474  1
  F  F18  1  0.799001  0.124835  0.204526  1
  F  F19  1  0.700999  0.875165  0.704526  1
  F  F20  1  0.221867  0.143005  0.068561  1
  F  F21  1  0.278133  0.856995  0.568561  1
  F  F22  1  0.778133  0.643005  0.431439  1
  F  F23  1  0.721867  0.356995  0.931439  1
  F  F24  1  0.173374  0.346522  0.326786  1
  F  F25  1  0.326626  0.653478  0.826786  1
  F  F26  1  0.826626  0.846522  0.173214  1
  F  F27  1  0.673374  0.153478  0.673214  1
  F  F28  1  0.349750  0.492658  0.025140  1
  F  F29  1  0.150250  0.507342  0.525140  1
  F  F30  1  0.650250  0.992658  0.474860  1
  F  F31  1  0.849750  0.007342  0.974860  1
  F  F32  1  0.193683  0.995724  0.280168  1
  F  F33  1  0.306317  0.004276  0.780168  1
  F  F34  1  0.806317  0.495724  0.219832  1
  F  F35  1  0.693683  0.504276  0.719832  1
