# generated using pymatgen
data_Hf9ZrBe2Sn5Sb
_symmetry_space_group_name_H-M   'P 1'
_cell_length_a   8.54765500
_cell_length_b   8.55032675
_cell_length_c   5.74199700
_cell_angle_alpha   90.00000000
_cell_angle_beta   90.00000000
_cell_angle_gamma   119.98966785
_symmetry_Int_Tables_number   1
_chemical_formula_structural   Hf9ZrBe2Sn5Sb
_chemical_formula_sum   'Hf9 Zr1 Be2 Sn5 Sb1'
_cell_volume   363.46993739
_cell_formula_units_Z   1
loop_
 _symmetry_equiv_pos_site_id
 _symmetry_equiv_pos_as_xyz
  1  'x, y, z'
loop_
 _atom_site_type_symbol
 _atom_site_label
 _atom_site_symmetry_multiplicity
 _atom_site_fract_x
 _atom_site_fract_y
 _atom_site_fract_z
 _atom_site_occupancy
  Hf  Hf0  1  0.748848  0.748732  0.250000  1
  Hf  Hf1  1  0.000117  0.251268  0.250000  1
  Hf  Hf2  1  0.999267  0.747760  0.750000  1
  Hf  Hf3  1  0.251508  0.252240  0.750000  1
  Hf  Hf4  1  0.252126  0.000000  0.250000  1
  Hf  Hf5  1  0.333955  0.667171  0.499956  1
  Hf  Hf6  1  0.666785  0.332829  0.000044  1
  Hf  Hf7  1  0.666785  0.332829  0.499956  1
  Hf  Hf8  1  0.333955  0.667171  0.000044  1
  Zr  Zr9  1  0.746785  0.000000  0.750000  1
  Be  Be10  1  0.001405  0.000000  0.999561  1
  Be  Be11  1  0.001405  0.000000  0.500439  1
  Sn  Sn12  1  0.387241  0.000000  0.750000  1
  Sn  Sn13  1  0.389926  0.390098  0.250000  1
  Sn  Sn14  1  0.999829  0.609902  0.250000  1
  Sn  Sn15  1  0.000817  0.391373  0.750000  1
  Sn  Sn16  1  0.609443  0.608627  0.750000  1
  Sb  Sb17  1  0.609805  0.000000  0.250000  1
