# generated using pymatgen
data_HfTi2SbC2
_symmetry_space_group_name_H-M   'P 1'
_cell_length_a   3.26237100
_cell_length_b   3.26237061
_cell_length_c   18.58830200
_cell_angle_alpha   90.00000000
_cell_angle_beta   90.00000000
_cell_angle_gamma   119.99999382
_symmetry_Int_Tables_number   1
_chemical_formula_structural   HfTi2SbC2
_chemical_formula_sum   'Hf2 Ti4 Sb2 C4'
_cell_volume   171.33142312
_cell_formula_units_Z   2
loop_
 _symmetry_equiv_pos_site_id
 _symmetry_equiv_pos_as_xyz
  1  'x, y, z'
loop_
 _atom_site_type_symbol
 _atom_site_label
 _atom_site_symmetry_multiplicity
 _atom_site_fract_x
 _atom_site_fract_y
 _atom_site_fract_z
 _atom_site_occupancy
  Hf  Hf0  1  0.000000  0.000000  0.000000  1
  Hf  Hf1  1  0.000000  0.000000  0.500000  1
  Ti  Ti2  1  0.333333  0.666667  0.130266  1
  Ti  Ti3  1  0.333333  0.666667  0.369734  1
  Ti  Ti4  1  0.666667  0.333333  0.630266  1
  Ti  Ti5  1  0.666667  0.333333  0.869734  1
  Sb  Sb6  1  0.000000  0.000000  0.250000  1
  Sb  Sb7  1  0.000000  0.000000  0.750000  1
  C  C8  1  0.333333  0.666667  0.924895  1
  C  C9  1  0.666667  0.333333  0.075105  1
  C  C10  1  0.666667  0.333333  0.424895  1
  C  C11  1  0.333333  0.666667  0.575105  1
