# generated using pymatgen
data_CaDyAs6Rh12Pb
_symmetry_space_group_name_H-M   'P 1'
_cell_length_a   10.11304800
_cell_length_b   10.11304809
_cell_length_c   3.95889600
_cell_angle_alpha   90.00000000
_cell_angle_beta   90.00000000
_cell_angle_gamma   120.00000626
_symmetry_Int_Tables_number   1
_chemical_formula_structural   CaDyAs6Rh12Pb
_chemical_formula_sum   'Ca1 Dy1 As6 Rh12 Pb1'
_cell_volume   350.64595889
_cell_formula_units_Z   1
loop_
 _symmetry_equiv_pos_site_id
 _symmetry_equiv_pos_as_xyz
  1  'x, y, z'
loop_
 _atom_site_type_symbol
 _atom_site_label
 _atom_site_symmetry_multiplicity
 _atom_site_fract_x
 _atom_site_fract_y
 _atom_site_fract_z
 _atom_site_occupancy
  Ca  Ca0  1  0.333333  0.666667  0.755054  1
  Dy  Dy1  1  0.666667  0.333333  0.244790  1
  As  As2  1  0.884105  0.594962  0.746334  1
  As  As3  1  0.405038  0.289142  0.746334  1
  As  As4  1  0.710858  0.115895  0.746334  1
  As  As5  1  0.118215  0.408389  0.255772  1
  As  As6  1  0.591611  0.709826  0.255772  1
  As  As7  1  0.290174  0.881785  0.255772  1
  Rh  Rh8  1  0.618236  0.548898  0.748985  1
  Rh  Rh9  1  0.451102  0.069338  0.748985  1
  Rh  Rh10  1  0.930662  0.381764  0.748985  1
  Rh  Rh11  1  0.388868  0.446287  0.252013  1
  Rh  Rh12  1  0.553713  0.942581  0.252013  1
  Rh  Rh13  1  0.057419  0.611132  0.252013  1
  Rh  Rh14  1  0.130444  0.837156  0.759192  1
  Rh  Rh15  1  0.162844  0.293286  0.759192  1
  Rh  Rh16  1  0.706714  0.869556  0.759192  1
  Rh  Rh17  1  0.879499  0.157988  0.241479  1
  Rh  Rh18  1  0.842012  0.721511  0.241479  1
  Rh  Rh19  1  0.278489  0.120501  0.241479  1
  Pb  Pb20  1  0.000000  0.000000  0.593117  1
