# generated using pymatgen
data_Y4Fe(Si2Pt)5
_symmetry_space_group_name_H-M   'P 1'
_cell_length_a   8.13038278
_cell_length_b   8.13038212
_cell_length_c   5.92882103
_cell_angle_alpha   68.72623593
_cell_angle_beta   68.72624473
_cell_angle_gamma   88.92231882
_symmetry_Int_Tables_number   1
_chemical_formula_structural   Y4Fe(Si2Pt)5
_chemical_formula_sum   'Y4 Fe1 Si10 Pt5'
_cell_volume   337.43617669
_cell_formula_units_Z   1
loop_
 _symmetry_equiv_pos_site_id
 _symmetry_equiv_pos_as_xyz
  1  'x, y, z'
loop_
 _atom_site_type_symbol
 _atom_site_label
 _atom_site_symmetry_multiplicity
 _atom_site_fract_x
 _atom_site_fract_y
 _atom_site_fract_z
 _atom_site_occupancy
  Y  Y0  1  0.860775  0.599623  0.769851  1
  Y  Y1  1  0.400377  0.139225  0.730149  1
  Y  Y2  1  0.139170  0.400318  0.228260  1
  Y  Y3  1  0.599682  0.860830  0.271740  1
  Fe  Fe4  1  0.000638  0.999362  0.750000  1
  Si  Si5  1  0.777898  0.222102  0.750000  1
  Si  Si6  1  0.225962  0.774038  0.250000  1
  Si  Si7  1  0.500684  0.499316  0.750000  1
  Si  Si8  1  0.499343  0.500657  0.250000  1
  Si  Si9  1  0.220878  0.779122  0.750000  1
  Si  Si10  1  0.774835  0.225165  0.250000  1
  Si  Si11  1  0.045397  0.253360  0.833897  1
  Si  Si12  1  0.253562  0.045144  0.365280  1
  Si  Si13  1  0.954856  0.746438  0.134720  1
  Si  Si14  1  0.746640  0.954603  0.666103  1
  Pt  Pt15  1  0.524081  0.247167  0.113649  1
  Pt  Pt16  1  0.999462  0.000538  0.250000  1
  Pt  Pt17  1  0.247163  0.524234  0.615942  1
  Pt  Pt18  1  0.475766  0.752837  0.884058  1
  Pt  Pt19  1  0.752833  0.475919  0.386351  1
