# generated using pymatgen
data_Zr2AlSnRh3
_symmetry_space_group_name_H-M   'P 1'
_cell_length_a   7.73692098
_cell_length_b   7.73692015
_cell_length_c   7.73692100
_cell_angle_alpha   33.32755799
_cell_angle_beta   33.32756732
_cell_angle_gamma   33.32755875
_symmetry_Int_Tables_number   1
_chemical_formula_structural   Zr2AlSnRh3
_chemical_formula_sum   'Zr2 Al1 Sn1 Rh3'
_cell_volume   124.48021495
_cell_formula_units_Z   1
loop_
 _symmetry_equiv_pos_site_id
 _symmetry_equiv_pos_as_xyz
  1  'x, y, z'
loop_
 _atom_site_type_symbol
 _atom_site_label
 _atom_site_symmetry_multiplicity
 _atom_site_fract_x
 _atom_site_fract_y
 _atom_site_fract_z
 _atom_site_occupancy
  Zr  Zr0  1  0.753241  0.753241  0.753241  1
  Zr  Zr1  1  0.248033  0.248033  0.248033  1
  Al  Al2  1  0.997624  0.997624  0.997624  1
  Sn  Sn3  1  0.503879  0.503879  0.503879  1
  Rh  Rh4  1  0.120626  0.120626  0.120626  1
  Rh  Rh5  1  0.629911  0.629911  0.629911  1
  Rh  Rh6  1  0.371687  0.371687  0.371687  1
