# generated using pymatgen
data_Y5Sc2HgC4
_symmetry_space_group_name_H-M   'P 1'
_cell_length_a   11.43705000
_cell_length_b   11.43705000
_cell_length_c   3.62640700
_cell_angle_alpha   90.00000000
_cell_angle_beta   90.00000000
_cell_angle_gamma   90.00000000
_symmetry_Int_Tables_number   1
_chemical_formula_structural   Y5Sc2HgC4
_chemical_formula_sum   'Y10 Sc4 Hg2 C8'
_cell_volume   474.35620275
_cell_formula_units_Z   2
loop_
 _symmetry_equiv_pos_site_id
 _symmetry_equiv_pos_as_xyz
  1  'x, y, z'
loop_
 _atom_site_type_symbol
 _atom_site_label
 _atom_site_symmetry_multiplicity
 _atom_site_fract_x
 _atom_site_fract_y
 _atom_site_fract_z
 _atom_site_occupancy
  Y  Y0  1  0.546897  0.740981  0.500000  1
  Y  Y1  1  0.453103  0.259019  0.500000  1
  Y  Y2  1  0.046897  0.759019  0.500000  1
  Y  Y3  1  0.953103  0.240981  0.500000  1
  Y  Y4  1  0.259019  0.546897  0.500000  1
  Y  Y5  1  0.740981  0.453103  0.500000  1
  Y  Y6  1  0.240981  0.046897  0.500000  1
  Y  Y7  1  0.759019  0.953103  0.500000  1
  Y  Y8  1  0.500000  0.000000  0.000000  1
  Y  Y9  1  0.000000  0.500000  0.000000  1
  Sc  Sc10  1  0.703741  0.203741  0.000000  1
  Sc  Sc11  1  0.296259  0.796259  0.000000  1
  Sc  Sc12  1  0.203741  0.296259  0.000000  1
  Sc  Sc13  1  0.796259  0.703741  0.000000  1
  Hg  Hg14  1  0.500000  0.500000  0.000000  1
  Hg  Hg15  1  0.000000  0.000000  0.000000  1
  C  C16  1  0.622351  0.122351  0.500000  1
  C  C17  1  0.377649  0.877649  0.500000  1
  C  C18  1  0.122351  0.377649  0.500000  1
  C  C19  1  0.877649  0.622351  0.500000  1
  C  C20  1  0.157404  0.657404  0.000000  1
  C  C21  1  0.842596  0.342596  0.000000  1
  C  C22  1  0.657404  0.842596  0.000000  1
  C  C23  1  0.342596  0.157404  0.000000  1
