# generated using pymatgen
data_Y12Tm8Si15Ag
_symmetry_space_group_name_H-M   'P 1'
_cell_length_a   7.42432271
_cell_length_b   7.66295694
_cell_length_c   14.57426270
_cell_angle_alpha   90.17354333
_cell_angle_beta   90.60621511
_cell_angle_gamma   90.11511755
_symmetry_Int_Tables_number   1
_chemical_formula_structural   Y12Tm8Si15Ag
_chemical_formula_sum   'Y12 Tm8 Si15 Ag1'
_cell_volume   829.11087778
_cell_formula_units_Z   1
loop_
 _symmetry_equiv_pos_site_id
 _symmetry_equiv_pos_as_xyz
  1  'x, y, z'
loop_
 _atom_site_type_symbol
 _atom_site_label
 _atom_site_symmetry_multiplicity
 _atom_site_fract_x
 _atom_site_fract_y
 _atom_site_fract_z
 _atom_site_occupancy
  Y  Y0  1  0.523008  0.674244  0.601620  1
  Y  Y1  1  0.027870  0.817318  0.901347  1
  Y  Y2  1  0.470830  0.320119  0.098034  1
  Y  Y3  1  0.980744  0.183807  0.399093  1
  Y  Y4  1  0.472905  0.326810  0.400354  1
  Y  Y5  1  0.971248  0.182142  0.098034  1
  Y  Y6  1  0.529616  0.681163  0.900090  1
  Y  Y7  1  0.024599  0.818631  0.600952  1
  Y  Y8  1  0.851149  0.505820  0.749981  1
  Y  Y9  1  0.349649  0.990776  0.748094  1
  Y  Y10  1  0.151228  0.491002  0.249952  1
  Y  Y11  1  0.651736  0.009492  0.249498  1
  Tm  Tm12  1  0.679552  0.175232  0.625032  1
  Tm  Tm13  1  0.181728  0.322631  0.877354  1
  Tm  Tm14  1  0.318418  0.820735  0.121329  1
  Tm  Tm15  1  0.826604  0.675464  0.376059  1
  Tm  Tm16  1  0.318211  0.825166  0.377279  1
  Tm  Tm17  1  0.817517  0.678111  0.121831  1
  Tm  Tm18  1  0.680363  0.178380  0.877414  1
  Tm  Tm19  1  0.175813  0.321214  0.623761  1
  Si  Si20  1  0.145617  0.529821  0.040310  1
  Si  Si21  1  0.352748  0.030895  0.959877  1
  Si  Si22  1  0.847079  0.468309  0.540714  1
  Si  Si23  1  0.341554  0.031317  0.541615  1
  Si  Si24  1  0.853572  0.469690  0.959119  1
  Si  Si25  1  0.644958  0.969288  0.038975  1
  Si  Si26  1  0.150518  0.532721  0.461367  1
  Si  Si27  1  0.476540  0.389489  0.751096  1
  Si  Si28  1  0.976241  0.108601  0.752892  1
  Si  Si29  1  0.524785  0.613356  0.248191  1
  Si  Si30  1  0.025411  0.891040  0.247433  1
  Si  Si31  1  0.733052  0.871842  0.752069  1
  Si  Si32  1  0.231770  0.625089  0.751563  1
  Si  Si33  1  0.269885  0.125547  0.246977  1
  Si  Si34  1  0.766808  0.376670  0.248647  1
  Ag  Ag35  1  0.656676  0.968069  0.462047  1
