# generated using pymatgen
data_TaNb2Al2AuC
_symmetry_space_group_name_H-M   'P 1'
_cell_length_a   8.45563053
_cell_length_b   8.44981933
_cell_length_c   8.45562896
_cell_angle_alpha   59.92295859
_cell_angle_beta   59.97725321
_cell_angle_gamma   59.92296398
_symmetry_Int_Tables_number   1
_chemical_formula_structural   TaNb2Al2AuC
_chemical_formula_sum   'Ta4 Nb8 Al8 Au4 C4'
_cell_volume   426.62186315
_cell_formula_units_Z   4
loop_
 _symmetry_equiv_pos_site_id
 _symmetry_equiv_pos_as_xyz
  1  'x, y, z'
loop_
 _atom_site_type_symbol
 _atom_site_label
 _atom_site_symmetry_multiplicity
 _atom_site_fract_x
 _atom_site_fract_y
 _atom_site_fract_z
 _atom_site_occupancy
  Ta  Ta0  1  0.571933  0.928655  0.928852  1
  Ta  Ta1  1  0.928852  0.928655  0.571933  1
  Ta  Ta2  1  0.678323  0.321764  0.678323  1
  Ta  Ta3  1  0.928846  0.571713  0.928846  1
  Nb  Nb4  1  0.570153  0.929828  0.570153  1
  Nb  Nb5  1  0.319541  0.679872  0.680865  1
  Nb  Nb6  1  0.680958  0.319952  0.319806  1
  Nb  Nb7  1  0.319813  0.680498  0.319813  1
  Nb  Nb8  1  0.680865  0.679872  0.319541  1
  Nb  Nb9  1  0.319806  0.319952  0.680958  1
  Nb  Nb10  1  0.569622  0.569642  0.930510  1
  Nb  Nb11  1  0.930510  0.569642  0.569622  1
  Al  Al12  1  0.914405  0.913944  0.914405  1
  Al  Al13  1  0.991688  0.336411  0.335698  1
  Al  Al14  1  0.336544  0.991056  0.336544  1
  Al  Al15  1  0.335698  0.336411  0.991688  1
  Al  Al16  1  0.913850  0.258509  0.913850  1
  Al  Al17  1  0.913525  0.913762  0.258674  1
  Al  Al18  1  0.258674  0.913762  0.913525  1
  Al  Al19  1  0.336526  0.336130  0.336526  1
  Au  Au20  1  0.125126  0.125140  0.125126  1
  Au  Au21  1  0.625056  0.124954  0.123052  1
  Au  Au22  1  0.124378  0.624891  0.124378  1
  Au  Au23  1  0.123052  0.124954  0.625056  1
  C  C24  1  0.625603  0.623604  0.625603  1
  C  C25  1  0.123321  0.626201  0.626588  1
  C  C26  1  0.626745  0.124026  0.626745  1
  C  C27  1  0.626588  0.626201  0.123321  1
