# generated using pymatgen
data_Nd(Eu2Ga)4
_symmetry_space_group_name_H-M   'P 1'
_cell_length_a   9.06849276
_cell_length_b   9.06849386
_cell_length_c   9.06849325
_cell_angle_alpha   94.90237278
_cell_angle_beta   94.90237535
_cell_angle_gamma   146.00470433
_symmetry_Int_Tables_number   1
_chemical_formula_structural   Nd(Eu2Ga)4
_chemical_formula_sum   'Nd1 Eu8 Ga4'
_cell_volume   398.76403285
_cell_formula_units_Z   1
loop_
 _symmetry_equiv_pos_site_id
 _symmetry_equiv_pos_as_xyz
  1  'x, y, z'
loop_
 _atom_site_type_symbol
 _atom_site_label
 _atom_site_symmetry_multiplicity
 _atom_site_fract_x
 _atom_site_fract_y
 _atom_site_fract_z
 _atom_site_occupancy
  Nd  Nd0  1  0.000000  0.000000  0.000000  1
  Eu  Eu1  1  0.894375  0.373639  0.268014  1
  Eu  Eu2  1  0.105625  0.626361  0.731986  1
  Eu  Eu3  1  0.373639  0.105625  0.479264  1
  Eu  Eu4  1  0.626361  0.894375  0.520736  1
  Eu  Eu5  1  0.608722  0.314939  0.923661  1
  Eu  Eu6  1  0.391278  0.685061  0.076339  1
  Eu  Eu7  1  0.314939  0.391278  0.706217  1
  Eu  Eu8  1  0.685061  0.608722  0.293783  1
  Ga  Ga9  1  0.768639  0.106038  0.874679  1
  Ga  Ga10  1  0.231361  0.893962  0.125321  1
  Ga  Ga11  1  0.106038  0.231361  0.337399  1
  Ga  Ga12  1  0.893962  0.768639  0.662601  1
