# generated using pymatgen
data_Na2Cu2H9
_symmetry_space_group_name_H-M   'P 1'
_cell_length_a   3.46245685
_cell_length_b   7.46052559
_cell_length_c   5.52491902
_cell_angle_alpha   93.76453268
_cell_angle_beta   89.04449252
_cell_angle_gamma   76.32782127
_symmetry_Int_Tables_number   1
_chemical_formula_structural   Na2Cu2H9
_chemical_formula_sum   'Na2 Cu2 H9'
_cell_volume   138.29872623
_cell_formula_units_Z   1
loop_
 _symmetry_equiv_pos_site_id
 _symmetry_equiv_pos_as_xyz
  1  'x, y, z'
loop_
 _atom_site_type_symbol
 _atom_site_label
 _atom_site_symmetry_multiplicity
 _atom_site_fract_x
 _atom_site_fract_y
 _atom_site_fract_z
 _atom_site_occupancy
  Na  Na0  1  0.615311  0.758093  0.683111  1
  Na  Na1  1  0.740380  0.460566  0.147877  1
  Cu  Cu2  1  0.276232  0.422403  0.647703  1
  Cu  Cu3  1  0.911968  0.159585  0.655166  1
  H  H4  1  0.719592  0.812270  0.222973  1
  H  H5  1  0.397901  0.186977  0.656259  1
  H  H6  1  0.796817  0.382529  0.626870  1
  H  H7  1  0.020441  0.947136  0.682712  1
  H  H8  1  0.208400  0.550988  0.419706  1
  H  H9  1  0.196475  0.560093  0.896855  1
  H  H10  1  0.495515  0.835205  0.235695  1
  H  H11  1  0.038513  0.120193  0.079212  1
  H  H12  1  0.050130  0.137038  0.216954  1
