# generated using pymatgen
data_B8PtRh9
_symmetry_space_group_name_H-M   'P 1'
_cell_length_a   3.33164300
_cell_length_b   3.33268114
_cell_length_c   20.82052111
_cell_angle_alpha   89.99024097
_cell_angle_beta   89.99989612
_cell_angle_gamma   119.98963197
_symmetry_Int_Tables_number   1
_chemical_formula_structural   B8PtRh9
_chemical_formula_sum   'B8 Pt1 Rh9'
_cell_volume   200.22569215
_cell_formula_units_Z   1
loop_
 _symmetry_equiv_pos_site_id
 _symmetry_equiv_pos_as_xyz
  1  'x, y, z'
loop_
 _atom_site_type_symbol
 _atom_site_label
 _atom_site_symmetry_multiplicity
 _atom_site_fract_x
 _atom_site_fract_y
 _atom_site_fract_z
 _atom_site_occupancy
  B  B0  1  0.666702  0.333403  0.092085  1
  B  B1  1  0.666616  0.333237  0.200965  1
  B  B2  1  0.666747  0.333499  0.306126  1
  B  B3  1  0.666685  0.333366  0.414634  1
  B  B4  1  0.333326  0.666652  0.585556  1
  B  B5  1  0.333248  0.666499  0.694548  1
  B  B6  1  0.333343  0.666677  0.800520  1
  B  B7  1  0.333300  0.666599  0.908489  1
  Pt  Pt8  1  0.333364  0.666732  0.047888  1
  Rh  Rh9  1  0.000040  0.000081  0.148463  1
  Rh  Rh10  1  0.333280  0.666564  0.250571  1
  Rh  Rh11  1  0.000008  0.000018  0.351986  1
  Rh  Rh12  1  0.333305  0.666613  0.452080  1
  Rh  Rh13  1  0.666681  0.333355  0.547623  1
  Rh  Rh14  1  0.000011  0.000024  0.647332  1
  Rh  Rh15  1  0.666718  0.333438  0.748993  1
  Rh  Rh16  1  0.999989  0.999971  0.851007  1
  Rh  Rh17  1  0.666638  0.333278  0.951133  1
