# generated using pymatgen
data_LiCa3RhO6
_symmetry_space_group_name_H-M   'P 1'
_cell_length_a   6.45854781
_cell_length_b   6.45855004
_cell_length_c   6.45855183
_cell_angle_alpha   91.88178780
_cell_angle_beta   91.88174202
_cell_angle_gamma   91.88171800
_symmetry_Int_Tables_number   1
_chemical_formula_structural   LiCa3RhO6
_chemical_formula_sum   'Li2 Ca6 Rh2 O12'
_cell_volume   268.95899279
_cell_formula_units_Z   2
loop_
 _symmetry_equiv_pos_site_id
 _symmetry_equiv_pos_as_xyz
  1  'x, y, z'
loop_
 _atom_site_type_symbol
 _atom_site_label
 _atom_site_symmetry_multiplicity
 _atom_site_fract_x
 _atom_site_fract_y
 _atom_site_fract_z
 _atom_site_occupancy
  Li  Li0  1  0.250030  0.250030  0.250030  1
  Li  Li1  1  0.749970  0.749970  0.749970  1
  Ca  Ca2  1  0.606702  0.250008  0.893277  1
  Ca  Ca3  1  0.393298  0.749992  0.106723  1
  Ca  Ca4  1  0.893277  0.606702  0.250008  1
  Ca  Ca5  1  0.106723  0.393298  0.749992  1
  Ca  Ca6  1  0.250008  0.893277  0.606702  1
  Ca  Ca7  1  0.749992  0.106723  0.393298  1
  Rh  Rh8  1  0.000000  0.000000  0.000000  1
  Rh  Rh9  1  0.500000  0.500001  0.500000  1
  O  O10  1  0.206876  0.550431  0.421258  1
  O  O11  1  0.793124  0.449569  0.578742  1
  O  O12  1  0.078746  0.949559  0.293197  1
  O  O13  1  0.921253  0.050442  0.706803  1
  O  O14  1  0.421258  0.206876  0.550432  1
  O  O15  1  0.578742  0.793123  0.449569  1
  O  O16  1  0.949558  0.293197  0.078746  1
  O  O17  1  0.050442  0.706803  0.921254  1
  O  O18  1  0.550432  0.421258  0.206876  1
  O  O19  1  0.449569  0.578742  0.793124  1
  O  O20  1  0.293198  0.078746  0.949558  1
  O  O21  1  0.706802  0.921254  0.050442  1
