# generated using pymatgen
data_Tb4Y16Ir11Ru
_symmetry_space_group_name_H-M   'P 1'
_cell_length_a   10.92731900
_cell_length_b   10.92731900
_cell_length_c   6.42170700
_cell_angle_alpha   90.00000000
_cell_angle_beta   90.00000000
_cell_angle_gamma   90.00000000
_symmetry_Int_Tables_number   1
_chemical_formula_structural   Tb4Y16Ir11Ru
_chemical_formula_sum   'Tb4 Y16 Ir11 Ru1'
_cell_volume   766.79227594
_cell_formula_units_Z   1
loop_
 _symmetry_equiv_pos_site_id
 _symmetry_equiv_pos_as_xyz
  1  'x, y, z'
loop_
 _atom_site_type_symbol
 _atom_site_label
 _atom_site_symmetry_multiplicity
 _atom_site_fract_x
 _atom_site_fract_y
 _atom_site_fract_z
 _atom_site_occupancy
  Tb  Tb0  1  0.000000  0.000000  0.498922  1
  Tb  Tb1  1  0.000000  0.000000  0.998887  1
  Tb  Tb2  1  0.500000  0.500000  0.998887  1
  Tb  Tb3  1  0.500000  0.500000  0.498922  1
  Y  Y4  1  0.292671  0.087284  0.377725  1
  Y  Y5  1  0.293140  0.912591  0.880685  1
  Y  Y6  1  0.706860  0.087409  0.880685  1
  Y  Y7  1  0.707329  0.912716  0.377725  1
  Y  Y8  1  0.587409  0.793140  0.880685  1
  Y  Y9  1  0.587284  0.207329  0.377725  1
  Y  Y10  1  0.412716  0.792671  0.377725  1
  Y  Y11  1  0.412591  0.206860  0.880685  1
  Y  Y12  1  0.208668  0.411399  0.621201  1
  Y  Y13  1  0.208675  0.588407  0.120870  1
  Y  Y14  1  0.791325  0.411593  0.120870  1
  Y  Y15  1  0.791332  0.588601  0.621201  1
  Y  Y16  1  0.911593  0.708675  0.120870  1
  Y  Y17  1  0.911399  0.291332  0.621201  1
  Y  Y18  1  0.088601  0.708668  0.621201  1
  Y  Y19  1  0.088407  0.291325  0.120870  1
  Ir  Ir20  1  0.847525  0.153373  0.249871  1
  Ir  Ir21  1  0.847536  0.847069  0.749671  1
  Ir  Ir22  1  0.152464  0.152931  0.749671  1
  Ir  Ir23  1  0.152475  0.846627  0.249871  1
  Ir  Ir24  1  0.652931  0.347536  0.749671  1
  Ir  Ir25  1  0.653373  0.652475  0.249871  1
  Ir  Ir26  1  0.346627  0.347525  0.249871  1
  Ir  Ir27  1  0.347069  0.652464  0.749671  1
  Ir  Ir28  1  0.500000  0.000000  0.625413  1
  Ir  Ir29  1  0.000000  0.500000  0.875976  1
  Ir  Ir30  1  0.000000  0.500000  0.376183  1
  Ru  Ru31  1  0.500000  0.000000  0.126712  1
