# generated using pymatgen
data_Er6Zn18Ru5S
_symmetry_space_group_name_H-M   'P 1'
_cell_length_a   8.97089766
_cell_length_b   9.00910411
_cell_length_c   8.97089800
_cell_angle_alpha   59.85901270
_cell_angle_beta   60.14192321
_cell_angle_gamma   59.85901528
_symmetry_Int_Tables_number   1
_chemical_formula_structural   Er6Zn18Ru5S
_chemical_formula_sum   'Er6 Zn18 Ru5 S1'
_cell_volume   512.11948786
_cell_formula_units_Z   1
loop_
 _symmetry_equiv_pos_site_id
 _symmetry_equiv_pos_as_xyz
  1  'x, y, z'
loop_
 _atom_site_type_symbol
 _atom_site_label
 _atom_site_symmetry_multiplicity
 _atom_site_fract_x
 _atom_site_fract_y
 _atom_site_fract_z
 _atom_site_occupancy
  Er  Er0  1  0.713668  0.277197  0.286332  1
  Er  Er1  1  0.717134  0.282866  0.717134  1
  Er  Er2  1  0.713668  0.722803  0.286332  1
  Er  Er3  1  0.286332  0.722803  0.713668  1
  Er  Er4  1  0.282866  0.717134  0.282866  1
  Er  Er5  1  0.286332  0.277197  0.713668  1
  Zn  Zn6  1  0.621596  0.126226  0.125953  1
  Zn  Zn7  1  0.126244  0.625474  0.126244  1
  Zn  Zn8  1  0.125953  0.126226  0.621596  1
  Zn  Zn9  1  0.126244  0.122039  0.126244  1
  Zn  Zn10  1  0.378404  0.873774  0.874047  1
  Zn  Zn11  1  0.873756  0.374526  0.873756  1
  Zn  Zn12  1  0.874047  0.873774  0.378404  1
  Zn  Zn13  1  0.873756  0.877961  0.873756  1
  Zn  Zn14  1  0.000000  0.500000  0.000000  1
  Zn  Zn15  1  0.000000  0.000000  0.000000  1
  Zn  Zn16  1  0.999587  0.332145  0.336120  1
  Zn  Zn17  1  0.329829  0.007742  0.329829  1
  Zn  Zn18  1  0.336120  0.332145  0.999587  1
  Zn  Zn19  1  0.329829  0.332598  0.329829  1
  Zn  Zn20  1  0.000413  0.667855  0.663880  1
  Zn  Zn21  1  0.670171  0.992258  0.670171  1
  Zn  Zn22  1  0.663880  0.667855  0.000413  1
  Zn  Zn23  1  0.670171  0.667402  0.670171  1
  Ru  Ru24  1  0.500000  0.000000  0.000000  1
  Ru  Ru25  1  0.500000  0.000000  0.500000  1
  Ru  Ru26  1  0.500000  0.500000  0.000000  1
  Ru  Ru27  1  0.000000  0.500000  0.500000  1
  Ru  Ru28  1  0.000000  0.000000  0.500000  1
  S  S29  1  0.500000  0.500000  0.500000  1
