# generated using pymatgen
data_Pr4CdPbAu4
_symmetry_space_group_name_H-M   'P 1'
_cell_length_a   8.27182200
_cell_length_b   8.27182200
_cell_length_c   3.89505400
_cell_angle_alpha   90.00000000
_cell_angle_beta   90.00000000
_cell_angle_gamma   90.00000000
_symmetry_Int_Tables_number   1
_chemical_formula_structural   Pr4CdPbAu4
_chemical_formula_sum   'Pr4 Cd1 Pb1 Au4'
_cell_volume   266.51143253
_cell_formula_units_Z   1
loop_
 _symmetry_equiv_pos_site_id
 _symmetry_equiv_pos_as_xyz
  1  'x, y, z'
loop_
 _atom_site_type_symbol
 _atom_site_label
 _atom_site_symmetry_multiplicity
 _atom_site_fract_x
 _atom_site_fract_y
 _atom_site_fract_z
 _atom_site_occupancy
  Pr  Pr0  1  0.671346  0.174070  0.500000  1
  Pr  Pr1  1  0.328654  0.825930  0.500000  1
  Pr  Pr2  1  0.174070  0.328654  0.500000  1
  Pr  Pr3  1  0.825930  0.671346  0.500000  1
  Cd  Cd4  1  0.500000  0.500000  0.000000  1
  Pb  Pb5  1  0.000000  0.000000  0.000000  1
  Au  Au6  1  0.130651  0.620073  0.000000  1
  Au  Au7  1  0.869349  0.379927  0.000000  1
  Au  Au8  1  0.620073  0.869349  0.000000  1
  Au  Au9  1  0.379927  0.130651  0.000000  1
