# generated using pymatgen
data_K6B10Pt17Rh
_symmetry_space_group_name_H-M   'P 1'
_cell_length_a   6.53320586
_cell_length_b   6.53320520
_cell_length_c   15.34054960
_cell_angle_alpha   90.49122027
_cell_angle_beta   89.50877873
_cell_angle_gamma   127.72644352
_symmetry_Int_Tables_number   1
_chemical_formula_structural   K6B10Pt17Rh
_chemical_formula_sum   'K6 B10 Pt17 Rh1'
_cell_volume   517.86667176
_cell_formula_units_Z   1
loop_
 _symmetry_equiv_pos_site_id
 _symmetry_equiv_pos_as_xyz
  1  'x, y, z'
loop_
 _atom_site_type_symbol
 _atom_site_label
 _atom_site_symmetry_multiplicity
 _atom_site_fract_x
 _atom_site_fract_y
 _atom_site_fract_z
 _atom_site_occupancy
  K  K0  1  0.323667  0.676333  0.750994  1
  K  K1  1  0.676333  0.323667  0.249006  1
  K  K2  1  0.558243  0.441757  0.084549  1
  K  K3  1  0.441757  0.558243  0.915451  1
  K  K4  1  0.441574  0.558426  0.585785  1
  K  K5  1  0.558426  0.441574  0.414215  1
  B  B6  1  0.943214  0.056786  0.142958  1
  B  B7  1  0.056786  0.943214  0.857042  1
  B  B8  1  0.054100  0.945900  0.647868  1
  B  B9  1  0.945900  0.054100  0.352132  1
  B  B10  1  0.185579  0.814421  0.027675  1
  B  B11  1  0.814421  0.185579  0.972325  1
  B  B12  1  0.810346  0.189654  0.528337  1
  B  B13  1  0.189654  0.810346  0.471663  1
  B  B14  1  0.728173  0.271827  0.752498  1
  B  B15  1  0.271827  0.728173  0.247502  1
  Pt  Pt16  1  0.000000  0.000000  0.500000  1
  Pt  Pt17  1  0.656439  0.841148  0.248990  1
  Pt  Pt18  1  0.841148  0.656439  0.751010  1
  Pt  Pt19  1  0.343561  0.158852  0.751010  1
  Pt  Pt20  1  0.158852  0.343561  0.248990  1
  Pt  Pt21  1  0.124889  0.875111  0.156628  1
  Pt  Pt22  1  0.875111  0.124889  0.843372  1
  Pt  Pt23  1  0.872304  0.127696  0.656668  1
  Pt  Pt24  1  0.127696  0.872304  0.343332  1
  Pt  Pt25  1  0.566894  0.941076  0.078487  1
  Pt  Pt26  1  0.941076  0.566894  0.921513  1
  Pt  Pt27  1  0.430416  0.057872  0.578699  1
  Pt  Pt28  1  0.057872  0.430416  0.421301  1
  Pt  Pt29  1  0.433106  0.058924  0.921513  1
  Pt  Pt30  1  0.058924  0.433106  0.078487  1
  Pt  Pt31  1  0.569584  0.942128  0.421301  1
  Pt  Pt32  1  0.942128  0.569584  0.578699  1
  Rh  Rh33  1  0.000000  0.000000  0.000000  1
