# generated using pymatgen
data_Dy9Tm7(LuSn4)4
_symmetry_space_group_name_H-M   'P 1'
_cell_length_a   7.97897314
_cell_length_b   8.11878600
_cell_length_c   15.38380200
_cell_angle_alpha   90.01651381
_cell_angle_beta   90.01085026
_cell_angle_gamma   90.03665190
_symmetry_Int_Tables_number   1
_chemical_formula_structural   Dy9Tm7(LuSn4)4
_chemical_formula_sum   'Dy9 Tm7 Lu4 Sn16'
_cell_volume   996.55589898
_cell_formula_units_Z   1
loop_
 _symmetry_equiv_pos_site_id
 _symmetry_equiv_pos_as_xyz
  1  'x, y, z'
loop_
 _atom_site_type_symbol
 _atom_site_label
 _atom_site_symmetry_multiplicity
 _atom_site_fract_x
 _atom_site_fract_y
 _atom_site_fract_z
 _atom_site_occupancy
  Dy  Dy0  1  0.865853  0.663191  0.877619  1
  Dy  Dy1  1  0.519861  0.320910  0.903981  1
  Dy  Dy2  1  0.019800  0.178986  0.595809  1
  Dy  Dy3  1  0.479957  0.678655  0.403873  1
  Dy  Dy4  1  0.979540  0.821996  0.097210  1
  Dy  Dy5  1  0.481061  0.678288  0.096245  1
  Dy  Dy6  1  0.980124  0.821378  0.403517  1
  Dy  Dy7  1  0.519151  0.320976  0.595624  1
  Dy  Dy8  1  0.019795  0.178652  0.903671  1
  Tm  Tm9  1  0.364651  0.837546  0.876424  1
  Tm  Tm10  1  0.864996  0.661967  0.622925  1
  Tm  Tm11  1  0.635037  0.161644  0.376812  1
  Tm  Tm12  1  0.135214  0.337913  0.123359  1
  Tm  Tm13  1  0.634150  0.162051  0.124123  1
  Tm  Tm14  1  0.134792  0.337601  0.376786  1
  Tm  Tm15  1  0.365705  0.837993  0.622661  1
  Lu  Lu16  1  0.196764  0.504088  0.749820  1
  Lu  Lu17  1  0.696467  0.996197  0.749514  1
  Lu  Lu18  1  0.803457  0.495784  0.250365  1
  Lu  Lu19  1  0.303118  0.003808  0.250017  1
  Sn  Sn20  1  0.295778  0.038739  0.041636  1
  Sn  Sn21  1  0.795920  0.460832  0.458189  1
  Sn  Sn22  1  0.704357  0.960801  0.541525  1
  Sn  Sn23  1  0.206527  0.538002  0.958483  1
  Sn  Sn24  1  0.702356  0.963568  0.958567  1
  Sn  Sn25  1  0.203681  0.539253  0.541602  1
  Sn  Sn26  1  0.295878  0.039192  0.458032  1
  Sn  Sn27  1  0.796079  0.460002  0.042812  1
  Sn  Sn28  1  0.561624  0.618951  0.749306  1
  Sn  Sn29  1  0.062405  0.881764  0.749172  1
  Sn  Sn30  1  0.438044  0.380871  0.250594  1
  Sn  Sn31  1  0.938145  0.119138  0.250115  1
  Sn  Sn32  1  0.330232  0.150048  0.749665  1
  Sn  Sn33  1  0.830016  0.349969  0.749571  1
  Sn  Sn34  1  0.669554  0.849472  0.250252  1
  Sn  Sn35  1  0.169912  0.649777  0.250125  1
