# generated using pymatgen
data_Ho3Th(AlRh)4
_symmetry_space_group_name_H-M   'P 1'
_cell_length_a   4.21756500
_cell_length_b   6.93069379
_cell_length_c   8.03168492
_cell_angle_alpha   90.05473379
_cell_angle_beta   90.00000000
_cell_angle_gamma   90.00000000
_symmetry_Int_Tables_number   1
_chemical_formula_structural   Ho3Th(AlRh)4
_chemical_formula_sum   'Ho3 Th1 Al4 Rh4'
_cell_volume   234.77127608
_cell_formula_units_Z   1
loop_
 _symmetry_equiv_pos_site_id
 _symmetry_equiv_pos_as_xyz
  1  'x, y, z'
loop_
 _atom_site_type_symbol
 _atom_site_label
 _atom_site_symmetry_multiplicity
 _atom_site_fract_x
 _atom_site_fract_y
 _atom_site_fract_z
 _atom_site_occupancy
  Ho  Ho0  1  0.750000  0.457818  0.813911  1
  Ho  Ho1  1  0.750000  0.958538  0.680029  1
  Ho  Ho2  1  0.250000  0.040409  0.322773  1
  Th  Th3  1  0.250000  0.539307  0.176515  1
  Al  Al4  1  0.250000  0.633143  0.564982  1
  Al  Al5  1  0.750000  0.360555  0.444261  1
  Al  Al6  1  0.750000  0.877067  0.057983  1
  Al  Al7  1  0.250000  0.131800  0.936698  1
  Rh  Rh8  1  0.250000  0.760289  0.881991  1
  Rh  Rh9  1  0.750000  0.245222  0.122894  1
  Rh  Rh10  1  0.750000  0.736062  0.376295  1
  Rh  Rh11  1  0.250000  0.259791  0.621667  1
