# generated using pymatgen
data_Rb6Se2O9
_symmetry_space_group_name_H-M   'P 1'
_cell_length_a   8.27073285
_cell_length_b   8.27073340
_cell_length_c   8.27073300
_cell_angle_alpha   60.00000560
_cell_angle_beta   60.00000339
_cell_angle_gamma   60.00000447
_symmetry_Int_Tables_number   1
_chemical_formula_structural   Rb6Se2O9
_chemical_formula_sum   'Rb6 Se2 O9'
_cell_volume   400.05256776
_cell_formula_units_Z   1
loop_
 _symmetry_equiv_pos_site_id
 _symmetry_equiv_pos_as_xyz
  1  'x, y, z'
loop_
 _atom_site_type_symbol
 _atom_site_label
 _atom_site_symmetry_multiplicity
 _atom_site_fract_x
 _atom_site_fract_y
 _atom_site_fract_z
 _atom_site_occupancy
  Rb  Rb0  1  0.762614  0.237386  0.237386  1
  Rb  Rb1  1  0.237386  0.762614  0.237386  1
  Rb  Rb2  1  0.762614  0.237386  0.762614  1
  Rb  Rb3  1  0.237386  0.237386  0.762614  1
  Rb  Rb4  1  0.762614  0.762614  0.237386  1
  Rb  Rb5  1  0.237386  0.762614  0.762614  1
  Se  Se6  1  0.250000  0.250000  0.250000  1
  Se  Se7  1  0.750000  0.750000  0.750000  1
  O  O8  1  0.000000  0.000000  0.000000  1
  O  O9  1  0.333021  0.333021  0.000937  1
  O  O10  1  0.666979  0.999063  0.666979  1
  O  O11  1  0.666979  0.666979  0.666979  1
  O  O12  1  0.999063  0.666979  0.666979  1
  O  O13  1  0.000937  0.333021  0.333021  1
  O  O14  1  0.333021  0.000937  0.333021  1
  O  O15  1  0.333021  0.333021  0.333021  1
  O  O16  1  0.666979  0.666979  0.999063  1
