# generated using pymatgen
data_Ce2SmSn2Hg3
_symmetry_space_group_name_H-M   'P 1'
_cell_length_a   6.48390300
_cell_length_b   6.48390220
_cell_length_c   10.74809600
_cell_angle_alpha   90.00000000
_cell_angle_beta   90.00000000
_cell_angle_gamma   101.82902099
_symmetry_Int_Tables_number   1
_chemical_formula_structural   Ce2SmSn2Hg3
_chemical_formula_sum   'Ce4 Sm2 Sn4 Hg6'
_cell_volume   442.26477255
_cell_formula_units_Z   2
loop_
 _symmetry_equiv_pos_site_id
 _symmetry_equiv_pos_as_xyz
  1  'x, y, z'
loop_
 _atom_site_type_symbol
 _atom_site_label
 _atom_site_symmetry_multiplicity
 _atom_site_fract_x
 _atom_site_fract_y
 _atom_site_fract_z
 _atom_site_occupancy
  Ce  Ce0  1  0.201084  0.798916  0.500000  1
  Ce  Ce1  1  0.201084  0.798916  0.000000  1
  Ce  Ce2  1  0.798916  0.201084  0.500000  1
  Ce  Ce3  1  0.798916  0.201084  0.000000  1
  Sm  Sm4  1  0.633433  0.633433  0.250000  1
  Sm  Sm5  1  0.366567  0.366567  0.750000  1
  Sn  Sn6  1  0.316352  0.316352  0.046205  1
  Sn  Sn7  1  0.683648  0.683648  0.953795  1
  Sn  Sn8  1  0.316352  0.316352  0.453795  1
  Sn  Sn9  1  0.683648  0.683648  0.546205  1
  Hg  Hg10  1  0.015359  0.015359  0.250000  1
  Hg  Hg11  1  0.984641  0.984641  0.750000  1
  Hg  Hg12  1  0.507415  0.078683  0.250000  1
  Hg  Hg13  1  0.921317  0.492585  0.750000  1
  Hg  Hg14  1  0.492585  0.921317  0.750000  1
  Hg  Hg15  1  0.078683  0.507415  0.250000  1
