# generated using pymatgen
data_Er2Tm4Si5GeRu4
_symmetry_space_group_name_H-M   'P 1'
_cell_length_a   5.69380084
_cell_length_b   5.69379977
_cell_length_c   13.71098300
_cell_angle_alpha   90.00000000
_cell_angle_beta   90.00000000
_cell_angle_gamma   137.18497114
_symmetry_Int_Tables_number   1
_chemical_formula_structural   Er2Tm4Si5GeRu4
_chemical_formula_sum   'Er2 Tm4 Si5 Ge1 Ru4'
_cell_volume   302.09809462
_cell_formula_units_Z   1
loop_
 _symmetry_equiv_pos_site_id
 _symmetry_equiv_pos_as_xyz
  1  'x, y, z'
loop_
 _atom_site_type_symbol
 _atom_site_label
 _atom_site_symmetry_multiplicity
 _atom_site_fract_x
 _atom_site_fract_y
 _atom_site_fract_z
 _atom_site_occupancy
  Er  Er0  1  0.642985  0.357015  0.250000  1
  Er  Er1  1  0.355548  0.644452  0.750000  1
  Tm  Tm2  1  0.924358  0.075642  0.385243  1
  Tm  Tm3  1  0.075088  0.924912  0.611905  1
  Tm  Tm4  1  0.924358  0.075642  0.114757  1
  Tm  Tm5  1  0.075088  0.924912  0.888095  1
  Si  Si6  1  0.616929  0.383071  0.460898  1
  Si  Si7  1  0.384920  0.615080  0.537640  1
  Si  Si8  1  0.616929  0.383071  0.039102  1
  Si  Si9  1  0.384920  0.615080  0.962360  1
  Si  Si10  1  0.331724  0.668276  0.250000  1
  Ge  Ge11  1  0.661896  0.338104  0.750000  1
  Ru  Ru12  1  0.789156  0.210844  0.920678  1
  Ru  Ru13  1  0.213475  0.786525  0.082388  1
  Ru  Ru14  1  0.789156  0.210844  0.579322  1
  Ru  Ru15  1  0.213475  0.786525  0.417612  1
