# generated using pymatgen
data_Yb2Y2Al15(SiIr2)3
_symmetry_space_group_name_H-M   'P 1'
_cell_length_a   7.53276512
_cell_length_b   7.52864096
_cell_length_c   9.36978631
_cell_angle_alpha   89.96844153
_cell_angle_beta   89.92672675
_cell_angle_gamma   119.74496621
_symmetry_Int_Tables_number   1
_chemical_formula_structural   Yb2Y2Al15(SiIr2)3
_chemical_formula_sum   'Yb2 Y2 Al15 Si3 Ir6'
_cell_volume   461.36105552
_cell_formula_units_Z   1
loop_
 _symmetry_equiv_pos_site_id
 _symmetry_equiv_pos_as_xyz
  1  'x, y, z'
loop_
 _atom_site_type_symbol
 _atom_site_label
 _atom_site_symmetry_multiplicity
 _atom_site_fract_x
 _atom_site_fract_y
 _atom_site_fract_z
 _atom_site_occupancy
  Yb  Yb0  1  0.994393  0.668728  0.247973  1
  Yb  Yb1  1  0.004811  0.325406  0.753581  1
  Y  Y2  1  0.680573  0.002242  0.247559  1
  Y  Y3  1  0.324367  0.004233  0.749835  1
  Al  Al4  1  0.997270  0.667274  0.923108  1
  Al  Al5  1  0.998645  0.663413  0.574411  1
  Al  Al6  1  0.334865  0.999122  0.423565  1
  Al  Al7  1  0.002148  0.337313  0.429242  1
  Al  Al8  1  0.664473  0.999628  0.576107  1
  Al  Al9  1  0.660288  0.994776  0.921739  1
  Al  Al10  1  0.334698  0.999439  0.076691  1
  Al  Al11  1  0.335673  0.335831  0.556544  1
  Al  Al12  1  0.665476  0.665263  0.443683  1
  Al  Al13  1  0.664987  0.664995  0.057698  1
  Al  Al14  1  0.338043  0.335650  0.943338  1
  Al  Al15  1  0.334014  0.546535  0.250201  1
  Al  Al16  1  0.665200  0.451400  0.750428  1
  Al  Al17  1  0.546036  0.335386  0.250046  1
  Al  Al18  1  0.450553  0.663175  0.749566  1
  Si  Si19  1  0.132181  0.128592  0.250664  1
  Si  Si20  1  0.870537  0.871576  0.749945  1
  Si  Si21  1  0.002268  0.338785  0.072792  1
  Ir  Ir22  1  0.677614  0.327785  0.001911  1
  Ir  Ir23  1  0.321735  0.664525  0.999963  1
  Ir  Ir24  1  0.329644  0.671913  0.499405  1
  Ir  Ir25  1  0.670386  0.327921  0.499054  1
  Ir  Ir26  1  0.999319  0.008372  0.001681  1
  Ir  Ir27  1  0.999802  0.000723  0.499274  1
