# generated using pymatgen
data_Ca3NdNi2(RuO6)2
_symmetry_space_group_name_H-M   'P 1'
_cell_length_a   5.42979384
_cell_length_b   5.63457872
_cell_length_c   7.75359034
_cell_angle_alpha   89.92706594
_cell_angle_beta   90.00326428
_cell_angle_gamma   90.06363954
_symmetry_Int_Tables_number   1
_chemical_formula_structural   Ca3NdNi2(RuO6)2
_chemical_formula_sum   'Ca3 Nd1 Ni2 Ru2 O12'
_cell_volume   237.21766240
_cell_formula_units_Z   1
loop_
 _symmetry_equiv_pos_site_id
 _symmetry_equiv_pos_as_xyz
  1  'x, y, z'
loop_
 _atom_site_type_symbol
 _atom_site_label
 _atom_site_symmetry_multiplicity
 _atom_site_fract_x
 _atom_site_fract_y
 _atom_site_fract_z
 _atom_site_occupancy
  Ca  Ca0  1  0.516411  0.558895  0.250739  1
  Ca  Ca1  1  0.011499  0.942245  0.745874  1
  Ca  Ca2  1  0.484105  0.440247  0.749048  1
  Nd  Nd3  1  0.987451  0.060550  0.253256  1
  Ni  Ni4  1  0.499610  0.000081  0.997694  1
  Ni  Ni5  1  0.000255  0.501856  0.502197  1
  Ru  Ru6  1  0.499015  0.998279  0.504336  1
  Ru  Ru7  1  0.000860  0.502225  0.995766  1
  O  O8  1  0.695269  0.286107  0.446257  1
  O  O9  1  0.809629  0.790180  0.049154  1
  O  O10  1  0.309115  0.710702  0.552642  1
  O  O11  1  0.184654  0.207354  0.952695  1
  O  O12  1  0.201990  0.192475  0.542342  1
  O  O13  1  0.290400  0.692975  0.951119  1
  O  O14  1  0.795837  0.804430  0.455885  1
  O  O15  1  0.712802  0.303787  0.051302  1
  O  O16  1  0.095453  0.476292  0.242519  1
  O  O17  1  0.410479  0.969104  0.254670  1
  O  O18  1  0.592660  0.032899  0.744500  1
  O  O19  1  0.902508  0.529318  0.758003  1
