# generated using pymatgen
data_YEr(H2Br)2
_symmetry_space_group_name_H-M   'P 1'
_cell_length_a   11.37756221
_cell_length_b   11.37756268
_cell_length_c   11.37756253
_cell_angle_alpha   18.98213533
_cell_angle_beta   18.98212868
_cell_angle_gamma   18.98213063
_symmetry_Int_Tables_number   1
_chemical_formula_structural   YEr(H2Br)2
_chemical_formula_sum   'Y1 Er1 H4 Br2'
_cell_volume   136.18474834
_cell_formula_units_Z   1
loop_
 _symmetry_equiv_pos_site_id
 _symmetry_equiv_pos_as_xyz
  1  'x, y, z'
loop_
 _atom_site_type_symbol
 _atom_site_label
 _atom_site_symmetry_multiplicity
 _atom_site_fract_x
 _atom_site_fract_y
 _atom_site_fract_z
 _atom_site_occupancy
  Y  Y0  1  0.880739  0.880739  0.880739  1
  Er  Er1  1  0.119202  0.119202  0.119202  1
  H  H2  1  0.814532  0.814532  0.814532  1
  H  H3  1  0.184710  0.184710  0.184710  1
  H  H4  1  0.541784  0.541784  0.541784  1
  H  H5  1  0.458368  0.458368  0.458368  1
  Br  Br6  1  0.728363  0.728363  0.728363  1
  Br  Br7  1  0.272301  0.272301  0.272301  1
