# generated using pymatgen
data_Dy4FeCo5
_symmetry_space_group_name_H-M   'P 1'
_cell_length_a   5.36349915
_cell_length_b   5.36349990
_cell_length_c   7.02095624
_cell_angle_alpha   90.42640574
_cell_angle_beta   89.57359175
_cell_angle_gamma   120.10654667
_symmetry_Int_Tables_number   1
_chemical_formula_structural   Dy4FeCo5
_chemical_formula_sum   'Dy4 Fe1 Co5'
_cell_volume   174.71898410
_cell_formula_units_Z   1
loop_
 _symmetry_equiv_pos_site_id
 _symmetry_equiv_pos_as_xyz
  1  'x, y, z'
loop_
 _atom_site_type_symbol
 _atom_site_label
 _atom_site_symmetry_multiplicity
 _atom_site_fract_x
 _atom_site_fract_y
 _atom_site_fract_z
 _atom_site_occupancy
  Dy  Dy0  1  0.164510  0.835492  0.098082  1
  Dy  Dy1  1  0.663381  0.336620  0.402655  1
  Dy  Dy2  1  0.336620  0.663381  0.597344  1
  Dy  Dy3  1  0.835492  0.164510  0.901918  1
  Fe  Fe4  1  0.500001  0.500001  0.000000  1
  Co  Co5  1  0.163198  0.333606  0.250111  1
  Co  Co6  1  0.666394  0.836801  0.250111  1
  Co  Co7  1  0.000000  0.000000  0.499999  1
  Co  Co8  1  0.333606  0.163198  0.749889  1
  Co  Co9  1  0.836801  0.666394  0.749889  1
