# generated using pymatgen
data_Dy5Y5(SiBi2)2
_symmetry_space_group_name_H-M   'P 1'
_cell_length_a   8.07634100
_cell_length_b   9.18133400
_cell_length_c   12.08563700
_cell_angle_alpha   90.00000000
_cell_angle_beta   90.00000000
_cell_angle_gamma   90.00000000
_symmetry_Int_Tables_number   1
_chemical_formula_structural   Dy5Y5(SiBi2)2
_chemical_formula_sum   'Dy10 Y10 Si4 Bi8'
_cell_volume   896.16912984
_cell_formula_units_Z   2
loop_
 _symmetry_equiv_pos_site_id
 _symmetry_equiv_pos_as_xyz
  1  'x, y, z'
loop_
 _atom_site_type_symbol
 _atom_site_label
 _atom_site_symmetry_multiplicity
 _atom_site_fract_x
 _atom_site_fract_y
 _atom_site_fract_z
 _atom_site_occupancy
  Dy  Dy0  1  0.821171  0.552638  0.062815  1
  Dy  Dy1  1  0.678829  0.947362  0.562815  1
  Dy  Dy2  1  0.178913  0.052719  0.937119  1
  Dy  Dy3  1  0.321087  0.447281  0.437119  1
  Dy  Dy4  1  0.178913  0.447281  0.937119  1
  Dy  Dy5  1  0.321087  0.052719  0.437119  1
  Dy  Dy6  1  0.821171  0.947362  0.062815  1
  Dy  Dy7  1  0.678829  0.552638  0.562815  1
  Dy  Dy8  1  0.363028  0.250000  0.704393  1
  Dy  Dy9  1  0.136972  0.250000  0.204393  1
  Y  Y10  1  0.166138  0.750000  0.212154  1
  Y  Y11  1  0.333862  0.750000  0.712154  1
  Y  Y12  1  0.833783  0.250000  0.787852  1
  Y  Y13  1  0.666217  0.250000  0.287852  1
  Y  Y14  1  0.461304  0.750000  0.001245  1
  Y  Y15  1  0.038696  0.750000  0.501245  1
  Y  Y16  1  0.538797  0.250000  0.998755  1
  Y  Y17  1  0.961203  0.250000  0.498755  1
  Y  Y18  1  0.636831  0.750000  0.295524  1
  Y  Y19  1  0.863169  0.750000  0.795524  1
  Si  Si20  1  0.412464  0.750000  0.479459  1
  Si  Si21  1  0.087536  0.750000  0.979459  1
  Si  Si22  1  0.587417  0.250000  0.520825  1
  Si  Si23  1  0.912583  0.250000  0.020825  1
  Bi  Bi24  1  0.933015  0.510696  0.325597  1
  Bi  Bi25  1  0.566985  0.989304  0.825597  1
  Bi  Bi26  1  0.067254  0.010935  0.674365  1
  Bi  Bi27  1  0.432746  0.489065  0.174365  1
  Bi  Bi28  1  0.067254  0.489065  0.674365  1
  Bi  Bi29  1  0.432746  0.010935  0.174365  1
  Bi  Bi30  1  0.933015  0.989304  0.325597  1
  Bi  Bi31  1  0.566985  0.510696  0.825597  1
