# generated using pymatgen
data_Tb9Ho3InCo4Ir
_symmetry_space_group_name_H-M   'P 1'
_cell_length_a   8.30904836
_cell_length_b   8.30470623
_cell_length_c   8.30470977
_cell_angle_alpha   111.05840230
_cell_angle_beta   110.68206648
_cell_angle_gamma   106.68823555
_symmetry_Int_Tables_number   1
_chemical_formula_structural   Tb9Ho3InCo4Ir
_chemical_formula_sum   'Tb9 Ho3 In1 Co4 Ir1'
_cell_volume   440.47541118
_cell_formula_units_Z   1
loop_
 _symmetry_equiv_pos_site_id
 _symmetry_equiv_pos_as_xyz
  1  'x, y, z'
loop_
 _atom_site_type_symbol
 _atom_site_label
 _atom_site_symmetry_multiplicity
 _atom_site_fract_x
 _atom_site_fract_y
 _atom_site_fract_z
 _atom_site_occupancy
  Tb  Tb0  1  0.314962  0.621102  0.305488  1
  Tb  Tb1  1  0.685208  0.379477  0.695124  1
  Tb  Tb2  1  0.314963  0.009474  0.693858  1
  Tb  Tb3  1  0.685206  0.990082  0.305726  1
  Tb  Tb4  1  0.183461  0.286687  0.470543  1
  Tb  Tb5  1  0.816810  0.713966  0.530347  1
  Tb  Tb6  1  0.183460  0.712913  0.896768  1
  Tb  Tb7  1  0.816808  0.286459  0.102839  1
  Tb  Tb8  1  0.409525  0.215937  0.193584  1
  Ho  Ho9  1  0.590716  0.784470  0.806244  1
  Ho  Ho10  1  0.021344  0.215432  0.805906  1
  Ho  Ho11  1  0.977763  0.784285  0.193479  1
  In  In12  1  0.500086  0.500301  0.999828  1
  Co  Co13  1  0.111893  0.611899  0.499992  1
  Co  Co14  1  0.888906  0.388396  0.500506  1
  Co  Co15  1  0.377914  0.999719  0.378195  1
  Co  Co16  1  0.622607  0.000146  0.622463  1
  Ir  Ir17  1  0.998367  0.999253  0.999111  1
