# generated using pymatgen
data_Dy2NiIr2Rh
_symmetry_space_group_name_H-M   'P 1'
_cell_length_a   5.19023077
_cell_length_b   5.18950632
_cell_length_c   5.18950679
_cell_angle_alpha   62.41434873
_cell_angle_beta   62.61404951
_cell_angle_gamma   62.61402950
_symmetry_Int_Tables_number   1
_chemical_formula_structural   Dy2NiIr2Rh
_chemical_formula_sum   'Dy2 Ni1 Ir2 Rh1'
_cell_volume   104.44633079
_cell_formula_units_Z   1
loop_
 _symmetry_equiv_pos_site_id
 _symmetry_equiv_pos_as_xyz
  1  'x, y, z'
loop_
 _atom_site_type_symbol
 _atom_site_label
 _atom_site_symmetry_multiplicity
 _atom_site_fract_x
 _atom_site_fract_y
 _atom_site_fract_z
 _atom_site_occupancy
  Dy  Dy0  1  0.127625  0.125346  0.125346  1
  Dy  Dy1  1  0.872375  0.874654  0.874654  1
  Ni  Ni2  1  0.500000  0.500000  0.500000  1
  Ir  Ir3  1  0.500000  0.000000  0.500000  1
  Ir  Ir4  1  0.500000  0.500000  0.000000  1
  Rh  Rh5  1  0.000000  0.500000  0.500000  1
