# generated using pymatgen
data_Hf6Ti6Al2Si8Os7
_symmetry_space_group_name_H-M   'P 1'
_cell_length_a   8.66700615
_cell_length_b   8.66700521
_cell_length_c   8.61711200
_cell_angle_alpha   60.19024756
_cell_angle_beta   60.19025114
_cell_angle_gamma   60.37560639
_symmetry_Int_Tables_number   1
_chemical_formula_structural   Hf6Ti6Al2Si8Os7
_chemical_formula_sum   'Hf6 Ti6 Al2 Si8 Os7'
_cell_volume   460.31226869
_cell_formula_units_Z   1
loop_
 _symmetry_equiv_pos_site_id
 _symmetry_equiv_pos_as_xyz
  1  'x, y, z'
loop_
 _atom_site_type_symbol
 _atom_site_label
 _atom_site_symmetry_multiplicity
 _atom_site_fract_x
 _atom_site_fract_y
 _atom_site_fract_z
 _atom_site_occupancy
  Hf  Hf0  1  0.194053  0.809317  0.804716  1
  Hf  Hf1  1  0.809317  0.194053  0.191915  1
  Hf  Hf2  1  0.809317  0.194053  0.804716  1
  Hf  Hf3  1  0.804890  0.804890  0.195110  1
  Hf  Hf4  1  0.194053  0.809317  0.191915  1
  Hf  Hf5  1  0.191817  0.191817  0.808183  1
  Ti  Ti6  1  0.624060  0.624060  0.619644  1
  Ti  Ti7  1  0.624060  0.624060  0.132238  1
  Ti  Ti8  1  0.127920  0.627370  0.622356  1
  Ti  Ti9  1  0.627370  0.127920  0.622356  1
  Ti  Ti10  1  0.374985  0.374985  0.374753  1
  Ti  Ti11  1  0.374985  0.374985  0.875275  1
  Al  Al12  1  0.381154  0.856992  0.380926  1
  Al  Al13  1  0.856992  0.381154  0.380926  1
  Si  Si14  1  0.845558  0.845558  0.845836  1
  Si  Si15  1  0.845558  0.845558  0.463047  1
  Si  Si16  1  0.465583  0.844752  0.844832  1
  Si  Si17  1  0.844752  0.465583  0.844832  1
  Si  Si18  1  0.157071  0.157071  0.157571  1
  Si  Si19  1  0.157071  0.157071  0.528288  1
  Si  Si20  1  0.153771  0.537335  0.154447  1
  Si  Si21  1  0.537335  0.153771  0.154447  1
  Os  Os22  1  0.491838  0.491838  0.508162  1
  Os  Os23  1  0.001583  0.500345  0.500289  1
  Os  Os24  1  0.500345  0.001583  0.997783  1
  Os  Os25  1  0.500345  0.001583  0.500289  1
  Os  Os26  1  0.501390  0.501390  0.998610  1
  Os  Os27  1  0.001583  0.500345  0.997783  1
  Os  Os28  1  0.001245  0.001245  0.498755  1
