# generated using pymatgen
data_La2Tb2Sm2RuBr10
_symmetry_space_group_name_H-M   'P 1'
_cell_length_a   7.57900273
_cell_length_b   9.60122761
_cell_length_c   9.36462864
_cell_angle_alpha   108.05602358
_cell_angle_beta   95.22984550
_cell_angle_gamma   106.81520593
_symmetry_Int_Tables_number   1
_chemical_formula_structural   La2Tb2Sm2RuBr10
_chemical_formula_sum   'La2 Tb2 Sm2 Ru1 Br10'
_cell_volume   607.81955413
_cell_formula_units_Z   1
loop_
 _symmetry_equiv_pos_site_id
 _symmetry_equiv_pos_as_xyz
  1  'x, y, z'
loop_
 _atom_site_type_symbol
 _atom_site_label
 _atom_site_symmetry_multiplicity
 _atom_site_fract_x
 _atom_site_fract_y
 _atom_site_fract_z
 _atom_site_occupancy
  La  La0  1  0.124269  0.045830  0.762325  1
  La  La1  1  0.875731  0.954170  0.237675  1
  Tb  Tb2  1  0.367153  0.140434  0.181378  1
  Tb  Tb3  1  0.632847  0.859566  0.818622  1
  Sm  Sm4  1  0.975928  0.305435  0.099183  1
  Sm  Sm5  1  0.024072  0.694565  0.900817  1
  Ru  Ru6  1  0.000000  0.000000  0.000000  1
  Br  Br7  1  0.552275  0.172536  0.920690  1
  Br  Br8  1  0.447725  0.827464  0.079310  1
  Br  Br9  1  0.358010  0.448220  0.272006  1
  Br  Br10  1  0.641990  0.551780  0.727994  1
  Br  Br11  1  0.265011  0.088734  0.451732  1
  Br  Br12  1  0.734989  0.911266  0.548268  1
  Br  Br13  1  0.783541  0.261533  0.347403  1
  Br  Br14  1  0.216459  0.738467  0.652597  1
  Br  Br15  1  0.086773  0.372851  0.830206  1
  Br  Br16  1  0.913227  0.627149  0.169794  1
