# generated using pymatgen
data_HfTh3Zn2Ir3
_symmetry_space_group_name_H-M   'P 1'
_cell_length_a   7.36472489
_cell_length_b   7.36472518
_cell_length_c   4.19335300
_cell_angle_alpha   90.00000000
_cell_angle_beta   90.00000000
_cell_angle_gamma   121.35551405
_symmetry_Int_Tables_number   1
_chemical_formula_structural   HfTh3Zn2Ir3
_chemical_formula_sum   'Hf1 Th3 Zn2 Ir3'
_cell_volume   194.22696147
_cell_formula_units_Z   1
loop_
 _symmetry_equiv_pos_site_id
 _symmetry_equiv_pos_as_xyz
  1  'x, y, z'
loop_
 _atom_site_type_symbol
 _atom_site_label
 _atom_site_symmetry_multiplicity
 _atom_site_fract_x
 _atom_site_fract_y
 _atom_site_fract_z
 _atom_site_occupancy
  Hf  Hf0  1  0.766094  0.766094  0.000000  1
  Th  Th1  1  0.390439  0.390439  0.500000  1
  Th  Th2  1  0.582769  0.013358  0.500000  1
  Th  Th3  1  0.013358  0.582769  0.500000  1
  Zn  Zn4  1  0.239939  0.997885  0.000000  1
  Zn  Zn5  1  0.997885  0.239939  0.000000  1
  Ir  Ir6  1  0.672155  0.351992  0.000000  1
  Ir  Ir7  1  0.351992  0.672155  0.000000  1
  Ir  Ir8  1  0.985370  0.985370  0.500000  1
