# generated using pymatgen
data_Dy3Ho2Mg3(P3Ir4)4
_symmetry_space_group_name_H-M   'P 1'
_cell_length_a   12.79239800
_cell_length_b   12.79298201
_cell_length_c   3.97945700
_cell_angle_alpha   90.00000000
_cell_angle_beta   90.00000000
_cell_angle_gamma   119.99848988
_symmetry_Int_Tables_number   1
_chemical_formula_structural   Dy3Ho2Mg3(P3Ir4)4
_chemical_formula_sum   'Dy3 Ho2 Mg3 P12 Ir16'
_cell_volume   564.00740834
_cell_formula_units_Z   1
loop_
 _symmetry_equiv_pos_site_id
 _symmetry_equiv_pos_as_xyz
  1  'x, y, z'
loop_
 _atom_site_type_symbol
 _atom_site_label
 _atom_site_symmetry_multiplicity
 _atom_site_fract_x
 _atom_site_fract_y
 _atom_site_fract_z
 _atom_site_occupancy
  Dy  Dy0  1  0.333325  0.666663  0.500000  1
  Dy  Dy1  1  0.666663  0.333337  0.500000  1
  Dy  Dy2  1  0.809670  0.000000  0.000000  1
  Ho  Ho3  1  0.000004  0.809596  0.000000  1
  Ho  Ho4  1  0.190408  0.190404  0.000000  1
  Mg  Mg5  1  0.999995  0.445152  0.500000  1
  Mg  Mg6  1  0.554842  0.554848  0.500000  1
  Mg  Mg7  1  0.445144  0.000000  0.500000  1
  P  P8  1  0.999996  0.641709  0.500000  1
  P  P9  1  0.358286  0.358291  0.500000  1
  P  P10  1  0.641548  0.000000  0.500000  1
  P  P11  1  0.516173  0.688279  0.000000  1
  P  P12  1  0.311721  0.827876  0.000000  1
  P  P13  1  0.172124  0.483863  0.000000  1
  P  P14  1  0.483845  0.172124  0.000000  1
  P  P15  1  0.688261  0.516137  0.000000  1
  P  P16  1  0.827894  0.311721  0.000000  1
  P  P17  1  0.000078  0.177333  0.500000  1
  P  P18  1  0.822745  0.822667  0.500000  1
  P  P19  1  0.177290  0.000000  0.500000  1
  Ir  Ir20  1  0.508839  0.868033  0.000000  1
  Ir  Ir21  1  0.131984  0.640827  0.000000  1
  Ir  Ir22  1  0.359180  0.491165  0.000000  1
  Ir  Ir23  1  0.491158  0.359173  0.000000  1
  Ir  Ir24  1  0.868016  0.508835  0.000000  1
  Ir  Ir25  1  0.640807  0.131967  0.000000  1
  Ir  Ir26  1  0.000074  0.279423  0.000000  1
  Ir  Ir27  1  0.720651  0.720577  0.000000  1
  Ir  Ir28  1  0.279324  0.000000  0.000000  1
  Ir  Ir29  1  0.627906  0.806276  0.500000  1
  Ir  Ir30  1  0.193507  0.821626  0.500000  1
  Ir  Ir31  1  0.178386  0.371893  0.500000  1
  Ir  Ir32  1  0.371880  0.178374  0.500000  1
  Ir  Ir33  1  0.806493  0.628107  0.500000  1
  Ir  Ir34  1  0.821630  0.193724  0.500000  1
  Ir  Ir35  1  0.000154  0.000000  0.500000  1
