# generated using pymatgen
data_CaTm2Ga8Ag3
_symmetry_space_group_name_H-M   'P 1'
_cell_length_a   4.34564934
_cell_length_b   8.36319045
_cell_length_c   8.36319140
_cell_angle_alpha   70.15445965
_cell_angle_beta   74.94132942
_cell_angle_gamma   74.94133263
_symmetry_Int_Tables_number   1
_chemical_formula_structural   CaTm2Ga8Ag3
_chemical_formula_sum   'Ca1 Tm2 Ga8 Ag3'
_cell_volume   271.10690384
_cell_formula_units_Z   1
loop_
 _symmetry_equiv_pos_site_id
 _symmetry_equiv_pos_as_xyz
  1  'x, y, z'
loop_
 _atom_site_type_symbol
 _atom_site_label
 _atom_site_symmetry_multiplicity
 _atom_site_fract_x
 _atom_site_fract_y
 _atom_site_fract_z
 _atom_site_occupancy
  Ca  Ca0  1  0.500000  0.500000  0.500000  1
  Tm  Tm1  1  0.201735  0.798265  0.798265  1
  Tm  Tm2  1  0.798265  0.201735  0.201735  1
  Ga  Ga3  1  0.355485  0.361913  0.927117  1
  Ga  Ga4  1  0.644515  0.638087  0.072883  1
  Ga  Ga5  1  0.355485  0.927117  0.361913  1
  Ga  Ga6  1  0.644515  0.072883  0.638087  1
  Ga  Ga7  1  0.160505  0.470869  0.208122  1
  Ga  Ga8  1  0.839495  0.529131  0.791878  1
  Ga  Ga9  1  0.160505  0.208122  0.470869  1
  Ga  Ga10  1  0.839495  0.791878  0.529131  1
  Ag  Ag11  1  0.500000  0.000000  0.000000  1
  Ag  Ag12  1  0.000000  0.809816  0.190184  1
  Ag  Ag13  1  0.000000  0.190184  0.809816  1
