# generated using pymatgen
data_Tb3Y5(TmIr2)2
_symmetry_space_group_name_H-M   'P 1'
_cell_length_a   6.51477593
_cell_length_b   7.21800299
_cell_length_c   8.52907279
_cell_angle_alpha   96.50169821
_cell_angle_beta   112.48207279
_cell_angle_gamma   90.14540452
_symmetry_Int_Tables_number   1
_chemical_formula_structural   Tb3Y5(TmIr2)2
_chemical_formula_sum   'Tb3 Y5 Tm2 Ir4'
_cell_volume   367.74416216
_cell_formula_units_Z   1
loop_
 _symmetry_equiv_pos_site_id
 _symmetry_equiv_pos_as_xyz
  1  'x, y, z'
loop_
 _atom_site_type_symbol
 _atom_site_label
 _atom_site_symmetry_multiplicity
 _atom_site_fract_x
 _atom_site_fract_y
 _atom_site_fract_z
 _atom_site_occupancy
  Tb  Tb0  1  0.969485  0.917936  0.181335  1
  Tb  Tb1  1  0.788326  0.581883  0.818935  1
  Tb  Tb2  1  0.030742  0.081866  0.818890  1
  Y  Y3  1  0.212015  0.419010  0.181261  1
  Y  Y4  1  0.653333  0.817612  0.440708  1
  Y  Y5  1  0.212519  0.682367  0.559159  1
  Y  Y6  1  0.346636  0.182402  0.559259  1
  Y  Y7  1  0.787081  0.317671  0.440343  1
  Tm  Tm8  1  0.429183  0.749925  0.000003  1
  Tm  Tm9  1  0.570770  0.250061  0.000194  1
  Ir  Ir10  1  0.821202  0.572436  0.215292  1
  Ir  Ir11  1  0.606547  0.927497  0.784646  1
  Ir  Ir12  1  0.178231  0.427555  0.784609  1
  Ir  Ir13  1  0.393933  0.071780  0.215366  1
