# generated using pymatgen
data_LaPr4Bi3As
_symmetry_space_group_name_H-M   'P 1'
_cell_length_a   9.69948504
_cell_length_b   9.69948394
_cell_length_c   6.96113900
_cell_angle_alpha   90.00000000
_cell_angle_beta   90.00000000
_cell_angle_gamma   120.05715682
_symmetry_Int_Tables_number   1
_chemical_formula_structural   LaPr4Bi3As
_chemical_formula_sum   'La2 Pr8 Bi6 As2'
_cell_volume   566.83651987
_cell_formula_units_Z   2
loop_
 _symmetry_equiv_pos_site_id
 _symmetry_equiv_pos_as_xyz
  1  'x, y, z'
loop_
 _atom_site_type_symbol
 _atom_site_label
 _atom_site_symmetry_multiplicity
 _atom_site_fract_x
 _atom_site_fract_y
 _atom_site_fract_z
 _atom_site_occupancy
  La  La0  1  0.754358  0.000239  0.250000  1
  La  La1  1  0.000239  0.754358  0.250000  1
  Pr  Pr2  1  0.753626  0.753626  0.750000  1
  Pr  Pr3  1  0.246702  0.000945  0.750000  1
  Pr  Pr4  1  0.000945  0.246702  0.750000  1
  Pr  Pr5  1  0.245599  0.245599  0.250000  1
  Pr  Pr6  1  0.666456  0.333170  0.999740  1
  Pr  Pr7  1  0.333170  0.666456  0.999740  1
  Pr  Pr8  1  0.333170  0.666456  0.500260  1
  Pr  Pr9  1  0.666456  0.333170  0.500260  1
  Bi  Bi10  1  0.395707  0.395707  0.750000  1
  Bi  Bi11  1  0.604223  0.999932  0.750000  1
  Bi  Bi12  1  0.999932  0.604223  0.750000  1
  Bi  Bi13  1  0.602269  0.602269  0.250000  1
  Bi  Bi14  1  0.395856  0.001184  0.250000  1
  Bi  Bi15  1  0.001184  0.395856  0.250000  1
  As  As16  1  0.000054  0.000054  0.999072  1
  As  As17  1  0.000054  0.000054  0.500928  1
