# generated using pymatgen
data_K3Tb(SbAu)4
_symmetry_space_group_name_H-M   'P 1'
_cell_length_a   4.64656600
_cell_length_b   4.64656533
_cell_length_c   20.12039200
_cell_angle_alpha   90.00000000
_cell_angle_beta   90.00000000
_cell_angle_gamma   119.99999053
_symmetry_Int_Tables_number   1
_chemical_formula_structural   K3Tb(SbAu)4
_chemical_formula_sum   'K3 Tb1 Sb4 Au4'
_cell_volume   376.21080859
_cell_formula_units_Z   1
loop_
 _symmetry_equiv_pos_site_id
 _symmetry_equiv_pos_as_xyz
  1  'x, y, z'
loop_
 _atom_site_type_symbol
 _atom_site_label
 _atom_site_symmetry_multiplicity
 _atom_site_fract_x
 _atom_site_fract_y
 _atom_site_fract_z
 _atom_site_occupancy
  K  K0  1  0.000000  0.000000  0.500000  1
  K  K1  1  0.000000  0.000000  0.238032  1
  K  K2  1  0.000000  0.000000  0.761968  1
  Tb  Tb3  1  0.000000  0.000000  0.000000  1
  Sb  Sb4  1  0.333333  0.666667  0.366316  1
  Sb  Sb5  1  0.666667  0.333333  0.633684  1
  Sb  Sb6  1  0.666667  0.333333  0.893584  1
  Sb  Sb7  1  0.333333  0.666667  0.106416  1
  Au  Au8  1  0.666667  0.333333  0.365766  1
  Au  Au9  1  0.333333  0.666667  0.634234  1
  Au  Au10  1  0.333333  0.666667  0.919542  1
  Au  Au11  1  0.666667  0.333333  0.080458  1
