# generated using pymatgen
data_Er3Al12(FePd)2
_symmetry_space_group_name_H-M   'P 1'
_cell_length_a   8.76254817
_cell_length_b   8.76254763
_cell_length_c   9.39221700
_cell_angle_alpha   90.05589292
_cell_angle_beta   89.94410708
_cell_angle_gamma   119.95098407
_symmetry_Int_Tables_number   1
_chemical_formula_structural   Er3Al12(FePd)2
_chemical_formula_sum   'Er6 Al24 Fe4 Pd4'
_cell_volume   624.84683996
_cell_formula_units_Z   2
loop_
 _symmetry_equiv_pos_site_id
 _symmetry_equiv_pos_as_xyz
  1  'x, y, z'
loop_
 _atom_site_type_symbol
 _atom_site_label
 _atom_site_symmetry_multiplicity
 _atom_site_fract_x
 _atom_site_fract_y
 _atom_site_fract_z
 _atom_site_occupancy
  Er  Er0  1  0.191165  0.385689  0.253435  1
  Er  Er1  1  0.808835  0.614311  0.746565  1
  Er  Er2  1  0.614311  0.808835  0.253435  1
  Er  Er3  1  0.385689  0.191165  0.746565  1
  Er  Er4  1  0.193143  0.806857  0.251353  1
  Er  Er5  1  0.806857  0.193143  0.748647  1
  Al  Al6  1  0.333326  0.666674  0.028578  1
  Al  Al7  1  0.666674  0.333326  0.971422  1
  Al  Al8  1  0.672421  0.327579  0.524537  1
  Al  Al9  1  0.327579  0.672421  0.475463  1
  Al  Al10  1  0.152483  0.321085  0.574682  1
  Al  Al11  1  0.847517  0.678915  0.425318  1
  Al  Al12  1  0.678915  0.847517  0.574682  1
  Al  Al13  1  0.842016  0.683781  0.080005  1
  Al  Al14  1  0.321085  0.152483  0.425318  1
  Al  Al15  1  0.157984  0.316219  0.919995  1
  Al  Al16  1  0.161706  0.838294  0.573902  1
  Al  Al17  1  0.316219  0.157984  0.080005  1
  Al  Al18  1  0.838294  0.161706  0.426098  1
  Al  Al19  1  0.683781  0.842016  0.919995  1
  Al  Al20  1  0.841224  0.158776  0.080759  1
  Al  Al21  1  0.158776  0.841224  0.919241  1
  Al  Al22  1  0.561054  0.121479  0.258602  1
  Al  Al23  1  0.438946  0.878521  0.741398  1
  Al  Al24  1  0.878521  0.438946  0.258602  1
  Al  Al25  1  0.121479  0.561054  0.741398  1
  Al  Al26  1  0.564180  0.435820  0.250195  1
  Al  Al27  1  0.435820  0.564180  0.749805  1
  Al  Al28  1  0.999518  0.000482  0.250749  1
  Al  Al29  1  0.000482  0.999518  0.749251  1
  Fe  Fe30  1  0.500000  0.000000  0.500000  1
  Fe  Fe31  1  0.000000  0.500000  0.500000  1
  Fe  Fe32  1  0.000000  0.000000  0.000000  1
  Fe  Fe33  1  0.000000  0.000000  0.500000  1
  Pd  Pd34  1  0.500000  0.000000  0.000000  1
  Pd  Pd35  1  0.000000  0.500000  0.000000  1
  Pd  Pd36  1  0.500000  0.500000  0.000000  1
  Pd  Pd37  1  0.500000  0.500000  0.500000  1
