# generated using pymatgen
data_Al2Pb(SeO3)4
_symmetry_space_group_name_H-M   'P 1'
_cell_length_a   6.82183021
_cell_length_b   9.17999925
_cell_length_c   9.17177128
_cell_angle_alpha   68.47128455
_cell_angle_beta   94.92243979
_cell_angle_gamma   89.81973827
_symmetry_Int_Tables_number   1
_chemical_formula_structural   Al2Pb(SeO3)4
_chemical_formula_sum   'Al4 Pb2 Se8 O24'
_cell_volume   531.96206949
_cell_formula_units_Z   2
loop_
 _symmetry_equiv_pos_site_id
 _symmetry_equiv_pos_as_xyz
  1  'x, y, z'
loop_
 _atom_site_type_symbol
 _atom_site_label
 _atom_site_symmetry_multiplicity
 _atom_site_fract_x
 _atom_site_fract_y
 _atom_site_fract_z
 _atom_site_occupancy
  Al  Al0  1  0.000300  0.750521  0.751044  1
  Al  Al1  1  0.500152  0.749785  0.248898  1
  Al  Al2  1  0.000308  0.250521  0.251043  1
  Al  Al3  1  0.500157  0.249785  0.748893  1
  Pb  Pb4  1  0.006600  0.529504  0.481423  1
  Pb  Pb5  1  0.006615  0.029511  0.981414  1
  Se  Se6  1  0.554051  0.127866  0.132812  1
  Se  Se7  1  0.554045  0.627866  0.632815  1
  Se  Se8  1  0.446288  0.871519  0.868269  1
  Se  Se9  1  0.446290  0.371520  0.368269  1
  Se  Se10  1  0.794347  0.094976  0.574943  1
  Se  Se11  1  0.794342  0.594975  0.074957  1
  Se  Se12  1  0.205443  0.908016  0.422904  1
  Se  Se13  1  0.205449  0.408018  0.922899  1
  O  O14  1  0.725528  0.719666  0.712350  1
  O  O15  1  0.725535  0.219667  0.212345  1
  O  O16  1  0.275933  0.279119  0.287539  1
  O  O17  1  0.275923  0.779115  0.787550  1
  O  O18  1  0.984875  0.187213  0.470534  1
  O  O19  1  0.984866  0.687219  0.970536  1
  O  O20  1  0.016255  0.811017  0.528771  1
  O  O21  1  0.016267  0.311016  0.028772  1
  O  O22  1  0.648492  0.629474  0.458986  1
  O  O23  1  0.648495  0.129473  0.958984  1
  O  O24  1  0.352703  0.369801  0.541714  1
  O  O25  1  0.352707  0.869799  0.041717  1
  O  O26  1  0.929039  0.957974  0.738005  1
  O  O27  1  0.929045  0.457973  0.238009  1
  O  O28  1  0.070703  0.041986  0.259391  1
  O  O29  1  0.070696  0.541987  0.759393  1
  O  O30  1  0.592471  0.937156  0.264812  1
  O  O31  1  0.592475  0.437154  0.764808  1
  O  O32  1  0.401214  0.062417  0.738114  1
  O  O33  1  0.401215  0.562419  0.238115  1
  O  O34  1  0.743374  0.230978  0.659706  1
  O  O35  1  0.743377  0.730977  0.159718  1
  O  O36  1  0.258115  0.765604  0.345677  1
  O  O37  1  0.258111  0.265608  0.845667  1
