# generated using pymatgen
data_Ba4In3FeP4(O2F)8
_symmetry_space_group_name_H-M   'P 1'
_cell_length_a   13.30203200
_cell_length_b   5.42130597
_cell_length_c   8.26037500
_cell_angle_alpha   62.11931977
_cell_angle_beta   90.00000000
_cell_angle_gamma   90.00000000
_symmetry_Int_Tables_number   1
_chemical_formula_structural   Ba4In3FeP4(O2F)8
_chemical_formula_sum   'Ba4 In3 Fe1 P4 O16 F8'
_cell_volume   526.54595793
_cell_formula_units_Z   1
loop_
 _symmetry_equiv_pos_site_id
 _symmetry_equiv_pos_as_xyz
  1  'x, y, z'
loop_
 _atom_site_type_symbol
 _atom_site_label
 _atom_site_symmetry_multiplicity
 _atom_site_fract_x
 _atom_site_fract_y
 _atom_site_fract_z
 _atom_site_occupancy
  Ba  Ba0  1  0.706251  0.354827  0.189634  1
  Ba  Ba1  1  0.293749  0.645173  0.810366  1
  Ba  Ba2  1  0.211633  0.647941  0.306653  1
  Ba  Ba3  1  0.788367  0.352059  0.693347  1
  In  In4  1  0.000000  0.500000  0.000000  1
  In  In5  1  0.500000  0.500000  0.500000  1
  In  In6  1  0.000000  0.000000  0.500000  1
  Fe  Fe7  1  0.500000  0.000000  0.000000  1
  P  P8  1  0.884076  0.871859  0.195810  1
  P  P9  1  0.115924  0.128141  0.804190  1
  P  P10  1  0.386393  0.124737  0.300708  1
  P  P11  1  0.613607  0.875263  0.699292  1
  O  O12  1  0.894918  0.723884  0.074440  1
  O  O13  1  0.105082  0.276116  0.925560  1
  O  O14  1  0.398717  0.275766  0.419803  1
  O  O15  1  0.601283  0.724234  0.580197  1
  O  O16  1  0.379895  0.799845  0.440051  1
  O  O17  1  0.620105  0.200155  0.559949  1
  O  O18  1  0.878599  0.197793  0.061145  1
  O  O19  1  0.121401  0.802207  0.938855  1
  O  O20  1  0.977672  0.815649  0.322953  1
  O  O21  1  0.022328  0.184351  0.677047  1
  O  O22  1  0.477400  0.171555  0.170116  1
  O  O23  1  0.522600  0.828445  0.829884  1
  O  O24  1  0.785046  0.781705  0.302869  1
  O  O25  1  0.214954  0.218295  0.697131  1
  O  O26  1  0.286947  0.217416  0.195314  1
  O  O27  1  0.713053  0.782584  0.804686  1
  F  F28  1  0.366807  0.826729  0.048781  1
  F  F29  1  0.633193  0.173271  0.951219  1
  F  F30  1  0.855613  0.184752  0.450676  1
  F  F31  1  0.144387  0.815248  0.549324  1
  F  F32  1  0.559157  0.675923  0.220062  1
  F  F33  1  0.440843  0.324077  0.779938  1
  F  F34  1  0.066188  0.338398  0.268269  1
  F  F35  1  0.933812  0.661602  0.731731  1
