# generated using pymatgen
data_Sm3Ag2Hg3Rh
_symmetry_space_group_name_H-M   'P 1'
_cell_length_a   8.06563800
_cell_length_b   8.06563901
_cell_length_c   3.77698800
_cell_angle_alpha   90.00000000
_cell_angle_beta   90.00000000
_cell_angle_gamma   120.00000404
_symmetry_Int_Tables_number   1
_chemical_formula_structural   Sm3Ag2Hg3Rh
_chemical_formula_sum   'Sm3 Ag2 Hg3 Rh1'
_cell_volume   212.79123056
_cell_formula_units_Z   1
loop_
 _symmetry_equiv_pos_site_id
 _symmetry_equiv_pos_as_xyz
  1  'x, y, z'
loop_
 _atom_site_type_symbol
 _atom_site_label
 _atom_site_symmetry_multiplicity
 _atom_site_fract_x
 _atom_site_fract_y
 _atom_site_fract_z
 _atom_site_occupancy
  Sm  Sm0  1  0.582210  0.970320  0.500000  1
  Sm  Sm1  1  0.029680  0.611890  0.500000  1
  Sm  Sm2  1  0.388110  0.417790  0.500000  1
  Ag  Ag3  1  0.000000  0.000000  0.500000  1
  Ag  Ag4  1  0.666667  0.333333  0.000000  1
  Hg  Hg5  1  0.275844  0.003049  0.000000  1
  Hg  Hg6  1  0.727205  0.724156  0.000000  1
  Hg  Hg7  1  0.996951  0.272795  0.000000  1
  Rh  Rh8  1  0.333333  0.666667  0.000000  1
