# generated using pymatgen
data_Ho2Tc5(NiP)7
_symmetry_space_group_name_H-M   'P 1'
_cell_length_a   9.24894834
_cell_length_b   9.32472052
_cell_length_c   3.71277800
_cell_angle_alpha   90.00000000
_cell_angle_beta   90.00000000
_cell_angle_gamma   120.02825253
_symmetry_Int_Tables_number   1
_chemical_formula_structural   Ho2Tc5(NiP)7
_chemical_formula_sum   'Ho2 Tc5 Ni7 P7'
_cell_volume   277.22607819
_cell_formula_units_Z   1
loop_
 _symmetry_equiv_pos_site_id
 _symmetry_equiv_pos_as_xyz
  1  'x, y, z'
loop_
 _atom_site_type_symbol
 _atom_site_label
 _atom_site_symmetry_multiplicity
 _atom_site_fract_x
 _atom_site_fract_y
 _atom_site_fract_z
 _atom_site_occupancy
  Ho  Ho0  1  0.662063  0.329294  0.500000  1
  Ho  Ho1  1  0.334122  0.673219  0.000000  1
  Tc  Tc2  1  0.609265  0.563842  0.000000  1
  Tc  Tc3  1  0.952244  0.388511  0.000000  1
  Tc  Tc4  1  0.116417  0.201172  0.000000  1
  Tc  Tc5  1  0.103387  0.873749  0.000000  1
  Tc  Tc6  1  0.789139  0.911763  0.000000  1
  Ni  Ni7  1  0.845364  0.727645  0.500000  1
  Ni  Ni8  1  0.281807  0.118147  0.500000  1
  Ni  Ni9  1  0.362897  0.427988  0.500000  1
  Ni  Ni10  1  0.563843  0.935414  0.500000  1
  Ni  Ni11  1  0.062864  0.634145  0.500000  1
  Ni  Ni12  1  0.876749  0.157836  0.500000  1
  Ni  Ni13  1  0.441902  0.051978  0.000000  1
  P  P14  1  0.001786  0.002430  0.500000  1
  P  P15  1  0.709275  0.115987  0.000000  1
  P  P16  1  0.117895  0.414095  0.500000  1
  P  P17  1  0.588395  0.706841  0.500000  1
  P  P18  1  0.296343  0.886831  0.500000  1
  P  P19  1  0.880643  0.596300  0.000000  1
  P  P20  1  0.403598  0.282812  0.000000  1
