# generated using pymatgen
data_ScCo3P3Rh2
_symmetry_space_group_name_H-M   'P 1'
_cell_length_a   3.66657200
_cell_length_b   10.40676800
_cell_length_c   11.99562500
_cell_angle_alpha   90.00000000
_cell_angle_beta   90.00000000
_cell_angle_gamma   90.00000000
_symmetry_Int_Tables_number   1
_chemical_formula_structural   ScCo3P3Rh2
_chemical_formula_sum   'Sc4 Co12 P12 Rh8'
_cell_volume   457.71903232
_cell_formula_units_Z   4
loop_
 _symmetry_equiv_pos_site_id
 _symmetry_equiv_pos_as_xyz
  1  'x, y, z'
loop_
 _atom_site_type_symbol
 _atom_site_label
 _atom_site_symmetry_multiplicity
 _atom_site_fract_x
 _atom_site_fract_y
 _atom_site_fract_z
 _atom_site_occupancy
  Sc  Sc0  1  0.250000  0.581967  0.712305  1
  Sc  Sc1  1  0.250000  0.918033  0.212305  1
  Sc  Sc2  1  0.750000  0.418033  0.287695  1
  Sc  Sc3  1  0.750000  0.081967  0.787695  1
  Co  Co4  1  0.250000  0.222572  0.178103  1
  Co  Co5  1  0.250000  0.277429  0.678103  1
  Co  Co6  1  0.750000  0.777429  0.821897  1
  Co  Co7  1  0.750000  0.722571  0.321897  1
  Co  Co8  1  0.250000  0.881990  0.698161  1
  Co  Co9  1  0.250000  0.618010  0.198161  1
  Co  Co10  1  0.750000  0.118010  0.301839  1
  Co  Co11  1  0.750000  0.381990  0.801839  1
  Co  Co12  1  0.250000  0.462316  0.929653  1
  Co  Co13  1  0.250000  0.037684  0.429653  1
  Co  Co14  1  0.750000  0.537684  0.070347  1
  Co  Co15  1  0.750000  0.962316  0.570347  1
  P  P16  1  0.250000  0.422354  0.113566  1
  P  P17  1  0.250000  0.077646  0.613566  1
  P  P18  1  0.750000  0.577646  0.886434  1
  P  P19  1  0.750000  0.922354  0.386434  1
  P  P20  1  0.250000  0.270524  0.860510  1
  P  P21  1  0.250000  0.229476  0.360510  1
  P  P22  1  0.750000  0.729476  0.139490  1
  P  P23  1  0.750000  0.770524  0.639490  1
  P  P24  1  0.250000  0.602525  0.378783  1
  P  P25  1  0.250000  0.897475  0.878783  1
  P  P26  1  0.750000  0.397475  0.621217  1
  P  P27  1  0.750000  0.102525  0.121217  1
  Rh  Rh28  1  0.250000  0.711752  0.986838  1
  Rh  Rh29  1  0.250000  0.788248  0.486838  1
  Rh  Rh30  1  0.750000  0.288248  0.013162  1
  Rh  Rh31  1  0.750000  0.211752  0.513162  1
  Rh  Rh32  1  0.250000  0.407251  0.474432  1
  Rh  Rh33  1  0.250000  0.092749  0.974432  1
  Rh  Rh34  1  0.750000  0.592749  0.525568  1
  Rh  Rh35  1  0.750000  0.907251  0.025568  1
