# generated using pymatgen
data_Tb12CdNi4Pd
_symmetry_space_group_name_H-M   'P 1'
_cell_length_a   8.37975201
_cell_length_b   8.37983622
_cell_length_c   8.37975389
_cell_angle_alpha   106.82795326
_cell_angle_beta   109.78708645
_cell_angle_gamma   111.83709464
_symmetry_Int_Tables_number   1
_chemical_formula_structural   Tb12CdNi4Pd
_chemical_formula_sum   'Tb12 Cd1 Ni4 Pd1'
_cell_volume   452.10819654
_cell_formula_units_Z   1
loop_
 _symmetry_equiv_pos_site_id
 _symmetry_equiv_pos_as_xyz
  1  'x, y, z'
loop_
 _atom_site_type_symbol
 _atom_site_label
 _atom_site_symmetry_multiplicity
 _atom_site_fract_x
 _atom_site_fract_y
 _atom_site_fract_z
 _atom_site_occupancy
  Tb  Tb0  1  0.693040  0.281367  0.974404  1
  Tb  Tb1  1  0.306960  0.718633  0.025596  1
  Tb  Tb2  1  0.693037  0.718633  0.411672  1
  Tb  Tb3  1  0.306963  0.281367  0.588328  1
  Tb  Tb4  1  0.805737  0.128647  0.322910  1
  Tb  Tb5  1  0.805751  0.482839  0.677088  1
  Tb  Tb6  1  0.194263  0.871353  0.677090  1
  Tb  Tb7  1  0.194249  0.517161  0.322912  1
  Tb  Tb8  1  0.612892  0.795101  0.817793  1
  Tb  Tb9  1  0.977310  0.795101  0.182209  1
  Tb  Tb10  1  0.022690  0.204899  0.817791  1
  Tb  Tb11  1  0.387108  0.204899  0.182207  1
  Cd  Cd12  1  0.500000  0.000000  0.500000  1
  Ni  Ni13  1  0.862577  0.500000  0.362577  1
  Ni  Ni14  1  0.137423  0.500000  0.637423  1
  Ni  Ni15  1  0.000001  0.124527  0.124526  1
  Ni  Ni16  1  0.999999  0.875473  0.875474  1
  Pd  Pd17  1  0.500000  0.500000  0.000000  1
