# generated using pymatgen
data_La2HoTa2Bi3O14
_symmetry_space_group_name_H-M   'P 1'
_cell_length_a   6.68312657
_cell_length_b   6.72876607
_cell_length_c   7.69319700
_cell_angle_alpha   90.00000000
_cell_angle_beta   90.00000000
_cell_angle_gamma   110.87099568
_symmetry_Int_Tables_number   1
_chemical_formula_structural   La2HoTa2Bi3O14
_chemical_formula_sum   'La2 Ho1 Ta2 Bi3 O14'
_cell_volume   323.25689801
_cell_formula_units_Z   1
loop_
 _symmetry_equiv_pos_site_id
 _symmetry_equiv_pos_as_xyz
  1  'x, y, z'
loop_
 _atom_site_type_symbol
 _atom_site_label
 _atom_site_symmetry_multiplicity
 _atom_site_fract_x
 _atom_site_fract_y
 _atom_site_fract_z
 _atom_site_occupancy
  La  La0  1  0.002371  0.988571  0.002907  1
  La  La1  1  0.002371  0.988571  0.497093  1
  Ho  Ho2  1  0.049929  0.504446  0.250000  1
  Ta  Ta3  1  0.502519  0.503604  0.001612  1
  Ta  Ta4  1  0.502519  0.503604  0.498388  1
  Bi  Bi5  1  0.489674  0.965041  0.750000  1
  Bi  Bi6  1  0.523846  0.034559  0.250000  1
  Bi  Bi7  1  0.970757  0.474957  0.750000  1
  O  O8  1  0.861111  0.102208  0.750000  1
  O  O9  1  0.165812  0.862136  0.250000  1
  O  O10  1  0.116651  0.835575  0.750000  1
  O  O11  1  0.906692  0.150887  0.250000  1
  O  O12  1  0.429750  0.194847  0.960046  1
  O  O13  1  0.569072  0.824632  0.463761  1
  O  O14  1  0.175517  0.447117  0.527409  1
  O  O15  1  0.803053  0.559847  0.050452  1
  O  O16  1  0.407324  0.457190  0.250000  1
  O  O17  1  0.543640  0.575764  0.750000  1
  O  O18  1  0.175517  0.447117  0.972591  1
  O  O19  1  0.803053  0.559847  0.449548  1
  O  O20  1  0.429750  0.194847  0.539954  1
  O  O21  1  0.569072  0.824632  0.036239  1
