# generated using pymatgen
data_Zr4Ti3Re4W
_symmetry_space_group_name_H-M   'P 1'
_cell_length_a   5.34585592
_cell_length_b   5.29386966
_cell_length_c   8.87463500
_cell_angle_alpha   90.00000000
_cell_angle_beta   90.00000000
_cell_angle_gamma   119.67882444
_symmetry_Int_Tables_number   1
_chemical_formula_structural   Zr4Ti3Re4W
_chemical_formula_sum   'Zr4 Ti3 Re4 W1'
_cell_volume   218.20670366
_cell_formula_units_Z   1
loop_
 _symmetry_equiv_pos_site_id
 _symmetry_equiv_pos_as_xyz
  1  'x, y, z'
loop_
 _atom_site_type_symbol
 _atom_site_label
 _atom_site_symmetry_multiplicity
 _atom_site_fract_x
 _atom_site_fract_y
 _atom_site_fract_z
 _atom_site_occupancy
  Zr  Zr0  1  0.333627  0.666813  0.439411  1
  Zr  Zr1  1  0.668898  0.334448  0.934552  1
  Zr  Zr2  1  0.668898  0.334448  0.565448  1
  Zr  Zr3  1  0.333627  0.666813  0.060589  1
  Ti  Ti4  1  0.339137  0.169568  0.250000  1
  Ti  Ti5  1  0.998474  0.999237  0.499035  1
  Ti  Ti6  1  0.998474  0.999237  0.000965  1
  Re  Re7  1  0.833554  0.171799  0.250000  1
  Re  Re8  1  0.166556  0.335813  0.750000  1
  Re  Re9  1  0.166556  0.830743  0.750000  1
  Re  Re10  1  0.833554  0.661755  0.250000  1
  W  W11  1  0.658646  0.829323  0.750000  1
