# generated using pymatgen
data_Hf4Fe3Co5P6
_symmetry_space_group_name_H-M   'P 1'
_cell_length_a   12.02775508
_cell_length_b   12.09112212
_cell_length_c   3.64580300
_cell_angle_alpha   90.00000000
_cell_angle_beta   90.00000000
_cell_angle_gamma   120.00134591
_symmetry_Int_Tables_number   1
_chemical_formula_structural   Hf4Fe3Co5P6
_chemical_formula_sum   'Hf8 Fe6 Co10 P12'
_cell_volume   459.16536659
_cell_formula_units_Z   2
loop_
 _symmetry_equiv_pos_site_id
 _symmetry_equiv_pos_as_xyz
  1  'x, y, z'
loop_
 _atom_site_type_symbol
 _atom_site_label
 _atom_site_symmetry_multiplicity
 _atom_site_fract_x
 _atom_site_fract_y
 _atom_site_fract_z
 _atom_site_occupancy
  Hf  Hf0  1  0.815213  0.815592  0.500000  1
  Hf  Hf1  1  0.441225  0.440240  0.000000  1
  Hf  Hf2  1  0.999440  0.184979  0.500000  1
  Hf  Hf3  1  0.558205  0.998482  0.000000  1
  Hf  Hf4  1  0.335062  0.667315  0.000000  1
  Hf  Hf5  1  0.666291  0.332537  0.000000  1
  Hf  Hf6  1  0.000444  0.559124  0.000000  1
  Hf  Hf7  1  0.183961  0.001481  0.500000  1
  Fe  Fe8  1  0.626439  0.819338  0.000000  1
  Fe  Fe9  1  0.372779  0.193394  0.000000  1
  Fe  Fe10  1  0.000427  0.725658  0.500000  1
  Fe  Fe11  1  0.273231  0.276718  0.500000  1
  Fe  Fe12  1  0.876169  0.355155  0.500000  1
  Fe  Fe13  1  0.725931  0.001746  0.500000  1
  Co  Co14  1  0.819572  0.627687  0.000000  1
  Co  Co15  1  0.181089  0.809306  0.000000  1
  Co  Co16  1  0.357395  0.872224  0.500000  1
  Co  Co17  1  0.130345  0.487854  0.500000  1
  Co  Co18  1  0.643333  0.514151  0.500000  1
  Co  Co19  1  0.999892  0.000337  0.000000  1
  Co  Co20  1  0.517670  0.642216  0.500000  1
  Co  Co21  1  0.482075  0.124678  0.500000  1
  Co  Co22  1  0.190379  0.372720  0.000000  1
  Co  Co23  1  0.806390  0.178595  0.000000  1
  P  P24  1  0.997197  0.349058  0.000000  1
  P  P25  1  0.827289  0.516861  0.500000  1
  P  P26  1  0.691530  0.173626  0.500000  1
  P  P27  1  0.177376  0.176752  0.000000  1
  P  P28  1  0.650442  0.651725  0.000000  1
  P  P29  1  0.821788  0.997763  0.000000  1
  P  P30  1  0.521353  0.826200  0.500000  1
  P  P31  1  0.173995  0.693564  0.500000  1
  P  P32  1  0.349352  0.002421  0.000000  1
  P  P33  1  0.478719  0.304999  0.500000  1
  P  P34  1  0.999546  0.823817  0.000000  1
  P  P35  1  0.308453  0.481686  0.500000  1
