# generated using pymatgen
data_Ag3Bi(Ir2O7)2
_symmetry_space_group_name_H-M   'P 1'
_cell_length_a   7.22894251
_cell_length_b   7.22894252
_cell_length_c   7.27609013
_cell_angle_alpha   60.21412378
_cell_angle_beta   60.21412401
_cell_angle_gamma   60.00000163
_symmetry_Int_Tables_number   1
_chemical_formula_structural   Ag3Bi(Ir2O7)2
_chemical_formula_sum   'Ag3 Bi1 Ir4 O14'
_cell_volume   269.73086833
_cell_formula_units_Z   1
loop_
 _symmetry_equiv_pos_site_id
 _symmetry_equiv_pos_as_xyz
  1  'x, y, z'
loop_
 _atom_site_type_symbol
 _atom_site_label
 _atom_site_symmetry_multiplicity
 _atom_site_fract_x
 _atom_site_fract_y
 _atom_site_fract_z
 _atom_site_occupancy
  Ag  Ag0  1  0.625000  0.125000  0.125000  1
  Ag  Ag1  1  0.125000  0.625000  0.125000  1
  Ag  Ag2  1  0.125000  0.125000  0.125000  1
  Bi  Bi3  1  0.125000  0.125000  0.625000  1
  Ir  Ir4  1  0.125000  0.625000  0.625000  1
  Ir  Ir5  1  0.625000  0.125000  0.625000  1
  Ir  Ir6  1  0.625000  0.625000  0.125000  1
  Ir  Ir7  1  0.625000  0.625000  0.625000  1
  O  O8  1  0.694844  0.694844  0.307824  1
  O  O9  1  0.296443  0.296443  0.694921  1
  O  O10  1  0.712194  0.296443  0.694921  1
  O  O11  1  0.302488  0.694844  0.307824  1
  O  O12  1  0.296443  0.712194  0.694921  1
  O  O13  1  0.694844  0.302488  0.307824  1
  O  O14  1  0.555156  0.555156  0.942176  1
  O  O15  1  0.953557  0.953557  0.555079  1
  O  O16  1  0.537806  0.953557  0.555079  1
  O  O17  1  0.947512  0.555156  0.942176  1
  O  O18  1  0.953557  0.537806  0.555079  1
  O  O19  1  0.555156  0.947512  0.942176  1
  O  O20  1  0.254610  0.254610  0.236169  1
  O  O21  1  0.995390  0.995390  0.013831  1
