# generated using pymatgen
data_YbEr3Sc4(B6Os)4
_symmetry_space_group_name_H-M   'P 1'
_cell_length_a   3.55326700
_cell_length_b   8.95333566
_cell_length_c   11.33524526
_cell_angle_alpha   89.99204101
_cell_angle_beta   90.00000000
_cell_angle_gamma   90.00000000
_symmetry_Int_Tables_number   1
_chemical_formula_structural   YbEr3Sc4(B6Os)4
_chemical_formula_sum   'Yb1 Er3 Sc4 B24 Os4'
_cell_volume   360.61486583
_cell_formula_units_Z   1
loop_
 _symmetry_equiv_pos_site_id
 _symmetry_equiv_pos_as_xyz
  1  'x, y, z'
loop_
 _atom_site_type_symbol
 _atom_site_label
 _atom_site_symmetry_multiplicity
 _atom_site_fract_x
 _atom_site_fract_y
 _atom_site_fract_z
 _atom_site_occupancy
  Yb  Yb0  1  0.000000  0.320925  0.413364  1
  Er  Er1  1  0.000000  0.678314  0.585811  1
  Er  Er2  1  0.000000  0.819941  0.086484  1
  Er  Er3  1  0.000000  0.180712  0.914258  1
  Sc  Sc4  1  0.000000  0.945232  0.372665  1
  Sc  Sc5  1  0.000000  0.056382  0.626557  1
  Sc  Sc6  1  0.000000  0.444667  0.127239  1
  Sc  Sc7  1  0.000000  0.554475  0.873914  1
  B  B8  1  0.500000  0.554112  0.432922  1
  B  B9  1  0.500000  0.445561  0.566958  1
  B  B10  1  0.500000  0.053642  0.066290  1
  B  B11  1  0.500000  0.945759  0.932973  1
  B  B12  1  0.500000  0.752375  0.419144  1
  B  B13  1  0.500000  0.248181  0.580810  1
  B  B14  1  0.500000  0.252089  0.080751  1
  B  B15  1  0.500000  0.747364  0.919560  1
  B  B16  1  0.500000  0.793818  0.265509  1
  B  B17  1  0.500000  0.207072  0.734639  1
  B  B18  1  0.500000  0.292812  0.234381  1
  B  B19  1  0.500000  0.706665  0.765641  1
  B  B20  1  0.500000  0.629199  0.183325  1
  B  B21  1  0.500000  0.371103  0.817574  1
  B  B22  1  0.500000  0.129040  0.316522  1
  B  B23  1  0.500000  0.870962  0.682848  1
  B  B24  1  0.500000  0.980918  0.213676  1
  B  B25  1  0.500000  0.019076  0.785512  1
  B  B26  1  0.500000  0.481122  0.285873  1
  B  B27  1  0.500000  0.518736  0.714267  1
  B  B28  1  0.500000  0.600587  0.027672  1
  B  B29  1  0.500000  0.399706  0.972951  1
  B  B30  1  0.500000  0.098373  0.473067  1
  B  B31  1  0.500000  0.900909  0.527099  1
  Os  Os32  1  0.000000  0.640176  0.319132  1
  Os  Os33  1  0.000000  0.360874  0.681710  1
  Os  Os34  1  0.000000  0.138013  0.179718  1
  Os  Os35  1  0.000000  0.861107  0.819182  1
