# generated using pymatgen
data_Dy2Ti4Sn5
_symmetry_space_group_name_H-M   'P 1'
_cell_length_a   10.77593708
_cell_length_b   10.77593724
_cell_length_c   10.77593588
_cell_angle_alpha   148.86175352
_cell_angle_beta   131.60793692
_cell_angle_gamma   58.67097094
_symmetry_Int_Tables_number   1
_chemical_formula_structural   Dy2Ti4Sn5
_chemical_formula_sum   'Dy4 Ti8 Sn10'
_cell_volume   480.00316742
_cell_formula_units_Z   2
loop_
 _symmetry_equiv_pos_site_id
 _symmetry_equiv_pos_as_xyz
  1  'x, y, z'
loop_
 _atom_site_type_symbol
 _atom_site_label
 _atom_site_symmetry_multiplicity
 _atom_site_fract_x
 _atom_site_fract_y
 _atom_site_fract_z
 _atom_site_occupancy
  Dy  Dy0  1  0.256658  0.143328  0.113332  1
  Dy  Dy1  1  0.743342  0.856672  0.886668  1
  Dy  Dy2  1  0.029996  0.643328  0.386668  1
  Dy  Dy3  1  0.970004  0.356672  0.613332  1
  Ti  Ti4  1  0.310994  0.560994  0.250000  1
  Ti  Ti5  1  0.689006  0.439006  0.750000  1
  Ti  Ti6  1  0.689006  0.939006  0.250000  1
  Ti  Ti7  1  0.310994  0.060994  0.750000  1
  Ti  Ti8  1  0.676161  0.436391  0.239768  1
  Ti  Ti9  1  0.323839  0.563609  0.760232  1
  Ti  Ti10  1  0.196623  0.936391  0.260232  1
  Ti  Ti11  1  0.803377  0.063609  0.739768  1
  Sn  Sn12  1  0.585165  0.289562  0.295604  1
  Sn  Sn13  1  0.414835  0.710438  0.704396  1
  Sn  Sn14  1  0.993958  0.789562  0.204396  1
  Sn  Sn15  1  0.006042  0.210438  0.795604  1
  Sn  Sn16  1  0.000000  0.250000  0.250000  1
  Sn  Sn17  1  0.000000  0.750000  0.750000  1
  Sn  Sn18  1  0.473458  0.066958  0.406498  1
  Sn  Sn19  1  0.526542  0.933042  0.593502  1
  Sn  Sn20  1  0.660461  0.566958  0.093502  1
  Sn  Sn21  1  0.339539  0.433042  0.906498  1
