# generated using pymatgen
data_Mn5GePt10
_symmetry_space_group_name_H-M   'P 1'
_cell_length_a   4.05059200
_cell_length_b   5.51983573
_cell_length_c   10.92744950
_cell_angle_alpha   88.40775384
_cell_angle_beta   90.00000000
_cell_angle_gamma   90.00000000
_symmetry_Int_Tables_number   1
_chemical_formula_structural   Mn5GePt10
_chemical_formula_sum   'Mn5 Ge1 Pt10'
_cell_volume   244.22816239
_cell_formula_units_Z   1
loop_
 _symmetry_equiv_pos_site_id
 _symmetry_equiv_pos_as_xyz
  1  'x, y, z'
loop_
 _atom_site_type_symbol
 _atom_site_label
 _atom_site_symmetry_multiplicity
 _atom_site_fract_x
 _atom_site_fract_y
 _atom_site_fract_z
 _atom_site_occupancy
  Mn  Mn0  1  0.500000  0.204246  0.634197  1
  Mn  Mn1  1  0.500000  0.795754  0.365803  1
  Mn  Mn2  1  0.500000  0.693107  0.861374  1
  Mn  Mn3  1  0.500000  0.306893  0.138626  1
  Mn  Mn4  1  0.000000  0.500000  0.500000  1
  Ge  Ge5  1  0.000000  0.000000  0.000000  1
  Pt  Pt6  1  0.500000  0.286682  0.384975  1
  Pt  Pt7  1  0.500000  0.713318  0.615025  1
  Pt  Pt8  1  0.500000  0.794522  0.109105  1
  Pt  Pt9  1  0.500000  0.205478  0.890895  1
  Pt  Pt10  1  0.000000  0.447091  0.743542  1
  Pt  Pt11  1  0.000000  0.552909  0.256458  1
  Pt  Pt12  1  0.000000  0.948901  0.759029  1
  Pt  Pt13  1  0.000000  0.051099  0.240971  1
  Pt  Pt14  1  0.000000  0.500000  0.000000  1
  Pt  Pt15  1  0.000000  0.000000  0.500000  1
