# generated using pymatgen
data_Tb10HoIn9Co4
_symmetry_space_group_name_H-M   'P 1'
_cell_length_a   12.96628302
_cell_length_b   12.96628385
_cell_length_c   3.65193100
_cell_angle_alpha   90.00000000
_cell_angle_beta   90.00000000
_cell_angle_gamma   111.18925376
_symmetry_Int_Tables_number   1
_chemical_formula_structural   Tb10HoIn9Co4
_chemical_formula_sum   'Tb10 Ho1 In9 Co4'
_cell_volume   572.46895750
_cell_formula_units_Z   1
loop_
 _symmetry_equiv_pos_site_id
 _symmetry_equiv_pos_as_xyz
  1  'x, y, z'
loop_
 _atom_site_type_symbol
 _atom_site_label
 _atom_site_symmetry_multiplicity
 _atom_site_fract_x
 _atom_site_fract_y
 _atom_site_fract_z
 _atom_site_occupancy
  Tb  Tb0  1  0.081264  0.418698  0.000000  1
  Tb  Tb1  1  0.918267  0.581516  0.000000  1
  Tb  Tb2  1  0.418698  0.081264  0.000000  1
  Tb  Tb3  1  0.581516  0.918267  0.000000  1
  Tb  Tb4  1  0.624539  0.375881  0.000000  1
  Tb  Tb5  1  0.375881  0.624539  0.000000  1
  Tb  Tb6  1  0.838559  0.161409  0.000000  1
  Tb  Tb7  1  0.161409  0.838559  0.000000  1
  Tb  Tb8  1  0.000029  0.000029  0.000000  1
  Tb  Tb9  1  0.314230  0.314230  0.000000  1
  Ho  Ho10  1  0.685651  0.685651  0.000000  1
  In  In11  1  0.839546  0.369331  0.500000  1
  In  In12  1  0.160532  0.630717  0.500000  1
  In  In13  1  0.369331  0.839546  0.500000  1
  In  In14  1  0.630717  0.160532  0.500000  1
  In  In15  1  0.078458  0.220266  0.500000  1
  In  In16  1  0.920874  0.779547  0.500000  1
  In  In17  1  0.220266  0.078458  0.500000  1
  In  In18  1  0.779547  0.920874  0.500000  1
  In  In19  1  0.500549  0.500549  0.500000  1
  Co  Co20  1  0.246043  0.448856  0.500000  1
  Co  Co21  1  0.753477  0.551761  0.500000  1
  Co  Co22  1  0.448856  0.246043  0.500000  1
  Co  Co23  1  0.551761  0.753477  0.500000  1
