# generated using pymatgen
data_Y12Th4Cd3Co4Hg
_symmetry_space_group_name_H-M   'P 1'
_cell_length_a   9.62953676
_cell_length_b   9.63922945
_cell_length_c   9.63923100
_cell_angle_alpha   59.99999813
_cell_angle_beta   59.96669584
_cell_angle_gamma   59.96669784
_symmetry_Int_Tables_number   1
_chemical_formula_structural   Y12Th4Cd3Co4Hg
_chemical_formula_sum   'Y12 Th4 Cd3 Co4 Hg1'
_cell_volume   632.34822033
_cell_formula_units_Z   1
loop_
 _symmetry_equiv_pos_site_id
 _symmetry_equiv_pos_as_xyz
  1  'x, y, z'
loop_
 _atom_site_type_symbol
 _atom_site_label
 _atom_site_symmetry_multiplicity
 _atom_site_fract_x
 _atom_site_fract_y
 _atom_site_fract_z
 _atom_site_occupancy
  Y  Y0  1  0.812456  0.187780  0.187780  1
  Y  Y1  1  0.188454  0.811832  0.811832  1
  Y  Y2  1  0.188454  0.811832  0.187882  1
  Y  Y3  1  0.812456  0.187780  0.811984  1
  Y  Y4  1  0.188454  0.187882  0.811832  1
  Y  Y5  1  0.812456  0.811984  0.187780  1
  Y  Y6  1  0.937216  0.563697  0.563697  1
  Y  Y7  1  0.564234  0.935837  0.935837  1
  Y  Y8  1  0.564234  0.935837  0.564091  1
  Y  Y9  1  0.937216  0.563697  0.935391  1
  Y  Y10  1  0.564234  0.564091  0.935837  1
  Y  Y11  1  0.937216  0.935391  0.563697  1
  Th  Th12  1  0.345358  0.345776  0.345776  1
  Th  Th13  1  0.345358  0.345776  0.963090  1
  Th  Th14  1  0.345358  0.963090  0.345776  1
  Th  Th15  1  0.964992  0.345003  0.345003  1
  Cd  Cd16  1  0.582674  0.581877  0.581877  1
  Cd  Cd17  1  0.582674  0.581877  0.253569  1
  Cd  Cd18  1  0.582674  0.253569  0.581877  1
  Co  Co19  1  0.145288  0.145142  0.145142  1
  Co  Co20  1  0.145288  0.145142  0.564427  1
  Co  Co21  1  0.145288  0.564427  0.145142  1
  Co  Co22  1  0.564743  0.145085  0.145085  1
  Hg  Hg23  1  0.243220  0.585593  0.585593  1
