# generated using pymatgen
data_K3NpPt2O9
_symmetry_space_group_name_H-M   'P 1'
_cell_length_a   5.87127800
_cell_length_b   5.87116979
_cell_length_c   14.55908400
_cell_angle_alpha   90.00000000
_cell_angle_beta   90.00000000
_cell_angle_gamma   59.99437567
_symmetry_Int_Tables_number   1
_chemical_formula_structural   K3NpPt2O9
_chemical_formula_sum   'K6 Np2 Pt4 O18'
_cell_volume   434.60763528
_cell_formula_units_Z   2
loop_
 _symmetry_equiv_pos_site_id
 _symmetry_equiv_pos_as_xyz
  1  'x, y, z'
loop_
 _atom_site_type_symbol
 _atom_site_label
 _atom_site_symmetry_multiplicity
 _atom_site_fract_x
 _atom_site_fract_y
 _atom_site_fract_z
 _atom_site_occupancy
  K  K0  1  0.333329  0.333329  0.107306  1
  K  K1  1  0.000017  0.999946  0.250000  1
  K  K2  1  0.333329  0.333329  0.392693  1
  K  K3  1  0.666671  0.666671  0.607307  1
  K  K4  1  0.999983  0.000054  0.750000  1
  K  K5  1  0.666671  0.666671  0.892694  1
  Np  Np6  1  0.000000  0.000000  0.000000  1
  Np  Np7  1  0.000000  0.000000  0.500000  1
  Pt  Pt8  1  0.666675  0.666673  0.155576  1
  Pt  Pt9  1  0.666675  0.666673  0.344424  1
  Pt  Pt10  1  0.333325  0.333327  0.655576  1
  Pt  Pt11  1  0.333325  0.333327  0.844424  1
  O  O12  1  0.833780  0.332456  0.078581  1
  O  O13  1  0.332441  0.833791  0.078576  1
  O  O14  1  0.833796  0.833802  0.078575  1
  O  O15  1  0.957870  0.521117  0.250000  1
  O  O16  1  0.521094  0.521136  0.250000  1
  O  O17  1  0.521067  0.957925  0.250000  1
  O  O18  1  0.833780  0.332456  0.421419  1
  O  O19  1  0.332441  0.833791  0.421424  1
  O  O20  1  0.833796  0.833802  0.421425  1
  O  O21  1  0.166204  0.166198  0.578575  1
  O  O22  1  0.667559  0.166209  0.578576  1
  O  O23  1  0.166220  0.667544  0.578581  1
  O  O24  1  0.478932  0.042075  0.750000  1
  O  O25  1  0.478906  0.478864  0.750000  1
  O  O26  1  0.042130  0.478882  0.750000  1
  O  O27  1  0.166204  0.166198  0.921425  1
  O  O28  1  0.667559  0.166209  0.921424  1
  O  O29  1  0.166220  0.667544  0.921419  1
