# generated using pymatgen
data_Ho4Tm8ZnCo4Sn
_symmetry_space_group_name_H-M   'P 1'
_cell_length_a   8.23140790
_cell_length_b   8.23140737
_cell_length_c   8.23140815
_cell_angle_alpha   112.22823863
_cell_angle_beta   109.27533343
_cell_angle_gamma   106.95346549
_symmetry_Int_Tables_number   1
_chemical_formula_structural   Ho4Tm8ZnCo4Sn
_chemical_formula_sum   'Ho4 Tm8 Zn1 Co4 Sn1'
_cell_volume   428.42226044
_cell_formula_units_Z   1
loop_
 _symmetry_equiv_pos_site_id
 _symmetry_equiv_pos_as_xyz
  1  'x, y, z'
loop_
 _atom_site_type_symbol
 _atom_site_label
 _atom_site_symmetry_multiplicity
 _atom_site_fract_x
 _atom_site_fract_y
 _atom_site_fract_z
 _atom_site_occupancy
  Ho  Ho0  1  0.429877  0.228735  0.201142  1
  Ho  Ho1  1  0.570123  0.771265  0.798858  1
  Ho  Ho2  1  0.027593  0.228735  0.798858  1
  Ho  Ho3  1  0.972407  0.771265  0.201142  1
  Tm  Tm4  1  0.182066  0.283837  0.465903  1
  Tm  Tm5  1  0.817934  0.716163  0.534097  1
  Tm  Tm6  1  0.182066  0.716163  0.898228  1
  Tm  Tm7  1  0.817934  0.283837  0.101772  1
  Tm  Tm8  1  0.324140  0.635529  0.311388  1
  Tm  Tm9  1  0.675860  0.364471  0.688612  1
  Tm  Tm10  1  0.324140  0.012752  0.688612  1
  Tm  Tm11  1  0.675860  0.987248  0.311388  1
  Zn  Zn12  1  0.000000  0.000000  0.000000  1
  Co  Co13  1  0.347653  0.000000  0.347653  1
  Co  Co14  1  0.652347  0.000000  0.652347  1
  Co  Co15  1  0.114869  0.614869  0.500000  1
  Co  Co16  1  0.885131  0.385131  0.500000  1
  Sn  Sn17  1  0.500000  0.500000  0.000000  1
