# generated using pymatgen
data_ZrSc2HgC2
_symmetry_space_group_name_H-M   'P 1'
_cell_length_a   3.34223500
_cell_length_b   3.34223439
_cell_length_c   20.69893800
_cell_angle_alpha   90.00000000
_cell_angle_beta   90.00000000
_cell_angle_gamma   119.99999614
_symmetry_Int_Tables_number   1
_chemical_formula_structural   ZrSc2HgC2
_chemical_formula_sum   'Zr2 Sc4 Hg2 C4'
_cell_volume   200.24081247
_cell_formula_units_Z   2
loop_
 _symmetry_equiv_pos_site_id
 _symmetry_equiv_pos_as_xyz
  1  'x, y, z'
loop_
 _atom_site_type_symbol
 _atom_site_label
 _atom_site_symmetry_multiplicity
 _atom_site_fract_x
 _atom_site_fract_y
 _atom_site_fract_z
 _atom_site_occupancy
  Zr  Zr0  1  0.000000  0.000000  0.000000  1
  Zr  Zr1  1  0.000000  0.000000  0.500000  1
  Sc  Sc2  1  0.333333  0.666667  0.124143  1
  Sc  Sc3  1  0.333333  0.666667  0.375857  1
  Sc  Sc4  1  0.666667  0.333335  0.624143  1
  Sc  Sc5  1  0.666667  0.333335  0.875857  1
  Hg  Hg6  1  0.000000  0.000000  0.250000  1
  Hg  Hg7  1  0.000000  0.000000  0.750000  1
  C  C8  1  0.666667  0.333335  0.068479  1
  C  C9  1  0.666667  0.333335  0.431521  1
  C  C10  1  0.333333  0.666667  0.568479  1
  C  C11  1  0.333333  0.666667  0.931521  1
