# generated using pymatgen
data_LiDyZr2(Al8Pt3)3
_symmetry_space_group_name_H-M   'P 1'
_cell_length_a   7.47722156
_cell_length_b   7.49286614
_cell_length_c   13.05226692
_cell_angle_alpha   84.62541117
_cell_angle_beta   79.16586969
_cell_angle_gamma   59.99483238
_symmetry_Int_Tables_number   1
_chemical_formula_structural   LiDyZr2(Al8Pt3)3
_chemical_formula_sum   'Li1 Dy1 Zr2 Al24 Pt9'
_cell_volume   621.97256509
_cell_formula_units_Z   1
loop_
 _symmetry_equiv_pos_site_id
 _symmetry_equiv_pos_as_xyz
  1  'x, y, z'
loop_
 _atom_site_type_symbol
 _atom_site_label
 _atom_site_symmetry_multiplicity
 _atom_site_fract_x
 _atom_site_fract_y
 _atom_site_fract_z
 _atom_site_occupancy
  Li  Li0  1  0.739759  0.500743  0.794010  1
  Dy  Dy1  1  0.268050  0.502900  0.189336  1
  Zr  Zr2  1  0.391808  0.168287  0.810855  1
  Zr  Zr3  1  0.608262  0.829169  0.188292  1
  Al  Al4  1  0.681271  0.828510  0.938186  1
  Al  Al5  1  0.317268  0.163398  0.056211  1
  Al  Al6  1  0.145746  0.832722  0.564483  1
  Al  Al7  1  0.853748  0.166583  0.438681  1
  Al  Al8  1  0.478991  0.166726  0.561597  1
  Al  Al9  1  0.519896  0.832887  0.440479  1
  Al  Al10  1  0.220340  0.164217  0.326643  1
  Al  Al11  1  0.775970  0.831585  0.680070  1
  Al  Al12  1  0.441275  0.502860  0.681381  1
  Al  Al13  1  0.563560  0.495654  0.326720  1
  Al  Al14  1  0.102049  0.167689  0.680194  1
  Al  Al15  1  0.889340  0.839137  0.327219  1
  Al  Al16  1  0.365737  0.494162  0.936731  1
  Al  Al17  1  0.651370  0.500184  0.050481  1
  Al  Al18  1  0.014639  0.175570  0.944573  1
  Al  Al19  1  0.982626  0.833813  0.045449  1
  Al  Al20  1  0.186032  0.500156  0.441586  1
  Al  Al21  1  0.811692  0.500697  0.562230  1
  Al  Al22  1  0.733086  0.158836  0.183537  1
  Al  Al23  1  0.269049  0.841861  0.818010  1
  Al  Al24  1  0.065670  0.622523  0.817136  1
  Al  Al25  1  0.932539  0.374604  0.184823  1
  Al  Al26  1  0.843487  0.046989  0.817824  1
  Al  Al27  1  0.147779  0.960502  0.184569  1
  Pt  Pt28  1  0.122638  0.492211  0.639264  1
  Pt  Pt29  1  0.879647  0.508649  0.362038  1
  Pt  Pt30  1  0.655925  0.167828  0.002020  1
  Pt  Pt31  1  0.340052  0.829162  0.002295  1
  Pt  Pt32  1  0.537267  0.166390  0.361759  1
  Pt  Pt33  1  0.459524  0.835268  0.638747  1
  Pt  Pt34  1  0.779454  0.172669  0.637640  1
  Pt  Pt35  1  0.221223  0.824569  0.362950  1
  Pt  Pt36  1  0.003230  0.500292  0.001979  1
