# generated using pymatgen
data_Pr4NdRuRh
_symmetry_space_group_name_H-M   'P 1'
_cell_length_a   9.07985221
_cell_length_b   9.07985245
_cell_length_c   7.38198303
_cell_angle_alpha   83.69066769
_cell_angle_beta   83.69066952
_cell_angle_gamma   42.85188153
_symmetry_Int_Tables_number   1
_chemical_formula_structural   Pr4NdRuRh
_chemical_formula_sum   'Pr8 Nd2 Ru2 Rh2'
_cell_volume   411.01643638
_cell_formula_units_Z   2
loop_
 _symmetry_equiv_pos_site_id
 _symmetry_equiv_pos_as_xyz
  1  'x, y, z'
loop_
 _atom_site_type_symbol
 _atom_site_label
 _atom_site_symmetry_multiplicity
 _atom_site_fract_x
 _atom_site_fract_y
 _atom_site_fract_z
 _atom_site_occupancy
  Pr  Pr0  1  0.010559  0.801844  0.918014  1
  Pr  Pr1  1  0.198156  0.989441  0.581986  1
  Pr  Pr2  1  0.982632  0.202471  0.086277  1
  Pr  Pr3  1  0.797529  0.017368  0.413723  1
  Pr  Pr4  1  0.361631  0.208915  0.814643  1
  Pr  Pr5  1  0.791085  0.638369  0.685357  1
  Pr  Pr6  1  0.645383  0.788488  0.188028  1
  Pr  Pr7  1  0.211512  0.354617  0.311972  1
  Nd  Nd8  1  0.570808  0.429192  0.750000  1
  Nd  Nd9  1  0.427218  0.572782  0.250000  1
  Ru  Ru10  1  0.819435  0.402870  0.427005  1
  Ru  Ru11  1  0.597130  0.180565  0.072995  1
  Rh  Rh12  1  0.181528  0.594606  0.575413  1
  Rh  Rh13  1  0.405394  0.818472  0.924587  1
