# generated using pymatgen
data_K3EuB24
_symmetry_space_group_name_H-M   'P 1'
_cell_length_a   4.21665900
_cell_length_b   4.21665900
_cell_length_c   16.86335500
_cell_angle_alpha   90.00000000
_cell_angle_beta   90.00000000
_cell_angle_gamma   90.00000000
_symmetry_Int_Tables_number   1
_chemical_formula_structural   K3EuB24
_chemical_formula_sum   'K3 Eu1 B24'
_cell_volume   299.83404586
_cell_formula_units_Z   1
loop_
 _symmetry_equiv_pos_site_id
 _symmetry_equiv_pos_as_xyz
  1  'x, y, z'
loop_
 _atom_site_type_symbol
 _atom_site_label
 _atom_site_symmetry_multiplicity
 _atom_site_fract_x
 _atom_site_fract_y
 _atom_site_fract_z
 _atom_site_occupancy
  K  K0  1  0.000000  0.000000  0.249572  1
  K  K1  1  0.000000  0.000000  0.500000  1
  K  K2  1  0.000000  0.000000  0.750428  1
  Eu  Eu3  1  0.000000  0.000000  0.000000  1
  B  B4  1  0.201249  0.500000  0.122408  1
  B  B5  1  0.199179  0.500000  0.374053  1
  B  B6  1  0.199179  0.500000  0.625947  1
  B  B7  1  0.201249  0.500000  0.877592  1
  B  B8  1  0.500000  0.500000  0.197887  1
  B  B9  1  0.500000  0.500000  0.450001  1
  B  B10  1  0.500000  0.500000  0.701287  1
  B  B11  1  0.500000  0.500000  0.951066  1
  B  B12  1  0.500000  0.201249  0.122408  1
  B  B13  1  0.500000  0.199179  0.374053  1
  B  B14  1  0.500000  0.199179  0.625947  1
  B  B15  1  0.500000  0.201249  0.877592  1
  B  B16  1  0.500000  0.500000  0.048934  1
  B  B17  1  0.500000  0.500000  0.298713  1
  B  B18  1  0.500000  0.500000  0.549999  1
  B  B19  1  0.500000  0.500000  0.802113  1
  B  B20  1  0.500000  0.798751  0.122408  1
  B  B21  1  0.500000  0.800821  0.374053  1
  B  B22  1  0.500000  0.800821  0.625947  1
  B  B23  1  0.500000  0.798751  0.877592  1
  B  B24  1  0.798751  0.500000  0.122408  1
  B  B25  1  0.800821  0.500000  0.374053  1
  B  B26  1  0.800821  0.500000  0.625947  1
  B  B27  1  0.798751  0.500000  0.877592  1
