# generated using pymatgen
data_Cs5Rb(Al2As3)2
_symmetry_space_group_name_H-M   'P 1'
_cell_length_a   6.23830200
_cell_length_b   8.19383220
_cell_length_c   11.16568653
_cell_angle_alpha   70.50523996
_cell_angle_beta   90.00000000
_cell_angle_gamma   90.00000000
_symmetry_Int_Tables_number   1
_chemical_formula_structural   Cs5Rb(Al2As3)2
_chemical_formula_sum   'Cs5 Rb1 Al4 As6'
_cell_volume   538.02134610
_cell_formula_units_Z   1
loop_
 _symmetry_equiv_pos_site_id
 _symmetry_equiv_pos_as_xyz
  1  'x, y, z'
loop_
 _atom_site_type_symbol
 _atom_site_label
 _atom_site_symmetry_multiplicity
 _atom_site_fract_x
 _atom_site_fract_y
 _atom_site_fract_z
 _atom_site_occupancy
  Cs  Cs0  1  0.750000  0.144016  0.915688  1
  Cs  Cs1  1  0.750000  0.470713  0.149208  1
  Cs  Cs2  1  0.250000  0.529825  0.850492  1
  Cs  Cs3  1  0.750000  0.561893  0.574377  1
  Cs  Cs4  1  0.250000  0.858295  0.084322  1
  Rb  Rb5  1  0.250000  0.422503  0.429850  1
  Al  Al6  1  0.999099  0.023609  0.350560  1
  Al  Al7  1  0.499300  0.977210  0.648793  1
  Al  Al8  1  0.500901  0.023609  0.350560  1
  Al  Al9  1  0.000700  0.977210  0.648793  1
  As  As10  1  0.250000  0.825042  0.526887  1
  As  As11  1  0.750000  0.173109  0.471846  1
  As  As12  1  0.250000  0.229167  0.199681  1
  As  As13  1  0.750000  0.777728  0.804336  1
  As  As14  1  0.250000  0.145215  0.735122  1
  As  As15  1  0.750000  0.860856  0.259485  1
