# generated using pymatgen
data_K(PdO2)6
_symmetry_space_group_name_H-M   'P 1'
_cell_length_a   8.66846985
_cell_length_b   8.66846924
_cell_length_c   8.66846967
_cell_angle_alpha   107.30756877
_cell_angle_beta   107.30757169
_cell_angle_gamma   113.89100091
_symmetry_Int_Tables_number   1
_chemical_formula_structural   K(PdO2)6
_chemical_formula_sum   'K2 Pd12 O24'
_cell_volume   499.16853728
_cell_formula_units_Z   2
loop_
 _symmetry_equiv_pos_site_id
 _symmetry_equiv_pos_as_xyz
  1  'x, y, z'
loop_
 _atom_site_type_symbol
 _atom_site_label
 _atom_site_symmetry_multiplicity
 _atom_site_fract_x
 _atom_site_fract_y
 _atom_site_fract_z
 _atom_site_occupancy
  K  K0  1  0.286107  0.286107  0.000000  1
  K  K1  1  0.713893  0.713893  0.000000  1
  Pd  Pd2  1  0.667649  0.851388  0.519037  1
  Pd  Pd3  1  0.482305  0.000678  0.816014  1
  Pd  Pd4  1  0.815336  0.333708  0.816014  1
  Pd  Pd5  1  0.517695  0.999322  0.183986  1
  Pd  Pd6  1  0.666292  0.482305  0.481627  1
  Pd  Pd7  1  0.332351  0.148612  0.480963  1
  Pd  Pd8  1  0.333708  0.517695  0.518373  1
  Pd  Pd9  1  0.000678  0.184664  0.518373  1
  Pd  Pd10  1  0.148612  0.667649  0.816261  1
  Pd  Pd11  1  0.184664  0.666292  0.183986  1
  Pd  Pd12  1  0.851388  0.332351  0.183739  1
  Pd  Pd13  1  0.999322  0.815336  0.481627  1
  O  O14  1  0.673250  0.046231  0.719481  1
  O  O15  1  0.319915  0.965991  0.951118  1
  O  O16  1  0.652345  0.299754  0.952099  1
  O  O17  1  0.712973  0.991383  0.371096  1
  O  O18  1  0.620286  0.341877  0.628904  1
  O  O19  1  0.287027  0.008617  0.628904  1
  O  O20  1  0.680084  0.034009  0.048882  1
  O  O21  1  0.326750  0.953769  0.280519  1
  O  O22  1  0.658123  0.287027  0.278409  1
  O  O23  1  0.299754  0.347655  0.647409  1
  O  O24  1  0.965991  0.014873  0.646074  1
  O  O25  1  0.631203  0.680085  0.646074  1
  O  O26  1  0.034009  0.985127  0.353926  1
  O  O27  1  0.700246  0.652345  0.352591  1
  O  O28  1  0.368797  0.319916  0.353926  1
  O  O29  1  0.008617  0.379714  0.721591  1
  O  O30  1  0.341877  0.712973  0.721591  1
  O  O31  1  0.985127  0.631203  0.951118  1
  O  O32  1  0.379714  0.658123  0.371096  1
  O  O33  1  0.046231  0.326750  0.372981  1
  O  O34  1  0.953769  0.673250  0.627019  1
  O  O35  1  0.014873  0.368797  0.048882  1
  O  O36  1  0.347655  0.700246  0.047901  1
  O  O37  1  0.991383  0.620286  0.278409  1
