# generated using pymatgen
data_La2Ho3Co2
_symmetry_space_group_name_H-M   'P 1'
_cell_length_a   8.82705639
_cell_length_b   8.82705670
_cell_length_c   6.90372144
_cell_angle_alpha   84.71686866
_cell_angle_beta   84.71686962
_cell_angle_gamma   42.70800935
_symmetry_Int_Tables_number   1
_chemical_formula_structural   La2Ho3Co2
_chemical_formula_sum   'La4 Ho6 Co4'
_cell_volume   363.06127833
_cell_formula_units_Z   2
loop_
 _symmetry_equiv_pos_site_id
 _symmetry_equiv_pos_as_xyz
  1  'x, y, z'
loop_
 _atom_site_type_symbol
 _atom_site_label
 _atom_site_symmetry_multiplicity
 _atom_site_fract_x
 _atom_site_fract_y
 _atom_site_fract_z
 _atom_site_occupancy
  La  La0  1  0.016792  0.786799  0.401776  1
  La  La1  1  0.213201  0.983208  0.098224  1
  La  La2  1  0.983208  0.213201  0.598224  1
  La  La3  1  0.786799  0.016792  0.901776  1
  Ho  Ho4  1  0.361228  0.213504  0.319944  1
  Ho  Ho5  1  0.786496  0.638772  0.180056  1
  Ho  Ho6  1  0.638772  0.786496  0.680056  1
  Ho  Ho7  1  0.213504  0.361228  0.819944  1
  Ho  Ho8  1  0.569415  0.430585  0.250000  1
  Ho  Ho9  1  0.430585  0.569415  0.750000  1
  Co  Co10  1  0.173748  0.599038  0.081537  1
  Co  Co11  1  0.400962  0.826252  0.418463  1
  Co  Co12  1  0.826252  0.400962  0.918463  1
  Co  Co13  1  0.599038  0.173748  0.581537  1
