# generated using pymatgen
data_Ta3Ti(GaC)2
_symmetry_space_group_name_H-M   'P 1'
_cell_length_a   3.11743100
_cell_length_b   3.11743087
_cell_length_c   13.61464500
_cell_angle_alpha   90.00000000
_cell_angle_beta   90.00000000
_cell_angle_gamma   120.00001201
_symmetry_Int_Tables_number   1
_chemical_formula_structural   Ta3Ti(GaC)2
_chemical_formula_sum   'Ta3 Ti1 Ga2 C2'
_cell_volume   114.58574216
_cell_formula_units_Z   1
loop_
 _symmetry_equiv_pos_site_id
 _symmetry_equiv_pos_as_xyz
  1  'x, y, z'
loop_
 _atom_site_type_symbol
 _atom_site_label
 _atom_site_symmetry_multiplicity
 _atom_site_fract_x
 _atom_site_fract_y
 _atom_site_fract_z
 _atom_site_occupancy
  Ta  Ta0  1  0.333333  0.666667  0.587826  1
  Ta  Ta1  1  0.333333  0.666667  0.910944  1
  Ta  Ta2  1  0.666667  0.333333  0.089538  1
  Ti  Ti3  1  0.666667  0.333333  0.412803  1
  Ga  Ga4  1  0.666667  0.333333  0.749255  1
  Ga  Ga5  1  0.333333  0.666667  0.253279  1
  C  C6  1  0.000000  0.000000  0.496004  1
  C  C7  1  0.000000  0.000000  0.000351  1
