# generated using pymatgen
data_Sc6ReNi
_symmetry_space_group_name_H-M   'P 1'
_cell_length_a   5.94322800
_cell_length_b   8.68173500
_cell_length_c   13.14870600
_cell_angle_alpha   90.00000000
_cell_angle_beta   90.00000000
_cell_angle_gamma   90.00000000
_symmetry_Int_Tables_number   1
_chemical_formula_structural   Sc6ReNi
_chemical_formula_sum   'Sc24 Re4 Ni4'
_cell_volume   678.44075940
_cell_formula_units_Z   4
loop_
 _symmetry_equiv_pos_site_id
 _symmetry_equiv_pos_as_xyz
  1  'x, y, z'
loop_
 _atom_site_type_symbol
 _atom_site_label
 _atom_site_symmetry_multiplicity
 _atom_site_fract_x
 _atom_site_fract_y
 _atom_site_fract_z
 _atom_site_occupancy
  Sc  Sc0  1  0.528706  0.750000  0.352469  1
  Sc  Sc1  1  0.028706  0.250000  0.147531  1
  Sc  Sc2  1  0.471294  0.250000  0.647531  1
  Sc  Sc3  1  0.971294  0.750000  0.852469  1
  Sc  Sc4  1  0.792107  0.750000  0.115769  1
  Sc  Sc5  1  0.292107  0.250000  0.384231  1
  Sc  Sc6  1  0.207893  0.250000  0.884231  1
  Sc  Sc7  1  0.707893  0.750000  0.615769  1
  Sc  Sc8  1  0.406086  0.934514  0.785635  1
  Sc  Sc9  1  0.906086  0.065486  0.714365  1
  Sc  Sc10  1  0.593914  0.434514  0.214365  1
  Sc  Sc11  1  0.093914  0.565486  0.285635  1
  Sc  Sc12  1  0.593914  0.065486  0.214365  1
  Sc  Sc13  1  0.093914  0.934514  0.285635  1
  Sc  Sc14  1  0.406086  0.565486  0.785635  1
  Sc  Sc15  1  0.906086  0.434514  0.714365  1
  Sc  Sc16  1  0.245496  0.944900  0.534693  1
  Sc  Sc17  1  0.745496  0.055100  0.965307  1
  Sc  Sc18  1  0.754504  0.444900  0.465307  1
  Sc  Sc19  1  0.254504  0.555100  0.034693  1
  Sc  Sc20  1  0.754504  0.055100  0.465307  1
  Sc  Sc21  1  0.254504  0.944900  0.034693  1
  Sc  Sc22  1  0.245496  0.555100  0.534693  1
  Sc  Sc23  1  0.745496  0.444900  0.965307  1
  Re  Re24  1  0.936165  0.750000  0.440150  1
  Re  Re25  1  0.436165  0.250000  0.059850  1
  Re  Re26  1  0.063835  0.250000  0.559850  1
  Re  Re27  1  0.563835  0.750000  0.940150  1
  Ni  Ni28  1  0.369990  0.750000  0.174541  1
  Ni  Ni29  1  0.869990  0.250000  0.325459  1
  Ni  Ni30  1  0.630010  0.250000  0.825459  1
  Ni  Ni31  1  0.130010  0.750000  0.674541  1
