# generated using pymatgen
data_Dy2ScGaSi
_symmetry_space_group_name_H-M   'P 1'
_cell_length_a   7.35040600
_cell_length_b   7.33348600
_cell_length_c   4.27786700
_cell_angle_alpha   90.00000000
_cell_angle_beta   90.00000000
_cell_angle_gamma   90.00000000
_symmetry_Int_Tables_number   1
_chemical_formula_structural   Dy2ScGaSi
_chemical_formula_sum   'Dy4 Sc2 Ga2 Si2'
_cell_volume   230.59456840
_cell_formula_units_Z   2
loop_
 _symmetry_equiv_pos_site_id
 _symmetry_equiv_pos_as_xyz
  1  'x, y, z'
loop_
 _atom_site_type_symbol
 _atom_site_label
 _atom_site_symmetry_multiplicity
 _atom_site_fract_x
 _atom_site_fract_y
 _atom_site_fract_z
 _atom_site_occupancy
  Dy  Dy0  1  0.674742  0.177103  0.500000  1
  Dy  Dy1  1  0.825258  0.677103  0.500000  1
  Dy  Dy2  1  0.178986  0.323491  0.500000  1
  Dy  Dy3  1  0.321014  0.823491  0.500000  1
  Sc  Sc4  1  0.494324  0.496382  0.000000  1
  Sc  Sc5  1  0.005676  0.996382  0.000000  1
  Ga  Ga6  1  0.621081  0.879508  0.000000  1
  Ga  Ga7  1  0.878919  0.379508  0.000000  1
  Si  Si8  1  0.123426  0.623515  0.000000  1
  Si  Si9  1  0.376574  0.123515  0.000000  1
