# generated using pymatgen
data_Pr4HoPb3
_symmetry_space_group_name_H-M   'P 1'
_cell_length_a   9.38094200
_cell_length_b   9.38094193
_cell_length_c   6.89732100
_cell_angle_alpha   90.00000000
_cell_angle_beta   90.00000000
_cell_angle_gamma   120.00000025
_symmetry_Int_Tables_number   1
_chemical_formula_structural   Pr4HoPb3
_chemical_formula_sum   'Pr8 Ho2 Pb6'
_cell_volume   525.65883397
_cell_formula_units_Z   2
loop_
 _symmetry_equiv_pos_site_id
 _symmetry_equiv_pos_as_xyz
  1  'x, y, z'
loop_
 _atom_site_type_symbol
 _atom_site_label
 _atom_site_symmetry_multiplicity
 _atom_site_fract_x
 _atom_site_fract_y
 _atom_site_fract_z
 _atom_site_occupancy
  Pr  Pr0  1  0.333333  0.666667  0.500000  1
  Pr  Pr1  1  0.666667  0.333333  0.500000  1
  Pr  Pr2  1  0.759174  0.759174  0.751806  1
  Pr  Pr3  1  0.240826  0.000000  0.751806  1
  Pr  Pr4  1  0.000000  0.240826  0.751806  1
  Pr  Pr5  1  0.240826  0.240826  0.248194  1
  Pr  Pr6  1  0.759174  0.000000  0.248194  1
  Pr  Pr7  1  0.000000  0.759174  0.248194  1
  Ho  Ho8  1  0.666667  0.333333  0.000000  1
  Ho  Ho9  1  0.333333  0.666667  0.000000  1
  Pb  Pb10  1  0.396428  0.396428  0.755795  1
  Pb  Pb11  1  0.603572  0.000000  0.755795  1
  Pb  Pb12  1  0.000000  0.603572  0.755795  1
  Pb  Pb13  1  0.603572  0.603572  0.244205  1
  Pb  Pb14  1  0.396428  0.000000  0.244205  1
  Pb  Pb15  1  0.000000  0.396428  0.244205  1
