# generated using pymatgen
data_Dy3Sc(CrB4)4
_symmetry_space_group_name_H-M   'P 1'
_cell_length_a   5.90584981
_cell_length_b   11.40725625
_cell_length_c   3.41285100
_cell_angle_alpha   90.00000000
_cell_angle_beta   90.00000000
_cell_angle_gamma   90.16082728
_symmetry_Int_Tables_number   1
_chemical_formula_structural   Dy3Sc(CrB4)4
_chemical_formula_sum   'Dy3 Sc1 Cr4 B16'
_cell_volume   229.92130348
_cell_formula_units_Z   1
loop_
 _symmetry_equiv_pos_site_id
 _symmetry_equiv_pos_as_xyz
  1  'x, y, z'
loop_
 _atom_site_type_symbol
 _atom_site_label
 _atom_site_symmetry_multiplicity
 _atom_site_fract_x
 _atom_site_fract_y
 _atom_site_fract_z
 _atom_site_occupancy
  Dy  Dy0  1  0.374899  0.649831  0.000000  1
  Dy  Dy1  1  0.125311  0.152026  0.000000  1
  Dy  Dy2  1  0.875128  0.849293  0.000000  1
  Sc  Sc3  1  0.624792  0.350067  0.000000  1
  Cr  Cr4  1  0.624976  0.083320  0.000000  1
  Cr  Cr5  1  0.376180  0.919655  0.000000  1
  Cr  Cr6  1  0.124616  0.417565  0.000000  1
  Cr  Cr7  1  0.873142  0.578596  0.000000  1
  B  B8  1  0.781470  0.187228  0.500000  1
  B  B9  1  0.218433  0.815839  0.500000  1
  B  B10  1  0.286204  0.315910  0.500000  1
  B  B11  1  0.718129  0.683038  0.500000  1
  B  B12  1  0.862955  0.033892  0.500000  1
  B  B13  1  0.137432  0.968547  0.500000  1
  B  B14  1  0.364602  0.465745  0.500000  1
  B  B15  1  0.635128  0.529544  0.500000  1
  B  B16  1  0.882353  0.450324  0.500000  1
  B  B17  1  0.111706  0.544943  0.500000  1
  B  B18  1  0.387972  0.048419  0.500000  1
  B  B19  1  0.613546  0.954199  0.500000  1
  B  B20  1  0.973735  0.307875  0.500000  1
  B  B21  1  0.024192  0.690333  0.500000  1
  B  B22  1  0.478355  0.195169  0.500000  1
  B  B23  1  0.524747  0.808643  0.500000  1
