# generated using pymatgen
data_Tb4Y12Cd4Co3Ni
_symmetry_space_group_name_H-M   'P 1'
_cell_length_a   9.55073442
_cell_length_b   9.54064347
_cell_length_c   9.54064400
_cell_angle_alpha   60.00000508
_cell_angle_beta   60.03494974
_cell_angle_gamma   60.03494660
_symmetry_Int_Tables_number   1
_chemical_formula_structural   Tb4Y12Cd4Co3Ni
_chemical_formula_sum   'Tb4 Y12 Cd4 Co3 Ni1'
_cell_volume   615.04423962
_cell_formula_units_Z   1
loop_
 _symmetry_equiv_pos_site_id
 _symmetry_equiv_pos_as_xyz
  1  'x, y, z'
loop_
 _atom_site_type_symbol
 _atom_site_label
 _atom_site_symmetry_multiplicity
 _atom_site_fract_x
 _atom_site_fract_y
 _atom_site_fract_z
 _atom_site_occupancy
  Tb  Tb0  1  0.594960  0.598512  0.598512  1
  Tb  Tb1  1  0.594960  0.598512  0.208015  1
  Tb  Tb2  1  0.594960  0.208015  0.598512  1
  Tb  Tb3  1  0.211345  0.596218  0.596218  1
  Y  Y4  1  0.065318  0.438159  0.438159  1
  Y  Y5  1  0.437675  0.062156  0.062156  1
  Y  Y6  1  0.437675  0.062156  0.438012  1
  Y  Y7  1  0.065318  0.438159  0.058363  1
  Y  Y8  1  0.437675  0.438012  0.062156  1
  Y  Y9  1  0.065318  0.058363  0.438159  1
  Y  Y10  1  0.186168  0.813173  0.813173  1
  Y  Y11  1  0.811624  0.187118  0.187118  1
  Y  Y12  1  0.811624  0.187118  0.814140  1
  Y  Y13  1  0.186168  0.813173  0.187485  1
  Y  Y14  1  0.811624  0.814140  0.187118  1
  Y  Y15  1  0.186168  0.187485  0.813173  1
  Cd  Cd16  1  0.830650  0.830228  0.830228  1
  Cd  Cd17  1  0.830650  0.830228  0.508891  1
  Cd  Cd18  1  0.830650  0.508891  0.830228  1
  Cd  Cd19  1  0.507780  0.830740  0.830740  1
  Co  Co20  1  0.392080  0.391372  0.391372  1
  Co  Co21  1  0.392080  0.391372  0.825175  1
  Co  Co22  1  0.392080  0.825175  0.391372  1
  Ni  Ni23  1  0.825448  0.391518  0.391518  1
