# generated using pymatgen
data_Dy4Fe4P12Ru9Rh7
_symmetry_space_group_name_H-M   'P 1'
_cell_length_a   3.85884300
_cell_length_b   10.70868050
_cell_length_c   12.29553172
_cell_angle_alpha   90.03713259
_cell_angle_beta   90.00000000
_cell_angle_gamma   90.00000000
_symmetry_Int_Tables_number   1
_chemical_formula_structural   Dy4Fe4P12Ru9Rh7
_chemical_formula_sum   'Dy4 Fe4 P12 Ru9 Rh7'
_cell_volume   508.08958657
_cell_formula_units_Z   1
loop_
 _symmetry_equiv_pos_site_id
 _symmetry_equiv_pos_as_xyz
  1  'x, y, z'
loop_
 _atom_site_type_symbol
 _atom_site_label
 _atom_site_symmetry_multiplicity
 _atom_site_fract_x
 _atom_site_fract_y
 _atom_site_fract_z
 _atom_site_occupancy
  Dy  Dy0  1  0.250000  0.582875  0.706777  1
  Dy  Dy1  1  0.250000  0.917882  0.206418  1
  Dy  Dy2  1  0.750000  0.415590  0.292170  1
  Dy  Dy3  1  0.750000  0.083766  0.793522  1
  Fe  Fe4  1  0.250000  0.462893  0.935637  1
  Fe  Fe5  1  0.250000  0.036956  0.436301  1
  Fe  Fe6  1  0.750000  0.539007  0.064505  1
  Fe  Fe7  1  0.750000  0.961708  0.565446  1
  P  P8  1  0.250000  0.425555  0.108382  1
  P  P9  1  0.250000  0.071307  0.608203  1
  P  P10  1  0.750000  0.571808  0.892345  1
  P  P11  1  0.750000  0.928343  0.392919  1
  P  P12  1  0.250000  0.269230  0.873467  1
  P  P13  1  0.250000  0.230041  0.370883  1
  P  P14  1  0.750000  0.731868  0.126132  1
  P  P15  1  0.750000  0.768601  0.626537  1
  P  P16  1  0.250000  0.596489  0.395225  1
  P  P17  1  0.250000  0.902628  0.895952  1
  P  P18  1  0.750000  0.402405  0.603605  1
  P  P19  1  0.750000  0.102741  0.106111  1
  Ru  Ru20  1  0.250000  0.706894  0.986029  1
  Ru  Ru21  1  0.250000  0.793421  0.485316  1
  Ru  Ru22  1  0.750000  0.295225  0.012908  1
  Ru  Ru23  1  0.750000  0.205487  0.515888  1
  Ru  Ru24  1  0.250000  0.402758  0.487944  1
  Ru  Ru25  1  0.250000  0.096796  0.987000  1
  Ru  Ru26  1  0.750000  0.596121  0.511274  1
  Ru  Ru27  1  0.750000  0.905489  0.012798  1
  Ru  Ru28  1  0.250000  0.229913  0.177743  1
  Rh  Rh29  1  0.250000  0.266907  0.678909  1
  Rh  Rh30  1  0.750000  0.767200  0.821713  1
  Rh  Rh31  1  0.750000  0.733422  0.320714  1
  Rh  Rh32  1  0.250000  0.884833  0.702933  1
  Rh  Rh33  1  0.250000  0.613986  0.202716  1
  Rh  Rh34  1  0.750000  0.113606  0.299051  1
  Rh  Rh35  1  0.750000  0.386248  0.796525  1
