# generated using pymatgen
data_Ca3Dy3Si24Os5Ru3
_symmetry_space_group_name_H-M   'P 1'
_cell_length_a   10.15453297
_cell_length_b   10.15454129
_cell_length_c   8.15880623
_cell_angle_alpha   89.92082748
_cell_angle_beta   90.03422173
_cell_angle_gamma   132.62388068
_symmetry_Int_Tables_number   1
_chemical_formula_structural   Ca3Dy3Si24Os5Ru3
_chemical_formula_sum   'Ca3 Dy3 Si24 Os5 Ru3'
_cell_volume   619.03471148
_cell_formula_units_Z   1
loop_
 _symmetry_equiv_pos_site_id
 _symmetry_equiv_pos_as_xyz
  1  'x, y, z'
loop_
 _atom_site_type_symbol
 _atom_site_label
 _atom_site_symmetry_multiplicity
 _atom_site_fract_x
 _atom_site_fract_y
 _atom_site_fract_z
 _atom_site_occupancy
  Ca  Ca0  1  0.499880  0.499817  0.500017  1
  Ca  Ca1  1  0.000026  0.000094  0.999511  1
  Ca  Ca2  1  0.500590  0.000724  0.750027  1
  Dy  Dy3  1  0.000546  0.501017  0.250019  1
  Dy  Dy4  1  0.500207  0.999725  0.250099  1
  Dy  Dy5  1  0.000286  0.500284  0.749968  1
  Si  Si6  1  0.795821  0.202828  0.500815  1
  Si  Si7  1  0.297645  0.705339  0.998551  1
  Si  Si8  1  0.205193  0.797697  0.501584  1
  Si  Si9  1  0.702840  0.295638  0.999313  1
  Si  Si10  1  0.333395  0.334729  0.832308  1
  Si  Si11  1  0.665575  0.668256  0.167343  1
  Si  Si12  1  0.167520  0.164726  0.330872  1
  Si  Si13  1  0.832940  0.831542  0.667103  1
  Si  Si14  1  0.122041  0.889276  0.730922  1
  Si  Si15  1  0.109431  0.877959  0.270734  1
  Si  Si16  1  0.608187  0.376526  0.229280  1
  Si  Si17  1  0.624590  0.391871  0.769467  1
  Si  Si18  1  0.877522  0.109060  0.270684  1
  Si  Si19  1  0.891099  0.123849  0.730979  1
  Si  Si20  1  0.389752  0.622537  0.769608  1
  Si  Si21  1  0.376972  0.608536  0.229196  1
  Si  Si22  1  0.347040  0.114013  0.505598  1
  Si  Si23  1  0.886454  0.654466  0.494006  1
  Si  Si24  1  0.385909  0.152838  0.008201  1
  Si  Si25  1  0.845134  0.613538  0.992064  1
  Si  Si26  1  0.652732  0.885316  0.493067  1
  Si  Si27  1  0.113662  0.345671  0.507777  1
  Si  Si28  1  0.613832  0.846472  0.994247  1
  Si  Si29  1  0.154625  0.387112  0.007208  1
  Os  Os30  1  0.673005  0.330122  0.497839  1
  Os  Os31  1  0.168847  0.826697  0.002209  1
  Os  Os32  1  0.326667  0.668790  0.497712  1
  Os  Os33  1  0.830122  0.172995  0.002074  1
  Os  Os34  1  0.126670  0.126579  0.625731  1
  Ru  Ru35  1  0.872968  0.873594  0.374515  1
  Ru  Ru36  1  0.374058  0.373464  0.124833  1
  Ru  Ru37  1  0.626218  0.626300  0.874521  1
