# generated using pymatgen
data_ErLu4(FeB3)2
_symmetry_space_group_name_H-M   'P 1'
_cell_length_a   5.36765071
_cell_length_b   5.36764984
_cell_length_c   8.08499580
_cell_angle_alpha   70.61274112
_cell_angle_beta   70.61274607
_cell_angle_gamma   60.00000240
_symmetry_Int_Tables_number   1
_chemical_formula_structural   ErLu4(FeB3)2
_chemical_formula_sum   'Er1 Lu4 Fe2 B6'
_cell_volume   186.32587578
_cell_formula_units_Z   1
loop_
 _symmetry_equiv_pos_site_id
 _symmetry_equiv_pos_as_xyz
  1  'x, y, z'
loop_
 _atom_site_type_symbol
 _atom_site_label
 _atom_site_symmetry_multiplicity
 _atom_site_fract_x
 _atom_site_fract_y
 _atom_site_fract_z
 _atom_site_occupancy
  Er  Er0  1  0.000000  0.000000  0.000000  1
  Lu  Lu1  1  0.748880  0.748880  0.753361  1
  Lu  Lu2  1  0.251120  0.251120  0.246639  1
  Lu  Lu3  1  0.583454  0.583454  0.249638  1
  Lu  Lu4  1  0.416546  0.416546  0.750362  1
  Fe  Fe5  1  0.883556  0.883556  0.349333  1
  Fe  Fe6  1  0.116444  0.116444  0.650667  1
  B  B7  1  0.500000  0.168657  0.500000  1
  B  B8  1  0.831343  0.500000  0.500000  1
  B  B9  1  0.168657  0.831343  0.500000  1
  B  B10  1  0.168657  0.500000  0.500000  1
  B  B11  1  0.831343  0.168657  0.500000  1
  B  B12  1  0.500000  0.831343  0.500000  1
