# generated using pymatgen
data_ThMnI
_symmetry_space_group_name_H-M   'P 1'
_cell_length_a   3.98085000
_cell_length_b   3.98085117
_cell_length_c   13.16784100
_cell_angle_alpha   90.00000000
_cell_angle_beta   90.00000000
_cell_angle_gamma   120.00000691
_symmetry_Int_Tables_number   1
_chemical_formula_structural   ThMnI
_chemical_formula_sum   'Th2 Mn2 I2'
_cell_volume   180.71613501
_cell_formula_units_Z   2
loop_
 _symmetry_equiv_pos_site_id
 _symmetry_equiv_pos_as_xyz
  1  'x, y, z'
loop_
 _atom_site_type_symbol
 _atom_site_label
 _atom_site_symmetry_multiplicity
 _atom_site_fract_x
 _atom_site_fract_y
 _atom_site_fract_z
 _atom_site_occupancy
  Th  Th0  1  0.000000  0.000000  0.153595  1
  Th  Th1  1  0.000000  0.000000  0.846405  1
  Mn  Mn2  1  0.666666  0.333332  0.997392  1
  Mn  Mn3  1  0.333334  0.666667  0.002608  1
  I  I4  1  0.333334  0.666667  0.332581  1
  I  I5  1  0.666666  0.333332  0.667419  1
