# generated using pymatgen
data_Zr8Si16Mo5W7
_symmetry_space_group_name_H-M   'P 1'
_cell_length_a   6.62903970
_cell_length_b   6.77789980
_cell_length_c   12.67556322
_cell_angle_alpha   89.97730144
_cell_angle_beta   90.00354950
_cell_angle_gamma   89.96660646
_symmetry_Int_Tables_number   1
_chemical_formula_structural   Zr8Si16Mo5W7
_chemical_formula_sum   'Zr8 Si16 Mo5 W7'
_cell_volume   569.52516870
_cell_formula_units_Z   1
loop_
 _symmetry_equiv_pos_site_id
 _symmetry_equiv_pos_as_xyz
  1  'x, y, z'
loop_
 _atom_site_type_symbol
 _atom_site_label
 _atom_site_symmetry_multiplicity
 _atom_site_fract_x
 _atom_site_fract_y
 _atom_site_fract_z
 _atom_site_occupancy
  Zr  Zr0  1  0.493561  0.671116  0.593392  1
  Zr  Zr1  1  0.993211  0.828570  0.907393  1
  Zr  Zr2  1  0.506993  0.328800  0.092874  1
  Zr  Zr3  1  0.005736  0.172148  0.407106  1
  Zr  Zr4  1  0.504650  0.327111  0.406643  1
  Zr  Zr5  1  0.005778  0.172582  0.093363  1
  Zr  Zr6  1  0.494891  0.672791  0.906844  1
  Zr  Zr7  1  0.994719  0.827428  0.593122  1
  Si  Si8  1  0.666872  0.957880  0.456507  1
  Si  Si9  1  0.167554  0.541980  0.042959  1
  Si  Si10  1  0.332653  0.041767  0.957092  1
  Si  Si11  1  0.832595  0.458217  0.542856  1
  Si  Si12  1  0.333777  0.041001  0.542822  1
  Si  Si13  1  0.833829  0.458481  0.957050  1
  Si  Si14  1  0.666469  0.958640  0.042837  1
  Si  Si15  1  0.166165  0.542050  0.456672  1
  Si  Si16  1  0.466442  0.378228  0.749445  1
  Si  Si17  1  0.966694  0.121744  0.750529  1
  Si  Si18  1  0.532878  0.622631  0.250220  1
  Si  Si19  1  0.034233  0.877875  0.250849  1
  Si  Si20  1  0.699472  0.860572  0.749333  1
  Si  Si21  1  0.199007  0.639364  0.750736  1
  Si  Si22  1  0.300955  0.138646  0.249653  1
  Si  Si23  1  0.800439  0.360892  0.250524  1
  Mo  Mo24  1  0.669667  0.162987  0.623614  1
  Mo  Mo25  1  0.169182  0.336675  0.876311  1
  Mo  Mo26  1  0.331076  0.836551  0.124217  1
  Mo  Mo27  1  0.830862  0.663573  0.376232  1
  Mo  Mo28  1  0.331909  0.836024  0.375387  1
  W  W29  1  0.832301  0.664144  0.124827  1
  W  W30  1  0.667588  0.164072  0.875045  1
  W  W31  1  0.167284  0.335624  0.624864  1
  W  W32  1  0.833512  0.508806  0.749697  1
  W  W33  1  0.333966  0.991505  0.750209  1
  W  W34  1  0.165857  0.490548  0.249265  1
  W  W35  1  0.667224  0.008977  0.249515  1
