# generated using pymatgen
data_LaNp7H24
_symmetry_space_group_name_H-M   'P 1'
_cell_length_a   6.70539600
_cell_length_b   6.68453400
_cell_length_c   6.68453400
_cell_angle_alpha   90.00000000
_cell_angle_beta   90.00000000
_cell_angle_gamma   90.00000000
_symmetry_Int_Tables_number   1
_chemical_formula_structural   LaNp7H24
_chemical_formula_sum   'La1 Np7 H24'
_cell_volume   299.61717458
_cell_formula_units_Z   1
loop_
 _symmetry_equiv_pos_site_id
 _symmetry_equiv_pos_as_xyz
  1  'x, y, z'
loop_
 _atom_site_type_symbol
 _atom_site_label
 _atom_site_symmetry_multiplicity
 _atom_site_fract_x
 _atom_site_fract_y
 _atom_site_fract_z
 _atom_site_occupancy
  La  La0  1  0.250000  0.000000  0.500000  1
  Np  Np1  1  0.996794  0.000000  0.000000  1
  Np  Np2  1  0.503206  0.500000  0.500000  1
  Np  Np3  1  0.750000  0.000000  0.500000  1
  Np  Np4  1  0.998759  0.500000  0.249793  1
  Np  Np5  1  0.998759  0.500000  0.750207  1
  Np  Np6  1  0.501241  0.749793  0.000000  1
  Np  Np7  1  0.501241  0.250207  0.000000  1
  H  H8  1  0.985703  0.158187  0.297484  1
  H  H9  1  0.514297  0.202516  0.658187  1
  H  H10  1  0.514297  0.797484  0.341813  1
  H  H11  1  0.805190  0.653882  0.500000  1
  H  H12  1  0.192069  0.646213  0.500000  1
  H  H13  1  0.344456  0.500000  0.802776  1
  H  H14  1  0.654944  0.500000  0.804874  1
  H  H15  1  0.307931  0.000000  0.146213  1
  H  H16  1  0.155544  0.302776  0.000000  1
  H  H17  1  0.845056  0.695126  0.000000  1
  H  H18  1  0.307931  0.000000  0.853787  1
  H  H19  1  0.845056  0.304874  0.000000  1
  H  H20  1  0.694810  0.000000  0.153882  1
  H  H21  1  0.694810  0.000000  0.846118  1
  H  H22  1  0.155544  0.697224  0.000000  1
  H  H23  1  0.985703  0.841813  0.702516  1
  H  H24  1  0.985703  0.158187  0.702516  1
  H  H25  1  0.985703  0.841813  0.297484  1
  H  H26  1  0.654944  0.500000  0.195126  1
  H  H27  1  0.344456  0.500000  0.197224  1
  H  H28  1  0.805190  0.346118  0.500000  1
  H  H29  1  0.192069  0.353787  0.500000  1
  H  H30  1  0.514297  0.797484  0.658187  1
  H  H31  1  0.514297  0.202516  0.341813  1
