# generated using pymatgen
data_Sr(AuF4)3
_symmetry_space_group_name_H-M   'P 1'
_cell_length_a   8.44902226
_cell_length_b   8.44902241
_cell_length_c   8.44902226
_cell_angle_alpha   80.64883421
_cell_angle_beta   80.64883465
_cell_angle_gamma   80.64883766
_symmetry_Int_Tables_number   1
_chemical_formula_structural   Sr(AuF4)3
_chemical_formula_sum   'Sr2 Au6 F24'
_cell_volume   581.45349547
_cell_formula_units_Z   2
loop_
 _symmetry_equiv_pos_site_id
 _symmetry_equiv_pos_as_xyz
  1  'x, y, z'
loop_
 _atom_site_type_symbol
 _atom_site_label
 _atom_site_symmetry_multiplicity
 _atom_site_fract_x
 _atom_site_fract_y
 _atom_site_fract_z
 _atom_site_occupancy
  Sr  Sr0  1  0.250000  0.250000  0.250000  1
  Sr  Sr1  1  0.750000  0.750000  0.750000  1
  Au  Au2  1  0.161048  0.338952  0.750000  1
  Au  Au3  1  0.250000  0.838952  0.661048  1
  Au  Au4  1  0.661048  0.250000  0.838952  1
  Au  Au5  1  0.838952  0.661048  0.250000  1
  Au  Au6  1  0.338952  0.750000  0.161048  1
  Au  Au7  1  0.750000  0.161048  0.338952  1
  F  F8  1  0.513970  0.196701  0.374643  1
  F  F9  1  0.374643  0.513970  0.196701  1
  F  F10  1  0.196701  0.374643  0.513970  1
  F  F11  1  0.986030  0.125357  0.303299  1
  F  F12  1  0.303299  0.986030  0.125357  1
  F  F13  1  0.125357  0.303299  0.986030  1
  F  F14  1  0.486030  0.803299  0.625357  1
  F  F15  1  0.625357  0.486030  0.803299  1
  F  F16  1  0.017364  0.482636  0.250000  1
  F  F17  1  0.482636  0.250000  0.017364  1
  F  F18  1  0.250000  0.017364  0.482636  1
  F  F19  1  0.982636  0.517364  0.750000  1
  F  F20  1  0.517364  0.750000  0.982636  1
  F  F21  1  0.750000  0.982636  0.517364  1
  F  F22  1  0.662070  0.837930  0.250000  1
  F  F23  1  0.837930  0.250000  0.662070  1
  F  F24  1  0.250000  0.662070  0.837930  1
  F  F25  1  0.337930  0.162070  0.750000  1
  F  F26  1  0.162070  0.750000  0.337930  1
  F  F27  1  0.750000  0.337930  0.162070  1
  F  F28  1  0.874643  0.696701  0.013970  1
  F  F29  1  0.696701  0.013970  0.874643  1
  F  F30  1  0.013970  0.874643  0.696701  1
  F  F31  1  0.803299  0.625357  0.486030  1
