# generated using pymatgen
data_PrYTlZn2In
_symmetry_space_group_name_H-M   'P 1'
_cell_length_a   4.73483500
_cell_length_b   4.73483454
_cell_length_c   7.52379900
_cell_angle_alpha   90.00000000
_cell_angle_beta   90.00000000
_cell_angle_gamma   120.00002415
_symmetry_Int_Tables_number   1
_chemical_formula_structural   PrYTlZn2In
_chemical_formula_sum   'Pr1 Y1 Tl1 Zn2 In1'
_cell_volume   146.07549527
_cell_formula_units_Z   1
loop_
 _symmetry_equiv_pos_site_id
 _symmetry_equiv_pos_as_xyz
  1  'x, y, z'
loop_
 _atom_site_type_symbol
 _atom_site_label
 _atom_site_symmetry_multiplicity
 _atom_site_fract_x
 _atom_site_fract_y
 _atom_site_fract_z
 _atom_site_occupancy
  Pr  Pr0  1  0.000000  0.000000  0.992023  1
  Y  Y1  1  0.000000  0.000000  0.492242  1
  Tl  Tl2  1  0.333333  0.666667  0.224995  1
  Zn  Zn3  1  0.333333  0.666667  0.772223  1
  Zn  Zn4  1  0.666667  0.333333  0.308305  1
  In  In5  1  0.666667  0.333333  0.710212  1
