# generated using pymatgen
data_Sr7Y(Tm3Sn4)4
_symmetry_space_group_name_H-M   'P 1'
_cell_length_a   8.17711201
_cell_length_b   8.31122808
_cell_length_c   15.70755000
_cell_angle_alpha   90.00359166
_cell_angle_beta   89.99730937
_cell_angle_gamma   90.00702493
_symmetry_Int_Tables_number   1
_chemical_formula_structural   Sr7Y(Tm3Sn4)4
_chemical_formula_sum   'Sr7 Y1 Tm12 Sn16'
_cell_volume   1067.51403466
_cell_formula_units_Z   1
loop_
 _symmetry_equiv_pos_site_id
 _symmetry_equiv_pos_as_xyz
  1  'x, y, z'
loop_
 _atom_site_type_symbol
 _atom_site_label
 _atom_site_symmetry_multiplicity
 _atom_site_fract_x
 _atom_site_fract_y
 _atom_site_fract_z
 _atom_site_occupancy
  Sr  Sr0  1  0.002090  0.172372  0.597520  1
  Sr  Sr1  1  0.498969  0.671848  0.408896  1
  Sr  Sr2  1  0.000992  0.825593  0.089767  1
  Sr  Sr3  1  0.500466  0.672900  0.088869  1
  Sr  Sr4  1  0.998976  0.828237  0.408125  1
  Sr  Sr5  1  0.502361  0.329261  0.594294  1
  Sr  Sr6  1  0.003433  0.172784  0.905199  1
  Y  Y7  1  0.500961  0.318629  0.901415  1
  Tm  Tm8  1  0.327069  0.839964  0.872985  1
  Tm  Tm9  1  0.828096  0.662600  0.627952  1
  Tm  Tm10  1  0.669472  0.161456  0.374663  1
  Tm  Tm11  1  0.170166  0.339077  0.123665  1
  Tm  Tm12  1  0.668857  0.162677  0.124923  1
  Tm  Tm13  1  0.169204  0.336011  0.375231  1
  Tm  Tm14  1  0.327534  0.839297  0.629750  1
  Tm  Tm15  1  0.828782  0.660873  0.874766  1
  Tm  Tm16  1  0.165217  0.497692  0.750512  1
  Tm  Tm17  1  0.666261  0.003437  0.750987  1
  Tm  Tm18  1  0.832445  0.502927  0.249591  1
  Tm  Tm19  1  0.333275  0.996191  0.249578  1
  Sn  Sn20  1  0.340386  0.051087  0.038465  1
  Sn  Sn21  1  0.838314  0.455591  0.457848  1
  Sn  Sn22  1  0.660954  0.957782  0.545047  1
  Sn  Sn23  1  0.173409  0.536188  0.953589  1
  Sn  Sn24  1  0.661595  0.966757  0.954149  1
  Sn  Sn25  1  0.160895  0.542861  0.544596  1
  Sn  Sn26  1  0.338036  0.042445  0.458412  1
  Sn  Sn27  1  0.832205  0.452805  0.039617  1
  Sn  Sn28  1  0.524501  0.624534  0.753307  1
  Sn  Sn29  1  0.023348  0.868424  0.751979  1
  Sn  Sn30  1  0.471081  0.370860  0.250100  1
  Sn  Sn31  1  0.972331  0.129640  0.248610  1
  Sn  Sn32  1  0.313547  0.147075  0.753324  1
  Sn  Sn33  1  0.798040  0.361780  0.753927  1
  Sn  Sn34  1  0.698150  0.862422  0.249349  1
  Sn  Sn35  1  0.198581  0.635923  0.248998  1
