# generated using pymatgen
data_DyTm2Mg3Sn2Au
_symmetry_space_group_name_H-M   'P 1'
_cell_length_a   7.51013970
_cell_length_b   7.51013965
_cell_length_c   4.42008300
_cell_angle_alpha   90.00000000
_cell_angle_beta   90.00000000
_cell_angle_gamma   120.19342056
_symmetry_Int_Tables_number   1
_chemical_formula_structural   DyTm2Mg3Sn2Au
_chemical_formula_sum   'Dy1 Tm2 Mg3 Sn2 Au1'
_cell_volume   215.48017811
_cell_formula_units_Z   1
loop_
 _symmetry_equiv_pos_site_id
 _symmetry_equiv_pos_as_xyz
  1  'x, y, z'
loop_
 _atom_site_type_symbol
 _atom_site_label
 _atom_site_symmetry_multiplicity
 _atom_site_fract_x
 _atom_site_fract_y
 _atom_site_fract_z
 _atom_site_occupancy
  Dy  Dy0  1  0.406172  0.406172  0.000000  1
  Tm  Tm1  1  0.595197  0.000502  0.000000  1
  Tm  Tm2  1  0.000502  0.595197  0.000000  1
  Mg  Mg3  1  0.237483  0.999729  0.500000  1
  Mg  Mg4  1  0.999729  0.237483  0.500000  1
  Mg  Mg5  1  0.762422  0.762422  0.500000  1
  Sn  Sn6  1  0.332560  0.667546  0.500000  1
  Sn  Sn7  1  0.667546  0.332560  0.500000  1
  Au  Au8  1  0.998389  0.998389  0.000000  1
