# generated using pymatgen
data_Yb3Ga4O9
_symmetry_space_group_name_H-M   'P 1'
_cell_length_a   6.48676929
_cell_length_b   7.80077520
_cell_length_c   9.45920458
_cell_angle_alpha   84.79954926
_cell_angle_beta   71.47883887
_cell_angle_gamma   74.36509031
_symmetry_Int_Tables_number   1
_chemical_formula_structural   Yb3Ga4O9
_chemical_formula_sum   'Yb6 Ga8 O18'
_cell_volume   437.06170220
_cell_formula_units_Z   2
loop_
 _symmetry_equiv_pos_site_id
 _symmetry_equiv_pos_as_xyz
  1  'x, y, z'
loop_
 _atom_site_type_symbol
 _atom_site_label
 _atom_site_symmetry_multiplicity
 _atom_site_fract_x
 _atom_site_fract_y
 _atom_site_fract_z
 _atom_site_occupancy
  Yb  Yb0  1  0.802909  0.432848  0.310879  1
  Yb  Yb1  1  0.197091  0.567152  0.689121  1
  Yb  Yb2  1  0.680362  0.792401  0.044218  1
  Yb  Yb3  1  0.319638  0.207599  0.955782  1
  Yb  Yb4  1  0.067720  0.042132  0.688516  1
  Yb  Yb5  1  0.932280  0.957868  0.311484  1
  Ga  Ga6  1  0.242515  0.757366  0.950602  1
  Ga  Ga7  1  0.757485  0.242634  0.049398  1
  Ga  Ga8  1  0.672869  0.446585  0.759537  1
  Ga  Ga9  1  0.327131  0.553415  0.240463  1
  Ga  Ga10  1  0.369976  0.167910  0.297812  1
  Ga  Ga11  1  0.630024  0.832090  0.702188  1
  Ga  Ga12  1  0.559089  0.202701  0.574602  1
  Ga  Ga13  1  0.440911  0.797299  0.425398  1
  O  O14  1  0.595135  0.196126  0.371554  1
  O  O15  1  0.404865  0.803874  0.628446  1
  O  O16  1  0.788021  0.239078  0.847780  1
  O  O17  1  0.211979  0.760922  0.152220  1
  O  O18  1  0.552425  0.094710  0.105300  1
  O  O19  1  0.447575  0.905290  0.894700  1
  O  O20  1  0.690536  0.389509  0.568651  1
  O  O21  1  0.309464  0.610491  0.431349  1
  O  O22  1  0.218497  0.009345  0.409767  1
  O  O23  1  0.781503  0.990655  0.590233  1
  O  O24  1  0.720715  0.756060  0.289624  1
  O  O25  1  0.279285  0.243940  0.710376  1
  O  O26  1  0.996197  0.173343  0.121753  1
  O  O27  1  0.003803  0.826657  0.878247  1
  O  O28  1  0.367319  0.516445  0.877973  1
  O  O29  1  0.632681  0.483555  0.122027  1
  O  O30  1  0.820791  0.621474  0.740366  1
  O  O31  1  0.179209  0.378526  0.259634  1
