# generated using pymatgen
data_CaSmRu2O7
_symmetry_space_group_name_H-M   'P 1'
_cell_length_a   7.29876840
_cell_length_b   7.29876880
_cell_length_c   7.26530000
_cell_angle_alpha   60.15156382
_cell_angle_beta   60.15156205
_cell_angle_gamma   60.29996271
_symmetry_Int_Tables_number   1
_chemical_formula_structural   CaSmRu2O7
_chemical_formula_sum   'Ca2 Sm2 Ru4 O14'
_cell_volume   274.92121061
_cell_formula_units_Z   2
loop_
 _symmetry_equiv_pos_site_id
 _symmetry_equiv_pos_as_xyz
  1  'x, y, z'
loop_
 _atom_site_type_symbol
 _atom_site_label
 _atom_site_symmetry_multiplicity
 _atom_site_fract_x
 _atom_site_fract_y
 _atom_site_fract_z
 _atom_site_occupancy
  Ca  Ca0  1  0.625000  0.625000  0.625000  1
  Ca  Ca1  1  0.625000  0.625000  0.125000  1
  Sm  Sm2  1  0.125000  0.625000  0.625000  1
  Sm  Sm3  1  0.625000  0.125000  0.625000  1
  Ru  Ru4  1  0.125000  0.125000  0.125000  1
  Ru  Ru5  1  0.625000  0.125000  0.125000  1
  Ru  Ru6  1  0.125000  0.125000  0.625000  1
  Ru  Ru7  1  0.125000  0.625000  0.125000  1
  O  O8  1  0.499581  0.499581  0.500419  1
  O  O9  1  0.750419  0.750419  0.749581  1
  O  O10  1  0.045894  0.045894  0.454106  1
  O  O11  1  0.806178  0.806178  0.193822  1
  O  O12  1  0.448147  0.053504  0.450448  1
  O  O13  1  0.448147  0.053504  0.047901  1
  O  O14  1  0.053504  0.448147  0.450448  1
  O  O15  1  0.053504  0.448147  0.047901  1
  O  O16  1  0.443822  0.443822  0.056178  1
  O  O17  1  0.196496  0.801853  0.799552  1
  O  O18  1  0.801853  0.196496  0.202099  1
  O  O19  1  0.204106  0.204106  0.795894  1
  O  O20  1  0.196496  0.801853  0.202099  1
  O  O21  1  0.801853  0.196496  0.799552  1
