# generated using pymatgen
data_Gd5Er5Si16Pt
_symmetry_space_group_name_H-M   'P 1'
_cell_length_a   11.07653566
_cell_length_b   11.08783665
_cell_length_c   11.07588100
_cell_angle_alpha   144.75731416
_cell_angle_beta   136.59941843
_cell_angle_gamma   57.06306037
_symmetry_Int_Tables_number   1
_chemical_formula_structural   Gd5Er5Si16Pt
_chemical_formula_sum   'Gd5 Er5 Si16 Pt1'
_cell_volume   535.07609056
_cell_formula_units_Z   1
loop_
 _symmetry_equiv_pos_site_id
 _symmetry_equiv_pos_as_xyz
  1  'x, y, z'
loop_
 _atom_site_type_symbol
 _atom_site_label
 _atom_site_symmetry_multiplicity
 _atom_site_fract_x
 _atom_site_fract_y
 _atom_site_fract_z
 _atom_site_occupancy
  Gd  Gd0  1  0.948594  0.963033  0.511496  1
  Gd  Gd1  1  0.849232  0.371533  0.019259  1
  Gd  Gd2  1  0.548560  0.565282  0.513066  1
  Gd  Gd3  1  0.249284  0.763706  0.012125  1
  Gd  Gd4  1  0.752390  0.763007  0.514160  1
  Er  Er5  1  0.051095  0.564504  0.015690  1
  Er  Er6  1  0.352423  0.372190  0.522780  1
  Er  Er7  1  0.150928  0.166271  0.520670  1
  Er  Er8  1  0.451790  0.963583  0.014168  1
  Er  Er9  1  0.645987  0.166785  0.015232  1
  Si  Si10  1  0.119948  0.075101  0.961049  1
  Si  Si11  1  0.797031  0.183927  0.384505  1
  Si  Si12  1  0.299979  0.900248  0.599941  1
  Si  Si13  1  0.399104  0.500539  0.099884  1
  Si  Si14  1  0.888433  0.848813  0.964169  1
  Si  Si15  1  0.106557  0.708310  0.606593  1
  Si  Si16  1  0.201415  0.588100  0.388462  1
  Si  Si17  1  0.696379  0.293575  0.593546  1
  Si  Si18  1  0.001553  0.432325  0.433384  1
  Si  Si19  1  0.710057  0.662449  0.948801  1
  Si  Si20  1  0.598170  0.702383  0.100298  1
  Si  Si21  1  0.002676  0.088516  0.088796  1
  Si  Si22  1  0.498476  0.392391  0.889849  1
  Si  Si23  1  0.285780  0.241707  0.953530  1
  Si  Si24  1  0.583068  0.041603  0.455589  1
  Si  Si25  1  0.412915  0.868746  0.455683  1
  Pt  Pt26  1  0.898176  0.500296  0.606191  1
