# generated using pymatgen
data_Y4Ho2Al7Pt16
_symmetry_space_group_name_H-M   'P 1'
_cell_length_a   8.98743786
_cell_length_b   8.98416344
_cell_length_c   8.98415460
_cell_angle_alpha   60.02423465
_cell_angle_beta   59.98789072
_cell_angle_gamma   59.98793287
_symmetry_Int_Tables_number   1
_chemical_formula_structural   Y4Ho2Al7Pt16
_chemical_formula_sum   'Y4 Ho2 Al7 Pt16'
_cell_volume   512.95094981
_cell_formula_units_Z   1
loop_
 _symmetry_equiv_pos_site_id
 _symmetry_equiv_pos_as_xyz
  1  'x, y, z'
loop_
 _atom_site_type_symbol
 _atom_site_label
 _atom_site_symmetry_multiplicity
 _atom_site_fract_x
 _atom_site_fract_y
 _atom_site_fract_z
 _atom_site_occupancy
  Y  Y0  1  0.712828  0.287133  0.287132  1
  Y  Y1  1  0.712943  0.287016  0.712983  1
  Y  Y2  1  0.712943  0.712983  0.287015  1
  Y  Y3  1  0.287090  0.712866  0.712867  1
  Ho  Ho4  1  0.286271  0.713680  0.286320  1
  Ho  Ho5  1  0.286271  0.286320  0.713681  1
  Al  Al6  1  0.999912  0.000000  0.000000  1
  Al  Al7  1  0.499866  0.000000  0.000000  1
  Al  Al8  1  0.499876  0.000084  0.500012  1
  Al  Al9  1  0.499876  0.500012  0.000084  1
  Al  Al10  1  0.000052  0.500000  0.500000  1
  Al  Al11  1  0.999972  0.499988  0.999916  1
  Al  Al12  1  0.999972  0.999916  0.499988  1
  Pt  Pt13  1  0.642533  0.119188  0.119190  1
  Pt  Pt14  1  0.119523  0.642676  0.119422  1
  Pt  Pt15  1  0.119524  0.119422  0.642675  1
  Pt  Pt16  1  0.119750  0.118715  0.118716  1
  Pt  Pt17  1  0.357181  0.881288  0.881286  1
  Pt  Pt18  1  0.881624  0.357322  0.880579  1
  Pt  Pt19  1  0.881623  0.880579  0.357323  1
  Pt  Pt20  1  0.880911  0.880811  0.880810  1
  Pt  Pt21  1  0.987718  0.337398  0.337398  1
  Pt  Pt22  1  0.337326  0.987007  0.337416  1
  Pt  Pt23  1  0.337325  0.337415  0.987010  1
  Pt  Pt24  1  0.337353  0.338178  0.338179  1
  Pt  Pt25  1  0.013711  0.661822  0.661822  1
  Pt  Pt26  1  0.661752  0.012994  0.662584  1
  Pt  Pt27  1  0.661753  0.662585  0.012991  1
  Pt  Pt28  1  0.662517  0.662601  0.662600  1
