# generated using pymatgen
data_TbCeGd3(SiB4)2
_symmetry_space_group_name_H-M   'P 1'
_cell_length_a   7.28733668
_cell_length_b   7.28733668
_cell_length_c   8.25507500
_cell_angle_alpha   90.00000000
_cell_angle_beta   90.00000000
_cell_angle_gamma   89.92211530
_symmetry_Int_Tables_number   1
_chemical_formula_structural   TbCeGd3(SiB4)2
_chemical_formula_sum   'Tb2 Ce2 Gd6 Si4 B16'
_cell_volume   438.38763070
_cell_formula_units_Z   2
loop_
 _symmetry_equiv_pos_site_id
 _symmetry_equiv_pos_as_xyz
  1  'x, y, z'
loop_
 _atom_site_type_symbol
 _atom_site_label
 _atom_site_symmetry_multiplicity
 _atom_site_fract_x
 _atom_site_fract_y
 _atom_site_fract_z
 _atom_site_occupancy
  Tb  Tb0  1  0.998140  0.998309  0.500000  1
  Tb  Tb1  1  0.501691  0.501860  0.500000  1
  Ce  Ce2  1  0.182241  0.317759  0.771488  1
  Ce  Ce3  1  0.182241  0.317759  0.228512  1
  Gd  Gd4  1  0.680585  0.180218  0.223021  1
  Gd  Gd5  1  0.319782  0.819415  0.776979  1
  Gd  Gd6  1  0.319782  0.819415  0.223021  1
  Gd  Gd7  1  0.818591  0.681409  0.222689  1
  Gd  Gd8  1  0.818591  0.681409  0.777311  1
  Gd  Gd9  1  0.680585  0.180218  0.776979  1
  Si  Si10  1  0.114001  0.613749  0.500000  1
  Si  Si11  1  0.886251  0.385999  0.500000  1
  Si  Si12  1  0.385808  0.114192  0.500000  1
  Si  Si13  1  0.614712  0.885288  0.500000  1
  B  B14  1  0.171415  0.039555  0.000000  1
  B  B15  1  0.827460  0.959861  0.000000  1
  B  B16  1  0.961272  0.172440  0.000000  1
  B  B17  1  0.327560  0.538728  0.000000  1
  B  B18  1  0.038776  0.827292  0.000000  1
  B  B19  1  0.672708  0.461224  0.000000  1
  B  B20  1  0.540139  0.672540  0.000000  1
  B  B21  1  0.460445  0.328585  0.000000  1
  B  B22  1  0.090013  0.590354  0.000000  1
  B  B23  1  0.909646  0.409987  0.000000  1
  B  B24  1  0.408548  0.091452  0.000000  1
  B  B25  1  0.590926  0.909074  0.000000  1
  B  B26  1  0.999715  0.000668  0.158723  1
  B  B27  1  0.999715  0.000668  0.841277  1
  B  B28  1  0.499332  0.500285  0.841277  1
  B  B29  1  0.499332  0.500285  0.158723  1
