# generated using pymatgen
data_Y2Tm2Pa(FeB3)2
_symmetry_space_group_name_H-M   'P 1'
_cell_length_a   5.42986515
_cell_length_b   5.42986426
_cell_length_c   7.89293301
_cell_angle_alpha   69.88107187
_cell_angle_beta   69.88106364
_cell_angle_gamma   60.00000314
_symmetry_Int_Tables_number   1
_chemical_formula_structural   Y2Tm2Pa(FeB3)2
_chemical_formula_sum   'Y2 Tm2 Pa1 Fe2 B6'
_cell_volume   184.95522653
_cell_formula_units_Z   1
loop_
 _symmetry_equiv_pos_site_id
 _symmetry_equiv_pos_as_xyz
  1  'x, y, z'
loop_
 _atom_site_type_symbol
 _atom_site_label
 _atom_site_symmetry_multiplicity
 _atom_site_fract_x
 _atom_site_fract_y
 _atom_site_fract_z
 _atom_site_occupancy
  Y  Y0  1  0.588040  0.588040  0.235883  1
  Y  Y1  1  0.411960  0.411960  0.764117  1
  Tm  Tm2  1  0.746916  0.746916  0.759254  1
  Tm  Tm3  1  0.253084  0.253084  0.240746  1
  Pa  Pa4  1  0.000000  0.000000  0.000000  1
  Fe  Fe5  1  0.891833  0.891833  0.324501  1
  Fe  Fe6  1  0.108167  0.108167  0.675499  1
  B  B7  1  0.500000  0.167001  0.500000  1
  B  B8  1  0.832999  0.500000  0.500000  1
  B  B9  1  0.167001  0.832999  0.500000  1
  B  B10  1  0.167001  0.500000  0.500000  1
  B  B11  1  0.832999  0.167001  0.500000  1
  B  B12  1  0.500000  0.832999  0.500000  1
