# generated using pymatgen
data_TbHo2Er13Cd4(NiRu)2
_symmetry_space_group_name_H-M   'P 1'
_cell_length_a   9.50648589
_cell_length_b   9.51177292
_cell_length_c   9.56992205
_cell_angle_alpha   59.80229087
_cell_angle_beta   59.76998487
_cell_angle_gamma   59.51473538
_symmetry_Int_Tables_number   1
_chemical_formula_structural   TbHo2Er13Cd4(NiRu)2
_chemical_formula_sum   'Tb1 Ho2 Er13 Cd4 Ni2 Ru2'
_cell_volume   607.65288763
_cell_formula_units_Z   1
loop_
 _symmetry_equiv_pos_site_id
 _symmetry_equiv_pos_as_xyz
  1  'x, y, z'
loop_
 _atom_site_type_symbol
 _atom_site_label
 _atom_site_symmetry_multiplicity
 _atom_site_fract_x
 _atom_site_fract_y
 _atom_site_fract_z
 _atom_site_occupancy
  Tb  Tb0  1  0.939510  0.939425  0.560482  1
  Ho  Ho1  1  0.937996  0.558290  0.937474  1
  Ho  Ho2  1  0.565227  0.565501  0.934666  1
  Er  Er3  1  0.349525  0.349554  0.342805  1
  Er  Er4  1  0.349643  0.349612  0.957940  1
  Er  Er5  1  0.352103  0.956154  0.346089  1
  Er  Er6  1  0.956379  0.352137  0.345965  1
  Er  Er7  1  0.811564  0.186428  0.188808  1
  Er  Er8  1  0.186894  0.811714  0.813009  1
  Er  Er9  1  0.186804  0.811568  0.188647  1
  Er  Er10  1  0.811658  0.186645  0.813078  1
  Er  Er11  1  0.187824  0.187625  0.812182  1
  Er  Er12  1  0.810905  0.810794  0.189158  1
  Er  Er13  1  0.938202  0.557946  0.566106  1
  Er  Er14  1  0.558228  0.938353  0.937333  1
  Er  Er15  1  0.558121  0.938223  0.566196  1
  Cd  Cd16  1  0.579357  0.579480  0.582344  1
  Cd  Cd17  1  0.579099  0.579684  0.258776  1
  Cd  Cd18  1  0.578963  0.256704  0.582102  1
  Cd  Cd19  1  0.256801  0.579119  0.581929  1
  Ni  Ni20  1  0.141611  0.576089  0.141358  1
  Ni  Ni21  1  0.575994  0.141633  0.141053  1
  Ru  Ru22  1  0.143862  0.143616  0.138655  1
  Ru  Ru23  1  0.143727  0.143707  0.573845  1
