# generated using pymatgen
data_La2Y2Zn10SiSn
_symmetry_space_group_name_H-M   'P 1'
_cell_length_a   8.42820038
_cell_length_b   8.42820017
_cell_length_c   8.95207000
_cell_angle_alpha   90.00000000
_cell_angle_beta   90.00000000
_cell_angle_gamma   149.54767109
_symmetry_Int_Tables_number   1
_chemical_formula_structural   La2Y2Zn10SiSn
_chemical_formula_sum   'La2 Y2 Zn10 Si1 Sn1'
_cell_volume   322.29088257
_cell_formula_units_Z   1
loop_
 _symmetry_equiv_pos_site_id
 _symmetry_equiv_pos_as_xyz
  1  'x, y, z'
loop_
 _atom_site_type_symbol
 _atom_site_label
 _atom_site_symmetry_multiplicity
 _atom_site_fract_x
 _atom_site_fract_y
 _atom_site_fract_z
 _atom_site_occupancy
  La  La0  1  0.000966  0.999034  0.487653  1
  La  La1  1  0.000966  0.999034  0.012347  1
  Y  Y2  1  0.202641  0.797359  0.250000  1
  Y  Y3  1  0.794282  0.205718  0.750000  1
  Zn  Zn4  1  0.811907  0.188093  0.390190  1
  Zn  Zn5  1  0.186965  0.813035  0.607868  1
  Zn  Zn6  1  0.811907  0.188093  0.109810  1
  Zn  Zn7  1  0.186965  0.813035  0.892132  1
  Zn  Zn8  1  0.653040  0.346960  0.473983  1
  Zn  Zn9  1  0.341853  0.658147  0.514668  1
  Zn  Zn10  1  0.653040  0.346960  0.026017  1
  Zn  Zn11  1  0.341853  0.658147  0.985332  1
  Zn  Zn12  1  0.404677  0.595323  0.250000  1
  Zn  Zn13  1  0.605368  0.394632  0.750000  1
  Si  Si14  1  0.561527  0.438473  0.250000  1
  Sn  Sn15  1  0.442042  0.557958  0.750000  1
