# generated using pymatgen
data_TbEr2P4Pd7
_symmetry_space_group_name_H-M   'P 1'
_cell_length_a   7.90925999
_cell_length_b   7.90925993
_cell_length_c   9.40745370
_cell_angle_alpha   55.90038313
_cell_angle_beta   55.90038269
_cell_angle_gamma   29.26846072
_symmetry_Int_Tables_number   1
_chemical_formula_structural   TbEr2P4Pd7
_chemical_formula_sum   'Tb1 Er2 P4 Pd7'
_cell_volume   234.49565955
_cell_formula_units_Z   1
loop_
 _symmetry_equiv_pos_site_id
 _symmetry_equiv_pos_as_xyz
  1  'x, y, z'
loop_
 _atom_site_type_symbol
 _atom_site_label
 _atom_site_symmetry_multiplicity
 _atom_site_fract_x
 _atom_site_fract_y
 _atom_site_fract_z
 _atom_site_occupancy
  Tb  Tb0  1  0.500000  0.500000  0.500000  1
  Er  Er1  1  0.820695  0.820695  0.175585  1
  Er  Er2  1  0.179305  0.179305  0.824415  1
  P  P3  1  0.393581  0.393581  0.318862  1
  P  P4  1  0.606419  0.606419  0.681138  1
  P  P5  1  0.839868  0.839868  0.753642  1
  P  P6  1  0.160132  0.160132  0.246358  1
  Pd  Pd7  1  0.669125  0.669125  0.076201  1
  Pd  Pd8  1  0.009981  0.009981  0.214088  1
  Pd  Pd9  1  0.990019  0.990019  0.785912  1
  Pd  Pd10  1  0.500000  0.500000  0.000000  1
  Pd  Pd11  1  0.194925  0.194925  0.469725  1
  Pd  Pd12  1  0.805075  0.805075  0.530275  1
  Pd  Pd13  1  0.330875  0.330875  0.923799  1
