# generated using pymatgen
data_K5Rb3Mn8P8(O7F2)4
_symmetry_space_group_name_H-M   'P 1'
_cell_length_a   6.99333500
_cell_length_b   10.81134700
_cell_length_c   11.46570100
_cell_angle_alpha   90.00000000
_cell_angle_beta   90.00000000
_cell_angle_gamma   90.00000000
_symmetry_Int_Tables_number   1
_chemical_formula_structural   K5Rb3Mn8P8(O7F2)4
_chemical_formula_sum   'K5 Rb3 Mn8 P8 O28 F8'
_cell_volume   866.89151355
_cell_formula_units_Z   1
loop_
 _symmetry_equiv_pos_site_id
 _symmetry_equiv_pos_as_xyz
  1  'x, y, z'
loop_
 _atom_site_type_symbol
 _atom_site_label
 _atom_site_symmetry_multiplicity
 _atom_site_fract_x
 _atom_site_fract_y
 _atom_site_fract_z
 _atom_site_occupancy
  K  K0  1  0.500428  0.436508  0.826154  1
  K  K1  1  0.999500  0.935688  0.673007  1
  K  K2  1  0.000362  0.564215  0.673739  1
  K  K3  1  0.000477  0.063307  0.326640  1
  K  K4  1  0.500433  0.936362  0.173948  1
  Rb  Rb5  1  0.500947  0.567463  0.169830  1
  Rb  Rb6  1  0.001143  0.432936  0.330125  1
  Rb  Rb7  1  0.501795  0.066483  0.829302  1
  Mn  Mn8  1  0.501030  0.248623  0.334904  1
  Mn  Mn9  1  0.500218  0.749603  0.665192  1
  Mn  Mn10  1  0.000567  0.500130  0.998760  1
  Mn  Mn11  1  0.000830  0.250391  0.834543  1
  Mn  Mn12  1  0.000433  0.999775  0.000317  1
  Mn  Mn13  1  0.000989  0.751244  0.165371  1
  Mn  Mn14  1  0.499597  0.999792  0.499814  1
  Mn  Mn15  1  0.500666  0.499953  0.501171  1
  P  P16  1  0.784032  0.749730  0.422591  1
  P  P17  1  0.214967  0.251221  0.578247  1
  P  P18  1  0.283214  0.251240  0.078647  1
  P  P19  1  0.714692  0.248239  0.077781  1
  P  P20  1  0.715700  0.748920  0.920998  1
  P  P21  1  0.783992  0.247619  0.578917  1
  P  P22  1  0.283444  0.751383  0.920698  1
  P  P23  1  0.214593  0.752241  0.422428  1
  O  O24  1  0.999386  0.750539  0.481788  1
  O  O25  1  0.773277  0.112156  0.082478  1
  O  O26  1  0.199417  0.690851  0.302473  1
  O  O27  1  0.674151  0.325856  0.488234  1
  O  O28  1  0.701752  0.308684  0.198165  1
  O  O29  1  0.825235  0.826523  0.012527  1
  O  O30  1  0.723479  0.112018  0.584504  1
  O  O31  1  0.674523  0.828026  0.513475  1
  O  O32  1  0.722144  0.614445  0.417170  1
  O  O33  1  0.499504  0.753109  0.978628  1
  O  O34  1  0.325102  0.673703  0.512797  1
  O  O35  1  0.274702  0.887877  0.415792  1
  O  O36  1  0.220421  0.386262  0.084041  1
  O  O37  1  0.175506  0.672955  0.012098  1
  O  O38  1  0.325352  0.173422  0.487301  1
  O  O39  1  0.704289  0.809867  0.800587  1
  O  O40  1  0.797833  0.309703  0.698763  1
  O  O41  1  0.999232  0.248042  0.520004  1
  O  O42  1  0.297936  0.189398  0.198538  1
  O  O43  1  0.298133  0.689061  0.801091  1
  O  O44  1  0.273901  0.387191  0.584017  1
  O  O45  1  0.200803  0.189763  0.698081  1
  O  O46  1  0.824857  0.326302  0.986868  1
  O  O47  1  0.498733  0.252176  0.020018  1
  O  O48  1  0.798419  0.811102  0.302411  1
  O  O49  1  0.773634  0.612725  0.915910  1
  O  O50  1  0.220038  0.886209  0.915023  1
  O  O51  1  0.174416  0.172776  0.987693  1
  F  F52  1  0.118056  0.929674  0.156482  1
  F  F53  1  0.377956  0.925964  0.653387  1
  F  F54  1  0.389114  0.426710  0.346432  1
  F  F55  1  0.892647  0.070338  0.842978  1
  F  F56  1  0.117912  0.429043  0.843016  1
  F  F57  1  0.617812  0.070150  0.343680  1
  F  F58  1  0.617662  0.570860  0.656917  1
  F  F59  1  0.888615  0.573454  0.153507  1
