# generated using pymatgen
data_SrLi6U2N6
_symmetry_space_group_name_H-M   'P 1'
_cell_length_a   6.22870500
_cell_length_b   6.22870544
_cell_length_c   5.44079300
_cell_angle_alpha   90.00000000
_cell_angle_beta   90.00000000
_cell_angle_gamma   120.00000259
_symmetry_Int_Tables_number   1
_chemical_formula_structural   SrLi6U2N6
_chemical_formula_sum   'Sr1 Li6 U2 N6'
_cell_volume   182.80513002
_cell_formula_units_Z   1
loop_
 _symmetry_equiv_pos_site_id
 _symmetry_equiv_pos_as_xyz
  1  'x, y, z'
loop_
 _atom_site_type_symbol
 _atom_site_label
 _atom_site_symmetry_multiplicity
 _atom_site_fract_x
 _atom_site_fract_y
 _atom_site_fract_z
 _atom_site_occupancy
  Sr  Sr0  1  0.000000  0.000000  0.000000  1
  Li  Li1  1  0.910528  0.606217  0.585791  1
  Li  Li2  1  0.393783  0.304311  0.585791  1
  Li  Li3  1  0.695689  0.089472  0.585791  1
  Li  Li4  1  0.089472  0.393783  0.414209  1
  Li  Li5  1  0.606217  0.695689  0.414209  1
  Li  Li6  1  0.304311  0.910528  0.414209  1
  U  U7  1  0.333333  0.666667  0.973311  1
  U  U8  1  0.666667  0.333333  0.026689  1
  N  N9  1  0.013094  0.628323  0.223542  1
  N  N10  1  0.371677  0.384772  0.223542  1
  N  N11  1  0.615228  0.986906  0.223542  1
  N  N12  1  0.986906  0.371677  0.776458  1
  N  N13  1  0.628323  0.615228  0.776458  1
  N  N14  1  0.384772  0.013094  0.776458  1
