# generated using pymatgen
data_Er6Lu10Cd3AgIr4
_symmetry_space_group_name_H-M   'P 1'
_cell_length_a   9.49535853
_cell_length_b   9.49535890
_cell_length_c   9.49535943
_cell_angle_alpha   59.55668665
_cell_angle_beta   59.55667831
_cell_angle_gamma   59.55668277
_symmetry_Int_Tables_number   1
_chemical_formula_structural   Er6Lu10Cd3AgIr4
_chemical_formula_sum   'Er6 Lu10 Cd3 Ag1 Ir4'
_cell_volume   599.26623545
_cell_formula_units_Z   1
loop_
 _symmetry_equiv_pos_site_id
 _symmetry_equiv_pos_as_xyz
  1  'x, y, z'
loop_
 _atom_site_type_symbol
 _atom_site_label
 _atom_site_symmetry_multiplicity
 _atom_site_fract_x
 _atom_site_fract_y
 _atom_site_fract_z
 _atom_site_occupancy
  Er  Er0  1  0.187199  0.810661  0.810661  1
  Er  Er1  1  0.811334  0.186813  0.186813  1
  Er  Er2  1  0.810661  0.187199  0.810661  1
  Er  Er3  1  0.186813  0.811334  0.186813  1
  Er  Er4  1  0.810661  0.810661  0.187199  1
  Er  Er5  1  0.186813  0.186813  0.811334  1
  Lu  Lu6  1  0.599806  0.599806  0.599806  1
  Lu  Lu7  1  0.599917  0.599917  0.203290  1
  Lu  Lu8  1  0.599917  0.203290  0.599917  1
  Lu  Lu9  1  0.203290  0.599917  0.599917  1
  Lu  Lu10  1  0.060644  0.438741  0.438741  1
  Lu  Lu11  1  0.436705  0.060322  0.060322  1
  Lu  Lu12  1  0.438741  0.060644  0.438741  1
  Lu  Lu13  1  0.060322  0.436705  0.060322  1
  Lu  Lu14  1  0.438741  0.438741  0.060644  1
  Lu  Lu15  1  0.060322  0.060322  0.436705  1
  Cd  Cd16  1  0.831076  0.831076  0.509211  1
  Cd  Cd17  1  0.831076  0.509211  0.831076  1
  Cd  Cd18  1  0.509211  0.831076  0.831076  1
  Ag  Ag19  1  0.833121  0.833121  0.833121  1
  Ir  Ir20  1  0.392162  0.392162  0.392162  1
  Ir  Ir21  1  0.392944  0.392944  0.825575  1
  Ir  Ir22  1  0.392944  0.825575  0.392944  1
  Ir  Ir23  1  0.825575  0.392944  0.392944  1
