# generated using pymatgen
data_Tb4TaTi3(Fe4P3)4
_symmetry_space_group_name_H-M   'P 1'
_cell_length_a   3.69052200
_cell_length_b   10.43986668
_cell_length_c   12.30219579
_cell_angle_alpha   89.95880355
_cell_angle_beta   90.00000000
_cell_angle_gamma   90.00000000
_symmetry_Int_Tables_number   1
_chemical_formula_structural   Tb4TaTi3(Fe4P3)4
_chemical_formula_sum   'Tb4 Ta1 Ti3 Fe16 P12'
_cell_volume   473.98573726
_cell_formula_units_Z   1
loop_
 _symmetry_equiv_pos_site_id
 _symmetry_equiv_pos_as_xyz
  1  'x, y, z'
loop_
 _atom_site_type_symbol
 _atom_site_label
 _atom_site_symmetry_multiplicity
 _atom_site_fract_x
 _atom_site_fract_y
 _atom_site_fract_z
 _atom_site_occupancy
  Tb  Tb0  1  0.250000  0.583878  0.712862  1
  Tb  Tb1  1  0.250000  0.916835  0.212246  1
  Tb  Tb2  1  0.750000  0.416749  0.287540  1
  Tb  Tb3  1  0.750000  0.083969  0.787603  1
  Ta  Ta4  1  0.750000  0.202928  0.508102  1
  Ti  Ti5  1  0.250000  0.699660  0.992475  1
  Ti  Ti6  1  0.250000  0.799687  0.492544  1
  Ti  Ti7  1  0.750000  0.300500  0.007612  1
  Fe  Fe8  1  0.250000  0.416583  0.491829  1
  Fe  Fe9  1  0.250000  0.084161  0.992165  1
  Fe  Fe10  1  0.750000  0.583730  0.507909  1
  Fe  Fe11  1  0.750000  0.916120  0.007528  1
  Fe  Fe12  1  0.250000  0.216827  0.170579  1
  Fe  Fe13  1  0.250000  0.283563  0.671485  1
  Fe  Fe14  1  0.750000  0.783552  0.829098  1
  Fe  Fe15  1  0.750000  0.715661  0.328312  1
  Fe  Fe16  1  0.250000  0.877266  0.699165  1
  Fe  Fe17  1  0.250000  0.622882  0.198650  1
  Fe  Fe18  1  0.750000  0.121534  0.300494  1
  Fe  Fe19  1  0.750000  0.377156  0.801878  1
  Fe  Fe20  1  0.250000  0.464556  0.932986  1
  Fe  Fe21  1  0.250000  0.034764  0.432942  1
  Fe  Fe22  1  0.750000  0.535889  0.067490  1
  Fe  Fe23  1  0.750000  0.962915  0.566534  1
  P  P24  1  0.250000  0.426563  0.111379  1
  P  P25  1  0.250000  0.072038  0.612424  1
  P  P26  1  0.750000  0.573611  0.888937  1
  P  P27  1  0.750000  0.924468  0.387927  1
  P  P28  1  0.250000  0.272932  0.858407  1
  P  P29  1  0.250000  0.225946  0.355524  1
  P  P30  1  0.750000  0.727387  0.141669  1
  P  P31  1  0.750000  0.772384  0.642316  1
  P  P32  1  0.250000  0.599853  0.379399  1
  P  P33  1  0.250000  0.900446  0.879844  1
  P  P34  1  0.750000  0.403626  0.622413  1
  P  P35  1  0.750000  0.099380  0.119733  1
