# generated using pymatgen
data_TbZr3(Ga3Rh)6
_symmetry_space_group_name_H-M   'P 1'
_cell_length_a   7.49703552
_cell_length_b   7.49280149
_cell_length_c   9.40485100
_cell_angle_alpha   90.00000000
_cell_angle_beta   90.00000000
_cell_angle_gamma   119.99009675
_symmetry_Int_Tables_number   1
_chemical_formula_structural   TbZr3(Ga3Rh)6
_chemical_formula_sum   'Tb1 Zr3 Ga18 Rh6'
_cell_volume   457.57224817
_cell_formula_units_Z   1
loop_
 _symmetry_equiv_pos_site_id
 _symmetry_equiv_pos_as_xyz
  1  'x, y, z'
loop_
 _atom_site_type_symbol
 _atom_site_label
 _atom_site_symmetry_multiplicity
 _atom_site_fract_x
 _atom_site_fract_y
 _atom_site_fract_z
 _atom_site_occupancy
  Tb  Tb0  1  0.331098  0.003913  0.750000  1
  Zr  Zr1  1  0.995810  0.669382  0.250000  1
  Zr  Zr2  1  0.004454  0.331531  0.750000  1
  Zr  Zr3  1  0.669273  0.996278  0.250000  1
  Ga  Ga4  1  0.122014  0.124056  0.250000  1
  Ga  Ga5  1  0.872489  0.875342  0.750000  1
  Ga  Ga6  1  0.996081  0.333878  0.079546  1
  Ga  Ga7  1  0.000511  0.662345  0.923119  1
  Ga  Ga8  1  0.000511  0.662345  0.576881  1
  Ga  Ga9  1  0.334004  0.996609  0.415656  1
  Ga  Ga10  1  0.996081  0.333878  0.420454  1
  Ga  Ga11  1  0.669885  0.003654  0.577199  1
  Ga  Ga12  1  0.669885  0.003654  0.922801  1
  Ga  Ga13  1  0.334004  0.996609  0.084344  1
  Ga  Ga14  1  0.330586  0.333795  0.567401  1
  Ga  Ga15  1  0.669188  0.669251  0.428257  1
  Ga  Ga16  1  0.669188  0.669251  0.071743  1
  Ga  Ga17  1  0.330586  0.333795  0.932599  1
  Ga  Ga18  1  0.336140  0.549717  0.250000  1
  Ga  Ga19  1  0.666981  0.454474  0.750000  1
  Ga  Ga20  1  0.552006  0.337992  0.250000  1
  Ga  Ga21  1  0.449443  0.659962  0.750000  1
  Rh  Rh22  1  0.670659  0.327814  0.001164  1
  Rh  Rh23  1  0.329335  0.672904  0.001870  1
  Rh  Rh24  1  0.329335  0.672904  0.498130  1
  Rh  Rh25  1  0.670659  0.327814  0.498836  1
  Rh  Rh26  1  0.999897  0.998425  0.001611  1
  Rh  Rh27  1  0.999897  0.998425  0.498389  1
