# generated using pymatgen
data_Zr3Ga3Ru2Pt
_symmetry_space_group_name_H-M   'P 1'
_cell_length_a   7.40691000
_cell_length_b   7.40690944
_cell_length_c   6.60060900
_cell_angle_alpha   90.00000000
_cell_angle_beta   90.00000000
_cell_angle_gamma   120.00000370
_symmetry_Int_Tables_number   1
_chemical_formula_structural   Zr3Ga3Ru2Pt
_chemical_formula_sum   'Zr6 Ga6 Ru4 Pt2'
_cell_volume   313.60914991
_cell_formula_units_Z   2
loop_
 _symmetry_equiv_pos_site_id
 _symmetry_equiv_pos_as_xyz
  1  'x, y, z'
loop_
 _atom_site_type_symbol
 _atom_site_label
 _atom_site_symmetry_multiplicity
 _atom_site_fract_x
 _atom_site_fract_y
 _atom_site_fract_z
 _atom_site_occupancy
  Zr  Zr0  1  0.393112  0.384815  0.750000  1
  Zr  Zr1  1  0.991702  0.606888  0.750000  1
  Zr  Zr2  1  0.615185  0.008298  0.750000  1
  Zr  Zr3  1  0.619509  0.012152  0.250000  1
  Zr  Zr4  1  0.987848  0.607357  0.250000  1
  Zr  Zr5  1  0.392643  0.380491  0.250000  1
  Ga  Ga6  1  0.276575  0.000935  0.000147  1
  Ga  Ga7  1  0.724359  0.723425  0.000147  1
  Ga  Ga8  1  0.999065  0.275641  0.000147  1
  Ga  Ga9  1  0.724359  0.723425  0.499853  1
  Ga  Ga10  1  0.276575  0.000935  0.499853  1
  Ga  Ga11  1  0.999065  0.275641  0.499853  1
  Ru  Ru12  1  0.666667  0.333333  0.999282  1
  Ru  Ru13  1  0.000000  0.000000  0.750000  1
  Ru  Ru14  1  0.666667  0.333333  0.500718  1
  Ru  Ru15  1  0.000000  0.000000  0.250000  1
  Pt  Pt16  1  0.333333  0.666667  0.495847  1
  Pt  Pt17  1  0.333333  0.666667  0.004153  1
