# generated using pymatgen
data_LiTm2Co3(PRh)6
_symmetry_space_group_name_H-M   'P 1'
_cell_length_a   3.77651300
_cell_length_b   10.66782800
_cell_length_c   12.39859300
_cell_angle_alpha   90.00000000
_cell_angle_beta   90.00000000
_cell_angle_gamma   90.00000000
_symmetry_Int_Tables_number   1
_chemical_formula_structural   LiTm2Co3(PRh)6
_chemical_formula_sum   'Li2 Tm4 Co6 P12 Rh12'
_cell_volume   499.50448586
_cell_formula_units_Z   2
loop_
 _symmetry_equiv_pos_site_id
 _symmetry_equiv_pos_as_xyz
  1  'x, y, z'
loop_
 _atom_site_type_symbol
 _atom_site_label
 _atom_site_symmetry_multiplicity
 _atom_site_fract_x
 _atom_site_fract_y
 _atom_site_fract_z
 _atom_site_occupancy
  Li  Li0  1  0.750000  0.290969  0.010347  1
  Li  Li1  1  0.750000  0.209031  0.510347  1
  Tm  Tm2  1  0.250000  0.576933  0.708325  1
  Tm  Tm3  1  0.250000  0.923067  0.208325  1
  Tm  Tm4  1  0.750000  0.414143  0.291791  1
  Tm  Tm5  1  0.750000  0.085857  0.791791  1
  Co  Co6  1  0.750000  0.118539  0.306704  1
  Co  Co7  1  0.750000  0.381461  0.806704  1
  Co  Co8  1  0.250000  0.462508  0.933908  1
  Co  Co9  1  0.250000  0.037492  0.433908  1
  Co  Co10  1  0.750000  0.535012  0.063390  1
  Co  Co11  1  0.750000  0.964988  0.563390  1
  P  P12  1  0.250000  0.422778  0.108737  1
  P  P13  1  0.250000  0.077222  0.608737  1
  P  P14  1  0.750000  0.565677  0.887744  1
  P  P15  1  0.750000  0.934323  0.387744  1
  P  P16  1  0.250000  0.273297  0.864823  1
  P  P17  1  0.250000  0.226703  0.364823  1
  P  P18  1  0.750000  0.729777  0.128759  1
  P  P19  1  0.750000  0.770223  0.628759  1
  P  P20  1  0.250000  0.597565  0.390227  1
  P  P21  1  0.250000  0.902435  0.890227  1
  P  P22  1  0.750000  0.400559  0.618862  1
  P  P23  1  0.750000  0.099441  0.118862  1
  Rh  Rh24  1  0.250000  0.710714  0.989204  1
  Rh  Rh25  1  0.250000  0.789286  0.489204  1
  Rh  Rh26  1  0.250000  0.403390  0.477368  1
  Rh  Rh27  1  0.250000  0.096610  0.977368  1
  Rh  Rh28  1  0.750000  0.593202  0.520560  1
  Rh  Rh29  1  0.750000  0.906798  0.020560  1
  Rh  Rh30  1  0.250000  0.221080  0.177169  1
  Rh  Rh31  1  0.250000  0.278920  0.677169  1
  Rh  Rh32  1  0.750000  0.766344  0.821897  1
  Rh  Rh33  1  0.750000  0.733656  0.321897  1
  Rh  Rh34  1  0.250000  0.887831  0.700185  1
  Rh  Rh35  1  0.250000  0.612169  0.200185  1
