# generated using pymatgen
data_TbHo2Er2(In2Pt)2
_symmetry_space_group_name_H-M   'P 1'
_cell_length_a   3.60701800
_cell_length_b   8.15480300
_cell_length_c   18.22584500
_cell_angle_alpha   90.00000000
_cell_angle_beta   90.00000000
_cell_angle_gamma   90.00000000
_symmetry_Int_Tables_number   1
_chemical_formula_structural   TbHo2Er2(In2Pt)2
_chemical_formula_sum   'Tb2 Ho4 Er4 In8 Pt4'
_cell_volume   536.10450428
_cell_formula_units_Z   2
loop_
 _symmetry_equiv_pos_site_id
 _symmetry_equiv_pos_as_xyz
  1  'x, y, z'
loop_
 _atom_site_type_symbol
 _atom_site_label
 _atom_site_symmetry_multiplicity
 _atom_site_fract_x
 _atom_site_fract_y
 _atom_site_fract_z
 _atom_site_occupancy
  Tb  Tb0  1  0.000000  0.000000  0.000000  1
  Tb  Tb1  1  0.000000  0.500000  0.500000  1
  Ho  Ho2  1  0.000000  0.242971  0.220107  1
  Ho  Ho3  1  0.000000  0.757029  0.779893  1
  Ho  Ho4  1  0.000000  0.257029  0.720107  1
  Ho  Ho5  1  0.000000  0.742971  0.279893  1
  Er  Er6  1  0.000000  0.116885  0.414407  1
  Er  Er7  1  0.000000  0.883115  0.585593  1
  Er  Er8  1  0.000000  0.383115  0.914407  1
  Er  Er9  1  0.000000  0.616885  0.085593  1
  In  In10  1  0.500000  0.422935  0.350910  1
  In  In11  1  0.500000  0.577065  0.649090  1
  In  In12  1  0.500000  0.077065  0.850910  1
  In  In13  1  0.500000  0.922935  0.149090  1
  In  In14  1  0.500000  0.293406  0.066507  1
  In  In15  1  0.500000  0.706594  0.933493  1
  In  In16  1  0.500000  0.206594  0.566507  1
  In  In17  1  0.500000  0.793406  0.433493  1
  Pt  Pt18  1  0.500000  0.024776  0.303610  1
  Pt  Pt19  1  0.500000  0.975224  0.696390  1
  Pt  Pt20  1  0.500000  0.475224  0.803610  1
  Pt  Pt21  1  0.500000  0.524776  0.196390  1
