# generated using pymatgen
data_KRb2OsO4
_symmetry_space_group_name_H-M   'P 1'
_cell_length_a   6.02936096
_cell_length_b   6.02936043
_cell_length_c   6.01972564
_cell_angle_alpha   114.97134638
_cell_angle_beta   114.97134235
_cell_angle_gamma   99.03426521
_symmetry_Int_Tables_number   1
_chemical_formula_structural   KRb2OsO4
_chemical_formula_sum   'K1 Rb2 Os1 O4'
_cell_volume   164.18925466
_cell_formula_units_Z   1
loop_
 _symmetry_equiv_pos_site_id
 _symmetry_equiv_pos_as_xyz
  1  'x, y, z'
loop_
 _atom_site_type_symbol
 _atom_site_label
 _atom_site_symmetry_multiplicity
 _atom_site_fract_x
 _atom_site_fract_y
 _atom_site_fract_z
 _atom_site_occupancy
  K  K0  1  0.500041  0.500041  0.000002  1
  Rb  Rb1  1  0.749989  0.249989  0.499999  1
  Rb  Rb2  1  0.249989  0.749989  0.499999  1
  Os  Os3  1  0.999151  0.999151  0.000000  1
  O  O4  1  0.786198  0.194652  0.000003  1
  O  O5  1  0.194652  0.786198  0.000003  1
  O  O6  1  0.211435  0.211435  0.402885  1
  O  O7  1  0.808548  0.808548  0.597111  1
