# generated using pymatgen
data_Tm3PaZn2Ir3
_symmetry_space_group_name_H-M   'P 1'
_cell_length_a   7.33688600
_cell_length_b   7.44762824
_cell_length_c   3.86185000
_cell_angle_alpha   90.00000000
_cell_angle_beta   90.00000000
_cell_angle_gamma   119.50932027
_symmetry_Int_Tables_number   1
_chemical_formula_structural   Tm3PaZn2Ir3
_chemical_formula_sum   'Tm3 Pa1 Zn2 Ir3'
_cell_volume   183.64620599
_cell_formula_units_Z   1
loop_
 _symmetry_equiv_pos_site_id
 _symmetry_equiv_pos_as_xyz
  1  'x, y, z'
loop_
 _atom_site_type_symbol
 _atom_site_label
 _atom_site_symmetry_multiplicity
 _atom_site_fract_x
 _atom_site_fract_y
 _atom_site_fract_z
 _atom_site_occupancy
  Tm  Tm0  1  0.368512  0.000000  0.499999  1
  Tm  Tm1  1  0.034311  0.447621  0.499999  1
  Tm  Tm2  1  0.586689  0.552378  0.499999  1
  Pa  Pa3  1  0.741812  0.000000  0.000000  1
  Zn  Zn4  1  0.254674  0.262545  0.000000  1
  Zn  Zn5  1  0.992128  0.737455  0.000000  1
  Ir  Ir6  1  0.672421  0.317260  0.000000  1
  Ir  Ir7  1  0.355160  0.682740  0.000000  1
  Ir  Ir8  1  0.994290  0.000000  0.499999  1
