# generated using pymatgen
data_Sc4Ti5ReSi8
_symmetry_space_group_name_H-M   'P 1'
_cell_length_a   6.81981907
_cell_length_b   6.81981907
_cell_length_c   12.50519000
_cell_angle_alpha   90.00000000
_cell_angle_beta   90.00000000
_cell_angle_gamma   90.01655069
_symmetry_Int_Tables_number   1
_chemical_formula_structural   Sc4Ti5ReSi8
_chemical_formula_sum   'Sc8 Ti10 Re2 Si16'
_cell_volume   581.61551432
_cell_formula_units_Z   2
loop_
 _symmetry_equiv_pos_site_id
 _symmetry_equiv_pos_as_xyz
  1  'x, y, z'
loop_
 _atom_site_type_symbol
 _atom_site_label
 _atom_site_symmetry_multiplicity
 _atom_site_fract_x
 _atom_site_fract_y
 _atom_site_fract_z
 _atom_site_occupancy
  Sc  Sc0  1  0.338679  0.998683  0.467197  1
  Sc  Sc1  1  0.661323  0.001316  0.967197  1
  Sc  Sc2  1  0.841779  0.501554  0.281173  1
  Sc  Sc3  1  0.158221  0.498445  0.781173  1
  Sc  Sc4  1  0.001316  0.661323  0.032803  1
  Sc  Sc5  1  0.998683  0.338679  0.532803  1
  Sc  Sc6  1  0.498445  0.158221  0.218826  1
  Sc  Sc7  1  0.501554  0.841779  0.718826  1
  Ti  Ti8  1  0.328782  0.328782  0.000000  1
  Ti  Ti9  1  0.671218  0.671218  0.500000  1
  Ti  Ti10  1  0.149856  0.007986  0.874669  1
  Ti  Ti11  1  0.850144  0.992014  0.374668  1
  Ti  Ti12  1  0.651194  0.495817  0.875907  1
  Ti  Ti13  1  0.348807  0.504183  0.375907  1
  Ti  Ti14  1  0.992014  0.850144  0.625332  1
  Ti  Ti15  1  0.007986  0.149856  0.125332  1
  Ti  Ti16  1  0.504183  0.348807  0.624093  1
  Ti  Ti17  1  0.495817  0.651194  0.124093  1
  Re  Re18  1  0.827693  0.172307  0.749999  1
  Re  Re19  1  0.172307  0.827693  0.250000  1
  Si  Si20  1  0.298792  0.954122  0.066033  1
  Si  Si21  1  0.701208  0.045880  0.566033  1
  Si  Si22  1  0.795786  0.543254  0.685074  1
  Si  Si23  1  0.204214  0.456748  0.185075  1
  Si  Si24  1  0.045880  0.701208  0.433966  1
  Si  Si25  1  0.954122  0.298792  0.933966  1
  Si  Si26  1  0.456748  0.204214  0.814925  1
  Si  Si27  1  0.543254  0.795786  0.314925  1
  Si  Si28  1  0.203834  0.135059  0.679543  1
  Si  Si29  1  0.796166  0.864942  0.179543  1
  Si  Si30  1  0.705101  0.362618  0.070299  1
  Si  Si31  1  0.294899  0.637384  0.570299  1
  Si  Si32  1  0.864942  0.796166  0.820458  1
  Si  Si33  1  0.135059  0.203834  0.320458  1
  Si  Si34  1  0.637384  0.294899  0.429700  1
  Si  Si35  1  0.362618  0.705101  0.929700  1
