# generated using pymatgen
data_Er4Si4Ir3Os
_symmetry_space_group_name_H-M   'P 1'
_cell_length_a   4.22872300
_cell_length_b   6.81081975
_cell_length_c   7.38228904
_cell_angle_alpha   90.10354160
_cell_angle_beta   90.00000000
_cell_angle_gamma   90.00000000
_symmetry_Int_Tables_number   1
_chemical_formula_structural   Er4Si4Ir3Os
_chemical_formula_sum   'Er4 Si4 Ir3 Os1'
_cell_volume   212.61747734
_cell_formula_units_Z   1
loop_
 _symmetry_equiv_pos_site_id
 _symmetry_equiv_pos_as_xyz
  1  'x, y, z'
loop_
 _atom_site_type_symbol
 _atom_site_label
 _atom_site_symmetry_multiplicity
 _atom_site_fract_x
 _atom_site_fract_y
 _atom_site_fract_z
 _atom_site_occupancy
  Er  Er0  1  0.750000  0.501400  0.812840  1
  Er  Er1  1  0.250000  0.997336  0.314290  1
  Er  Er2  1  0.750000  0.001971  0.685779  1
  Er  Er3  1  0.250000  0.502059  0.186509  1
  Si  Si4  1  0.250000  0.702290  0.617107  1
  Si  Si5  1  0.250000  0.200099  0.889851  1
  Si  Si6  1  0.750000  0.297686  0.386853  1
  Si  Si7  1  0.750000  0.798007  0.106110  1
  Ir  Ir8  1  0.250000  0.342016  0.564384  1
  Ir  Ir9  1  0.750000  0.656176  0.434912  1
  Ir  Ir10  1  0.750000  0.158097  0.065817  1
  Os  Os11  1  0.250000  0.842862  0.935547  1
