# generated using pymatgen
data_Yb5Ho3AsPd24
_symmetry_space_group_name_H-M   'P 1'
_cell_length_a   8.29651641
_cell_length_b   8.29651635
_cell_length_c   8.28959300
_cell_angle_alpha   89.96656803
_cell_angle_beta   90.03343197
_cell_angle_gamma   90.09722846
_symmetry_Int_Tables_number   1
_chemical_formula_structural   Yb5Ho3AsPd24
_chemical_formula_sum   'Yb5 Ho3 As1 Pd24'
_cell_volume   570.58977591
_cell_formula_units_Z   1
loop_
 _symmetry_equiv_pos_site_id
 _symmetry_equiv_pos_as_xyz
  1  'x, y, z'
loop_
 _atom_site_type_symbol
 _atom_site_label
 _atom_site_symmetry_multiplicity
 _atom_site_fract_x
 _atom_site_fract_y
 _atom_site_fract_z
 _atom_site_occupancy
  Yb  Yb0  1  0.252589  0.252364  0.252538  1
  Yb  Yb1  1  0.747472  0.747306  0.747482  1
  Yb  Yb2  1  0.747636  0.747411  0.252538  1
  Yb  Yb3  1  0.747378  0.252622  0.747296  1
  Yb  Yb4  1  0.252694  0.252528  0.747482  1
  Ho  Ho5  1  0.253812  0.746188  0.253921  1
  Ho  Ho6  1  0.253990  0.746010  0.746121  1
  Ho  Ho7  1  0.746028  0.253972  0.254304  1
  As  As8  1  0.998828  0.001172  0.998969  1
  Pd  Pd9  1  0.258429  0.500456  0.000347  1
  Pd  Pd10  1  0.741390  0.499744  0.000509  1
  Pd  Pd11  1  0.999983  0.258592  0.499652  1
  Pd  Pd12  1  0.500256  0.258610  0.000509  1
  Pd  Pd13  1  0.000532  0.741508  0.499843  1
  Pd  Pd14  1  0.499544  0.741571  0.000347  1
  Pd  Pd15  1  0.499911  0.999739  0.258544  1
  Pd  Pd16  1  0.258492  0.999468  0.499843  1
  Pd  Pd17  1  0.499717  0.999548  0.741334  1
  Pd  Pd18  1  0.741408  0.000017  0.499652  1
  Pd  Pd19  1  0.000261  0.500089  0.258544  1
  Pd  Pd20  1  0.000452  0.500283  0.741334  1
  Pd  Pd21  1  0.252216  0.499531  0.499768  1
  Pd  Pd22  1  0.748059  0.500292  0.500044  1
  Pd  Pd23  1  0.499708  0.251941  0.500044  1
  Pd  Pd24  1  0.500469  0.747784  0.499768  1
  Pd  Pd25  1  0.499828  0.500172  0.252194  1
  Pd  Pd26  1  0.500093  0.499907  0.748082  1
  Pd  Pd27  1  0.287279  0.000191  0.000015  1
  Pd  Pd28  1  0.711664  0.999946  0.999959  1
  Pd  Pd29  1  0.000054  0.288336  0.999959  1
  Pd  Pd30  1  0.999809  0.712721  0.000015  1
  Pd  Pd31  1  0.000039  0.999961  0.287474  1
  Pd  Pd32  1  0.999978  0.000022  0.711568  1
