# generated using pymatgen
data_Ho(FeCl4)3
_symmetry_space_group_name_H-M   'P 1'
_cell_length_a   11.07024700
_cell_length_b   11.07024627
_cell_length_c   16.37968000
_cell_angle_alpha   90.00000000
_cell_angle_beta   90.00000000
_cell_angle_gamma   120.00000516
_symmetry_Int_Tables_number   1
_chemical_formula_structural   Ho(FeCl4)3
_chemical_formula_sum   'Ho3 Fe9 Cl36'
_cell_volume   1738.40361140
_cell_formula_units_Z   3
loop_
 _symmetry_equiv_pos_site_id
 _symmetry_equiv_pos_as_xyz
  1  'x, y, z'
loop_
 _atom_site_type_symbol
 _atom_site_label
 _atom_site_symmetry_multiplicity
 _atom_site_fract_x
 _atom_site_fract_y
 _atom_site_fract_z
 _atom_site_occupancy
  Ho  Ho0  1  0.993629  0.496814  0.000000  1
  Ho  Ho1  1  0.503186  0.006371  0.666667  1
  Ho  Ho2  1  0.503186  0.496814  0.333333  1
  Fe  Fe3  1  0.731210  0.268790  0.833333  1
  Fe  Fe4  1  0.132112  0.764939  0.603619  1
  Fe  Fe5  1  0.235061  0.367174  0.936952  1
  Fe  Fe6  1  0.632826  0.867888  0.270285  1
  Fe  Fe7  1  0.731210  0.462419  0.166667  1
  Fe  Fe8  1  0.537581  0.268790  0.500000  1
  Fe  Fe9  1  0.132112  0.367174  0.396381  1
  Fe  Fe10  1  0.632826  0.764939  0.729715  1
  Fe  Fe11  1  0.235061  0.867888  0.063048  1
  Cl  Cl12  1  0.008357  0.838760  0.544269  1
  Cl  Cl13  1  0.830403  0.991643  0.210936  1
  Cl  Cl14  1  0.161240  0.169597  0.877603  1
  Cl  Cl15  1  0.783531  0.587473  0.281176  1
  Cl  Cl16  1  0.412527  0.196058  0.614510  1
  Cl  Cl17  1  0.803942  0.216469  0.947843  1
  Cl  Cl18  1  0.412527  0.216469  0.385490  1
  Cl  Cl19  1  0.803942  0.587473  0.052157  1
  Cl  Cl20  1  0.783531  0.196058  0.718824  1
  Cl  Cl21  1  0.233598  0.348520  0.278498  1
  Cl  Cl22  1  0.651480  0.885078  0.611831  1
  Cl  Cl23  1  0.114922  0.766402  0.945165  1
  Cl  Cl24  1  0.651480  0.766402  0.388169  1
  Cl  Cl25  1  0.114922  0.348520  0.054835  1
  Cl  Cl26  1  0.233598  0.885078  0.721502  1
  Cl  Cl27  1  0.502232  0.654796  0.207371  1
  Cl  Cl28  1  0.345204  0.847436  0.540705  1
  Cl  Cl29  1  0.152564  0.497768  0.874038  1
  Cl  Cl30  1  0.345204  0.497768  0.459295  1
  Cl  Cl31  1  0.152564  0.654796  0.125962  1
  Cl  Cl32  1  0.502232  0.847436  0.792629  1
  Cl  Cl33  1  0.660253  0.496981  0.480182  1
  Cl  Cl34  1  0.503019  0.163273  0.813516  1
  Cl  Cl35  1  0.836727  0.339747  0.146849  1
  Cl  Cl36  1  0.503019  0.339747  0.186484  1
  Cl  Cl37  1  0.836727  0.496981  0.853151  1
  Cl  Cl38  1  0.660253  0.163273  0.519818  1
  Cl  Cl39  1  0.031442  0.488364  0.377046  1
  Cl  Cl40  1  0.511636  0.543079  0.710379  1
  Cl  Cl41  1  0.456921  0.968558  0.043712  1
  Cl  Cl42  1  0.511636  0.968558  0.289621  1
  Cl  Cl43  1  0.456921  0.488364  0.956288  1
  Cl  Cl44  1  0.031442  0.543079  0.622954  1
  Cl  Cl45  1  0.008357  0.169597  0.455731  1
  Cl  Cl46  1  0.830403  0.838760  0.789064  1
  Cl  Cl47  1  0.161240  0.991643  0.122397  1
