# generated using pymatgen
data_Er2Co6Si3Ge
_symmetry_space_group_name_H-M   'P 1'
_cell_length_a   6.28634135
_cell_length_b   6.27721798
_cell_length_c   6.28634165
_cell_angle_alpha   130.72072971
_cell_angle_beta   112.67468381
_cell_angle_gamma   87.88084082
_symmetry_Int_Tables_number   1
_chemical_formula_structural   Er2Co6Si3Ge
_chemical_formula_sum   'Er2 Co6 Si3 Ge1'
_cell_volume   165.11289146
_cell_formula_units_Z   1
loop_
 _symmetry_equiv_pos_site_id
 _symmetry_equiv_pos_as_xyz
  1  'x, y, z'
loop_
 _atom_site_type_symbol
 _atom_site_label
 _atom_site_symmetry_multiplicity
 _atom_site_fract_x
 _atom_site_fract_y
 _atom_site_fract_z
 _atom_site_occupancy
  Er  Er0  1  0.251577  0.533772  0.282195  1
  Er  Er1  1  0.748374  0.470492  0.722117  1
  Co  Co2  1  0.992108  0.999638  0.488307  1
  Co  Co3  1  0.511331  0.999638  0.007530  1
  Co  Co4  1  0.719352  0.001517  0.722548  1
  Co  Co5  1  0.229753  0.496125  0.727556  1
  Co  Co6  1  0.278969  0.001517  0.282165  1
  Co  Co7  1  0.768569  0.496125  0.266372  1
  Si  Si8  1  0.922574  0.134535  0.211960  1
  Si  Si9  1  0.578534  0.786357  0.207822  1
  Si  Si10  1  0.414780  0.205975  0.791196  1
  Ge  Ge11  1  0.084079  0.874309  0.790230  1
