# generated using pymatgen
data_Pr4SmTlSi2
_symmetry_space_group_name_H-M   'P 1'
_cell_length_a   7.89849889
_cell_length_b   7.89849848
_cell_length_c   9.32633600
_cell_angle_alpha   115.05267947
_cell_angle_beta   115.05267808
_cell_angle_gamma   89.99999399
_symmetry_Int_Tables_number   1
_chemical_formula_structural   Pr4SmTlSi2
_chemical_formula_sum   'Pr8 Sm2 Tl2 Si4'
_cell_volume   465.96914946
_cell_formula_units_Z   2
loop_
 _symmetry_equiv_pos_site_id
 _symmetry_equiv_pos_as_xyz
  1  'x, y, z'
loop_
 _atom_site_type_symbol
 _atom_site_label
 _atom_site_symmetry_multiplicity
 _atom_site_fract_x
 _atom_site_fract_y
 _atom_site_fract_z
 _atom_site_occupancy
  Pr  Pr0  1  0.961790  0.813756  0.275546  1
  Pr  Pr1  1  0.313756  0.461790  0.275546  1
  Pr  Pr2  1  0.813756  0.313756  0.275546  1
  Pr  Pr3  1  0.461790  0.961790  0.275546  1
  Pr  Pr4  1  0.038210  0.186244  0.724454  1
  Pr  Pr5  1  0.686244  0.538210  0.724454  1
  Pr  Pr6  1  0.186244  0.686244  0.724454  1
  Pr  Pr7  1  0.538210  0.038210  0.724454  1
  Sm  Sm8  1  0.500000  0.500000  0.000000  1
  Sm  Sm9  1  0.000000  0.000000  0.000000  1
  Tl  Tl10  1  0.750000  0.750000  0.500000  1
  Tl  Tl11  1  0.250000  0.250000  0.500000  1
  Si  Si12  1  0.616988  0.883012  0.000000  1
  Si  Si13  1  0.383012  0.116988  0.000000  1
  Si  Si14  1  0.883012  0.383012  0.000000  1
  Si  Si15  1  0.116988  0.616988  0.000000  1
