# generated using pymatgen
data_In(Sb8Pb)2
_symmetry_space_group_name_H-M   'P 1'
_cell_length_a   4.53937804
_cell_length_b   4.53734674
_cell_length_c   35.13937000
_cell_angle_alpha   86.18613797
_cell_angle_beta   93.70337024
_cell_angle_gamma   120.01479725
_symmetry_Int_Tables_number   1
_chemical_formula_structural   In(Sb8Pb)2
_chemical_formula_sum   'In1 Sb16 Pb2'
_cell_volume   624.89892213
_cell_formula_units_Z   1
loop_
 _symmetry_equiv_pos_site_id
 _symmetry_equiv_pos_as_xyz
  1  'x, y, z'
loop_
 _atom_site_type_symbol
 _atom_site_label
 _atom_site_symmetry_multiplicity
 _atom_site_fract_x
 _atom_site_fract_y
 _atom_site_fract_z
 _atom_site_occupancy
  In  In0  1  0.364710  0.629956  0.098441  1
  Sb  Sb1  1  0.684368  0.312850  0.055194  1
  Sb  Sb2  1  0.055015  0.947323  0.163548  1
  Sb  Sb3  1  0.734020  0.266324  0.202391  1
  Sb  Sb4  1  0.424203  0.577226  0.270373  1
  Sb  Sb5  1  0.103494  0.896632  0.309170  1
  Sb  Sb6  1  0.792662  0.208416  0.376178  1
  Sb  Sb7  1  0.472169  0.527916  0.414652  1
  Sb  Sb8  1  0.160363  0.840412  0.481117  1
  Sb  Sb9  1  0.840085  0.160057  0.519506  1
  Sb  Sb10  1  0.527887  0.471813  0.585856  1
  Sb  Sb11  1  0.207614  0.791410  0.624300  1
  Sb  Sb12  1  0.896578  0.104333  0.690549  1
  Sb  Sb13  1  0.575793  0.423760  0.729001  1
  Sb  Sb14  1  0.264476  0.736487  0.793817  1
  Sb  Sb15  1  0.943435  0.055804  0.832468  1
  Sb  Sb16  1  0.315416  0.684094  0.945743  1
  Pb  Pb17  1  0.002215  0.998367  0.005264  1
  Pb  Pb18  1  0.635486  0.366817  0.902431  1
