# generated using pymatgen
data_Tb3SmAl13Ga11Pt9
_symmetry_space_group_name_H-M   'P 1'
_cell_length_a   7.49594846
_cell_length_b   7.51746984
_cell_length_c   13.34688100
_cell_angle_alpha   84.65355976
_cell_angle_beta   100.65862433
_cell_angle_gamma   119.73643697
_symmetry_Int_Tables_number   1
_chemical_formula_structural   Tb3SmAl13Ga11Pt9
_chemical_formula_sum   'Tb3 Sm1 Al13 Ga11 Pt9'
_cell_volume   641.79591388
_cell_formula_units_Z   1
loop_
 _symmetry_equiv_pos_site_id
 _symmetry_equiv_pos_as_xyz
  1  'x, y, z'
loop_
 _atom_site_type_symbol
 _atom_site_label
 _atom_site_symmetry_multiplicity
 _atom_site_fract_x
 _atom_site_fract_y
 _atom_site_fract_z
 _atom_site_occupancy
  Tb  Tb0  1  0.735173  0.001947  0.191847  1
  Tb  Tb1  1  0.264747  0.999574  0.807474  1
  Tb  Tb2  1  0.062970  0.664065  0.190159  1
  Sm  Sm3  1  0.938312  0.335962  0.809175  1
  Al  Al4  1  0.770909  0.661097  0.331907  1
  Al  Al5  1  0.853370  0.331869  0.557152  1
  Al  Al6  1  0.186787  0.999640  0.557407  1
  Al  Al7  1  0.812108  0.998887  0.441342  1
  Al  Al8  1  0.352507  0.000925  0.053932  1
  Al  Al9  1  0.647612  0.999968  0.946054  1
  Al  Al10  1  0.556309  0.994573  0.668873  1
  Al  Al11  1  0.442827  0.004377  0.331345  1
  Al  Al12  1  0.519723  0.666246  0.559803  1
  Al  Al13  1  0.478030  0.331863  0.440042  1
  Al  Al14  1  0.685404  0.667523  0.048917  1
  Al  Al15  1  0.317203  0.334623  0.951925  1
  Al  Al16  1  0.145156  0.667239  0.441719  1
  Ga  Ga17  1  0.803142  0.873093  0.814638  1
  Ga  Ga18  1  0.196214  0.126121  0.185177  1
  Ga  Ga19  1  0.980706  0.667766  0.939869  1
  Ga  Ga20  1  0.020800  0.333488  0.060569  1
  Ga  Ga21  1  0.400620  0.665929  0.816238  1
  Ga  Ga22  1  0.600803  0.336943  0.184100  1
  Ga  Ga23  1  0.884405  0.666083  0.671042  1
  Ga  Ga24  1  0.115360  0.333877  0.329320  1
  Ga  Ga25  1  0.600077  0.459677  0.814778  1
  Ga  Ga26  1  0.402530  0.541991  0.185738  1
  Ga  Ga27  1  0.228414  0.336251  0.671855  1
  Pt  Pt28  1  0.335642  0.674086  0.001320  1
  Pt  Pt29  1  0.545499  0.323640  0.633634  1
  Pt  Pt30  1  0.456358  0.675464  0.366284  1
  Pt  Pt31  1  0.881546  0.005064  0.634139  1
  Pt  Pt32  1  0.112879  0.989648  0.364197  1
  Pt  Pt33  1  0.665270  0.326926  0.999232  1
  Pt  Pt34  1  0.209678  0.669961  0.635113  1
  Pt  Pt35  1  0.790298  0.332737  0.364226  1
  Pt  Pt36  1  0.000611  0.000874  0.999458  1
