# generated using pymatgen
data_Lu13Sc7SiBi11
_symmetry_space_group_name_H-M   'P 1'
_cell_length_a   7.91058768
_cell_length_b   9.19320343
_cell_length_c   11.62341528
_cell_angle_alpha   89.87518058
_cell_angle_beta   89.80158966
_cell_angle_gamma   89.92479756
_symmetry_Int_Tables_number   1
_chemical_formula_structural   Lu13Sc7SiBi11
_chemical_formula_sum   'Lu13 Sc7 Si1 Bi11'
_cell_volume   845.28929584
_cell_formula_units_Z   1
loop_
 _symmetry_equiv_pos_site_id
 _symmetry_equiv_pos_as_xyz
  1  'x, y, z'
loop_
 _atom_site_type_symbol
 _atom_site_label
 _atom_site_symmetry_multiplicity
 _atom_site_fract_x
 _atom_site_fract_y
 _atom_site_fract_z
 _atom_site_occupancy
  Lu  Lu0  1  0.352437  0.248641  0.295046  1
  Lu  Lu1  1  0.145728  0.749281  0.781135  1
  Lu  Lu2  1  0.852394  0.250829  0.215250  1
  Lu  Lu3  1  0.196703  0.250124  0.772682  1
  Lu  Lu4  1  0.811974  0.750071  0.219181  1
  Lu  Lu5  1  0.317238  0.751343  0.282519  1
  Lu  Lu6  1  0.665577  0.248984  0.708733  1
  Lu  Lu7  1  0.308500  0.950274  0.559663  1
  Lu  Lu8  1  0.806561  0.566034  0.940497  1
  Lu  Lu9  1  0.684193  0.073606  0.445344  1
  Lu  Lu10  1  0.193463  0.433072  0.058778  1
  Lu  Lu11  1  0.683953  0.425995  0.445349  1
  Lu  Lu12  1  0.308553  0.549778  0.559519  1
  Sc  Sc13  1  0.036040  0.249877  0.512193  1
  Sc  Sc14  1  0.982032  0.749952  0.491389  1
  Sc  Sc15  1  0.478927  0.751938  0.011324  1
  Sc  Sc16  1  0.523249  0.247581  0.986706  1
  Sc  Sc17  1  0.654195  0.751757  0.719713  1
  Sc  Sc18  1  0.196267  0.069347  0.059587  1
  Sc  Sc19  1  0.804042  0.931209  0.940070  1
  Si  Si20  1  0.401559  0.250076  0.537926  1
  Bi  Bi21  1  0.600440  0.749689  0.464177  1
  Bi  Bi22  1  0.098448  0.758226  0.041870  1
  Bi  Bi23  1  0.905552  0.241793  0.952701  1
  Bi  Bi24  1  0.062772  0.003222  0.327562  1
  Bi  Bi25  1  0.931121  0.997219  0.672897  1
  Bi  Bi26  1  0.438417  0.991700  0.828811  1
  Bi  Bi27  1  0.931099  0.501888  0.671486  1
  Bi  Bi28  1  0.563555  0.005327  0.170087  1
  Bi  Bi29  1  0.063171  0.497885  0.328802  1
  Bi  Bi30  1  0.563779  0.494882  0.171423  1
  Bi  Bi31  1  0.438060  0.508400  0.827581  1
