# generated using pymatgen
data_PrDy3CdIr
_symmetry_space_group_name_H-M   'P 1'
_cell_length_a   9.72204393
_cell_length_b   9.71851700
_cell_length_c   9.71851664
_cell_angle_alpha   60.02400702
_cell_angle_beta   59.98799792
_cell_angle_gamma   59.98799212
_symmetry_Int_Tables_number   1
_chemical_formula_structural   PrDy3CdIr
_chemical_formula_sum   'Pr4 Dy12 Cd4 Ir4'
_cell_volume   649.29556799
_cell_formula_units_Z   4
loop_
 _symmetry_equiv_pos_site_id
 _symmetry_equiv_pos_as_xyz
  1  'x, y, z'
loop_
 _atom_site_type_symbol
 _atom_site_label
 _atom_site_symmetry_multiplicity
 _atom_site_fract_x
 _atom_site_fract_y
 _atom_site_fract_z
 _atom_site_occupancy
  Pr  Pr0  1  0.561184  0.938816  0.561184  1
  Pr  Pr1  1  0.938816  0.561184  0.938816  1
  Pr  Pr2  1  0.561184  0.561184  0.938816  1
  Pr  Pr3  1  0.938816  0.938816  0.561184  1
  Dy  Dy4  1  0.348729  0.347523  0.347523  1
  Dy  Dy5  1  0.347523  0.348729  0.956224  1
  Dy  Dy6  1  0.347523  0.956224  0.348729  1
  Dy  Dy7  1  0.956224  0.347523  0.347523  1
  Dy  Dy8  1  0.812797  0.187203  0.187203  1
  Dy  Dy9  1  0.187203  0.812797  0.812797  1
  Dy  Dy10  1  0.188969  0.811031  0.188969  1
  Dy  Dy11  1  0.811031  0.188969  0.811031  1
  Dy  Dy12  1  0.188969  0.188969  0.811031  1
  Dy  Dy13  1  0.811031  0.811031  0.188969  1
  Dy  Dy14  1  0.945146  0.554854  0.554854  1
  Dy  Dy15  1  0.554854  0.945146  0.945146  1
  Cd  Cd16  1  0.582864  0.578623  0.578623  1
  Cd  Cd17  1  0.578623  0.582864  0.259889  1
  Cd  Cd18  1  0.578623  0.259889  0.582864  1
  Cd  Cd19  1  0.259889  0.578623  0.578623  1
  Ir  Ir20  1  0.145206  0.139551  0.139551  1
  Ir  Ir21  1  0.139551  0.145206  0.575692  1
  Ir  Ir22  1  0.139551  0.575692  0.145206  1
  Ir  Ir23  1  0.575692  0.139551  0.139551  1
