# generated using pymatgen
data_Yb2Lu2As6Ir7
_symmetry_space_group_name_H-M   'P 1'
_cell_length_a   7.25572801
_cell_length_b   7.28210764
_cell_length_c   7.28210700
_cell_angle_alpha   109.75487455
_cell_angle_beta   109.40266376
_cell_angle_gamma   109.40266493
_symmetry_Int_Tables_number   1
_chemical_formula_structural   Yb2Lu2As6Ir7
_chemical_formula_sum   'Yb2 Lu2 As6 Ir7'
_cell_volume   295.65227626
_cell_formula_units_Z   1
loop_
 _symmetry_equiv_pos_site_id
 _symmetry_equiv_pos_as_xyz
  1  'x, y, z'
loop_
 _atom_site_type_symbol
 _atom_site_label
 _atom_site_symmetry_multiplicity
 _atom_site_fract_x
 _atom_site_fract_y
 _atom_site_fract_z
 _atom_site_occupancy
  Yb  Yb0  1  0.500000  0.000000  0.000000  1
  Yb  Yb1  1  0.500000  0.500000  0.500000  1
  Lu  Lu2  1  0.000000  0.000000  0.500000  1
  Lu  Lu3  1  0.000000  0.500000  0.000000  1
  As  As4  1  0.678660  0.681224  0.997436  1
  As  As5  1  0.321340  0.318776  0.002564  1
  As  As6  1  0.000000  0.680688  0.680688  1
  As  As7  1  0.000000  0.319312  0.319312  1
  As  As8  1  0.678660  0.997436  0.681224  1
  As  As9  1  0.321340  0.002564  0.318776  1
  Ir  Ir10  1  0.000000  0.000000  0.000000  1
  Ir  Ir11  1  0.244450  0.493861  0.750588  1
  Ir  Ir12  1  0.755550  0.249412  0.506139  1
  Ir  Ir13  1  0.500000  0.250000  0.750000  1
  Ir  Ir14  1  0.500000  0.750000  0.250000  1
  Ir  Ir15  1  0.755550  0.506139  0.249412  1
  Ir  Ir16  1  0.244450  0.750588  0.493861  1
