# generated using pymatgen
data_Hf18MnRe7PW
_symmetry_space_group_name_H-M   'P 1'
_cell_length_a   8.56624100
_cell_length_b   8.56624097
_cell_length_c   8.58127600
_cell_angle_alpha   90.00000000
_cell_angle_beta   90.00000000
_cell_angle_gamma   120.00000397
_symmetry_Int_Tables_number   1
_chemical_formula_structural   Hf18MnRe7PW
_chemical_formula_sum   'Hf18 Mn1 Re7 P1 W1'
_cell_volume   545.33460886
_cell_formula_units_Z   1
loop_
 _symmetry_equiv_pos_site_id
 _symmetry_equiv_pos_as_xyz
  1  'x, y, z'
loop_
 _atom_site_type_symbol
 _atom_site_label
 _atom_site_symmetry_multiplicity
 _atom_site_fract_x
 _atom_site_fract_y
 _atom_site_fract_z
 _atom_site_occupancy
  Hf  Hf0  1  0.201856  0.798144  0.443851  1
  Hf  Hf1  1  0.201856  0.403711  0.443851  1
  Hf  Hf2  1  0.596289  0.798144  0.443851  1
  Hf  Hf3  1  0.803852  0.196148  0.548864  1
  Hf  Hf4  1  0.803852  0.607706  0.548864  1
  Hf  Hf5  1  0.392294  0.196148  0.548864  1
  Hf  Hf6  1  0.805578  0.194422  0.950974  1
  Hf  Hf7  1  0.805578  0.611156  0.950974  1
  Hf  Hf8  1  0.388844  0.194422  0.950974  1
  Hf  Hf9  1  0.201448  0.798552  0.056290  1
  Hf  Hf10  1  0.201448  0.402894  0.056290  1
  Hf  Hf11  1  0.597106  0.798552  0.056290  1
  Hf  Hf12  1  0.539417  0.460583  0.249637  1
  Hf  Hf13  1  0.539417  0.078834  0.249637  1
  Hf  Hf14  1  0.921166  0.460583  0.249637  1
  Hf  Hf15  1  0.460007  0.539993  0.750358  1
  Hf  Hf16  1  0.460007  0.920013  0.750358  1
  Hf  Hf17  1  0.079987  0.539993  0.750358  1
  Mn  Mn18  1  0.333333  0.666667  0.249648  1
  Re  Re19  1  0.888730  0.111270  0.250596  1
  Re  Re20  1  0.888730  0.777458  0.250596  1
  Re  Re21  1  0.222542  0.111270  0.250596  1
  Re  Re22  1  0.110729  0.889271  0.749445  1
  Re  Re23  1  0.110729  0.221459  0.749445  1
  Re  Re24  1  0.778541  0.889271  0.749445  1
  Re  Re25  1  0.000000  0.000000  0.000851  1
  P  P26  1  0.666667  0.333333  0.751232  1
  W  W27  1  0.000000  0.000000  0.498225  1
