# generated using pymatgen
data_LiAc9(Pr5Pb8)2
_symmetry_space_group_name_H-M   'P 1'
_cell_length_a   8.69033084
_cell_length_b   16.71210100
_cell_length_c   8.76119600
_cell_angle_alpha   90.00000000
_cell_angle_beta   89.83775803
_cell_angle_gamma   90.00000000
_symmetry_Int_Tables_number   1
_chemical_formula_structural   LiAc9(Pr5Pb8)2
_chemical_formula_sum   'Li1 Ac9 Pr10 Pb16'
_cell_volume   1272.41569397
_cell_formula_units_Z   1
loop_
 _symmetry_equiv_pos_site_id
 _symmetry_equiv_pos_as_xyz
  1  'x, y, z'
loop_
 _atom_site_type_symbol
 _atom_site_label
 _atom_site_symmetry_multiplicity
 _atom_site_fract_x
 _atom_site_fract_y
 _atom_site_fract_z
 _atom_site_occupancy
  Li  Li0  1  0.710126  0.250000  0.995001  1
  Ac  Ac1  1  0.476791  0.598371  0.679116  1
  Ac  Ac2  1  0.975240  0.902010  0.820926  1
  Ac  Ac3  1  0.524587  0.098679  0.314240  1
  Ac  Ac4  1  0.016600  0.401758  0.175685  1
  Ac  Ac5  1  0.524587  0.401321  0.314240  1
  Ac  Ac6  1  0.016600  0.098242  0.175685  1
  Ac  Ac7  1  0.476791  0.901629  0.679116  1
  Ac  Ac8  1  0.975240  0.597990  0.820926  1
  Ac  Ac9  1  0.204976  0.250000  0.502041  1
  Pr  Pr10  1  0.628986  0.619938  0.158078  1
  Pr  Pr11  1  0.130517  0.879833  0.342870  1
  Pr  Pr12  1  0.378836  0.120242  0.843419  1
  Pr  Pr13  1  0.870320  0.379499  0.664272  1
  Pr  Pr14  1  0.378836  0.379758  0.843419  1
  Pr  Pr15  1  0.870320  0.120501  0.664272  1
  Pr  Pr16  1  0.628986  0.880062  0.158078  1
  Pr  Pr17  1  0.130517  0.620167  0.342870  1
  Pr  Pr18  1  0.794267  0.750000  0.498223  1
  Pr  Pr19  1  0.294154  0.750000  0.002898  1
  Pb  Pb20  1  0.706672  0.456297  0.958651  1
  Pb  Pb21  1  0.206685  0.042542  0.541486  1
  Pb  Pb22  1  0.292466  0.955523  0.039926  1
  Pb  Pb23  1  0.792554  0.544442  0.459657  1
  Pb  Pb24  1  0.292466  0.544477  0.039926  1
  Pb  Pb25  1  0.792554  0.955558  0.459657  1
  Pb  Pb26  1  0.706672  0.043703  0.958651  1
  Pb  Pb27  1  0.206685  0.457458  0.541486  1
  Pb  Pb28  1  0.433011  0.750000  0.369825  1
  Pb  Pb29  1  0.931733  0.750000  0.129315  1
  Pb  Pb30  1  0.580327  0.250000  0.633821  1
  Pb  Pb31  1  0.062502  0.250000  0.885457  1
  Pb  Pb32  1  0.666430  0.750000  0.859085  1
  Pb  Pb33  1  0.164238  0.750000  0.643160  1
  Pb  Pb34  1  0.335478  0.250000  0.129046  1
  Pb  Pb35  1  0.822249  0.250000  0.355473  1
