# generated using pymatgen
data_Ho8Si12Ir3Pd
_symmetry_space_group_name_H-M   'P 1'
_cell_length_a   8.16125300
_cell_length_b   8.16124245
_cell_length_c   7.87219900
_cell_angle_alpha   90.00002301
_cell_angle_beta   90.00001430
_cell_angle_gamma   119.99993389
_symmetry_Int_Tables_number   1
_chemical_formula_structural   Ho8Si12Ir3Pd
_chemical_formula_sum   'Ho8 Si12 Ir3 Pd1'
_cell_volume   454.08808492
_cell_formula_units_Z   1
loop_
 _symmetry_equiv_pos_site_id
 _symmetry_equiv_pos_as_xyz
  1  'x, y, z'
loop_
 _atom_site_type_symbol
 _atom_site_label
 _atom_site_symmetry_multiplicity
 _atom_site_fract_x
 _atom_site_fract_y
 _atom_site_fract_z
 _atom_site_occupancy
  Ho  Ho0  1  0.512885  0.025771  0.247048  1
  Ho  Ho1  1  0.490429  0.980859  0.752170  1
  Ho  Ho2  1  0.974229  0.487114  0.247047  1
  Ho  Ho3  1  0.019140  0.509570  0.752170  1
  Ho  Ho4  1  0.512885  0.487114  0.247047  1
  Ho  Ho5  1  0.490430  0.509571  0.752171  1
  Ho  Ho6  1  0.000001  0.999999  0.251663  1
  Ho  Ho7  1  0.000001  0.000000  0.750747  1
  Si  Si8  1  0.166759  0.333517  0.004188  1
  Si  Si9  1  0.833659  0.667318  0.996913  1
  Si  Si10  1  0.666483  0.833241  0.004188  1
  Si  Si11  1  0.832618  0.665236  0.501516  1
  Si  Si12  1  0.332683  0.166342  0.996913  1
  Si  Si13  1  0.164717  0.329435  0.500083  1
  Si  Si14  1  0.166759  0.833242  0.004188  1
  Si  Si15  1  0.334765  0.167382  0.501516  1
  Si  Si16  1  0.833659  0.166341  0.996913  1
  Si  Si17  1  0.670565  0.835283  0.500083  1
  Si  Si18  1  0.832618  0.167382  0.501516  1
  Si  Si19  1  0.164717  0.835283  0.500083  1
  Ir  Ir20  1  0.333334  0.666667  0.032381  1
  Ir  Ir21  1  0.666667  0.333334  0.961909  1
  Ir  Ir22  1  0.666666  0.333333  0.540853  1
  Pd  Pd23  1  0.333333  0.666667  0.456694  1
