# generated using pymatgen
data_Y16MgZn3Co4
_symmetry_space_group_name_H-M   'P 1'
_cell_length_a   9.46061052
_cell_length_b   9.43582728
_cell_length_c   9.43582700
_cell_angle_alpha   60.00000448
_cell_angle_beta   60.08662315
_cell_angle_gamma   60.08662009
_symmetry_Int_Tables_number   1
_chemical_formula_structural   Y16MgZn3Co4
_chemical_formula_sum   'Y16 Mg1 Zn3 Co4'
_cell_volume   596.39158789
_cell_formula_units_Z   1
loop_
 _symmetry_equiv_pos_site_id
 _symmetry_equiv_pos_as_xyz
  1  'x, y, z'
loop_
 _atom_site_type_symbol
 _atom_site_label
 _atom_site_symmetry_multiplicity
 _atom_site_fract_x
 _atom_site_fract_y
 _atom_site_fract_z
 _atom_site_occupancy
  Y  Y0  1  0.349752  0.347148  0.347148  1
  Y  Y1  1  0.349752  0.347148  0.955952  1
  Y  Y2  1  0.349752  0.955952  0.347148  1
  Y  Y3  1  0.946883  0.351039  0.351039  1
  Y  Y4  1  0.808972  0.190468  0.190468  1
  Y  Y5  1  0.187030  0.812528  0.812528  1
  Y  Y6  1  0.187030  0.812528  0.187915  1
  Y  Y7  1  0.808972  0.190468  0.810092  1
  Y  Y8  1  0.187030  0.187915  0.812528  1
  Y  Y9  1  0.808972  0.810092  0.190468  1
  Y  Y10  1  0.932442  0.563289  0.563289  1
  Y  Y11  1  0.561625  0.937097  0.937097  1
  Y  Y12  1  0.561625  0.937097  0.564182  1
  Y  Y13  1  0.932442  0.563289  0.940980  1
  Y  Y14  1  0.561625  0.564182  0.937097  1
  Y  Y15  1  0.932442  0.940980  0.563289  1
  Mg  Mg16  1  0.288234  0.570589  0.570589  1
  Zn  Zn17  1  0.583882  0.577296  0.577296  1
  Zn  Zn18  1  0.583882  0.577296  0.261526  1
  Zn  Zn19  1  0.583882  0.261526  0.577296  1
  Co  Co20  1  0.139513  0.142711  0.142711  1
  Co  Co21  1  0.139513  0.142711  0.575064  1
  Co  Co22  1  0.139513  0.575064  0.142711  1
  Co  Co23  1  0.575236  0.141588  0.141588  1
