# generated using pymatgen
data_Y2Er2SiBr6
_symmetry_space_group_name_H-M   'P 1'
_cell_length_a   4.04182900
_cell_length_b   13.19871000
_cell_length_c   13.98015400
_cell_angle_alpha   90.00000000
_cell_angle_beta   90.00000000
_cell_angle_gamma   90.00000000
_symmetry_Int_Tables_number   1
_chemical_formula_structural   Y2Er2SiBr6
_chemical_formula_sum   'Y4 Er4 Si2 Br12'
_cell_volume   745.79828062
_cell_formula_units_Z   2
loop_
 _symmetry_equiv_pos_site_id
 _symmetry_equiv_pos_as_xyz
  1  'x, y, z'
loop_
 _atom_site_type_symbol
 _atom_site_label
 _atom_site_symmetry_multiplicity
 _atom_site_fract_x
 _atom_site_fract_y
 _atom_site_fract_z
 _atom_site_occupancy
  Y  Y0  1  0.000000  0.118360  0.578715  1
  Y  Y1  1  0.000000  0.881640  0.421285  1
  Y  Y2  1  0.000000  0.618360  0.921285  1
  Y  Y3  1  0.000000  0.381640  0.078715  1
  Er  Er4  1  0.500000  0.117648  0.341670  1
  Er  Er5  1  0.500000  0.882352  0.658330  1
  Er  Er6  1  0.500000  0.617648  0.158330  1
  Er  Er7  1  0.500000  0.382352  0.841670  1
  Si  Si8  1  0.500000  0.000000  0.500000  1
  Si  Si9  1  0.500000  0.500000  0.000000  1
  Br  Br10  1  0.500000  0.242313  0.164226  1
  Br  Br11  1  0.500000  0.757687  0.835774  1
  Br  Br12  1  0.500000  0.742313  0.335774  1
  Br  Br13  1  0.500000  0.257687  0.664226  1
  Br  Br14  1  0.000000  0.254876  0.409371  1
  Br  Br15  1  0.000000  0.745124  0.590629  1
  Br  Br16  1  0.000000  0.754876  0.090629  1
  Br  Br17  1  0.000000  0.245124  0.909371  1
  Br  Br18  1  0.000000  0.003893  0.242690  1
  Br  Br19  1  0.000000  0.996107  0.757310  1
  Br  Br20  1  0.000000  0.503893  0.257310  1
  Br  Br21  1  0.000000  0.496107  0.742690  1
