# generated using pymatgen
data_Tb13Ce3(CdRu)4
_symmetry_space_group_name_H-M   'P 1'
_cell_length_a   9.69330721
_cell_length_b   9.69330772
_cell_length_c   9.62653490
_cell_angle_alpha   59.77028230
_cell_angle_beta   59.77028103
_cell_angle_gamma   59.99999748
_symmetry_Int_Tables_number   1
_chemical_formula_structural   Tb13Ce3(CdRu)4
_chemical_formula_sum   'Tb13 Ce3 Cd4 Ru4'
_cell_volume   637.35624873
_cell_formula_units_Z   1
loop_
 _symmetry_equiv_pos_site_id
 _symmetry_equiv_pos_as_xyz
  1  'x, y, z'
loop_
 _atom_site_type_symbol
 _atom_site_label
 _atom_site_symmetry_multiplicity
 _atom_site_fract_x
 _atom_site_fract_y
 _atom_site_fract_z
 _atom_site_occupancy
  Tb  Tb0  1  0.562986  0.562986  0.937237  1
  Tb  Tb1  1  0.936789  0.562986  0.937237  1
  Tb  Tb2  1  0.562986  0.936789  0.937237  1
  Tb  Tb3  1  0.937899  0.937899  0.561866  1
  Tb  Tb4  1  0.562336  0.937899  0.561866  1
  Tb  Tb5  1  0.937899  0.562336  0.561866  1
  Tb  Tb6  1  0.188279  0.188279  0.812888  1
  Tb  Tb7  1  0.810553  0.188279  0.812888  1
  Tb  Tb8  1  0.188278  0.810554  0.812888  1
  Tb  Tb9  1  0.810612  0.810613  0.189428  1
  Tb  Tb10  1  0.189347  0.810612  0.189427  1
  Tb  Tb11  1  0.810612  0.189348  0.189428  1
  Tb  Tb12  1  0.350910  0.350910  0.947269  1
  Ce  Ce13  1  0.345637  0.967048  0.341680  1
  Ce  Ce14  1  0.967048  0.345637  0.341680  1
  Ce  Ce15  1  0.345637  0.345637  0.341680  1
  Cd  Cd16  1  0.580486  0.580486  0.258542  1
  Cd  Cd17  1  0.581079  0.258583  0.579259  1
  Cd  Cd18  1  0.258583  0.581079  0.579259  1
  Cd  Cd19  1  0.581079  0.581079  0.579259  1
  Ru  Ru20  1  0.144633  0.144633  0.566100  1
  Ru  Ru21  1  0.139170  0.567989  0.153671  1
  Ru  Ru22  1  0.567989  0.139170  0.153671  1
  Ru  Ru23  1  0.139170  0.139170  0.153671  1
