# generated using pymatgen
data_Mg4In2B4IrRh9
_symmetry_space_group_name_H-M   'P 1'
_cell_length_a   9.66239734
_cell_length_b   9.66239734
_cell_length_c   2.97897900
_cell_angle_alpha   90.00000000
_cell_angle_beta   90.00000000
_cell_angle_gamma   89.96937868
_symmetry_Int_Tables_number   1
_chemical_formula_structural   Mg4In2B4IrRh9
_chemical_formula_sum   'Mg4 In2 B4 Ir1 Rh9'
_cell_volume   278.12316667
_cell_formula_units_Z   1
loop_
 _symmetry_equiv_pos_site_id
 _symmetry_equiv_pos_as_xyz
  1  'x, y, z'
loop_
 _atom_site_type_symbol
 _atom_site_label
 _atom_site_symmetry_multiplicity
 _atom_site_fract_x
 _atom_site_fract_y
 _atom_site_fract_z
 _atom_site_occupancy
  Mg  Mg0  1  0.677219  0.177219  0.000000  1
  Mg  Mg1  1  0.322781  0.822781  0.000000  1
  Mg  Mg2  1  0.176694  0.323306  0.000000  1
  Mg  Mg3  1  0.823306  0.676694  0.000000  1
  In  In4  1  0.000000  0.000000  0.000000  1
  In  In5  1  0.500000  0.500000  0.000000  1
  B  B6  1  0.122976  0.622976  0.000000  1
  B  B7  1  0.877024  0.377024  0.000000  1
  B  B8  1  0.621685  0.878315  0.000000  1
  B  B9  1  0.378315  0.121685  0.000000  1
  Ir  Ir10  1  0.500000  0.000000  0.500000  1
  Rh  Rh11  1  0.000000  0.500000  0.500000  1
  Rh  Rh12  1  0.224009  0.072161  0.500000  1
  Rh  Rh13  1  0.775991  0.927839  0.500000  1
  Rh  Rh14  1  0.070758  0.775180  0.500000  1
  Rh  Rh15  1  0.724820  0.429242  0.500000  1
  Rh  Rh16  1  0.929242  0.224820  0.500000  1
  Rh  Rh17  1  0.275180  0.570758  0.500000  1
  Rh  Rh18  1  0.572161  0.724009  0.500000  1
  Rh  Rh19  1  0.427839  0.275991  0.500000  1
