# generated using pymatgen
data_Tm4Al4RuPt3
_symmetry_space_group_name_H-M   'P 1'
_cell_length_a   4.32589600
_cell_length_b   6.78428520
_cell_length_c   7.83065549
_cell_angle_alpha   89.89022842
_cell_angle_beta   90.00000000
_cell_angle_gamma   90.00000000
_symmetry_Int_Tables_number   1
_chemical_formula_structural   Tm4Al4RuPt3
_chemical_formula_sum   'Tm4 Al4 Ru1 Pt3'
_cell_volume   229.81453433
_cell_formula_units_Z   1
loop_
 _symmetry_equiv_pos_site_id
 _symmetry_equiv_pos_as_xyz
  1  'x, y, z'
loop_
 _atom_site_type_symbol
 _atom_site_label
 _atom_site_symmetry_multiplicity
 _atom_site_fract_x
 _atom_site_fract_y
 _atom_site_fract_z
 _atom_site_occupancy
  Tm  Tm0  1  0.250000  0.032991  0.676848  1
  Tm  Tm1  1  0.250000  0.530379  0.819799  1
  Tm  Tm2  1  0.750000  0.976684  0.322123  1
  Tm  Tm3  1  0.750000  0.467358  0.183714  1
  Al  Al4  1  0.250000  0.143913  0.061739  1
  Al  Al5  1  0.250000  0.637557  0.437212  1
  Al  Al6  1  0.750000  0.858715  0.938620  1
  Al  Al7  1  0.750000  0.355968  0.559423  1
  Ru  Ru8  1  0.250000  0.261646  0.380498  1
  Pt  Pt9  1  0.250000  0.769522  0.118866  1
  Pt  Pt10  1  0.750000  0.732281  0.621433  1
  Pt  Pt11  1  0.750000  0.232985  0.879726  1
