# generated using pymatgen
data_Pa(OsCl6)5
_symmetry_space_group_name_H-M   'P 1'
_cell_length_a   13.38979417
_cell_length_b   13.39704938
_cell_length_c   6.77821595
_cell_angle_alpha   86.24200441
_cell_angle_beta   86.33476121
_cell_angle_gamma   87.65437332
_symmetry_Int_Tables_number   1
_chemical_formula_structural   Pa(OsCl6)5
_chemical_formula_sum   'Pa1 Os5 Cl30'
_cell_volume   1209.98130924
_cell_formula_units_Z   1
loop_
 _symmetry_equiv_pos_site_id
 _symmetry_equiv_pos_as_xyz
  1  'x, y, z'
loop_
 _atom_site_type_symbol
 _atom_site_label
 _atom_site_symmetry_multiplicity
 _atom_site_fract_x
 _atom_site_fract_y
 _atom_site_fract_z
 _atom_site_occupancy
  Pa  Pa0  1  0.559804  0.774069  0.433328  1
  Os  Os1  1  0.899087  0.100797  0.000046  1
  Os  Os2  1  0.100475  0.899381  0.000004  1
  Os  Os3  1  0.773813  0.559838  0.433297  1
  Os  Os4  1  0.232613  0.434075  0.566468  1
  Os  Os5  1  0.433680  0.232520  0.566846  1
  Cl  Cl6  1  0.504588  0.312626  0.808395  1
  Cl  Cl7  1  0.268740  0.269109  0.733401  1
  Cl  Cl8  1  0.164719  0.974328  0.709148  1
  Cl  Cl9  1  0.608120  0.589661  0.608889  1
  Cl  Cl10  1  0.220680  0.581713  0.389871  1
  Cl  Cl11  1  0.743850  0.725598  0.257455  1
  Cl  Cl12  1  0.161650  0.353722  0.325390  1
  Cl  Cl13  1  0.067239  0.067438  0.122105  1
  Cl  Cl14  1  0.648709  0.850379  0.696783  1
  Cl  Cl15  1  0.581424  0.220711  0.390790  1
  Cl  Cl16  1  0.108624  0.748291  0.871649  1
  Cl  Cl17  1  0.026307  0.834185  0.291228  1
  Cl  Cl18  1  0.921815  0.546175  0.258914  1
  Cl  Cl19  1  0.834267  0.026308  0.291205  1
  Cl  Cl20  1  0.396386  0.784744  0.629935  1
  Cl  Cl21  1  0.787910  0.411832  0.607259  1
  Cl  Cl22  1  0.549004  0.936959  0.234022  1
  Cl  Cl23  1  0.973864  0.165721  0.709288  1
  Cl  Cl24  1  0.842409  0.642384  0.673722  1
  Cl  Cl25  1  0.890896  0.251940  0.128519  1
  Cl  Cl26  1  0.483043  0.685230  0.170432  1
  Cl  Cl27  1  0.352939  0.162278  0.325775  1
  Cl  Cl28  1  0.084934  0.445720  0.743371  1
  Cl  Cl29  1  0.747953  0.109455  0.871440  1
  Cl  Cl30  1  0.444745  0.084967  0.744125  1
  Cl  Cl31  1  0.397513  0.397634  0.399649  1
  Cl  Cl32  1  0.313051  0.504505  0.807906  1
  Cl  Cl33  1  0.251716  0.891699  0.128204  1
  Cl  Cl34  1  0.932081  0.932645  0.878688  1
  Cl  Cl35  1  0.691350  0.491364  0.192455  1
