# generated using pymatgen
data_Zr4Al18Ir5Os
_symmetry_space_group_name_H-M   'P 1'
_cell_length_a   7.47167920
_cell_length_b   7.47167957
_cell_length_c   9.28906064
_cell_angle_alpha   89.96890781
_cell_angle_beta   89.96890781
_cell_angle_gamma   119.71809686
_symmetry_Int_Tables_number   1
_chemical_formula_structural   Zr4Al18Ir5Os
_chemical_formula_sum   'Zr4 Al18 Ir5 Os1'
_cell_volume   450.36570444
_cell_formula_units_Z   1
loop_
 _symmetry_equiv_pos_site_id
 _symmetry_equiv_pos_as_xyz
  1  'x, y, z'
loop_
 _atom_site_type_symbol
 _atom_site_label
 _atom_site_symmetry_multiplicity
 _atom_site_fract_x
 _atom_site_fract_y
 _atom_site_fract_z
 _atom_site_occupancy
  Zr  Zr0  1  0.993911  0.672956  0.249310  1
  Zr  Zr1  1  0.006089  0.327044  0.750690  1
  Zr  Zr2  1  0.672956  0.993911  0.249310  1
  Zr  Zr3  1  0.327044  0.006089  0.750690  1
  Al  Al4  1  0.124531  0.124531  0.249304  1
  Al  Al5  1  0.875469  0.875469  0.750696  1
  Al  Al6  1  0.998337  0.333540  0.075589  1
  Al  Al7  1  0.001663  0.666460  0.924411  1
  Al  Al8  1  0.001770  0.664639  0.576725  1
  Al  Al9  1  0.335361  0.998230  0.423275  1
  Al  Al10  1  0.998230  0.335361  0.423275  1
  Al  Al11  1  0.664639  0.001770  0.576725  1
  Al  Al12  1  0.666460  0.001663  0.924411  1
  Al  Al13  1  0.333540  0.998337  0.075589  1
  Al  Al14  1  0.331618  0.331618  0.556825  1
  Al  Al15  1  0.668382  0.668382  0.443175  1
  Al  Al16  1  0.669344  0.669344  0.055375  1
  Al  Al17  1  0.330656  0.330656  0.944625  1
  Al  Al18  1  0.340609  0.554200  0.249897  1
  Al  Al19  1  0.659391  0.445800  0.750103  1
  Al  Al20  1  0.554200  0.340609  0.249897  1
  Al  Al21  1  0.445800  0.659391  0.750103  1
  Ir  Ir22  1  0.672482  0.327518  0.000000  1
  Ir  Ir23  1  0.327518  0.672482  0.000000  1
  Ir  Ir24  1  0.327605  0.672395  0.500000  1
  Ir  Ir25  1  0.672395  0.327605  0.500000  1
  Ir  Ir26  1  0.000000  0.000000  0.500000  1
  Os  Os27  1  0.000000  0.000000  0.000000  1
