# generated using pymatgen
data_Ho2Sc8Bi5As
_symmetry_space_group_name_H-M   'P 1'
_cell_length_a   7.73958300
_cell_length_b   8.95806700
_cell_length_c   11.45535500
_cell_angle_alpha   90.00000000
_cell_angle_beta   90.00000000
_cell_angle_gamma   90.00000000
_symmetry_Int_Tables_number   1
_chemical_formula_structural   Ho2Sc8Bi5As
_chemical_formula_sum   'Ho4 Sc16 Bi10 As2'
_cell_volume   794.21927138
_cell_formula_units_Z   2
loop_
 _symmetry_equiv_pos_site_id
 _symmetry_equiv_pos_as_xyz
  1  'x, y, z'
loop_
 _atom_site_type_symbol
 _atom_site_label
 _atom_site_symmetry_multiplicity
 _atom_site_fract_x
 _atom_site_fract_y
 _atom_site_fract_z
 _atom_site_occupancy
  Ho  Ho0  1  0.317463  0.250000  0.219816  1
  Ho  Ho1  1  0.817463  0.250000  0.280184  1
  Ho  Ho2  1  0.670086  0.750000  0.789215  1
  Ho  Ho3  1  0.170086  0.750000  0.710785  1
  Sc  Sc4  1  0.350712  0.750000  0.207865  1
  Sc  Sc5  1  0.850712  0.750000  0.292135  1
  Sc  Sc6  1  0.653266  0.250000  0.778032  1
  Sc  Sc7  1  0.153266  0.250000  0.721968  1
  Sc  Sc8  1  0.682360  0.574723  0.058934  1
  Sc  Sc9  1  0.182360  0.925277  0.441066  1
  Sc  Sc10  1  0.312368  0.050017  0.938928  1
  Sc  Sc11  1  0.812368  0.449983  0.561072  1
  Sc  Sc12  1  0.312368  0.449983  0.938928  1
  Sc  Sc13  1  0.812368  0.050017  0.561072  1
  Sc  Sc14  1  0.682360  0.925277  0.058934  1
  Sc  Sc15  1  0.182360  0.574723  0.441066  1
  Sc  Sc16  1  0.487002  0.250000  0.490552  1
  Sc  Sc17  1  0.987002  0.250000  0.009448  1
  Sc  Sc18  1  0.531375  0.750000  0.513075  1
  Sc  Sc19  1  0.031375  0.750000  0.986925  1
  Bi  Bi20  1  0.598434  0.250000  0.032354  1
  Bi  Bi21  1  0.098434  0.250000  0.467646  1
  Bi  Bi22  1  0.562961  0.989034  0.328207  1
  Bi  Bi23  1  0.062961  0.510966  0.171793  1
  Bi  Bi24  1  0.434832  0.492181  0.672022  1
  Bi  Bi25  1  0.934832  0.007819  0.827978  1
  Bi  Bi26  1  0.434832  0.007819  0.672022  1
  Bi  Bi27  1  0.934832  0.492181  0.827978  1
  Bi  Bi28  1  0.562961  0.510966  0.328207  1
  Bi  Bi29  1  0.062961  0.989034  0.171793  1
  As  As30  1  0.406620  0.750000  0.969801  1
  As  As31  1  0.906620  0.750000  0.530199  1
