# generated using pymatgen
data_Tc5RuPt8
_symmetry_space_group_name_H-M   'P 1'
_cell_length_a   7.42417592
_cell_length_b   7.41465911
_cell_length_c   4.43785000
_cell_angle_alpha   90.00000000
_cell_angle_beta   90.00000000
_cell_angle_gamma   60.08890155
_symmetry_Int_Tables_number   1
_chemical_formula_structural   Tc5RuPt8
_chemical_formula_sum   'Tc5 Ru1 Pt8'
_cell_volume   211.75372163
_cell_formula_units_Z   1
loop_
 _symmetry_equiv_pos_site_id
 _symmetry_equiv_pos_as_xyz
  1  'x, y, z'
loop_
 _atom_site_type_symbol
 _atom_site_label
 _atom_site_symmetry_multiplicity
 _atom_site_fract_x
 _atom_site_fract_y
 _atom_site_fract_z
 _atom_site_occupancy
  Tc  Tc0  1  0.297739  0.571171  0.000000  1
  Tc  Tc1  1  0.427642  0.846264  0.000000  1
  Tc  Tc2  1  0.525632  0.392525  0.499999  1
  Tc  Tc3  1  0.654383  0.667033  0.499999  1
  Tc  Tc4  1  0.251102  0.796023  0.499999  1
  Ru  Ru5  1  0.701880  0.441265  0.000000  1
  Pt  Pt6  1  0.010176  0.990238  0.000000  1
  Pt  Pt7  1  0.570054  0.154221  0.000000  1
  Pt  Pt8  1  0.143697  0.284694  0.000000  1
  Pt  Pt9  1  0.847779  0.712384  0.000000  1
  Pt  Pt10  1  0.382004  0.085232  0.499999  1
  Pt  Pt11  1  0.940573  0.248701  0.499999  1
  Pt  Pt12  1  0.104343  0.524568  0.499999  1
  Pt  Pt13  1  0.809563  0.952244  0.499999  1
