# generated using pymatgen
data_CeDy3Al2(SnRh2)2
_symmetry_space_group_name_H-M   'P 1'
_cell_length_a   4.13561300
_cell_length_b   7.34199833
_cell_length_c   16.24432964
_cell_angle_alpha   90.61142681
_cell_angle_beta   90.00000000
_cell_angle_gamma   90.00000000
_symmetry_Int_Tables_number   1
_chemical_formula_structural   CeDy3Al2(SnRh2)2
_chemical_formula_sum   'Ce2 Dy6 Al4 Sn4 Rh8'
_cell_volume   493.20927841
_cell_formula_units_Z   2
loop_
 _symmetry_equiv_pos_site_id
 _symmetry_equiv_pos_as_xyz
  1  'x, y, z'
loop_
 _atom_site_type_symbol
 _atom_site_label
 _atom_site_symmetry_multiplicity
 _atom_site_fract_x
 _atom_site_fract_y
 _atom_site_fract_z
 _atom_site_occupancy
  Ce  Ce0  1  0.250000  0.552600  0.715256  1
  Ce  Ce1  1  0.750000  0.447400  0.284744  1
  Dy  Dy2  1  0.250000  0.172587  0.559280  1
  Dy  Dy3  1  0.750000  0.827413  0.440720  1
  Dy  Dy4  1  0.250000  0.670125  0.940232  1
  Dy  Dy5  1  0.750000  0.329875  0.059768  1
  Dy  Dy6  1  0.250000  0.050092  0.785240  1
  Dy  Dy7  1  0.750000  0.949908  0.214760  1
  Al  Al8  1  0.250000  0.003140  0.062669  1
  Al  Al9  1  0.750000  0.996860  0.937331  1
  Al  Al10  1  0.250000  0.503497  0.440909  1
  Al  Al11  1  0.750000  0.496503  0.559091  1
  Sn  Sn12  1  0.250000  0.107647  0.349523  1
  Sn  Sn13  1  0.750000  0.892353  0.650477  1
  Sn  Sn14  1  0.250000  0.623967  0.149060  1
  Sn  Sn15  1  0.750000  0.376033  0.850940  1
  Rh  Rh16  1  0.750000  0.281351  0.431693  1
  Rh  Rh17  1  0.250000  0.718649  0.568307  1
  Rh  Rh18  1  0.750000  0.780247  0.061481  1
  Rh  Rh19  1  0.250000  0.219753  0.938519  1
  Rh  Rh20  1  0.750000  0.755424  0.817240  1
  Rh  Rh21  1  0.250000  0.244576  0.182760  1
  Rh  Rh22  1  0.750000  0.274192  0.680889  1
  Rh  Rh23  1  0.250000  0.725808  0.319111  1
