# generated using pymatgen
data_Hf7Sc(Nb3Si4)4
_symmetry_space_group_name_H-M   'P 1'
_cell_length_a   6.87057179
_cell_length_b   6.86739984
_cell_length_c   12.71291852
_cell_angle_alpha   90.00347139
_cell_angle_beta   90.01651624
_cell_angle_gamma   89.99593450
_symmetry_Int_Tables_number   1
_chemical_formula_structural   Hf7Sc(Nb3Si4)4
_chemical_formula_sum   'Hf7 Sc1 Nb12 Si16'
_cell_volume   599.83314465
_cell_formula_units_Z   1
loop_
 _symmetry_equiv_pos_site_id
 _symmetry_equiv_pos_as_xyz
  1  'x, y, z'
loop_
 _atom_site_type_symbol
 _atom_site_label
 _atom_site_symmetry_multiplicity
 _atom_site_fract_x
 _atom_site_fract_y
 _atom_site_fract_z
 _atom_site_occupancy
  Hf  Hf0  1  0.003093  0.342740  0.218379  1
  Hf  Hf1  1  0.999706  0.660116  0.719013  1
  Hf  Hf2  1  0.159919  0.500962  0.469496  1
  Hf  Hf3  1  0.499109  0.839911  0.031280  1
  Hf  Hf4  1  0.840684  0.498682  0.968309  1
  Hf  Hf5  1  0.501703  0.159034  0.531836  1
  Hf  Hf6  1  0.340244  0.001022  0.781107  1
  Sc  Sc7  1  0.659366  0.999905  0.280818  1
  Nb  Nb8  1  0.169534  0.169537  0.000093  1
  Nb  Nb9  1  0.830561  0.830580  0.500324  1
  Nb  Nb10  1  0.328625  0.667658  0.250323  1
  Nb  Nb11  1  0.669833  0.330461  0.749992  1
  Nb  Nb12  1  0.151336  0.995517  0.376888  1
  Nb  Nb13  1  0.847626  0.003537  0.875659  1
  Nb  Nb14  1  0.503975  0.652218  0.626323  1
  Nb  Nb15  1  0.347938  0.497163  0.873353  1
  Nb  Nb16  1  0.495236  0.347334  0.125490  1
  Nb  Nb17  1  0.651287  0.503276  0.374367  1
  Nb  Nb18  1  0.997381  0.152779  0.624328  1
  Nb  Nb19  1  0.003718  0.846584  0.123027  1
  Si  Si20  1  0.299856  0.042308  0.187215  1
  Si  Si21  1  0.700929  0.955699  0.686686  1
  Si  Si22  1  0.456498  0.800581  0.436304  1
  Si  Si23  1  0.200526  0.544360  0.062856  1
  Si  Si24  1  0.543603  0.200253  0.936568  1
  Si  Si25  1  0.800208  0.456316  0.563402  1
  Si  Si26  1  0.044345  0.299840  0.813404  1
  Si  Si27  1  0.954775  0.700446  0.313336  1
  Si  Si28  1  0.363401  0.291897  0.322982  1
  Si  Si29  1  0.635587  0.708681  0.823390  1
  Si  Si30  1  0.208284  0.864129  0.573173  1
  Si  Si31  1  0.135679  0.792370  0.926846  1
  Si  Si32  1  0.792968  0.136033  0.072324  1
  Si  Si33  1  0.863522  0.207584  0.427209  1
  Si  Si34  1  0.292211  0.364782  0.676565  1
  Si  Si35  1  0.706735  0.635701  0.177337  1
