# generated using pymatgen
data_YbTm18ThPt16
_symmetry_space_group_name_H-M   'P 1'
_cell_length_a   7.40068422
_cell_length_b   7.47555677
_cell_length_c   14.68381676
_cell_angle_alpha   90.05271411
_cell_angle_beta   89.90493101
_cell_angle_gamma   90.16499412
_symmetry_Int_Tables_number   1
_chemical_formula_structural   YbTm18ThPt16
_chemical_formula_sum   'Yb1 Tm18 Th1 Pt16'
_cell_volume   812.36610325
_cell_formula_units_Z   1
loop_
 _symmetry_equiv_pos_site_id
 _symmetry_equiv_pos_as_xyz
  1  'x, y, z'
loop_
 _atom_site_type_symbol
 _atom_site_label
 _atom_site_symmetry_multiplicity
 _atom_site_fract_x
 _atom_site_fract_y
 _atom_site_fract_z
 _atom_site_occupancy
  Yb  Yb0  1  0.991360  0.822601  0.590492  1
  Tm  Tm1  1  0.647091  0.164568  0.621157  1
  Tm  Tm2  1  0.138937  0.328348  0.877192  1
  Tm  Tm3  1  0.351343  0.835164  0.125436  1
  Tm  Tm4  1  0.854326  0.665566  0.378140  1
  Tm  Tm5  1  0.355458  0.832184  0.378115  1
  Tm  Tm6  1  0.858500  0.667783  0.122699  1
  Tm  Tm7  1  0.642624  0.170407  0.878898  1
  Tm  Tm8  1  0.144409  0.334652  0.620804  1
  Tm  Tm9  1  0.490558  0.675908  0.592609  1
  Tm  Tm10  1  0.987441  0.826277  0.904763  1
  Tm  Tm11  1  0.512172  0.319192  0.096281  1
  Tm  Tm12  1  0.009812  0.179626  0.406222  1
  Tm  Tm13  1  0.508699  0.321018  0.408285  1
  Tm  Tm14  1  0.009200  0.177227  0.093757  1
  Tm  Tm15  1  0.809114  0.511136  0.746823  1
  Tm  Tm16  1  0.303142  0.992236  0.745870  1
  Tm  Tm17  1  0.194274  0.489728  0.250961  1
  Tm  Tm18  1  0.694341  0.008865  0.250655  1
  Th  Th19  1  0.483734  0.675927  0.906763  1
  Pt  Pt20  1  0.688344  0.971701  0.454255  1
  Pt  Pt21  1  0.198237  0.526410  0.042253  1
  Pt  Pt22  1  0.306758  0.032610  0.961380  1
  Pt  Pt23  1  0.802904  0.463698  0.539968  1
  Pt  Pt24  1  0.315892  0.040636  0.539097  1
  Pt  Pt25  1  0.809487  0.470479  0.959983  1
  Pt  Pt26  1  0.690880  0.967376  0.040996  1
  Pt  Pt27  1  0.194758  0.527881  0.457082  1
  Pt  Pt28  1  0.442096  0.382478  0.749192  1
  Pt  Pt29  1  0.938177  0.117079  0.750916  1
  Pt  Pt30  1  0.561085  0.612794  0.249981  1
  Pt  Pt31  1  0.059813  0.888247  0.251461  1
  Pt  Pt32  1  0.664446  0.857240  0.752087  1
  Pt  Pt33  1  0.171297  0.642758  0.753122  1
  Pt  Pt34  1  0.334637  0.144790  0.252033  1
  Pt  Pt35  1  0.834653  0.355407  0.250271  1
