# generated using pymatgen
data_Y2Ho6Ti12Si15Ge
_symmetry_space_group_name_H-M   'P 1'
_cell_length_a   7.05566067
_cell_length_b   7.04721336
_cell_length_c   12.94673204
_cell_angle_alpha   89.98901584
_cell_angle_beta   89.93131584
_cell_angle_gamma   89.96387837
_symmetry_Int_Tables_number   1
_chemical_formula_structural   Y2Ho6Ti12Si15Ge
_chemical_formula_sum   'Y2 Ho6 Ti12 Si15 Ge1'
_cell_volume   643.74646855
_cell_formula_units_Z   1
loop_
 _symmetry_equiv_pos_site_id
 _symmetry_equiv_pos_as_xyz
  1  'x, y, z'
loop_
 _atom_site_type_symbol
 _atom_site_label
 _atom_site_symmetry_multiplicity
 _atom_site_fract_x
 _atom_site_fract_y
 _atom_site_fract_z
 _atom_site_occupancy
  Y  Y0  1  0.341500  0.001755  0.465536  1
  Y  Y1  1  0.498707  0.840037  0.717137  1
  Ho  Ho2  1  0.502290  0.159341  0.216617  1
  Ho  Ho3  1  0.840831  0.497516  0.283207  1
  Ho  Ho4  1  0.159061  0.502809  0.783907  1
  Ho  Ho5  1  0.659946  0.997161  0.967310  1
  Ho  Ho6  1  0.999951  0.342814  0.532200  1
  Ho  Ho7  1  0.997992  0.659010  0.033523  1
  Ti  Ti8  1  0.326247  0.326446  0.000206  1
  Ti  Ti9  1  0.173568  0.826197  0.249849  1
  Ti  Ti10  1  0.823378  0.174392  0.750593  1
  Ti  Ti11  1  0.673718  0.673256  0.499836  1
  Ti  Ti12  1  0.152027  0.008957  0.877687  1
  Ti  Ti13  1  0.491650  0.651247  0.126370  1
  Ti  Ti14  1  0.510406  0.349545  0.626649  1
  Ti  Ti15  1  0.652437  0.492175  0.874281  1
  Ti  Ti16  1  0.348113  0.508802  0.373415  1
  Ti  Ti17  1  0.847992  0.991776  0.376176  1
  Ti  Ti18  1  0.008644  0.151559  0.123708  1
  Ti  Ti19  1  0.988680  0.845067  0.622590  1
  Si  Si20  1  0.369280  0.702780  0.934513  1
  Si  Si21  1  0.630411  0.297814  0.434023  1
  Si  Si22  1  0.702956  0.369333  0.066143  1
  Si  Si23  1  0.297145  0.629739  0.565644  1
  Si  Si24  1  0.797277  0.869226  0.184225  1
  Si  Si25  1  0.130177  0.202900  0.315555  1
  Si  Si26  1  0.870363  0.797790  0.816011  1
  Si  Si27  1  0.291261  0.952361  0.065282  1
  Si  Si28  1  0.548397  0.790284  0.314345  1
  Si  Si29  1  0.455396  0.210008  0.816809  1
  Si  Si30  1  0.791794  0.547006  0.685442  1
  Si  Si31  1  0.209020  0.452494  0.185220  1
  Si  Si32  1  0.709405  0.048092  0.564701  1
  Si  Si33  1  0.952590  0.291058  0.935195  1
  Si  Si34  1  0.047273  0.709168  0.434636  1
  Ge  Ge35  1  0.200118  0.130084  0.681463  1
