# generated using pymatgen
data_YTm5Co16(P6W)2
_symmetry_space_group_name_H-M   'P 1'
_cell_length_a   3.70712500
_cell_length_b   10.52813700
_cell_length_c   12.21166200
_cell_angle_alpha   90.00000000
_cell_angle_beta   90.00000000
_cell_angle_gamma   90.00000000
_symmetry_Int_Tables_number   1
_chemical_formula_structural   YTm5Co16(P6W)2
_chemical_formula_sum   'Y1 Tm5 Co16 P12 W2'
_cell_volume   476.61042008
_cell_formula_units_Z   1
loop_
 _symmetry_equiv_pos_site_id
 _symmetry_equiv_pos_as_xyz
  1  'x, y, z'
loop_
 _atom_site_type_symbol
 _atom_site_label
 _atom_site_symmetry_multiplicity
 _atom_site_fract_x
 _atom_site_fract_y
 _atom_site_fract_z
 _atom_site_occupancy
  Y  Y0  1  0.500000  0.000000  0.475377  1
  Tm  Tm1  1  0.000000  0.500000  0.524518  1
  Tm  Tm2  1  0.500000  0.819689  0.204860  1
  Tm  Tm3  1  0.500000  0.180311  0.204860  1
  Tm  Tm4  1  0.000000  0.680176  0.794963  1
  Tm  Tm5  1  0.000000  0.319824  0.794963  1
  Co  Co6  1  0.500000  0.500000  0.700926  1
  Co  Co7  1  0.000000  0.000000  0.297839  1
  Co  Co8  1  0.000000  0.500000  0.986529  1
  Co  Co9  1  0.500000  0.000000  0.013383  1
  Co  Co10  1  0.500000  0.332812  0.989880  1
  Co  Co11  1  0.500000  0.667188  0.989880  1
  Co  Co12  1  0.000000  0.167346  0.010115  1
  Co  Co13  1  0.000000  0.832654  0.010115  1
  Co  Co14  1  0.500000  0.296758  0.431394  1
  Co  Co15  1  0.500000  0.703242  0.431394  1
  Co  Co16  1  0.000000  0.204923  0.568824  1
  Co  Co17  1  0.000000  0.795077  0.568824  1
  Co  Co18  1  0.500000  0.877292  0.707786  1
  Co  Co19  1  0.500000  0.122708  0.707786  1
  Co  Co20  1  0.000000  0.622273  0.292598  1
  Co  Co21  1  0.000000  0.377727  0.292598  1
  P  P22  1  0.500000  0.500000  0.879471  1
  P  P23  1  0.000000  0.000000  0.120218  1
  P  P24  1  0.500000  0.500000  0.351385  1
  P  P25  1  0.000000  0.000000  0.649925  1
  P  P26  1  0.500000  0.312566  0.616443  1
  P  P27  1  0.500000  0.687434  0.616443  1
  P  P28  1  0.000000  0.188527  0.382973  1
  P  P29  1  0.000000  0.811473  0.382973  1
  P  P30  1  0.500000  0.843303  0.892163  1
  P  P31  1  0.500000  0.156697  0.892163  1
  P  P32  1  0.000000  0.656558  0.107906  1
  P  P33  1  0.000000  0.343442  0.107906  1
  W  W34  1  0.500000  0.500000  0.156796  1
  W  W35  1  0.000000  0.000000  0.843822  1
