# generated using pymatgen
data_Nd16Dy3YIr12
_symmetry_space_group_name_H-M   'P 1'
_cell_length_a   11.20174900
_cell_length_b   11.20174900
_cell_length_c   6.52510300
_cell_angle_alpha   90.00000000
_cell_angle_beta   90.00000000
_cell_angle_gamma   90.00000000
_symmetry_Int_Tables_number   1
_chemical_formula_structural   Nd16Dy3YIr12
_chemical_formula_sum   'Nd16 Dy3 Y1 Ir12'
_cell_volume   818.76457816
_cell_formula_units_Z   1
loop_
 _symmetry_equiv_pos_site_id
 _symmetry_equiv_pos_as_xyz
  1  'x, y, z'
loop_
 _atom_site_type_symbol
 _atom_site_label
 _atom_site_symmetry_multiplicity
 _atom_site_fract_x
 _atom_site_fract_y
 _atom_site_fract_z
 _atom_site_occupancy
  Nd  Nd0  1  0.289452  0.088026  0.380694  1
  Nd  Nd1  1  0.289474  0.912066  0.880722  1
  Nd  Nd2  1  0.710526  0.087934  0.880722  1
  Nd  Nd3  1  0.710548  0.911974  0.380694  1
  Nd  Nd4  1  0.587954  0.789449  0.880699  1
  Nd  Nd5  1  0.588075  0.210490  0.380720  1
  Nd  Nd6  1  0.411925  0.789510  0.380720  1
  Nd  Nd7  1  0.412046  0.210551  0.880699  1
  Nd  Nd8  1  0.210490  0.411925  0.619280  1
  Nd  Nd9  1  0.210551  0.587954  0.119301  1
  Nd  Nd10  1  0.789449  0.412046  0.119301  1
  Nd  Nd11  1  0.789510  0.588075  0.619280  1
  Nd  Nd12  1  0.912066  0.710526  0.119278  1
  Nd  Nd13  1  0.911974  0.289452  0.619306  1
  Nd  Nd14  1  0.088026  0.710548  0.619306  1
  Nd  Nd15  1  0.087934  0.289474  0.119278  1
  Dy  Dy16  1  0.000000  0.000000  0.500000  1
  Dy  Dy17  1  0.000000  0.000000  0.000000  1
  Dy  Dy18  1  0.500000  0.500000  0.000000  1
  Y  Y19  1  0.500000  0.500000  0.500000  1
  Ir  Ir20  1  0.850388  0.149623  0.249964  1
  Ir  Ir21  1  0.850377  0.850388  0.750036  1
  Ir  Ir22  1  0.149623  0.149612  0.750036  1
  Ir  Ir23  1  0.149612  0.850377  0.249964  1
  Ir  Ir24  1  0.649959  0.349983  0.750738  1
  Ir  Ir25  1  0.650017  0.649959  0.249262  1
  Ir  Ir26  1  0.349983  0.350041  0.249262  1
  Ir  Ir27  1  0.350041  0.650017  0.750738  1
  Ir  Ir28  1  0.500000  0.000000  0.120769  1
  Ir  Ir29  1  0.500000  0.000000  0.620748  1
  Ir  Ir30  1  0.000000  0.500000  0.879231  1
  Ir  Ir31  1  0.000000  0.500000  0.379252  1
