# generated using pymatgen
data_YbDy2Er(SiPt2)4
_symmetry_space_group_name_H-M   'P 1'
_cell_length_a   5.52734517
_cell_length_b   6.96351300
_cell_length_c   7.31536802
_cell_angle_alpha   90.00000000
_cell_angle_beta   89.98175317
_cell_angle_gamma   90.00000000
_symmetry_Int_Tables_number   1
_chemical_formula_structural   YbDy2Er(SiPt2)4
_chemical_formula_sum   'Yb1 Dy2 Er1 Si4 Pt8'
_cell_volume   281.56659848
_cell_formula_units_Z   1
loop_
 _symmetry_equiv_pos_site_id
 _symmetry_equiv_pos_as_xyz
  1  'x, y, z'
loop_
 _atom_site_type_symbol
 _atom_site_label
 _atom_site_symmetry_multiplicity
 _atom_site_fract_x
 _atom_site_fract_y
 _atom_site_fract_z
 _atom_site_occupancy
  Yb  Yb0  1  0.866341  0.250000  0.522837  1
  Dy  Dy1  1  0.133582  0.750000  0.475641  1
  Dy  Dy2  1  0.634409  0.250000  0.024557  1
  Er  Er3  1  0.365219  0.750000  0.976357  1
  Si  Si4  1  0.133493  0.250000  0.877169  1
  Si  Si5  1  0.367473  0.250000  0.380730  1
  Si  Si6  1  0.632822  0.750000  0.621495  1
  Si  Si7  1  0.866606  0.750000  0.121336  1
  Pt  Pt8  1  0.098935  0.050877  0.179087  1
  Pt  Pt9  1  0.098935  0.449123  0.179087  1
  Pt  Pt10  1  0.404698  0.050158  0.679624  1
  Pt  Pt11  1  0.404698  0.449842  0.679624  1
  Pt  Pt12  1  0.592361  0.551022  0.318240  1
  Pt  Pt13  1  0.592361  0.948978  0.318240  1
  Pt  Pt14  1  0.904034  0.551851  0.822986  1
  Pt  Pt15  1  0.904034  0.948149  0.822986  1
