# generated using pymatgen
data_BaNpF6
_symmetry_space_group_name_H-M   'P 1'
_cell_length_a   7.30263449
_cell_length_b   7.30263411
_cell_length_c   5.60204100
_cell_angle_alpha   90.00000000
_cell_angle_beta   90.00000000
_cell_angle_gamma   112.19122371
_symmetry_Int_Tables_number   1
_chemical_formula_structural   BaNpF6
_chemical_formula_sum   'Ba2 Np2 F12'
_cell_volume   276.61951566
_cell_formula_units_Z   2
loop_
 _symmetry_equiv_pos_site_id
 _symmetry_equiv_pos_as_xyz
  1  'x, y, z'
loop_
 _atom_site_type_symbol
 _atom_site_label
 _atom_site_symmetry_multiplicity
 _atom_site_fract_x
 _atom_site_fract_y
 _atom_site_fract_z
 _atom_site_occupancy
  Ba  Ba0  1  0.250000  0.750000  0.551855  1
  Ba  Ba1  1  0.750000  0.250000  0.448145  1
  Np  Np2  1  0.750000  0.750000  0.000000  1
  Np  Np3  1  0.250000  0.250000  0.000000  1
  F  F4  1  0.169591  0.437045  0.255706  1
  F  F5  1  0.330409  0.062955  0.255706  1
  F  F6  1  0.437045  0.169591  0.744294  1
  F  F7  1  0.062955  0.330409  0.744294  1
  F  F8  1  0.568908  0.431092  0.166486  1
  F  F9  1  0.931092  0.068908  0.166486  1
  F  F10  1  0.431092  0.568908  0.833514  1
  F  F11  1  0.068908  0.931092  0.833514  1
  F  F12  1  0.937045  0.669591  0.255706  1
  F  F13  1  0.562955  0.830409  0.255706  1
  F  F14  1  0.669591  0.937045  0.744294  1
  F  F15  1  0.830409  0.562955  0.744294  1
