# generated using pymatgen
data_Tm6Hf3Zr(Sn3O)2
_symmetry_space_group_name_H-M   'P 1'
_cell_length_a   8.66846000
_cell_length_b   8.66846124
_cell_length_c   5.95541800
_cell_angle_alpha   90.00000000
_cell_angle_beta   90.00000000
_cell_angle_gamma   119.99999528
_symmetry_Int_Tables_number   1
_chemical_formula_structural   Tm6Hf3Zr(Sn3O)2
_chemical_formula_sum   'Tm6 Hf3 Zr1 Sn6 O2'
_cell_volume   387.54921592
_cell_formula_units_Z   1
loop_
 _symmetry_equiv_pos_site_id
 _symmetry_equiv_pos_as_xyz
  1  'x, y, z'
loop_
 _atom_site_type_symbol
 _atom_site_label
 _atom_site_symmetry_multiplicity
 _atom_site_fract_x
 _atom_site_fract_y
 _atom_site_fract_z
 _atom_site_occupancy
  Tm  Tm0  1  0.000054  0.773367  0.749947  1
  Tm  Tm1  1  0.000054  0.226687  0.250053  1
  Tm  Tm2  1  0.226633  0.226687  0.749947  1
  Tm  Tm3  1  0.226633  0.999946  0.250053  1
  Tm  Tm4  1  0.773313  0.773367  0.250053  1
  Tm  Tm5  1  0.773313  0.999946  0.749947  1
  Hf  Hf6  1  0.333333  0.666667  0.000000  1
  Hf  Hf7  1  0.333333  0.666667  0.500000  1
  Hf  Hf8  1  0.666667  0.333333  0.000000  1
  Zr  Zr9  1  0.666667  0.333333  0.500000  1
  Sn  Sn10  1  0.000562  0.596486  0.249513  1
  Sn  Sn11  1  0.000562  0.404076  0.750487  1
  Sn  Sn12  1  0.403514  0.404076  0.249513  1
  Sn  Sn13  1  0.595924  0.596486  0.750487  1
  Sn  Sn14  1  0.403514  0.999438  0.750487  1
  Sn  Sn15  1  0.595924  0.999438  0.249513  1
  O  O16  1  0.000000  0.000000  0.000000  1
  O  O17  1  0.000000  0.000000  0.500000  1
