# generated using pymatgen
data_Tb18YInIr12
_symmetry_space_group_name_H-M   'P 1'
_cell_length_a   10.92414600
_cell_length_b   10.92414600
_cell_length_c   6.33514100
_cell_angle_alpha   90.00000000
_cell_angle_beta   90.00000000
_cell_angle_gamma   90.00000000
_symmetry_Int_Tables_number   1
_chemical_formula_structural   Tb18YInIr12
_chemical_formula_sum   'Tb18 Y1 In1 Ir12'
_cell_volume   756.01650504
_cell_formula_units_Z   1
loop_
 _symmetry_equiv_pos_site_id
 _symmetry_equiv_pos_as_xyz
  1  'x, y, z'
loop_
 _atom_site_type_symbol
 _atom_site_label
 _atom_site_symmetry_multiplicity
 _atom_site_fract_x
 _atom_site_fract_y
 _atom_site_fract_z
 _atom_site_occupancy
  Tb  Tb0  1  0.282987  0.084589  0.380610  1
  Tb  Tb1  1  0.291028  0.911209  0.881124  1
  Tb  Tb2  1  0.708972  0.088791  0.881124  1
  Tb  Tb3  1  0.717013  0.915411  0.380610  1
  Tb  Tb4  1  0.588773  0.791863  0.881877  1
  Tb  Tb5  1  0.587726  0.208122  0.378356  1
  Tb  Tb6  1  0.412274  0.791878  0.378356  1
  Tb  Tb7  1  0.411227  0.208137  0.881877  1
  Tb  Tb8  1  0.208122  0.412274  0.621644  1
  Tb  Tb9  1  0.208137  0.588773  0.118123  1
  Tb  Tb10  1  0.791863  0.411227  0.118123  1
  Tb  Tb11  1  0.791878  0.587726  0.621644  1
  Tb  Tb12  1  0.911209  0.708972  0.118876  1
  Tb  Tb13  1  0.915411  0.282987  0.619390  1
  Tb  Tb14  1  0.084589  0.717013  0.619390  1
  Tb  Tb15  1  0.088791  0.291028  0.118876  1
  Tb  Tb16  1  0.500000  0.500000  0.000000  1
  Tb  Tb17  1  0.500000  0.500000  0.500000  1
  Y  Y18  1  0.000000  0.000000  0.000000  1
  In  In19  1  0.000000  0.000000  0.500000  1
  Ir  Ir20  1  0.846083  0.155785  0.245948  1
  Ir  Ir21  1  0.844215  0.846083  0.754052  1
  Ir  Ir22  1  0.155785  0.153917  0.754052  1
  Ir  Ir23  1  0.153917  0.844215  0.245948  1
  Ir  Ir24  1  0.654838  0.346101  0.746998  1
  Ir  Ir25  1  0.653899  0.654838  0.253002  1
  Ir  Ir26  1  0.346101  0.345162  0.253002  1
  Ir  Ir27  1  0.345162  0.653899  0.746998  1
  Ir  Ir28  1  0.500000  0.000000  0.127084  1
  Ir  Ir29  1  0.500000  0.000000  0.621608  1
  Ir  Ir30  1  0.000000  0.500000  0.872916  1
  Ir  Ir31  1  0.000000  0.500000  0.378392  1
