# generated using pymatgen
data_Tb3Y7(SnBi)4
_symmetry_space_group_name_H-M   'P 1'
_cell_length_a   8.20068400
_cell_length_b   8.23949906
_cell_length_c   15.67853312
_cell_angle_alpha   90.01393996
_cell_angle_beta   90.00000000
_cell_angle_gamma   90.00000000
_symmetry_Int_Tables_number   1
_chemical_formula_structural   Tb3Y7(SnBi)4
_chemical_formula_sum   'Tb6 Y14 Sn8 Bi8'
_cell_volume   1059.39105287
_cell_formula_units_Z   2
loop_
 _symmetry_equiv_pos_site_id
 _symmetry_equiv_pos_as_xyz
  1  'x, y, z'
loop_
 _atom_site_type_symbol
 _atom_site_label
 _atom_site_symmetry_multiplicity
 _atom_site_fract_x
 _atom_site_fract_y
 _atom_site_fract_z
 _atom_site_occupancy
  Tb  Tb0  1  0.447084  0.671916  0.389894  1
  Tb  Tb1  1  0.947084  0.828084  0.110106  1
  Tb  Tb2  1  0.447080  0.671940  0.110105  1
  Tb  Tb3  1  0.947080  0.828060  0.389895  1
  Tb  Tb4  1  0.552902  0.328077  0.610084  1
  Tb  Tb5  1  0.052902  0.171923  0.889916  1
  Y  Y6  1  0.386054  0.838344  0.876527  1
  Y  Y7  1  0.886054  0.661656  0.623473  1
  Y  Y8  1  0.613930  0.161667  0.376524  1
  Y  Y9  1  0.113930  0.338333  0.123476  1
  Y  Y10  1  0.613933  0.161635  0.123472  1
  Y  Y11  1  0.113933  0.338365  0.376528  1
  Y  Y12  1  0.386067  0.838347  0.623498  1
  Y  Y13  1  0.886067  0.661653  0.876502  1
  Y  Y14  1  0.553019  0.328200  0.889776  1
  Y  Y15  1  0.053019  0.171800  0.610224  1
  Y  Y16  1  0.217501  0.498110  0.750002  1
  Y  Y17  1  0.717501  0.001890  0.749998  1
  Y  Y18  1  0.782499  0.501900  0.250010  1
  Y  Y19  1  0.282499  0.998100  0.249990  1
  Sn  Sn20  1  0.582664  0.626346  0.749980  1
  Sn  Sn21  1  0.082664  0.873654  0.750020  1
  Sn  Sn22  1  0.417310  0.373653  0.250001  1
  Sn  Sn23  1  0.917310  0.126347  0.249999  1
  Sn  Sn24  1  0.356430  0.143765  0.750058  1
  Sn  Sn25  1  0.856430  0.356235  0.749942  1
  Sn  Sn26  1  0.643621  0.856312  0.250006  1
  Sn  Sn27  1  0.143621  0.643688  0.249994  1
  Bi  Bi28  1  0.270495  0.020827  0.044190  1
  Bi  Bi29  1  0.770495  0.479173  0.455810  1
  Bi  Bi30  1  0.729540  0.979196  0.544168  1
  Bi  Bi31  1  0.229540  0.520804  0.955832  1
  Bi  Bi32  1  0.729403  0.979174  0.955829  1
  Bi  Bi33  1  0.229403  0.520826  0.544171  1
  Bi  Bi34  1  0.270468  0.020934  0.455893  1
  Bi  Bi35  1  0.770468  0.479066  0.044107  1
