# generated using pymatgen
data_YTm2Hg5
_symmetry_space_group_name_H-M   'P 1'
_cell_length_a   6.35026188
_cell_length_b   6.35026235
_cell_length_c   10.11871400
_cell_angle_alpha   90.00000000
_cell_angle_beta   90.00000000
_cell_angle_gamma   105.11990207
_symmetry_Int_Tables_number   1
_chemical_formula_structural   YTm2Hg5
_chemical_formula_sum   'Y2 Tm4 Hg10'
_cell_volume   393.91984410
_cell_formula_units_Z   2
loop_
 _symmetry_equiv_pos_site_id
 _symmetry_equiv_pos_as_xyz
  1  'x, y, z'
loop_
 _atom_site_type_symbol
 _atom_site_label
 _atom_site_symmetry_multiplicity
 _atom_site_fract_x
 _atom_site_fract_y
 _atom_site_fract_z
 _atom_site_occupancy
  Y  Y0  1  0.784954  0.215046  0.500000  1
  Y  Y1  1  0.784954  0.215046  0.000000  1
  Tm  Tm2  1  0.564602  0.567387  0.250000  1
  Tm  Tm3  1  0.432613  0.435398  0.750000  1
  Tm  Tm4  1  0.215344  0.784656  0.500000  1
  Tm  Tm5  1  0.215344  0.784656  0.000000  1
  Hg  Hg6  1  0.966190  0.965143  0.250000  1
  Hg  Hg7  1  0.034857  0.033810  0.750000  1
  Hg  Hg8  1  0.293743  0.292678  0.028528  1
  Hg  Hg9  1  0.707322  0.706257  0.971472  1
  Hg  Hg10  1  0.293743  0.292678  0.471472  1
  Hg  Hg11  1  0.707322  0.706257  0.528528  1
  Hg  Hg12  1  0.473426  0.033416  0.250000  1
  Hg  Hg13  1  0.966584  0.526574  0.750000  1
  Hg  Hg14  1  0.520657  0.961655  0.750000  1
  Hg  Hg15  1  0.038345  0.479343  0.250000  1
