# generated using pymatgen
data_LuHfMn2Fe10P7
_symmetry_space_group_name_H-M   'P 1'
_cell_length_a   8.94105836
_cell_length_b   8.93936098
_cell_length_c   3.58611900
_cell_angle_alpha   90.00000000
_cell_angle_beta   90.00000000
_cell_angle_gamma   120.24426815
_symmetry_Int_Tables_number   1
_chemical_formula_structural   LuHfMn2Fe10P7
_chemical_formula_sum   'Lu1 Hf1 Mn2 Fe10 P7'
_cell_volume   247.61473561
_cell_formula_units_Z   1
loop_
 _symmetry_equiv_pos_site_id
 _symmetry_equiv_pos_as_xyz
  1  'x, y, z'
loop_
 _atom_site_type_symbol
 _atom_site_label
 _atom_site_symmetry_multiplicity
 _atom_site_fract_x
 _atom_site_fract_y
 _atom_site_fract_z
 _atom_site_occupancy
  Lu  Lu0  1  0.998455  0.998379  0.500000  1
  Hf  Hf1  1  0.667953  0.336366  0.000000  1
  Mn  Mn2  1  0.233797  0.786245  0.500000  1
  Mn  Mn3  1  0.217855  0.446034  0.500000  1
  Fe  Fe4  1  0.759184  0.722804  0.000000  1
  Fe  Fe5  1  0.276933  0.037762  0.000000  1
  Fe  Fe6  1  0.961252  0.237967  0.000000  1
  Fe  Fe7  1  0.489646  0.943827  0.000000  1
  Fe  Fe8  1  0.058799  0.546340  0.000000  1
  Fe  Fe9  1  0.453165  0.509493  0.000000  1
  Fe  Fe10  1  0.715584  0.104359  0.500000  1
  Fe  Fe11  1  0.893508  0.610558  0.500000  1
  Fe  Fe12  1  0.390481  0.285184  0.500000  1
  Fe  Fe13  1  0.549369  0.764486  0.500000  1
  P  P14  1  0.454923  0.080034  0.500000  1
  P  P15  1  0.923125  0.375517  0.500000  1
  P  P16  1  0.623685  0.553145  0.500000  1
  P  P17  1  0.744847  0.963532  0.000000  1
  P  P18  1  0.032178  0.780027  0.000000  1
  P  P19  1  0.217592  0.250213  0.000000  1
  P  P20  1  0.337667  0.667730  0.000000  1
