# generated using pymatgen
data_Sr3Bi(WO4)4
_symmetry_space_group_name_H-M   'P 1'
_cell_length_a   5.15157582
_cell_length_b   5.59557876
_cell_length_c   13.98915900
_cell_angle_alpha   68.13246530
_cell_angle_beta   90.13583358
_cell_angle_gamma   90.36282402
_symmetry_Int_Tables_number   1
_chemical_formula_structural   Sr3Bi(WO4)4
_chemical_formula_sum   'Sr3 Bi1 W4 O16'
_cell_volume   374.22964625
_cell_formula_units_Z   1
loop_
 _symmetry_equiv_pos_site_id
 _symmetry_equiv_pos_as_xyz
  1  'x, y, z'
loop_
 _atom_site_type_symbol
 _atom_site_label
 _atom_site_symmetry_multiplicity
 _atom_site_fract_x
 _atom_site_fract_y
 _atom_site_fract_z
 _atom_site_occupancy
  Sr  Sr0  1  0.732529  0.152318  0.344971  1
  Sr  Sr1  1  0.233616  0.842493  0.156747  1
  Sr  Sr2  1  0.266964  0.850119  0.653949  1
  Bi  Bi3  1  0.762942  0.177939  0.826801  1
  W  W4  1  0.247714  0.581682  0.424611  1
  W  W5  1  0.752294  0.416093  0.074215  1
  W  W6  1  0.749013  0.422726  0.575371  1
  W  W7  1  0.251754  0.582392  0.922755  1
  O  O8  1  0.541152  0.742602  0.465956  1
  O  O9  1  0.059577  0.267971  0.036873  1
  O  O10  1  0.447193  0.265782  0.538116  1
  O  O11  1  0.950598  0.735241  0.959902  1
  O  O12  1  0.951586  0.349903  0.454722  1
  O  O13  1  0.443839  0.633399  0.046107  1
  O  O14  1  0.050206  0.647147  0.547350  1
  O  O15  1  0.558462  0.362123  0.947049  1
  O  O16  1  0.114914  0.883349  0.330747  1
  O  O17  1  0.624425  0.109745  0.165064  1
  O  O18  1  0.887050  0.109785  0.683768  1
  O  O19  1  0.389383  0.888032  0.830702  1
  O  O20  1  0.386851  0.484005  0.323947  1
  O  O21  1  0.880323  0.519999  0.174438  1
  O  O22  1  0.609618  0.499136  0.692667  1
  O  O23  1  0.108003  0.476021  0.823171  1
