# generated using pymatgen
data_Tb3Ho7In8Pt3Au
_symmetry_space_group_name_H-M   'P 1'
_cell_length_a   3.64263000
_cell_length_b   8.15831683
_cell_length_c   18.28270110
_cell_angle_alpha   89.99238711
_cell_angle_beta   90.00000000
_cell_angle_gamma   90.00000000
_symmetry_Int_Tables_number   1
_chemical_formula_structural   Tb3Ho7In8Pt3Au
_chemical_formula_sum   'Tb3 Ho7 In8 Pt3 Au1'
_cell_volume   543.32036326
_cell_formula_units_Z   1
loop_
 _symmetry_equiv_pos_site_id
 _symmetry_equiv_pos_as_xyz
  1  'x, y, z'
loop_
 _atom_site_type_symbol
 _atom_site_label
 _atom_site_symmetry_multiplicity
 _atom_site_fract_x
 _atom_site_fract_y
 _atom_site_fract_z
 _atom_site_occupancy
  Tb  Tb0  1  0.000000  0.730695  0.279945  1
  Tb  Tb1  1  0.000000  0.999479  0.999165  1
  Tb  Tb2  1  0.000000  0.499320  0.500508  1
  Ho  Ho3  1  0.000000  0.120191  0.419825  1
  Ho  Ho4  1  0.000000  0.883862  0.586308  1
  Ho  Ho5  1  0.000000  0.384425  0.914173  1
  Ho  Ho6  1  0.000000  0.616183  0.083705  1
  Ho  Ho7  1  0.000000  0.252200  0.216687  1
  Ho  Ho8  1  0.000000  0.755902  0.780116  1
  Ho  Ho9  1  0.000000  0.256462  0.720416  1
  In  In10  1  0.500000  0.421058  0.352157  1
  In  In11  1  0.500000  0.576315  0.649041  1
  In  In12  1  0.500000  0.076564  0.851022  1
  In  In13  1  0.500000  0.921663  0.147736  1
  In  In14  1  0.500000  0.292225  0.065650  1
  In  In15  1  0.500000  0.707768  0.932644  1
  In  In16  1  0.500000  0.208061  0.568023  1
  In  In17  1  0.500000  0.792084  0.434110  1
  Pt  Pt18  1  0.500000  0.974332  0.696994  1
  Pt  Pt19  1  0.500000  0.474833  0.803408  1
  Pt  Pt20  1  0.500000  0.526636  0.195860  1
  Au  Au21  1  0.500000  0.029741  0.302509  1
