# generated using pymatgen
data_ThAl2GaCu
_symmetry_space_group_name_H-M   'P 1'
_cell_length_a   4.20162215
_cell_length_b   4.20169746
_cell_length_c   6.10268483
_cell_angle_alpha   69.86398663
_cell_angle_beta   69.86436378
_cell_angle_gamma   90.00000924
_symmetry_Int_Tables_number   1
_chemical_formula_structural   ThAl2GaCu
_chemical_formula_sum   'Th1 Al2 Ga1 Cu1'
_cell_volume   94.10693601
_cell_formula_units_Z   1
loop_
 _symmetry_equiv_pos_site_id
 _symmetry_equiv_pos_as_xyz
  1  'x, y, z'
loop_
 _atom_site_type_symbol
 _atom_site_label
 _atom_site_symmetry_multiplicity
 _atom_site_fract_x
 _atom_site_fract_y
 _atom_site_fract_z
 _atom_site_occupancy
  Th  Th0  1  0.995358  0.995358  0.009283  1
  Al  Al1  1  0.742459  0.242459  0.515083  1
  Al  Al2  1  0.242474  0.742474  0.515052  1
  Ga  Ga3  1  0.397136  0.397136  0.205729  1
  Cu  Cu4  1  0.622574  0.622574  0.754852  1
