# generated using pymatgen
data_Tb2DyY5(ReB6)4
_symmetry_space_group_name_H-M   'P 1'
_cell_length_a   3.68897500
_cell_length_b   9.19694902
_cell_length_c   11.58894700
_cell_angle_alpha   89.99682727
_cell_angle_beta   90.00000000
_cell_angle_gamma   90.00000000
_symmetry_Int_Tables_number   1
_chemical_formula_structural   Tb2DyY5(ReB6)4
_chemical_formula_sum   'Tb2 Dy1 Y5 Re4 B24'
_cell_volume   393.18185497
_cell_formula_units_Z   1
loop_
 _symmetry_equiv_pos_site_id
 _symmetry_equiv_pos_as_xyz
  1  'x, y, z'
loop_
 _atom_site_type_symbol
 _atom_site_label
 _atom_site_symmetry_multiplicity
 _atom_site_fract_x
 _atom_site_fract_y
 _atom_site_fract_z
 _atom_site_occupancy
  Tb  Tb0  1  0.000000  0.323728  0.413842  1
  Tb  Tb1  1  0.000000  0.676270  0.586172  1
  Dy  Dy2  1  0.000000  0.557004  0.870041  1
  Y  Y3  1  0.000000  0.823721  0.086000  1
  Y  Y4  1  0.000000  0.176296  0.913993  1
  Y  Y5  1  0.000000  0.943054  0.369885  1
  Y  Y6  1  0.000000  0.056920  0.630127  1
  Y  Y7  1  0.000000  0.443088  0.129807  1
  Re  Re8  1  0.000000  0.638489  0.320735  1
  Re  Re9  1  0.000000  0.361596  0.679376  1
  Re  Re10  1  0.000000  0.138333  0.178992  1
  Re  Re11  1  0.000000  0.861505  0.821050  1
  B  B12  1  0.500000  0.553422  0.432529  1
  B  B13  1  0.500000  0.446576  0.567469  1
  B  B14  1  0.500000  0.053249  0.067135  1
  B  B15  1  0.500000  0.946761  0.932868  1
  B  B16  1  0.500000  0.748956  0.418159  1
  B  B17  1  0.500000  0.251050  0.581833  1
  B  B18  1  0.500000  0.248822  0.081393  1
  B  B19  1  0.500000  0.751124  0.918523  1
  B  B20  1  0.500000  0.791888  0.265244  1
  B  B21  1  0.500000  0.208117  0.734757  1
  B  B22  1  0.500000  0.291660  0.234281  1
  B  B23  1  0.500000  0.708302  0.765810  1
  B  B24  1  0.500000  0.631050  0.185635  1
  B  B25  1  0.500000  0.369043  0.814316  1
  B  B26  1  0.500000  0.130859  0.313893  1
  B  B27  1  0.500000  0.869142  0.686104  1
  B  B28  1  0.500000  0.982517  0.211673  1
  B  B29  1  0.500000  0.017472  0.788322  1
  B  B30  1  0.500000  0.482742  0.287902  1
  B  B31  1  0.500000  0.517220  0.712188  1
  B  B32  1  0.500000  0.600280  0.027991  1
  B  B33  1  0.500000  0.399747  0.971952  1
  B  B34  1  0.500000  0.099745  0.472103  1
  B  B35  1  0.500000  0.900252  0.527901  1
