# generated using pymatgen
data_Ce12Al6CoIr5
_symmetry_space_group_name_H-M   'P 1'
_cell_length_a   7.79804981
_cell_length_b   7.79805095
_cell_length_c   9.87536500
_cell_angle_alpha   90.32804334
_cell_angle_beta   90.32803604
_cell_angle_gamma   120.27126473
_symmetry_Int_Tables_number   1
_chemical_formula_structural   Ce12Al6CoIr5
_chemical_formula_sum   'Ce12 Al6 Co1 Ir5'
_cell_volume   518.60121645
_cell_formula_units_Z   1
loop_
 _symmetry_equiv_pos_site_id
 _symmetry_equiv_pos_as_xyz
  1  'x, y, z'
loop_
 _atom_site_type_symbol
 _atom_site_label
 _atom_site_symmetry_multiplicity
 _atom_site_fract_x
 _atom_site_fract_y
 _atom_site_fract_z
 _atom_site_occupancy
  Ce  Ce0  1  0.002187  0.605851  0.508895  1
  Ce  Ce1  1  0.605851  0.002187  0.508895  1
  Ce  Ce2  1  0.396436  0.396436  0.509790  1
  Ce  Ce3  1  0.001528  0.395657  0.007681  1
  Ce  Ce4  1  0.395657  0.001528  0.007681  1
  Ce  Ce5  1  0.582409  0.582409  0.997976  1
  Ce  Ce6  1  0.997574  0.726287  0.165508  1
  Ce  Ce7  1  0.726287  0.997574  0.165508  1
  Ce  Ce8  1  0.271274  0.271274  0.165956  1
  Ce  Ce9  1  0.009395  0.270583  0.670524  1
  Ce  Ce10  1  0.270583  0.009395  0.670524  1
  Ce  Ce11  1  0.728733  0.728733  0.666133  1
  Al  Al12  1  0.665956  0.332332  0.283391  1
  Al  Al13  1  0.332332  0.665956  0.283391  1
  Al  Al14  1  0.333741  0.671140  0.780844  1
  Al  Al15  1  0.671140  0.333741  0.780844  1
  Al  Al16  1  0.999345  0.999345  0.412963  1
  Al  Al17  1  0.997804  0.997804  0.913951  1
  Co  Co18  1  0.344242  0.344242  0.840873  1
  Ir  Ir19  1  0.000444  0.333118  0.338654  1
  Ir  Ir20  1  0.333118  0.000444  0.338654  1
  Ir  Ir21  1  0.665086  0.665086  0.335792  1
  Ir  Ir22  1  0.001553  0.667323  0.837412  1
  Ir  Ir23  1  0.667323  0.001553  0.837412  1
