# generated using pymatgen
data_Ba2PuTiN4
_symmetry_space_group_name_H-M   'P 1'
_cell_length_a   4.11085600
_cell_length_b   4.11085600
_cell_length_c   8.66647900
_cell_angle_alpha   90.00000000
_cell_angle_beta   90.00000000
_cell_angle_gamma   90.00000000
_symmetry_Int_Tables_number   1
_chemical_formula_structural   Ba2PuTiN4
_chemical_formula_sum   'Ba2 Pu1 Ti1 N4'
_cell_volume   146.45601639
_cell_formula_units_Z   1
loop_
 _symmetry_equiv_pos_site_id
 _symmetry_equiv_pos_as_xyz
  1  'x, y, z'
loop_
 _atom_site_type_symbol
 _atom_site_label
 _atom_site_symmetry_multiplicity
 _atom_site_fract_x
 _atom_site_fract_y
 _atom_site_fract_z
 _atom_site_occupancy
  Ba  Ba0  1  0.000000  0.500001  0.131112  1
  Ba  Ba1  1  0.500001  0.000000  0.817044  1
  Pu  Pu2  1  0.500001  0.000000  0.418722  1
  Ti  Ti3  1  0.000000  0.500001  0.596219  1
  N  N4  1  0.500001  0.000000  0.172146  1
  N  N5  1  0.000000  0.000000  0.528700  1
  N  N6  1  0.500001  0.500001  0.528700  1
  N  N7  1  0.000000  0.500001  0.807358  1
