# generated using pymatgen
data_Mn4Al2PbO12
_symmetry_space_group_name_H-M   'P 1'
_cell_length_a   8.10610687
_cell_length_b   8.10610664
_cell_length_c   9.60154012
_cell_angle_alpha   54.49862571
_cell_angle_beta   54.49862607
_cell_angle_gamma   65.00095057
_symmetry_Int_Tables_number   1
_chemical_formula_structural   Mn4Al2PbO12
_chemical_formula_sum   'Mn8 Al4 Pb2 O24'
_cell_volume   414.65804663
_cell_formula_units_Z   2
loop_
 _symmetry_equiv_pos_site_id
 _symmetry_equiv_pos_as_xyz
  1  'x, y, z'
loop_
 _atom_site_type_symbol
 _atom_site_label
 _atom_site_symmetry_multiplicity
 _atom_site_fract_x
 _atom_site_fract_y
 _atom_site_fract_z
 _atom_site_occupancy
  Mn  Mn0  1  0.670013  0.001952  0.817099  1
  Mn  Mn1  1  0.186017  0.517844  0.480282  1
  Mn  Mn2  1  0.813983  0.482156  0.519718  1
  Mn  Mn3  1  0.329987  0.998048  0.182901  1
  Mn  Mn4  1  0.998048  0.329987  0.182901  1
  Mn  Mn5  1  0.001952  0.670013  0.817099  1
  Mn  Mn6  1  0.517844  0.186017  0.480282  1
  Mn  Mn7  1  0.482156  0.813983  0.519718  1
  Al  Al8  1  0.855222  0.855222  0.476454  1
  Al  Al9  1  0.336176  0.336176  0.815276  1
  Al  Al10  1  0.144778  0.144778  0.523546  1
  Al  Al11  1  0.663824  0.663824  0.184724  1
  Pb  Pb12  1  0.276269  0.723731  0.000000  1
  Pb  Pb13  1  0.723731  0.276269  0.000000  1
  O  O14  1  0.704665  0.704665  0.946220  1
  O  O15  1  0.012716  0.676410  0.349589  1
  O  O16  1  0.676410  0.012716  0.349589  1
  O  O17  1  0.681762  0.009847  0.610891  1
  O  O18  1  0.009847  0.681762  0.610891  1
  O  O19  1  0.041858  0.041858  0.280466  1
  O  O20  1  0.707703  0.378977  0.276551  1
  O  O21  1  0.378977  0.707703  0.276551  1
  O  O22  1  0.990153  0.318238  0.389109  1
  O  O23  1  0.987284  0.323590  0.650411  1
  O  O24  1  0.035266  0.370720  0.944224  1
  O  O25  1  0.370720  0.035266  0.944224  1
  O  O26  1  0.295335  0.295335  0.053780  1
  O  O27  1  0.964734  0.629280  0.055776  1
  O  O28  1  0.339797  0.339797  0.357217  1
  O  O29  1  0.346925  0.346925  0.612623  1
  O  O30  1  0.292297  0.621023  0.723449  1
  O  O31  1  0.621023  0.292297  0.723449  1
  O  O32  1  0.958142  0.958142  0.719534  1
  O  O33  1  0.653075  0.653075  0.387377  1
  O  O34  1  0.318238  0.990153  0.389109  1
  O  O35  1  0.660203  0.660203  0.642783  1
  O  O36  1  0.323590  0.987284  0.650411  1
  O  O37  1  0.629280  0.964734  0.055776  1
