# generated using pymatgen
data_PrSmSc3Si7Pt9
_symmetry_space_group_name_H-M   'P 1'
_cell_length_a   10.08756400
_cell_length_b   10.08756427
_cell_length_c   4.01298400
_cell_angle_alpha   90.00000000
_cell_angle_beta   90.00000000
_cell_angle_gamma   119.99999911
_symmetry_Int_Tables_number   1
_chemical_formula_structural   PrSmSc3Si7Pt9
_chemical_formula_sum   'Pr1 Sm1 Sc3 Si7 Pt9'
_cell_volume   353.64757275
_cell_formula_units_Z   1
loop_
 _symmetry_equiv_pos_site_id
 _symmetry_equiv_pos_as_xyz
  1  'x, y, z'
loop_
 _atom_site_type_symbol
 _atom_site_label
 _atom_site_symmetry_multiplicity
 _atom_site_fract_x
 _atom_site_fract_y
 _atom_site_fract_z
 _atom_site_occupancy
  Pr  Pr0  1  0.000000  0.000000  0.000000  1
  Sm  Sm1  1  0.333333  0.666667  0.500000  1
  Sc  Sc2  1  0.893420  0.452855  0.500000  1
  Sc  Sc3  1  0.559435  0.106580  0.500000  1
  Sc  Sc4  1  0.547145  0.440565  0.500000  1
  Si  Si5  1  0.250255  0.200017  0.500000  1
  Si  Si6  1  0.799983  0.050239  0.500000  1
  Si  Si7  1  0.949761  0.749745  0.500000  1
  Si  Si8  1  0.557351  0.646662  0.000000  1
  Si  Si9  1  0.353338  0.910688  0.000000  1
  Si  Si10  1  0.089312  0.442649  0.000000  1
  Si  Si11  1  0.666667  0.333333  0.000000  1
  Pt  Pt12  1  0.221997  0.936235  0.500000  1
  Pt  Pt13  1  0.063765  0.285762  0.500000  1
  Pt  Pt14  1  0.714238  0.778003  0.500000  1
  Pt  Pt15  1  0.313199  0.410709  0.000000  1
  Pt  Pt16  1  0.589291  0.902490  0.000000  1
  Pt  Pt17  1  0.097510  0.686801  0.000000  1
  Pt  Pt18  1  0.385516  0.171831  0.000000  1
  Pt  Pt19  1  0.828169  0.213685  0.000000  1
  Pt  Pt20  1  0.786315  0.614484  0.000000  1
