# generated using pymatgen
data_LaDy2Er4CoI12
_symmetry_space_group_name_H-M   'P 1'
_cell_length_a   9.74013437
_cell_length_b   9.72930218
_cell_length_c   9.74953773
_cell_angle_alpha   106.09574206
_cell_angle_beta   106.23741835
_cell_angle_gamma   106.23513881
_symmetry_Int_Tables_number   1
_chemical_formula_structural   LaDy2Er4CoI12
_chemical_formula_sum   'La1 Dy2 Er4 Co1 I12'
_cell_volume   785.83466657
_cell_formula_units_Z   1
loop_
 _symmetry_equiv_pos_site_id
 _symmetry_equiv_pos_as_xyz
  1  'x, y, z'
loop_
 _atom_site_type_symbol
 _atom_site_label
 _atom_site_symmetry_multiplicity
 _atom_site_fract_x
 _atom_site_fract_y
 _atom_site_fract_z
 _atom_site_occupancy
  La  La0  1  0.999146  0.998355  0.998040  1
  Dy  Dy1  1  0.214505  0.482168  0.410179  1
  Dy  Dy2  1  0.410322  0.214334  0.482642  1
  Er  Er3  1  0.515536  0.587056  0.780198  1
  Er  Er4  1  0.779179  0.515561  0.586265  1
  Er  Er5  1  0.587129  0.779861  0.515371  1
  Er  Er6  1  0.482292  0.411446  0.217691  1
  Co  Co7  1  0.498128  0.498421  0.498766  1
  I  I8  1  0.277632  0.825104  0.427459  1
  I  I9  1  0.427986  0.277924  0.826240  1
  I  I10  1  0.822917  0.427310  0.276037  1
  I  I11  1  0.723708  0.174612  0.571181  1
  I  I12  1  0.570803  0.721715  0.174160  1
  I  I13  1  0.174811  0.571412  0.723845  1
  I  I14  1  0.045262  0.123998  0.353568  1
  I  I15  1  0.354561  0.047101  0.124045  1
  I  I16  1  0.125662  0.353784  0.045112  1
  I  I17  1  0.950528  0.871808  0.641978  1
  I  I18  1  0.643523  0.950777  0.872109  1
  I  I19  1  0.871738  0.642622  0.950482  1
