# generated using pymatgen
data_Sc4TiBe4ZnIr10
_symmetry_space_group_name_H-M   'P 1'
_cell_length_a   9.48129100
_cell_length_b   9.48129100
_cell_length_c   3.14021900
_cell_angle_alpha   90.00000000
_cell_angle_beta   90.00000000
_cell_angle_gamma   90.00000000
_symmetry_Int_Tables_number   1
_chemical_formula_structural   Sc4TiBe4ZnIr10
_chemical_formula_sum   'Sc4 Ti1 Be4 Zn1 Ir10'
_cell_volume   282.28960712
_cell_formula_units_Z   1
loop_
 _symmetry_equiv_pos_site_id
 _symmetry_equiv_pos_as_xyz
  1  'x, y, z'
loop_
 _atom_site_type_symbol
 _atom_site_label
 _atom_site_symmetry_multiplicity
 _atom_site_fract_x
 _atom_site_fract_y
 _atom_site_fract_z
 _atom_site_occupancy
  Sc  Sc0  1  0.676533  0.174583  0.000000  1
  Sc  Sc1  1  0.323467  0.825417  0.000000  1
  Sc  Sc2  1  0.174583  0.323467  0.000000  1
  Sc  Sc3  1  0.825417  0.676533  0.000000  1
  Ti  Ti4  1  0.500000  0.500000  0.000000  1
  Be  Be5  1  0.121828  0.625325  0.000000  1
  Be  Be6  1  0.878172  0.374675  0.000000  1
  Be  Be7  1  0.625325  0.878172  0.000000  1
  Be  Be8  1  0.374675  0.121828  0.000000  1
  Zn  Zn9  1  0.000000  0.000000  0.000000  1
  Ir  Ir10  1  0.210247  0.069121  0.500000  1
  Ir  Ir11  1  0.789753  0.930879  0.500000  1
  Ir  Ir12  1  0.069121  0.789753  0.500000  1
  Ir  Ir13  1  0.711323  0.430769  0.500000  1
  Ir  Ir14  1  0.930879  0.210247  0.500000  1
  Ir  Ir15  1  0.288677  0.569231  0.500000  1
  Ir  Ir16  1  0.569231  0.711323  0.500000  1
  Ir  Ir17  1  0.430769  0.288677  0.500000  1
  Ir  Ir18  1  0.500000  0.000000  0.500000  1
  Ir  Ir19  1  0.000000  0.500000  0.500000  1
