# generated using pymatgen
data_Y3Er4Lu5Co5Bi
_symmetry_space_group_name_H-M   'P 1'
_cell_length_a   8.23323833
_cell_length_b   8.23323737
_cell_length_c   8.20891695
_cell_angle_alpha   110.86614283
_cell_angle_beta   110.78972557
_cell_angle_gamma   106.91635317
_symmetry_Int_Tables_number   1
_chemical_formula_structural   Y3Er4Lu5Co5Bi
_chemical_formula_sum   'Y3 Er4 Lu5 Co5 Bi1'
_cell_volume   427.02349919
_cell_formula_units_Z   1
loop_
 _symmetry_equiv_pos_site_id
 _symmetry_equiv_pos_as_xyz
  1  'x, y, z'
loop_
 _atom_site_type_symbol
 _atom_site_label
 _atom_site_symmetry_multiplicity
 _atom_site_fract_x
 _atom_site_fract_y
 _atom_site_fract_z
 _atom_site_occupancy
  Y  Y0  1  0.287485  0.185787  0.473272  1
  Y  Y1  1  0.713820  0.816126  0.529946  1
  Y  Y2  1  0.287934  0.814450  0.102383  1
  Er  Er3  1  0.206970  0.401857  0.192519  1
  Er  Er4  1  0.790203  0.593583  0.805241  1
  Er  Er5  1  0.211658  0.015039  0.805241  1
  Er  Er6  1  0.790661  0.985548  0.192519  1
  Lu  Lu7  1  0.713364  0.183512  0.896876  1
  Lu  Lu8  1  0.624897  0.312062  0.310316  1
  Lu  Lu9  1  0.376197  0.688477  0.688316  1
  Lu  Lu10  1  0.999840  0.312118  0.688316  1
  Lu  Lu11  1  0.998253  0.685419  0.310316  1
  Co  Co12  1  0.997862  0.374651  0.372513  1
  Co  Co13  1  0.000137  0.624508  0.624645  1
  Co  Co14  1  0.389264  0.891064  0.505146  1
  Co  Co15  1  0.614083  0.115882  0.505146  1
  Co  Co16  1  0.997715  0.998999  0.996714  1
  Bi  Bi17  1  0.499657  0.500917  0.000574  1
