# generated using pymatgen
data_Ho4MgCd(CuNi)2
_symmetry_space_group_name_H-M   'P 1'
_cell_length_a   7.47066519
_cell_length_b   7.47273082
_cell_length_c   3.65142600
_cell_angle_alpha   90.00000000
_cell_angle_beta   90.00000000
_cell_angle_gamma   88.96961215
_symmetry_Int_Tables_number   1
_chemical_formula_structural   Ho4MgCd(CuNi)2
_chemical_formula_sum   'Ho4 Mg1 Cd1 Cu2 Ni2'
_cell_volume   203.81253152
_cell_formula_units_Z   1
loop_
 _symmetry_equiv_pos_site_id
 _symmetry_equiv_pos_as_xyz
  1  'x, y, z'
loop_
 _atom_site_type_symbol
 _atom_site_label
 _atom_site_symmetry_multiplicity
 _atom_site_fract_x
 _atom_site_fract_y
 _atom_site_fract_z
 _atom_site_occupancy
  Ho  Ho0  1  0.668726  0.160185  0.500000  1
  Ho  Ho1  1  0.331274  0.839815  0.500000  1
  Ho  Ho2  1  0.177205  0.313854  0.500000  1
  Ho  Ho3  1  0.822795  0.686146  0.500000  1
  Mg  Mg4  1  0.500000  0.500000  0.000000  1
  Cd  Cd5  1  0.000000  0.000000  0.000000  1
  Cu  Cu6  1  0.122350  0.618243  0.000000  1
  Cu  Cu7  1  0.877650  0.381757  0.000000  1
  Ni  Ni8  1  0.619004  0.878035  0.000000  1
  Ni  Ni9  1  0.380996  0.121965  0.000000  1
