# generated using pymatgen
data_YCdIr2O7
_symmetry_space_group_name_H-M   'P 1'
_cell_length_a   7.25623937
_cell_length_b   7.25623954
_cell_length_c   7.37223900
_cell_angle_alpha   59.46976230
_cell_angle_beta   59.46976153
_cell_angle_gamma   59.20751474
_symmetry_Int_Tables_number   1
_chemical_formula_structural   YCdIr2O7
_chemical_formula_sum   'Y2 Cd2 Ir4 O14'
_cell_volume   270.61584331
_cell_formula_units_Z   2
loop_
 _symmetry_equiv_pos_site_id
 _symmetry_equiv_pos_as_xyz
  1  'x, y, z'
loop_
 _atom_site_type_symbol
 _atom_site_label
 _atom_site_symmetry_multiplicity
 _atom_site_fract_x
 _atom_site_fract_y
 _atom_site_fract_z
 _atom_site_occupancy
  Y  Y0  1  0.125000  0.125000  0.625000  1
  Y  Y1  1  0.125000  0.125000  0.125000  1
  Cd  Cd2  1  0.625000  0.125000  0.125000  1
  Cd  Cd3  1  0.125000  0.625000  0.125000  1
  Ir  Ir4  1  0.125000  0.625000  0.625000  1
  Ir  Ir5  1  0.625000  0.125000  0.625000  1
  Ir  Ir6  1  0.625000  0.625000  0.125000  1
  Ir  Ir7  1  0.625000  0.625000  0.625000  1
  O  O8  1  0.698747  0.698747  0.301253  1
  O  O9  1  0.289045  0.289045  0.710955  1
  O  O10  1  0.711001  0.294492  0.696700  1
  O  O11  1  0.294492  0.711001  0.297807  1
  O  O12  1  0.294492  0.711001  0.696700  1
  O  O13  1  0.711001  0.294492  0.297807  1
  O  O14  1  0.551253  0.551253  0.948747  1
  O  O15  1  0.960955  0.960955  0.539045  1
  O  O16  1  0.538999  0.955508  0.553300  1
  O  O17  1  0.955508  0.538999  0.952193  1
  O  O18  1  0.955508  0.538999  0.553300  1
  O  O19  1  0.538999  0.955508  0.952193  1
  O  O20  1  0.249259  0.249259  0.250741  1
  O  O21  1  0.000741  0.000741  0.999259  1
