# generated using pymatgen
data_Tb18Y2FeCo3Bi8
_symmetry_space_group_name_H-M   'P 1'
_cell_length_a   8.05574920
_cell_length_b   8.88582400
_cell_length_c   12.47072525
_cell_angle_alpha   90.00000000
_cell_angle_beta   89.96147248
_cell_angle_gamma   90.00000000
_symmetry_Int_Tables_number   1
_chemical_formula_structural   Tb18Y2FeCo3Bi8
_chemical_formula_sum   'Tb18 Y2 Fe1 Co3 Bi8'
_cell_volume   892.67887391
_cell_formula_units_Z   1
loop_
 _symmetry_equiv_pos_site_id
 _symmetry_equiv_pos_as_xyz
  1  'x, y, z'
loop_
 _atom_site_type_symbol
 _atom_site_label
 _atom_site_symmetry_multiplicity
 _atom_site_fract_x
 _atom_site_fract_y
 _atom_site_fract_z
 _atom_site_occupancy
  Tb  Tb0  1  0.348890  0.250000  0.698006  1
  Tb  Tb1  1  0.650271  0.750000  0.302710  1
  Tb  Tb2  1  0.381552  0.750000  0.689428  1
  Tb  Tb3  1  0.620079  0.250000  0.309945  1
  Tb  Tb4  1  0.880193  0.250000  0.809978  1
  Tb  Tb5  1  0.119215  0.750000  0.189058  1
  Tb  Tb6  1  0.952203  0.750000  0.503280  1
  Tb  Tb7  1  0.046314  0.250000  0.497158  1
  Tb  Tb8  1  0.454623  0.250000  0.997344  1
  Tb  Tb9  1  0.545614  0.750000  0.003204  1
  Tb  Tb10  1  0.675652  0.032305  0.562335  1
  Tb  Tb11  1  0.322380  0.965391  0.437291  1
  Tb  Tb12  1  0.177096  0.966724  0.936886  1
  Tb  Tb13  1  0.322380  0.534609  0.437291  1
  Tb  Tb14  1  0.823145  0.034473  0.062958  1
  Tb  Tb15  1  0.675652  0.467695  0.562335  1
  Tb  Tb16  1  0.823145  0.465527  0.062958  1
  Tb  Tb17  1  0.177096  0.533276  0.936886  1
  Y  Y18  1  0.847646  0.750000  0.800295  1
  Y  Y19  1  0.151540  0.250000  0.198849  1
  Fe  Fe20  1  0.565012  0.750000  0.509543  1
  Co  Co21  1  0.438857  0.250000  0.491433  1
  Co  Co22  1  0.059108  0.250000  0.990890  1
  Co  Co23  1  0.940884  0.750000  0.008421  1
  Bi  Bi24  1  0.571868  0.492767  0.825973  1
  Bi  Bi25  1  0.427907  0.507237  0.174544  1
  Bi  Bi26  1  0.071567  0.507972  0.674607  1
  Bi  Bi27  1  0.427907  0.992763  0.174544  1
  Bi  Bi28  1  0.929384  0.492268  0.325634  1
  Bi  Bi29  1  0.571868  0.007233  0.825973  1
  Bi  Bi30  1  0.929384  0.007732  0.325634  1
  Bi  Bi31  1  0.071567  0.992028  0.674607  1
