# generated using pymatgen
data_Ho3Er5Te12
_symmetry_space_group_name_H-M   'P 1'
_cell_length_a   14.38487424
_cell_length_b   13.71812532
_cell_length_c   7.52630708
_cell_angle_alpha   79.42176846
_cell_angle_beta   69.62635383
_cell_angle_gamma   30.95436992
_symmetry_Int_Tables_number   1
_chemical_formula_structural   Ho3Er5Te12
_chemical_formula_sum   'Ho3 Er5 Te12'
_cell_volume   695.46923478
_cell_formula_units_Z   1
loop_
 _symmetry_equiv_pos_site_id
 _symmetry_equiv_pos_as_xyz
  1  'x, y, z'
loop_
 _atom_site_type_symbol
 _atom_site_label
 _atom_site_symmetry_multiplicity
 _atom_site_fract_x
 _atom_site_fract_y
 _atom_site_fract_z
 _atom_site_occupancy
  Ho  Ho0  1  0.000489  0.000489  0.499511  1
  Ho  Ho1  1  0.499518  0.499518  0.000482  1
  Ho  Ho2  1  0.249510  0.249510  0.750490  1
  Er  Er3  1  0.750472  0.750472  0.249528  1
  Er  Er4  1  0.667281  0.667281  0.832719  1
  Er  Er5  1  0.832735  0.832735  0.667265  1
  Er  Er6  1  0.582742  0.582742  0.417258  1
  Er  Er7  1  0.417255  0.417255  0.582745  1
  Te  Te8  1  0.668631  0.165580  0.830679  1
  Te  Te9  1  0.335126  0.830663  0.165588  1
  Te  Te10  1  0.830663  0.335126  0.668623  1
  Te  Te11  1  0.165580  0.668631  0.335109  1
  Te  Te12  1  0.581471  0.084215  0.419210  1
  Te  Te13  1  0.914772  0.419542  0.084530  1
  Te  Te14  1  0.419542  0.914772  0.581155  1
  Te  Te15  1  0.084215  0.581471  0.915104  1
  Te  Te16  1  0.751366  0.248630  0.248568  1
  Te  Te17  1  0.248630  0.751366  0.751435  1
  Te  Te18  1  0.498771  0.001229  0.001588  1
  Te  Te19  1  0.001229  0.498771  0.498411  1
