# generated using pymatgen
data_GaFePtCl8
_symmetry_space_group_name_H-M   'P 1'
_cell_length_a   7.44435497
_cell_length_b   7.44499930
_cell_length_c   7.23035429
_cell_angle_alpha   83.29323625
_cell_angle_beta   83.29428904
_cell_angle_gamma   67.38379759
_symmetry_Int_Tables_number   1
_chemical_formula_structural   GaFePtCl8
_chemical_formula_sum   'Ga1 Fe1 Pt1 Cl8'
_cell_volume   366.25238328
_cell_formula_units_Z   1
loop_
 _symmetry_equiv_pos_site_id
 _symmetry_equiv_pos_as_xyz
  1  'x, y, z'
loop_
 _atom_site_type_symbol
 _atom_site_label
 _atom_site_symmetry_multiplicity
 _atom_site_fract_x
 _atom_site_fract_y
 _atom_site_fract_z
 _atom_site_occupancy
  Ga  Ga0  1  0.785558  0.785578  0.333315  1
  Fe  Fe1  1  0.208607  0.208616  0.674780  1
  Pt  Pt2  1  0.002919  0.002920  0.996070  1
  Cl  Cl3  1  0.695498  0.082451  0.154208  1
  Cl  Cl4  1  0.082450  0.695505  0.154210  1
  Cl  Cl5  1  0.314582  0.910227  0.844902  1
  Cl  Cl6  1  0.619619  0.619620  0.285512  1
  Cl  Cl7  1  0.910214  0.314568  0.844904  1
  Cl  Cl8  1  0.182110  0.182081  0.385634  1
  Cl  Cl9  1  0.820888  0.820886  0.615129  1
  Cl  Cl10  1  0.377553  0.377549  0.711337  1
