# generated using pymatgen
data_BeV8InSe16
_symmetry_space_group_name_H-M   'P 1'
_cell_length_a   7.25236800
_cell_length_b   7.25236800
_cell_length_c   10.27459800
_cell_angle_alpha   90.00000000
_cell_angle_beta   90.00000000
_cell_angle_gamma   90.00000000
_symmetry_Int_Tables_number   1
_chemical_formula_structural   BeV8InSe16
_chemical_formula_sum   'Be1 V8 In1 Se16'
_cell_volume   540.41140359
_cell_formula_units_Z   1
loop_
 _symmetry_equiv_pos_site_id
 _symmetry_equiv_pos_as_xyz
  1  'x, y, z'
loop_
 _atom_site_type_symbol
 _atom_site_label
 _atom_site_symmetry_multiplicity
 _atom_site_fract_x
 _atom_site_fract_y
 _atom_site_fract_z
 _atom_site_occupancy
  Be  Be0  1  0.500000  0.500000  0.500000  1
  V  V1  1  0.000000  0.781494  0.604064  1
  V  V2  1  0.500000  0.292752  0.108507  1
  V  V3  1  0.781494  0.000000  0.395936  1
  V  V4  1  0.292752  0.500000  0.891493  1
  V  V5  1  0.218506  0.000000  0.395936  1
  V  V6  1  0.707248  0.500000  0.891493  1
  V  V7  1  0.000000  0.218506  0.604064  1
  V  V8  1  0.500000  0.707248  0.108507  1
  In  In9  1  0.000000  0.000000  0.000000  1
  Se  Se10  1  0.000000  0.256934  0.368712  1
  Se  Se11  1  0.500000  0.763639  0.871745  1
  Se  Se12  1  0.256934  0.000000  0.631288  1
  Se  Se13  1  0.763639  0.500000  0.128255  1
  Se  Se14  1  0.743066  0.000000  0.631288  1
  Se  Se15  1  0.236361  0.500000  0.128255  1
  Se  Se16  1  0.000000  0.743066  0.368712  1
  Se  Se17  1  0.500000  0.236361  0.871745  1
  Se  Se18  1  0.000000  0.287468  0.853241  1
  Se  Se19  1  0.500000  0.759149  0.371966  1
  Se  Se20  1  0.759149  0.500000  0.628034  1
  Se  Se21  1  0.287468  0.000000  0.146759  1
  Se  Se22  1  0.240851  0.500000  0.628034  1
  Se  Se23  1  0.712532  0.000000  0.146759  1
  Se  Se24  1  0.000000  0.712532  0.853241  1
  Se  Se25  1  0.500000  0.240851  0.371966  1
