# generated using pymatgen
data_Sr4In2Pd3Pt
_symmetry_space_group_name_H-M   'P 1'
_cell_length_a   6.05986885
_cell_length_b   6.05690337
_cell_length_c   8.45491075
_cell_angle_alpha   78.37516521
_cell_angle_beta   78.40978221
_cell_angle_gamma   60.40583387
_symmetry_Int_Tables_number   1
_chemical_formula_structural   Sr4In2Pd3Pt
_chemical_formula_sum   'Sr4 In2 Pd3 Pt1'
_cell_volume   262.43057973
_cell_formula_units_Z   1
loop_
 _symmetry_equiv_pos_site_id
 _symmetry_equiv_pos_as_xyz
  1  'x, y, z'
loop_
 _atom_site_type_symbol
 _atom_site_label
 _atom_site_symmetry_multiplicity
 _atom_site_fract_x
 _atom_site_fract_y
 _atom_site_fract_z
 _atom_site_occupancy
  Sr  Sr0  1  0.510644  0.788686  0.350742  1
  Sr  Sr1  1  0.211739  0.490572  0.146316  1
  Sr  Sr2  1  0.492234  0.211431  0.649712  1
  Sr  Sr3  1  0.786420  0.509763  0.853395  1
  In  In4  1  0.863353  0.134872  0.249657  1
  In  In5  1  0.134286  0.864927  0.750575  1
  Pd  Pd6  1  0.998486  0.269626  0.496420  1
  Pd  Pd7  1  0.272402  0.998752  0.997456  1
  Pd  Pd8  1  0.002112  0.730271  0.502764  1
  Pt  Pt9  1  0.728323  0.001100  0.002964  1
