# generated using pymatgen
data_Yb4Cd7Ag12Pb
_symmetry_space_group_name_H-M   'P 1'
_cell_length_a   5.69422585
_cell_length_b   5.69422571
_cell_length_c   18.77154951
_cell_angle_alpha   90.67420021
_cell_angle_beta   80.47756948
_cell_angle_gamma   119.56578127
_symmetry_Int_Tables_number   1
_chemical_formula_structural   Yb4Cd7Ag12Pb
_chemical_formula_sum   'Yb4 Cd7 Ag12 Pb1'
_cell_volume   520.37074782
_cell_formula_units_Z   1
loop_
 _symmetry_equiv_pos_site_id
 _symmetry_equiv_pos_as_xyz
  1  'x, y, z'
loop_
 _atom_site_type_symbol
 _atom_site_label
 _atom_site_symmetry_multiplicity
 _atom_site_fract_x
 _atom_site_fract_y
 _atom_site_fract_z
 _atom_site_occupancy
  Yb  Yb0  1  0.005243  0.496076  0.498682  1
  Yb  Yb1  1  0.508486  0.748375  0.743138  1
  Yb  Yb2  1  0.999874  0.995783  0.004343  1
  Yb  Yb3  1  0.504555  0.243746  0.251698  1
  Cd  Cd4  1  0.873897  0.936689  0.189414  1
  Cd  Cd5  1  0.374808  0.187881  0.437311  1
  Cd  Cd6  1  0.877994  0.437771  0.684234  1
  Cd  Cd7  1  0.432981  0.467758  0.099261  1
  Cd  Cd8  1  0.933789  0.720365  0.345845  1
  Cd  Cd9  1  0.436264  0.971233  0.592504  1
  Cd  Cd10  1  0.937982  0.222937  0.839080  1
  Ag  Ag11  1  0.435868  0.970317  0.098089  1
  Ag  Ag12  1  0.937006  0.219127  0.344358  1
  Ag  Ag13  1  0.436299  0.469777  0.592921  1
  Ag  Ag14  1  0.937709  0.719711  0.840460  1
  Ag  Ag15  1  0.182619  0.596051  0.221331  1
  Ag  Ag16  1  0.686492  0.844780  0.468728  1
  Ag  Ag17  1  0.191001  0.093099  0.715900  1
  Ag  Ag18  1  0.685864  0.344340  0.969796  1
  Ag  Ag19  1  0.931593  0.466043  0.098089  1
  Ag  Ag20  1  0.436515  0.718635  0.344358  1
  Ag  Ag21  1  0.937303  0.970782  0.592921  1
  Ag  Ag22  1  0.439830  0.221830  0.840460  1
  Pb  Pb23  1  0.376031  0.686892  0.937077  1
