# generated using pymatgen
data_Fe3CoMo6(AsN)2
_symmetry_space_group_name_H-M   'P 1'
_cell_length_a   7.90070101
_cell_length_b   7.92049937
_cell_length_c   7.90083698
_cell_angle_alpha   59.91983228
_cell_angle_beta   59.76418247
_cell_angle_gamma   59.91960799
_symmetry_Int_Tables_number   1
_chemical_formula_structural   Fe3CoMo6(AsN)2
_chemical_formula_sum   'Fe6 Co2 Mo12 As4 N4'
_cell_volume   348.55405471
_cell_formula_units_Z   2
loop_
 _symmetry_equiv_pos_site_id
 _symmetry_equiv_pos_as_xyz
  1  'x, y, z'
loop_
 _atom_site_type_symbol
 _atom_site_label
 _atom_site_symmetry_multiplicity
 _atom_site_fract_x
 _atom_site_fract_y
 _atom_site_fract_z
 _atom_site_occupancy
  Fe  Fe0  1  0.246445  0.918252  0.917024  1
  Fe  Fe1  1  0.917197  0.247852  0.917211  1
  Fe  Fe2  1  0.917212  0.917715  0.917257  1
  Fe  Fe3  1  0.916995  0.918280  0.246426  1
  Fe  Fe4  1  0.001381  0.333219  0.332234  1
  Fe  Fe5  1  0.332226  0.333273  0.001306  1
  Co  Co6  1  0.333411  0.999433  0.333393  1
  Co  Co7  1  0.333408  0.333737  0.333407  1
  Mo  Mo8  1  0.691690  0.308335  0.691627  1
  Mo  Mo9  1  0.559216  0.558768  0.940782  1
  Mo  Mo10  1  0.558971  0.941005  0.558981  1
  Mo  Mo11  1  0.940744  0.941190  0.559252  1
  Mo  Mo12  1  0.940766  0.558752  0.559220  1
  Mo  Mo13  1  0.941011  0.558942  0.941072  1
  Mo  Mo14  1  0.694522  0.306454  0.306510  1
  Mo  Mo15  1  0.306600  0.693355  0.306592  1
  Mo  Mo16  1  0.306496  0.306428  0.694499  1
  Mo  Mo17  1  0.306491  0.692521  0.694549  1
  Mo  Mo18  1  0.694572  0.692445  0.306514  1
  Mo  Mo19  1  0.559240  0.941168  0.940758  1
  As  As20  1  0.620043  0.125996  0.128156  1
  As  As21  1  0.128172  0.125977  0.620030  1
  As  As22  1  0.127299  0.622023  0.127321  1
  As  As23  1  0.127243  0.123563  0.127252  1
  N  N24  1  0.624310  0.625826  0.624328  1
  N  N25  1  0.125850  0.624951  0.624195  1
  N  N26  1  0.624285  0.125577  0.624303  1
  N  N27  1  0.624206  0.624966  0.125804  1
