# generated using pymatgen
data_YHo4(SiB4)2
_symmetry_space_group_name_H-M   'P 1'
_cell_length_a   7.21119100
_cell_length_b   7.21119100
_cell_length_c   8.06916500
_cell_angle_alpha   90.00000000
_cell_angle_beta   90.00000000
_cell_angle_gamma   90.00000000
_symmetry_Int_Tables_number   1
_chemical_formula_structural   YHo4(SiB4)2
_chemical_formula_sum   'Y2 Ho8 Si4 B16'
_cell_volume   419.60687334
_cell_formula_units_Z   2
loop_
 _symmetry_equiv_pos_site_id
 _symmetry_equiv_pos_as_xyz
  1  'x, y, z'
loop_
 _atom_site_type_symbol
 _atom_site_label
 _atom_site_symmetry_multiplicity
 _atom_site_fract_x
 _atom_site_fract_y
 _atom_site_fract_z
 _atom_site_occupancy
  Y  Y0  1  0.000000  0.000000  0.500000  1
  Y  Y1  1  0.500000  0.500000  0.500000  1
  Ho  Ho2  1  0.680246  0.180246  0.223348  1
  Ho  Ho3  1  0.319754  0.819754  0.776652  1
  Ho  Ho4  1  0.319754  0.819754  0.223348  1
  Ho  Ho5  1  0.819754  0.680246  0.223348  1
  Ho  Ho6  1  0.819754  0.680246  0.776652  1
  Ho  Ho7  1  0.680246  0.180246  0.776652  1
  Ho  Ho8  1  0.180246  0.319754  0.776652  1
  Ho  Ho9  1  0.180246  0.319754  0.223348  1
  Si  Si10  1  0.115133  0.615133  0.500000  1
  Si  Si11  1  0.884867  0.384867  0.500000  1
  Si  Si12  1  0.384867  0.115133  0.500000  1
  Si  Si13  1  0.615133  0.884867  0.500000  1
  B  B14  1  0.172630  0.039184  0.000000  1
  B  B15  1  0.827370  0.960816  0.000000  1
  B  B16  1  0.960816  0.172630  0.000000  1
  B  B17  1  0.327370  0.539184  0.000000  1
  B  B18  1  0.039184  0.827370  0.000000  1
  B  B19  1  0.672630  0.460816  0.000000  1
  B  B20  1  0.539184  0.672630  0.000000  1
  B  B21  1  0.460816  0.327370  0.000000  1
  B  B22  1  0.089840  0.589840  0.000000  1
  B  B23  1  0.910160  0.410160  0.000000  1
  B  B24  1  0.410160  0.089840  0.000000  1
  B  B25  1  0.589840  0.910160  0.000000  1
  B  B26  1  0.000000  0.000000  0.162867  1
  B  B27  1  0.000000  0.000000  0.837133  1
  B  B28  1  0.500000  0.500000  0.837133  1
  B  B29  1  0.500000  0.500000  0.162867  1
