# generated using pymatgen
data_Er10Tm2Co4SnPt
_symmetry_space_group_name_H-M   'P 1'
_cell_length_a   8.22663256
_cell_length_b   8.22431251
_cell_length_c   8.22663327
_cell_angle_alpha   111.10910031
_cell_angle_beta   110.62830648
_cell_angle_gamma   106.72232552
_symmetry_Int_Tables_number   1
_chemical_formula_structural   Er10Tm2Co4SnPt
_chemical_formula_sum   'Er10 Tm2 Co4 Sn1 Pt1'
_cell_volume   427.66764802
_cell_formula_units_Z   1
loop_
 _symmetry_equiv_pos_site_id
 _symmetry_equiv_pos_as_xyz
  1  'x, y, z'
loop_
 _atom_site_type_symbol
 _atom_site_label
 _atom_site_symmetry_multiplicity
 _atom_site_fract_x
 _atom_site_fract_y
 _atom_site_fract_z
 _atom_site_occupancy
  Er  Er0  1  0.314599  0.010300  0.695700  1
  Er  Er1  1  0.685401  0.989700  0.304300  1
  Er  Er2  1  0.417764  0.217201  0.200936  1
  Er  Er3  1  0.582236  0.782799  0.799064  1
  Er  Er4  1  0.016265  0.217201  0.799436  1
  Er  Er5  1  0.983735  0.782799  0.200564  1
  Er  Er6  1  0.185013  0.288598  0.473194  1
  Er  Er7  1  0.814987  0.711402  0.526806  1
  Er  Er8  1  0.184596  0.711402  0.896415  1
  Er  Er9  1  0.815404  0.288598  0.103585  1
  Tm  Tm10  1  0.314669  0.619048  0.304378  1
  Tm  Tm11  1  0.685331  0.380953  0.695622  1
  Co  Co12  1  0.112763  0.612666  0.499903  1
  Co  Co13  1  0.887238  0.387335  0.500097  1
  Co  Co14  1  0.377629  0.000000  0.377629  1
  Co  Co15  1  0.622371  0.000000  0.622371  1
  Sn  Sn16  1  0.500000  0.500000  0.000000  1
  Pt  Pt17  1  0.000000  0.000000  0.000000  1
