# generated using pymatgen
data_Tb3BIrO9
_symmetry_space_group_name_H-M   'P 1'
_cell_length_a   8.58007100
_cell_length_b   8.58002569
_cell_length_c   5.44525200
_cell_angle_alpha   90.00000000
_cell_angle_beta   90.00000000
_cell_angle_gamma   120.00304787
_symmetry_Int_Tables_number   1
_chemical_formula_structural   Tb3BIrO9
_chemical_formula_sum   'Tb6 B2 Ir2 O18'
_cell_volume   347.14806260
_cell_formula_units_Z   2
loop_
 _symmetry_equiv_pos_site_id
 _symmetry_equiv_pos_as_xyz
  1  'x, y, z'
loop_
 _atom_site_type_symbol
 _atom_site_label
 _atom_site_symmetry_multiplicity
 _atom_site_fract_x
 _atom_site_fract_y
 _atom_site_fract_z
 _atom_site_occupancy
  Tb  Tb0  1  0.926903  0.280720  0.198181  1
  Tb  Tb1  1  0.353845  0.073099  0.198184  1
  Tb  Tb2  1  0.719239  0.646173  0.198211  1
  Tb  Tb3  1  0.073097  0.719279  0.698180  1
  Tb  Tb4  1  0.280761  0.353826  0.698210  1
  Tb  Tb5  1  0.646155  0.926900  0.698183  1
  B  B6  1  0.000007  0.000024  0.368685  1
  B  B7  1  0.999993  0.999976  0.868687  1
  Ir  Ir8  1  0.333316  0.666670  0.249143  1
  Ir  Ir9  1  0.666684  0.333329  0.749142  1
  O  O10  1  0.215149  0.459350  0.040032  1
  O  O11  1  0.540643  0.755807  0.040029  1
  O  O12  1  0.244178  0.784848  0.040040  1
  O  O13  1  0.129089  0.180053  0.359937  1
  O  O14  1  0.050961  0.870949  0.359925  1
  O  O15  1  0.819973  0.949054  0.359924  1
  O  O16  1  0.125753  0.520876  0.473620  1
  O  O17  1  0.395073  0.874225  0.473640  1
  O  O18  1  0.479122  0.604926  0.473651  1
  O  O19  1  0.784850  0.540650  0.540032  1
  O  O20  1  0.459358  0.244194  0.540031  1
  O  O21  1  0.755821  0.215152  0.540040  1
  O  O22  1  0.180027  0.050945  0.859925  1
  O  O23  1  0.949038  0.129050  0.859926  1
  O  O24  1  0.870912  0.819948  0.859938  1
  O  O25  1  0.604927  0.125775  0.973639  1
  O  O26  1  0.874247  0.479125  0.973619  1
  O  O27  1  0.520879  0.395075  0.973651  1
