# generated using pymatgen
data_AlCu3Pd4
_symmetry_space_group_name_H-M   'P 1'
_cell_length_a   5.21873769
_cell_length_b   5.21917445
_cell_length_c   4.28923100
_cell_angle_alpha   90.00000000
_cell_angle_beta   90.00000000
_cell_angle_gamma   109.46855306
_symmetry_Int_Tables_number   1
_chemical_formula_structural   AlCu3Pd4
_chemical_formula_sum   'Al1 Cu3 Pd4'
_cell_volume   110.14825070
_cell_formula_units_Z   1
loop_
 _symmetry_equiv_pos_site_id
 _symmetry_equiv_pos_as_xyz
  1  'x, y, z'
loop_
 _atom_site_type_symbol
 _atom_site_label
 _atom_site_symmetry_multiplicity
 _atom_site_fract_x
 _atom_site_fract_y
 _atom_site_fract_z
 _atom_site_occupancy
  Al  Al0  1  0.128883  0.369372  0.250000  1
  Cu  Cu1  1  0.629089  0.873114  0.250000  1
  Cu  Cu2  1  0.375954  0.121553  0.750001  1
  Cu  Cu3  1  0.866619  0.635583  0.750001  1
  Pd  Pd4  1  0.627600  0.373473  0.250000  1
  Pd  Pd5  1  0.127846  0.870519  0.250000  1
  Pd  Pd6  1  0.879103  0.136765  0.750001  1
  Pd  Pd7  1  0.364910  0.619625  0.750001  1
