# generated using pymatgen
data_Pr4IrPd3
_symmetry_space_group_name_H-M   'P 1'
_cell_length_a   4.59560000
_cell_length_b   5.81698459
_cell_length_c   7.44750503
_cell_angle_alpha   89.84993692
_cell_angle_beta   90.00000000
_cell_angle_gamma   90.00000000
_symmetry_Int_Tables_number   1
_chemical_formula_structural   Pr4IrPd3
_chemical_formula_sum   'Pr4 Ir1 Pd3'
_cell_volume   199.09000159
_cell_formula_units_Z   1
loop_
 _symmetry_equiv_pos_site_id
 _symmetry_equiv_pos_as_xyz
  1  'x, y, z'
loop_
 _atom_site_type_symbol
 _atom_site_label
 _atom_site_symmetry_multiplicity
 _atom_site_fract_x
 _atom_site_fract_y
 _atom_site_fract_z
 _atom_site_occupancy
  Pr  Pr0  1  0.250000  0.363355  0.678803  1
  Pr  Pr1  1  0.250000  0.135533  0.184992  1
  Pr  Pr2  1  0.750000  0.646335  0.326079  1
  Pr  Pr3  1  0.750000  0.858592  0.807955  1
  Ir  Ir4  1  0.250000  0.843155  0.543255  1
  Pd  Pd5  1  0.250000  0.646736  0.043438  1
  Pd  Pd6  1  0.750000  0.154255  0.454057  1
  Pd  Pd7  1  0.750000  0.352038  0.961421  1
