# generated using pymatgen
data_CaAg3(Pt2O7)2
_symmetry_space_group_name_H-M   'P 1'
_cell_length_a   7.16860185
_cell_length_b   7.16860178
_cell_length_c   7.24924800
_cell_angle_alpha   60.36733049
_cell_angle_beta   60.36733084
_cell_angle_gamma   59.99999464
_symmetry_Int_Tables_number   1
_chemical_formula_structural   CaAg3(Pt2O7)2
_chemical_formula_sum   'Ca1 Ag3 Pt4 O14'
_cell_volume   264.87194798
_cell_formula_units_Z   1
loop_
 _symmetry_equiv_pos_site_id
 _symmetry_equiv_pos_as_xyz
  1  'x, y, z'
loop_
 _atom_site_type_symbol
 _atom_site_label
 _atom_site_symmetry_multiplicity
 _atom_site_fract_x
 _atom_site_fract_y
 _atom_site_fract_z
 _atom_site_occupancy
  Ca  Ca0  1  0.625000  0.625000  0.125000  1
  Ag  Ag1  1  0.625000  0.125000  0.625000  1
  Ag  Ag2  1  0.125000  0.625000  0.625000  1
  Ag  Ag3  1  0.625000  0.625000  0.625000  1
  Pt  Pt4  1  0.125000  0.125000  0.625000  1
  Pt  Pt5  1  0.125000  0.625000  0.125000  1
  Pt  Pt6  1  0.625000  0.125000  0.125000  1
  Pt  Pt7  1  0.125000  0.125000  0.125000  1
  O  O8  1  0.488289  0.488289  0.535135  1
  O  O9  1  0.761711  0.761711  0.714865  1
  O  O10  1  0.457780  0.043697  0.454827  1
  O  O11  1  0.210255  0.791847  0.206048  1
  O  O12  1  0.458153  0.458153  0.043952  1
  O  O13  1  0.043697  0.457780  0.454827  1
  O  O14  1  0.458153  0.039745  0.043952  1
  O  O15  1  0.043697  0.043697  0.454827  1
  O  O16  1  0.039745  0.458153  0.043952  1
  O  O17  1  0.791847  0.210255  0.206048  1
  O  O18  1  0.206303  0.792220  0.795173  1
  O  O19  1  0.792220  0.206303  0.795173  1
  O  O20  1  0.206303  0.206303  0.795173  1
  O  O21  1  0.791847  0.791847  0.206048  1
