# generated using pymatgen
data_Gd2Ti4Sn5
_symmetry_space_group_name_H-M   'P 1'
_cell_length_a   10.88394001
_cell_length_b   10.88394016
_cell_length_c   10.88393900
_cell_angle_alpha   149.02756086
_cell_angle_beta   131.87759449
_cell_angle_gamma   58.33468813
_symmetry_Int_Tables_number   1
_chemical_formula_structural   Gd2Ti4Sn5
_chemical_formula_sum   'Gd4 Ti8 Sn10'
_cell_volume   490.23900142
_cell_formula_units_Z   2
loop_
 _symmetry_equiv_pos_site_id
 _symmetry_equiv_pos_as_xyz
  1  'x, y, z'
loop_
 _atom_site_type_symbol
 _atom_site_label
 _atom_site_symmetry_multiplicity
 _atom_site_fract_x
 _atom_site_fract_y
 _atom_site_fract_z
 _atom_site_occupancy
  Gd  Gd0  1  0.256523  0.143235  0.113289  1
  Gd  Gd1  1  0.743477  0.856765  0.886711  1
  Gd  Gd2  1  0.029945  0.643235  0.386711  1
  Gd  Gd3  1  0.970055  0.356765  0.613289  1
  Ti  Ti4  1  0.311616  0.561616  0.250000  1
  Ti  Ti5  1  0.688384  0.438384  0.750000  1
  Ti  Ti6  1  0.688384  0.938384  0.250000  1
  Ti  Ti7  1  0.311616  0.061616  0.750000  1
  Ti  Ti8  1  0.675744  0.436474  0.239269  1
  Ti  Ti9  1  0.324256  0.563526  0.760731  1
  Ti  Ti10  1  0.197205  0.936474  0.260731  1
  Ti  Ti11  1  0.802795  0.063526  0.739269  1
  Sn  Sn12  1  0.583311  0.289704  0.293607  1
  Sn  Sn13  1  0.416689  0.710296  0.706393  1
  Sn  Sn14  1  0.996097  0.789704  0.206393  1
  Sn  Sn15  1  0.003903  0.210296  0.793607  1
  Sn  Sn16  1  0.000000  0.250000  0.250000  1
  Sn  Sn17  1  0.000000  0.750000  0.750000  1
  Sn  Sn18  1  0.473549  0.066626  0.406921  1
  Sn  Sn19  1  0.526451  0.933374  0.593079  1
  Sn  Sn20  1  0.659705  0.566626  0.093079  1
  Sn  Sn21  1  0.340295  0.433374  0.906921  1
