# generated using pymatgen
data_Tb2Y14In4IrRu3
_symmetry_space_group_name_H-M   'P 1'
_cell_length_a   9.72142836
_cell_length_b   9.69817820
_cell_length_c   9.70995744
_cell_angle_alpha   59.68864812
_cell_angle_beta   59.85917309
_cell_angle_gamma   59.77721310
_symmetry_Int_Tables_number   1
_chemical_formula_structural   Tb2Y14In4IrRu3
_chemical_formula_sum   'Tb2 Y14 In4 Ir1 Ru3'
_cell_volume   644.01572568
_cell_formula_units_Z   1
loop_
 _symmetry_equiv_pos_site_id
 _symmetry_equiv_pos_as_xyz
  1  'x, y, z'
loop_
 _atom_site_type_symbol
 _atom_site_label
 _atom_site_symmetry_multiplicity
 _atom_site_fract_x
 _atom_site_fract_y
 _atom_site_fract_z
 _atom_site_occupancy
  Tb  Tb0  1  0.707259  0.097892  0.099872  1
  Tb  Tb1  1  0.558584  0.941215  0.941395  1
  Y  Y2  1  0.098149  0.708716  0.096387  1
  Y  Y3  1  0.942816  0.941554  0.557240  1
  Y  Y4  1  0.942082  0.559119  0.940947  1
  Y  Y5  1  0.308704  0.689687  0.308189  1
  Y  Y6  1  0.940491  0.557033  0.554407  1
  Y  Y7  1  0.309633  0.309081  0.689162  1
  Y  Y8  1  0.100205  0.099694  0.100266  1
  Y  Y9  1  0.555246  0.556548  0.939934  1
  Y  Y10  1  0.100152  0.096833  0.707537  1
  Y  Y11  1  0.691493  0.304860  0.692402  1
  Y  Y12  1  0.691625  0.692449  0.305896  1
  Y  Y13  1  0.688406  0.309125  0.310211  1
  Y  Y14  1  0.307474  0.690858  0.690705  1
  Y  Y15  1  0.557905  0.937797  0.557249  1
  In  In16  1  0.331599  0.330404  0.333045  1
  In  In17  1  0.000648  0.333535  0.332794  1
  In  In18  1  0.332631  0.001125  0.334199  1
  In  In19  1  0.332142  0.334019  0.001504  1
  Ir  Ir20  1  0.891724  0.330080  0.891895  1
  Ru  Ru21  1  0.884270  0.894162  0.889846  1
  Ru  Ru22  1  0.891546  0.892175  0.331798  1
  Ru  Ru23  1  0.335219  0.892036  0.893120  1
