# generated using pymatgen
data_K2Rb3BaTaAs4
_symmetry_space_group_name_H-M   'P 1'
_cell_length_a   10.80082331
_cell_length_b   10.80082286
_cell_length_c   8.19033538
_cell_angle_alpha   89.21667548
_cell_angle_beta   89.21667518
_cell_angle_gamma   120.47788490
_symmetry_Int_Tables_number   1
_chemical_formula_structural   K2Rb3BaTaAs4
_chemical_formula_sum   'K4 Rb6 Ba2 Ta2 As8'
_cell_volume   823.13240762
_cell_formula_units_Z   2
loop_
 _symmetry_equiv_pos_site_id
 _symmetry_equiv_pos_as_xyz
  1  'x, y, z'
loop_
 _atom_site_type_symbol
 _atom_site_label
 _atom_site_symmetry_multiplicity
 _atom_site_fract_x
 _atom_site_fract_y
 _atom_site_fract_z
 _atom_site_occupancy
  K  K0  1  0.465814  0.526958  0.501224  1
  K  K1  1  0.060265  0.527872  0.501405  1
  K  K2  1  0.526958  0.465814  0.001224  1
  K  K3  1  0.527872  0.060265  0.001405  1
  Rb  Rb4  1  0.865581  0.142647  0.679014  1
  Rb  Rb5  1  0.290322  0.152577  0.708591  1
  Rb  Rb6  1  0.854572  0.715484  0.664383  1
  Rb  Rb7  1  0.142647  0.865581  0.179014  1
  Rb  Rb8  1  0.715484  0.854572  0.164383  1
  Rb  Rb9  1  0.152577  0.290322  0.208591  1
  Ba  Ba10  1  0.464622  0.934494  0.494889  1
  Ba  Ba11  1  0.934494  0.464622  0.994889  1
  Ta  Ta12  1  0.668955  0.332869  0.392046  1
  Ta  Ta13  1  0.332869  0.668955  0.892046  1
  As  As14  1  0.680513  0.334916  0.698497  1
  As  As15  1  0.334916  0.680513  0.198497  1
  As  As16  1  0.791450  0.201932  0.287007  1
  As  As17  1  0.410205  0.197500  0.311858  1
  As  As18  1  0.796302  0.584150  0.275375  1
  As  As19  1  0.201932  0.791450  0.787007  1
  As  As20  1  0.584150  0.796302  0.775375  1
  As  As21  1  0.197500  0.410205  0.811858  1
