# generated using pymatgen
data_Mn2Tc5As12
_symmetry_space_group_name_H-M   'P 1'
_cell_length_a   3.07262300
_cell_length_b   12.98687300
_cell_length_c   15.89009800
_cell_angle_alpha   90.00000000
_cell_angle_beta   90.00000000
_cell_angle_gamma   90.00000000
_symmetry_Int_Tables_number   1
_chemical_formula_structural   Mn2Tc5As12
_chemical_formula_sum   'Mn4 Tc10 As24'
_cell_volume   634.07473130
_cell_formula_units_Z   2
loop_
 _symmetry_equiv_pos_site_id
 _symmetry_equiv_pos_as_xyz
  1  'x, y, z'
loop_
 _atom_site_type_symbol
 _atom_site_label
 _atom_site_symmetry_multiplicity
 _atom_site_fract_x
 _atom_site_fract_y
 _atom_site_fract_z
 _atom_site_occupancy
  Mn  Mn0  1  0.500000  0.124020  0.344680  1
  Mn  Mn1  1  0.500000  0.875980  0.655320  1
  Mn  Mn2  1  0.000000  0.375980  0.844680  1
  Mn  Mn3  1  0.000000  0.624020  0.155320  1
  Tc  Tc4  1  0.500000  0.313456  0.104081  1
  Tc  Tc5  1  0.500000  0.686544  0.895919  1
  Tc  Tc6  1  0.000000  0.186544  0.604081  1
  Tc  Tc7  1  0.000000  0.813456  0.395919  1
  Tc  Tc8  1  0.500000  0.913941  0.260921  1
  Tc  Tc9  1  0.500000  0.086059  0.739079  1
  Tc  Tc10  1  0.000000  0.586059  0.760921  1
  Tc  Tc11  1  0.000000  0.413941  0.239079  1
  Tc  Tc12  1  0.500000  0.500000  0.500000  1
  Tc  Tc13  1  0.000000  0.000000  0.000000  1
  As  As14  1  0.500000  0.903624  0.096928  1
  As  As15  1  0.500000  0.096376  0.903072  1
  As  As16  1  0.000000  0.596376  0.596928  1
  As  As17  1  0.000000  0.403624  0.403072  1
  As  As18  1  0.500000  0.567333  0.260999  1
  As  As19  1  0.500000  0.432667  0.739001  1
  As  As20  1  0.000000  0.932667  0.760999  1
  As  As21  1  0.000000  0.067333  0.239001  1
  As  As22  1  0.500000  0.652973  0.405768  1
  As  As23  1  0.500000  0.347027  0.594232  1
  As  As24  1  0.000000  0.847027  0.905768  1
  As  As25  1  0.000000  0.152973  0.094232  1
  As  As26  1  0.500000  0.964624  0.418111  1
  As  As27  1  0.500000  0.035376  0.581889  1
  As  As28  1  0.000000  0.535376  0.918111  1
  As  As29  1  0.000000  0.464624  0.081889  1
  As  As30  1  0.500000  0.708909  0.060205  1
  As  As31  1  0.500000  0.291091  0.939795  1
  As  As32  1  0.000000  0.791091  0.560205  1
  As  As33  1  0.000000  0.208909  0.439795  1
  As  As34  1  0.500000  0.730822  0.741691  1
  As  As35  1  0.500000  0.269178  0.258309  1
  As  As36  1  0.000000  0.769178  0.241691  1
  As  As37  1  0.000000  0.230822  0.758309  1
