# generated using pymatgen
data_Pr4Co13Si3P9Ru7
_symmetry_space_group_name_H-M   'P 1'
_cell_length_a   3.78664100
_cell_length_b   10.67406673
_cell_length_c   12.05315018
_cell_angle_alpha   90.06282628
_cell_angle_beta   90.00000000
_cell_angle_gamma   90.00000000
_symmetry_Int_Tables_number   1
_chemical_formula_structural   Pr4Co13Si3P9Ru7
_chemical_formula_sum   'Pr4 Co13 Si3 P9 Ru7'
_cell_volume   487.17428122
_cell_formula_units_Z   1
loop_
 _symmetry_equiv_pos_site_id
 _symmetry_equiv_pos_as_xyz
  1  'x, y, z'
loop_
 _atom_site_type_symbol
 _atom_site_label
 _atom_site_symmetry_multiplicity
 _atom_site_fract_x
 _atom_site_fract_y
 _atom_site_fract_z
 _atom_site_occupancy
  Pr  Pr0  1  0.250000  0.586467  0.706190  1
  Pr  Pr1  1  0.250000  0.912759  0.203127  1
  Pr  Pr2  1  0.750000  0.413685  0.294009  1
  Pr  Pr3  1  0.750000  0.082684  0.795133  1
  Co  Co4  1  0.750000  0.897618  0.009212  1
  Co  Co5  1  0.250000  0.217363  0.180733  1
  Co  Co6  1  0.250000  0.282269  0.677925  1
  Co  Co7  1  0.750000  0.777893  0.825229  1
  Co  Co8  1  0.750000  0.725531  0.320576  1
  Co  Co9  1  0.250000  0.881140  0.699348  1
  Co  Co10  1  0.250000  0.618234  0.199459  1
  Co  Co11  1  0.750000  0.112419  0.300839  1
  Co  Co12  1  0.750000  0.387891  0.800655  1
  Co  Co13  1  0.250000  0.472779  0.931147  1
  Co  Co14  1  0.250000  0.033449  0.429217  1
  Co  Co15  1  0.750000  0.538590  0.064796  1
  Co  Co16  1  0.750000  0.961728  0.563873  1
  Si  Si17  1  0.250000  0.418483  0.108136  1
  Si  Si18  1  0.250000  0.081836  0.608873  1
  Si  Si19  1  0.250000  0.277236  0.870625  1
  P  P20  1  0.750000  0.578342  0.888769  1
  P  P21  1  0.750000  0.921609  0.388233  1
  P  P22  1  0.250000  0.221606  0.366714  1
  P  P23  1  0.750000  0.723488  0.132439  1
  P  P24  1  0.750000  0.778917  0.635459  1
  P  P25  1  0.250000  0.604655  0.387829  1
  P  P26  1  0.250000  0.895322  0.890090  1
  P  P27  1  0.750000  0.394710  0.612231  1
  P  P28  1  0.750000  0.104700  0.112126  1
  Ru  Ru29  1  0.250000  0.712122  0.989360  1
  Ru  Ru30  1  0.250000  0.795032  0.483167  1
  Ru  Ru31  1  0.750000  0.294346  0.015905  1
  Ru  Ru32  1  0.750000  0.204552  0.515572  1
  Ru  Ru33  1  0.250000  0.402993  0.488584  1
  Ru  Ru34  1  0.250000  0.088178  0.994314  1
  Ru  Ru35  1  0.750000  0.599376  0.510106  1
