# generated using pymatgen
data_Mo(Pd3Pt)2
_symmetry_space_group_name_H-M   'P 1'
_cell_length_a   6.28577033
_cell_length_b   6.28577077
_cell_length_c   6.25346302
_cell_angle_alpha   95.61207518
_cell_angle_beta   95.61209099
_cell_angle_gamma   143.65080369
_symmetry_Int_Tables_number   1
_chemical_formula_structural   Mo(Pd3Pt)2
_chemical_formula_sum   'Mo1 Pd6 Pt2'
_cell_volume   139.06175781
_cell_formula_units_Z   1
loop_
 _symmetry_equiv_pos_site_id
 _symmetry_equiv_pos_as_xyz
  1  'x, y, z'
loop_
 _atom_site_type_symbol
 _atom_site_label
 _atom_site_symmetry_multiplicity
 _atom_site_fract_x
 _atom_site_fract_y
 _atom_site_fract_z
 _atom_site_occupancy
  Mo  Mo0  1  0.000000  0.000000  0.000000  1
  Pd  Pd1  1  0.328942  0.998776  0.327718  1
  Pd  Pd2  1  0.671058  0.001224  0.672282  1
  Pd  Pd3  1  0.998776  0.328942  0.327718  1
  Pd  Pd4  1  0.001224  0.671058  0.672282  1
  Pd  Pd5  1  0.335940  0.335940  0.671878  1
  Pd  Pd6  1  0.664060  0.664060  0.328122  1
  Pt  Pt7  1  0.659842  0.340158  0.000000  1
  Pt  Pt8  1  0.340158  0.659842  0.000000  1
