# generated using pymatgen
data_Yb3Ho(Ga3Pd)6
_symmetry_space_group_name_H-M   'P 1'
_cell_length_a   7.67904223
_cell_length_b   7.68171770
_cell_length_c   9.56335800
_cell_angle_alpha   90.00000000
_cell_angle_beta   90.00000000
_cell_angle_gamma   119.62181834
_symmetry_Int_Tables_number   1
_chemical_formula_structural   Yb3Ho(Ga3Pd)6
_chemical_formula_sum   'Yb3 Ho1 Ga18 Pd6'
_cell_volume   490.39820936
_cell_formula_units_Z   1
loop_
 _symmetry_equiv_pos_site_id
 _symmetry_equiv_pos_as_xyz
  1  'x, y, z'
loop_
 _atom_site_type_symbol
 _atom_site_label
 _atom_site_symmetry_multiplicity
 _atom_site_fract_x
 _atom_site_fract_y
 _atom_site_fract_z
 _atom_site_occupancy
  Yb  Yb0  1  0.997071  0.668201  0.250000  1
  Yb  Yb1  1  0.001202  0.330906  0.750000  1
  Yb  Yb2  1  0.671327  0.999283  0.250000  1
  Ho  Ho3  1  0.330996  0.999623  0.750000  1
  Ga  Ga4  1  0.128736  0.129048  0.250000  1
  Ga  Ga5  1  0.873357  0.871569  0.750000  1
  Ga  Ga6  1  0.998944  0.335118  0.079711  1
  Ga  Ga7  1  0.000609  0.663719  0.917878  1
  Ga  Ga8  1  0.000609  0.663719  0.582122  1
  Ga  Ga9  1  0.334878  0.997993  0.418822  1
  Ga  Ga10  1  0.998944  0.335118  0.420289  1
  Ga  Ga11  1  0.666903  0.002597  0.582210  1
  Ga  Ga12  1  0.666903  0.002597  0.917790  1
  Ga  Ga13  1  0.334878  0.997993  0.081178  1
  Ga  Ga14  1  0.328980  0.329794  0.570003  1
  Ga  Ga15  1  0.669228  0.669418  0.434845  1
  Ga  Ga16  1  0.669228  0.669418  0.065155  1
  Ga  Ga17  1  0.328980  0.329794  0.929997  1
  Ga  Ga18  1  0.338707  0.547169  0.250000  1
  Ga  Ga19  1  0.658219  0.454221  0.750000  1
  Ga  Ga20  1  0.543882  0.339938  0.250000  1
  Ga  Ga21  1  0.457203  0.662978  0.750000  1
  Pd  Pd22  1  0.669282  0.329623  0.000370  1
  Pd  Pd23  1  0.330563  0.671011  0.999372  1
  Pd  Pd24  1  0.330563  0.671011  0.500628  1
  Pd  Pd25  1  0.669282  0.329623  0.499630  1
  Pd  Pd26  1  0.000262  0.999261  0.000263  1
  Pd  Pd27  1  0.000262  0.999261  0.499737  1
