# generated using pymatgen
data_Er5GeSe4
_symmetry_space_group_name_H-M   'P 1'
_cell_length_a   7.03985313
_cell_length_b   7.03985312
_cell_length_c   7.03985280
_cell_angle_alpha   99.57962593
_cell_angle_beta   99.57962202
_cell_angle_gamma   131.84852898
_symmetry_Int_Tables_number   1
_chemical_formula_structural   Er5GeSe4
_chemical_formula_sum   'Er5 Ge1 Se4'
_cell_volume   237.28453601
_cell_formula_units_Z   1
loop_
 _symmetry_equiv_pos_site_id
 _symmetry_equiv_pos_as_xyz
  1  'x, y, z'
loop_
 _atom_site_type_symbol
 _atom_site_label
 _atom_site_symmetry_multiplicity
 _atom_site_fract_x
 _atom_site_fract_y
 _atom_site_fract_z
 _atom_site_occupancy
  Er  Er0  1  0.403306  0.790497  0.193803  1
  Er  Er1  1  0.000000  0.000000  0.000000  1
  Er  Er2  1  0.596694  0.209503  0.806197  1
  Er  Er3  1  0.209503  0.403306  0.612809  1
  Er  Er4  1  0.790497  0.596694  0.387191  1
  Ge  Ge5  1  0.500000  0.500000  0.000000  1
  Se  Se6  1  0.096985  0.697946  0.794930  1
  Se  Se7  1  0.697946  0.903015  0.600959  1
  Se  Se8  1  0.302054  0.096985  0.399041  1
  Se  Se9  1  0.903015  0.302054  0.205070  1
