# generated using pymatgen
data_TbPaGaNi2
_symmetry_space_group_name_H-M   'P 1'
_cell_length_a   7.26377072
_cell_length_b   7.26376944
_cell_length_c   3.55611900
_cell_angle_alpha   90.00000000
_cell_angle_beta   90.00000000
_cell_angle_gamma   94.11257658
_symmetry_Int_Tables_number   1
_chemical_formula_structural   TbPaGaNi2
_chemical_formula_sum   'Tb2 Pa2 Ga2 Ni4'
_cell_volume   187.14608275
_cell_formula_units_Z   2
loop_
 _symmetry_equiv_pos_site_id
 _symmetry_equiv_pos_as_xyz
  1  'x, y, z'
loop_
 _atom_site_type_symbol
 _atom_site_label
 _atom_site_symmetry_multiplicity
 _atom_site_fract_x
 _atom_site_fract_y
 _atom_site_fract_z
 _atom_site_occupancy
  Tb  Tb0  1  0.179071  0.320936  0.500000  1
  Tb  Tb1  1  0.820945  0.679062  0.500000  1
  Pa  Pa2  1  0.678144  0.178140  0.500000  1
  Pa  Pa3  1  0.321880  0.821875  0.500000  1
  Ga  Ga4  1  0.499986  0.500031  0.000000  1
  Ga  Ga5  1  0.000049  0.999984  0.000000  1
  Ni  Ni6  1  0.867446  0.367434  0.000000  1
  Ni  Ni7  1  0.132632  0.632616  0.000000  1
  Ni  Ni8  1  0.382597  0.117288  0.000000  1
  Ni  Ni9  1  0.617250  0.882636  0.000000  1
