# generated using pymatgen
data_CeTh3(GeIr)4
_symmetry_space_group_name_H-M   'P 1'
_cell_length_a   4.42395100
_cell_length_b   7.16515740
_cell_length_c   7.76148686
_cell_angle_alpha   90.14073026
_cell_angle_beta   90.00000000
_cell_angle_gamma   90.00000000
_symmetry_Int_Tables_number   1
_chemical_formula_structural   CeTh3(GeIr)4
_chemical_formula_sum   'Ce1 Th3 Ge4 Ir4'
_cell_volume   246.02523741
_cell_formula_units_Z   1
loop_
 _symmetry_equiv_pos_site_id
 _symmetry_equiv_pos_as_xyz
  1  'x, y, z'
loop_
 _atom_site_type_symbol
 _atom_site_label
 _atom_site_symmetry_multiplicity
 _atom_site_fract_x
 _atom_site_fract_y
 _atom_site_fract_z
 _atom_site_occupancy
  Ce  Ce0  1  0.250000  0.489112  0.202386  1
  Th  Th1  1  0.750000  0.510534  0.801811  1
  Th  Th2  1  0.250000  0.989253  0.299134  1
  Th  Th3  1  0.750000  0.010052  0.700355  1
  Ge  Ge4  1  0.250000  0.818909  0.919226  1
  Ge  Ge5  1  0.250000  0.325362  0.580083  1
  Ge  Ge6  1  0.750000  0.183434  0.083667  1
  Ge  Ge7  1  0.750000  0.672409  0.413874  1
  Ir  Ir8  1  0.250000  0.219372  0.911313  1
  Ir  Ir9  1  0.250000  0.719507  0.589236  1
  Ir  Ir10  1  0.750000  0.278543  0.411690  1
  Ir  Ir11  1  0.750000  0.783513  0.087224  1
