# generated using pymatgen
data_Pr16Cd2AgHgPt4
_symmetry_space_group_name_H-M   'P 1'
_cell_length_a   10.06813623
_cell_length_b   10.06813691
_cell_length_c   10.08065409
_cell_angle_alpha   60.09772709
_cell_angle_beta   60.09771463
_cell_angle_gamma   60.07211396
_symmetry_Int_Tables_number   1
_chemical_formula_structural   Pr16Cd2AgHgPt4
_chemical_formula_sum   'Pr16 Cd2 Ag1 Hg1 Pt4'
_cell_volume   724.01679108
_cell_formula_units_Z   1
loop_
 _symmetry_equiv_pos_site_id
 _symmetry_equiv_pos_as_xyz
  1  'x, y, z'
loop_
 _atom_site_type_symbol
 _atom_site_label
 _atom_site_symmetry_multiplicity
 _atom_site_fract_x
 _atom_site_fract_y
 _atom_site_fract_z
 _atom_site_occupancy
  Pr  Pr0  1  0.349945  0.349945  0.349566  1
  Pr  Pr1  1  0.352322  0.352322  0.944932  1
  Pr  Pr2  1  0.352951  0.943374  0.352508  1
  Pr  Pr3  1  0.943374  0.352951  0.352508  1
  Pr  Pr4  1  0.809945  0.191053  0.191919  1
  Pr  Pr5  1  0.189661  0.808946  0.809027  1
  Pr  Pr6  1  0.191053  0.809945  0.191919  1
  Pr  Pr7  1  0.808946  0.189661  0.809027  1
  Pr  Pr8  1  0.190919  0.190919  0.810429  1
  Pr  Pr9  1  0.808214  0.808214  0.190738  1
  Pr  Pr10  1  0.936091  0.563452  0.563909  1
  Pr  Pr11  1  0.560721  0.935626  0.937125  1
  Pr  Pr12  1  0.563452  0.936091  0.563909  1
  Pr  Pr13  1  0.935626  0.560721  0.937125  1
  Pr  Pr14  1  0.563232  0.563232  0.937376  1
  Pr  Pr15  1  0.936051  0.936051  0.561327  1
  Cd  Cd16  1  0.580225  0.260124  0.581228  1
  Cd  Cd17  1  0.260124  0.580225  0.581228  1
  Ag  Ag18  1  0.582468  0.582468  0.584495  1
  Hg  Hg19  1  0.584231  0.584231  0.249521  1
  Pt  Pt20  1  0.144279  0.144279  0.144421  1
  Pt  Pt21  1  0.142702  0.142702  0.570441  1
  Pt  Pt22  1  0.142709  0.570751  0.142659  1
  Pt  Pt23  1  0.570751  0.142709  0.142659  1
