# generated using pymatgen
data_Sr6Ho13ThSn16
_symmetry_space_group_name_H-M   'P 1'
_cell_length_a   8.05793824
_cell_length_b   8.43385446
_cell_length_c   15.98496600
_cell_angle_alpha   90.01243898
_cell_angle_beta   90.70167224
_cell_angle_gamma   89.78507852
_symmetry_Int_Tables_number   1
_chemical_formula_structural   Sr6Ho13ThSn16
_chemical_formula_sum   'Sr6 Ho13 Th1 Sn16'
_cell_volume   1086.24083226
_cell_formula_units_Z   1
loop_
 _symmetry_equiv_pos_site_id
 _symmetry_equiv_pos_as_xyz
  1  'x, y, z'
loop_
 _atom_site_type_symbol
 _atom_site_label
 _atom_site_symmetry_multiplicity
 _atom_site_fract_x
 _atom_site_fract_y
 _atom_site_fract_z
 _atom_site_occupancy
  Sr  Sr0  1  0.005482  0.175188  0.598845  1
  Sr  Sr1  1  0.497649  0.675324  0.408136  1
  Sr  Sr2  1  0.997351  0.821156  0.088584  1
  Sr  Sr3  1  0.494957  0.678302  0.088621  1
  Sr  Sr4  1  0.998196  0.824998  0.408026  1
  Sr  Sr5  1  0.504963  0.325419  0.597051  1
  Ho  Ho6  1  0.338225  0.836187  0.874733  1
  Ho  Ho7  1  0.831762  0.664668  0.628401  1
  Ho  Ho8  1  0.665559  0.164310  0.376129  1
  Ho  Ho9  1  0.157825  0.340101  0.121143  1
  Ho  Ho10  1  0.658306  0.162094  0.122729  1
  Ho  Ho11  1  0.165124  0.335538  0.376442  1
  Ho  Ho12  1  0.333123  0.835088  0.629320  1
  Ho  Ho13  1  0.839843  0.661250  0.876561  1
  Ho  Ho14  1  0.508343  0.317898  0.902127  1
  Ho  Ho15  1  0.173514  0.496009  0.752299  1
  Ho  Ho16  1  0.671810  0.003442  0.751930  1
  Ho  Ho17  1  0.823830  0.503834  0.248265  1
  Ho  Ho18  1  0.325934  0.996662  0.248744  1
  Th  Th19  1  0.003032  0.179603  0.903261  1
  Sn  Sn20  1  0.322305  0.055944  0.034462  1
  Sn  Sn21  1  0.835214  0.458284  0.459006  1
  Sn  Sn22  1  0.665399  0.959650  0.544765  1
  Sn  Sn23  1  0.186906  0.527943  0.950710  1
  Sn  Sn24  1  0.677896  0.970389  0.952332  1
  Sn  Sn25  1  0.164404  0.541714  0.544822  1
  Sn  Sn26  1  0.335036  0.041819  0.459503  1
  Sn  Sn27  1  0.816330  0.445339  0.035504  1
  Sn  Sn28  1  0.535002  0.627519  0.753338  1
  Sn  Sn29  1  0.032271  0.870207  0.753924  1
  Sn  Sn30  1  0.460681  0.366555  0.249996  1
  Sn  Sn31  1  0.962632  0.133960  0.249044  1
  Sn  Sn32  1  0.310581  0.144863  0.758219  1
  Sn  Sn33  1  0.806074  0.358830  0.756565  1
  Sn  Sn34  1  0.697424  0.865179  0.248371  1
  Sn  Sn35  1  0.197014  0.634739  0.248089  1
