# generated using pymatgen
data_Mg5Ag(BIr2)3
_symmetry_space_group_name_H-M   'P 1'
_cell_length_a   13.76946798
_cell_length_b   13.76946740
_cell_length_c   10.54544600
_cell_angle_alpha   90.00000000
_cell_angle_beta   90.00000000
_cell_angle_gamma   167.75260654
_symmetry_Int_Tables_number   1
_chemical_formula_structural   Mg5Ag(BIr2)3
_chemical_formula_sum   'Mg10 Ag2 B6 Ir12'
_cell_volume   424.13872712
_cell_formula_units_Z   2
loop_
 _symmetry_equiv_pos_site_id
 _symmetry_equiv_pos_as_xyz
  1  'x, y, z'
loop_
 _atom_site_type_symbol
 _atom_site_label
 _atom_site_symmetry_multiplicity
 _atom_site_fract_x
 _atom_site_fract_y
 _atom_site_fract_z
 _atom_site_occupancy
  Mg  Mg0  1  0.090892  0.909108  0.114462  1
  Mg  Mg1  1  0.909108  0.090892  0.885538  1
  Mg  Mg2  1  0.909108  0.090892  0.614462  1
  Mg  Mg3  1  0.090892  0.909108  0.385538  1
  Mg  Mg4  1  0.236797  0.763203  0.614078  1
  Mg  Mg5  1  0.763203  0.236797  0.385922  1
  Mg  Mg6  1  0.000000  0.000000  0.000000  1
  Mg  Mg7  1  0.000000  0.000000  0.500000  1
  Mg  Mg8  1  0.236797  0.763203  0.885922  1
  Mg  Mg9  1  0.763203  0.236797  0.114078  1
  Ag  Ag10  1  0.817256  0.182744  0.750000  1
  Ag  Ag11  1  0.182744  0.817256  0.250000  1
  B  B12  1  0.137829  0.862171  0.607318  1
  B  B13  1  0.862171  0.137829  0.392682  1
  B  B14  1  0.862171  0.137829  0.107318  1
  B  B15  1  0.137829  0.862171  0.892682  1
  B  B16  1  0.958465  0.041535  0.250000  1
  B  B17  1  0.041535  0.958465  0.750000  1
  Ir  Ir18  1  0.331929  0.668071  0.514477  1
  Ir  Ir19  1  0.668071  0.331929  0.485523  1
  Ir  Ir20  1  0.668071  0.331929  0.014477  1
  Ir  Ir21  1  0.331929  0.668071  0.985523  1
  Ir  Ir22  1  0.514878  0.485122  0.250000  1
  Ir  Ir23  1  0.485122  0.514878  0.750000  1
  Ir  Ir24  1  0.332296  0.667704  0.250000  1
  Ir  Ir25  1  0.667704  0.332296  0.750000  1
  Ir  Ir26  1  0.575593  0.424407  0.613812  1
  Ir  Ir27  1  0.424407  0.575593  0.386188  1
  Ir  Ir28  1  0.424407  0.575593  0.113812  1
  Ir  Ir29  1  0.575593  0.424407  0.886188  1
