# generated using pymatgen
data_Dy6Zn23C
_symmetry_space_group_name_H-M   'P 1'
_cell_length_a   8.98120689
_cell_length_b   8.98120684
_cell_length_c   8.98120600
_cell_angle_alpha   59.99999572
_cell_angle_beta   59.99999590
_cell_angle_gamma   59.99999071
_symmetry_Int_Tables_number   1
_chemical_formula_structural   Dy6Zn23C
_chemical_formula_sum   'Dy6 Zn23 C1'
_cell_volume   512.25829671
_cell_formula_units_Z   1
loop_
 _symmetry_equiv_pos_site_id
 _symmetry_equiv_pos_as_xyz
  1  'x, y, z'
loop_
 _atom_site_type_symbol
 _atom_site_label
 _atom_site_symmetry_multiplicity
 _atom_site_fract_x
 _atom_site_fract_y
 _atom_site_fract_z
 _atom_site_occupancy
  Dy  Dy0  1  0.695321  0.304679  0.304679  1
  Dy  Dy1  1  0.304679  0.695321  0.695321  1
  Dy  Dy2  1  0.304679  0.695321  0.304679  1
  Dy  Dy3  1  0.695321  0.304679  0.695321  1
  Dy  Dy4  1  0.304679  0.304679  0.695321  1
  Dy  Dy5  1  0.695321  0.695321  0.304679  1
  Zn  Zn6  1  0.122412  0.122412  0.122412  1
  Zn  Zn7  1  0.877588  0.877588  0.877588  1
  Zn  Zn8  1  0.122412  0.122412  0.632764  1
  Zn  Zn9  1  0.122412  0.632764  0.122412  1
  Zn  Zn10  1  0.877588  0.877588  0.367236  1
  Zn  Zn11  1  0.877588  0.367236  0.877588  1
  Zn  Zn12  1  0.632764  0.122412  0.122412  1
  Zn  Zn13  1  0.367236  0.877588  0.877588  1
  Zn  Zn14  1  0.500000  0.000000  0.000000  1
  Zn  Zn15  1  0.000000  0.500000  0.500000  1
  Zn  Zn16  1  0.000000  0.500000  0.000000  1
  Zn  Zn17  1  0.500000  0.000000  0.500000  1
  Zn  Zn18  1  0.000000  0.000000  0.500000  1
  Zn  Zn19  1  0.500000  0.500000  0.000000  1
  Zn  Zn20  1  0.327425  0.327425  0.327425  1
  Zn  Zn21  1  0.672575  0.672575  0.672575  1
  Zn  Zn22  1  0.327425  0.327425  0.017725  1
  Zn  Zn23  1  0.327425  0.017725  0.327425  1
  Zn  Zn24  1  0.672575  0.672575  0.982275  1
  Zn  Zn25  1  0.672575  0.982275  0.672575  1
  Zn  Zn26  1  0.017725  0.327425  0.327425  1
  Zn  Zn27  1  0.982275  0.672575  0.672575  1
  Zn  Zn28  1  0.000000  0.000000  0.000000  1
  C  C29  1  0.500000  0.500000  0.500000  1
