# generated using pymatgen
data_Hf8TcNi2Os
_symmetry_space_group_name_H-M   'P 1'
_cell_length_a   8.62353367
_cell_length_b   8.62353382
_cell_length_c   8.60718500
_cell_angle_alpha   60.06269019
_cell_angle_beta   60.06268960
_cell_angle_gamma   60.14372029
_symmetry_Int_Tables_number   1
_chemical_formula_structural   Hf8TcNi2Os
_chemical_formula_sum   'Hf16 Tc2 Ni4 Os2'
_cell_volume   453.52155673
_cell_formula_units_Z   2
loop_
 _symmetry_equiv_pos_site_id
 _symmetry_equiv_pos_as_xyz
  1  'x, y, z'
loop_
 _atom_site_type_symbol
 _atom_site_label
 _atom_site_symmetry_multiplicity
 _atom_site_fract_x
 _atom_site_fract_y
 _atom_site_fract_z
 _atom_site_occupancy
  Hf  Hf0  1  0.181688  0.606827  0.605742  1
  Hf  Hf1  1  0.606827  0.181688  0.605742  1
  Hf  Hf2  1  0.605994  0.605994  0.182214  1
  Hf  Hf3  1  0.605994  0.605994  0.605798  1
  Hf  Hf4  1  0.815638  0.815638  0.184362  1
  Hf  Hf5  1  0.183649  0.183649  0.816351  1
  Hf  Hf6  1  0.815630  0.185086  0.815975  1
  Hf  Hf7  1  0.185086  0.815630  0.183310  1
  Hf  Hf8  1  0.185086  0.815630  0.815975  1
  Hf  Hf9  1  0.815630  0.185086  0.183310  1
  Hf  Hf10  1  0.451349  0.451349  0.048651  1
  Hf  Hf11  1  0.048183  0.048183  0.451817  1
  Hf  Hf12  1  0.452215  0.047824  0.451211  1
  Hf  Hf13  1  0.047824  0.452215  0.048749  1
  Hf  Hf14  1  0.047824  0.452215  0.451211  1
  Hf  Hf15  1  0.452215  0.047824  0.048749  1
  Tc  Tc16  1  0.498175  0.834195  0.833815  1
  Tc  Tc17  1  0.834195  0.498175  0.833815  1
  Ni  Ni18  1  0.820713  0.392959  0.393163  1
  Ni  Ni19  1  0.392959  0.820713  0.393163  1
  Ni  Ni20  1  0.392732  0.392732  0.821127  1
  Ni  Ni21  1  0.392732  0.392732  0.393408  1
  Os  Os22  1  0.833830  0.833830  0.498500  1
  Os  Os23  1  0.833830  0.833830  0.833842  1
