# generated using pymatgen
data_La3Tb3FeI10
_symmetry_space_group_name_H-M   'P 1'
_cell_length_a   7.97677372
_cell_length_b   9.95574927
_cell_length_c   9.83524504
_cell_angle_alpha   106.72849593
_cell_angle_beta   96.18867285
_cell_angle_gamma   106.12303901
_symmetry_Int_Tables_number   1
_chemical_formula_structural   La3Tb3FeI10
_chemical_formula_sum   'La3 Tb3 Fe1 I10'
_cell_volume   703.46769330
_cell_formula_units_Z   1
loop_
 _symmetry_equiv_pos_site_id
 _symmetry_equiv_pos_as_xyz
  1  'x, y, z'
loop_
 _atom_site_type_symbol
 _atom_site_label
 _atom_site_symmetry_multiplicity
 _atom_site_fract_x
 _atom_site_fract_y
 _atom_site_fract_z
 _atom_site_occupancy
  La  La0  1  0.136694  0.864876  0.322442  1
  La  La1  1  0.393767  0.960009  0.717916  1
  La  La2  1  0.611348  0.043333  0.285730  1
  Tb  Tb3  1  0.473784  0.287351  0.588166  1
  Tb  Tb4  1  0.532442  0.715105  0.416817  1
  Tb  Tb5  1  0.848781  0.128367  0.668555  1
  Fe  Fe6  1  0.502030  0.000888  0.500117  1
  I  I7  1  0.418946  0.625092  0.676130  1
  I  I8  1  0.583048  0.376228  0.326912  1
  I  I9  1  0.282187  0.262019  0.840702  1
  I  I10  1  0.699406  0.732443  0.150916  1
  I  I11  1  0.850930  0.448998  0.769921  1
  I  I12  1  0.158443  0.540446  0.231517  1
  I  I13  1  0.050950  0.188122  0.417375  1
  I  I14  1  0.243809  0.915800  0.036649  1
  I  I15  1  0.768051  0.089586  0.954115  1
  I  I16  1  0.945386  0.821340  0.596021  1
