# generated using pymatgen
data_Hf5Sc(ZnPt2)6
_symmetry_space_group_name_H-M   'P 1'
_cell_length_a   4.08592800
_cell_length_b   7.77912200
_cell_length_c   12.24695800
_cell_angle_alpha   90.00011506
_cell_angle_beta   90.00106152
_cell_angle_gamma   90.00095552
_symmetry_Int_Tables_number   1
_chemical_formula_structural   Hf5Sc(ZnPt2)6
_chemical_formula_sum   'Hf5 Sc1 Zn6 Pt12'
_cell_volume   389.26873202
_cell_formula_units_Z   1
loop_
 _symmetry_equiv_pos_site_id
 _symmetry_equiv_pos_as_xyz
  1  'x, y, z'
loop_
 _atom_site_type_symbol
 _atom_site_label
 _atom_site_symmetry_multiplicity
 _atom_site_fract_x
 _atom_site_fract_y
 _atom_site_fract_z
 _atom_site_occupancy
  Hf  Hf0  1  0.999997  0.500002  0.999545  1
  Hf  Hf1  1  0.500003  0.000003  0.165740  1
  Hf  Hf2  1  0.000005  0.500003  0.333334  1
  Hf  Hf3  1  0.499997  0.000003  0.500935  1
  Hf  Hf4  1  0.999989  0.500003  0.667129  1
  Sc  Sc5  1  0.500030  0.999932  0.833288  1
  Zn  Zn6  1  0.000007  0.000003  0.997884  1
  Zn  Zn7  1  0.500006  0.500003  0.166621  1
  Zn  Zn8  1  0.000003  0.000003  0.333341  1
  Zn  Zn9  1  0.499996  0.500003  0.500044  1
  Zn  Zn10  1  0.000002  0.000003  0.668775  1
  Zn  Zn11  1  0.499990  0.500003  0.833342  1
  Pt  Pt12  1  0.499997  0.250887  0.000470  1
  Pt  Pt13  1  0.499997  0.749118  0.000470  1
  Pt  Pt14  1  0.000001  0.249533  0.166747  1
  Pt  Pt15  1  0.000002  0.750473  0.166747  1
  Pt  Pt16  1  0.500004  0.250276  0.333335  1
  Pt  Pt17  1  0.500004  0.749731  0.333335  1
  Pt  Pt18  1  0.999996  0.249536  0.499925  1
  Pt  Pt19  1  0.999997  0.750470  0.499926  1
  Pt  Pt20  1  0.499988  0.250894  0.666199  1
  Pt  Pt21  1  0.499988  0.749111  0.666199  1
  Pt  Pt22  1  0.999998  0.252449  0.833335  1
  Pt  Pt23  1  0.999998  0.747557  0.833335  1
