# generated using pymatgen
data_NdSi2TcIr
_symmetry_space_group_name_H-M   'P 1'
_cell_length_a   5.77079426
_cell_length_b   5.77079400
_cell_length_c   5.77079401
_cell_angle_alpha   136.93436121
_cell_angle_beta   136.93435474
_cell_angle_gamma   62.53906561
_symmetry_Int_Tables_number   1
_chemical_formula_structural   NdSi2TcIr
_chemical_formula_sum   'Nd1 Si2 Tc1 Ir1'
_cell_volume   88.51382880
_cell_formula_units_Z   1
loop_
 _symmetry_equiv_pos_site_id
 _symmetry_equiv_pos_as_xyz
  1  'x, y, z'
loop_
 _atom_site_type_symbol
 _atom_site_label
 _atom_site_symmetry_multiplicity
 _atom_site_fract_x
 _atom_site_fract_y
 _atom_site_fract_z
 _atom_site_occupancy
  Nd  Nd0  1  0.000000  0.000000  0.000000  1
  Si  Si1  1  0.368192  0.368192  0.000000  1
  Si  Si2  1  0.631808  0.631808  0.000000  1
  Tc  Tc3  1  0.750000  0.250000  0.500000  1
  Ir  Ir4  1  0.250000  0.750000  0.500000  1
