# generated using pymatgen
data_DyErGa9Ru5
_symmetry_space_group_name_H-M   'P 1'
_cell_length_a   8.06005102
_cell_length_b   8.06005093
_cell_length_c   8.06005000
_cell_angle_alpha   134.72222141
_cell_angle_beta   135.06265416
_cell_angle_gamma   65.69776407
_symmetry_Int_Tables_number   1
_chemical_formula_structural   DyErGa9Ru5
_chemical_formula_sum   'Dy1 Er1 Ga9 Ru5'
_cell_volume   258.84808283
_cell_formula_units_Z   1
loop_
 _symmetry_equiv_pos_site_id
 _symmetry_equiv_pos_as_xyz
  1  'x, y, z'
loop_
 _atom_site_type_symbol
 _atom_site_label
 _atom_site_symmetry_multiplicity
 _atom_site_fract_x
 _atom_site_fract_y
 _atom_site_fract_z
 _atom_site_occupancy
  Dy  Dy0  1  0.500000  0.000000  0.500000  1
  Er  Er1  1  0.000000  0.500000  0.500000  1
  Ga  Ga2  1  0.437077  0.858007  0.998931  1
  Ga  Ga3  1  0.140924  0.141993  0.579070  1
  Ga  Ga4  1  0.859076  0.438146  0.001069  1
  Ga  Ga5  1  0.859076  0.858007  0.420930  1
  Ga  Ga6  1  0.562923  0.141993  0.001069  1
  Ga  Ga7  1  0.140924  0.561854  0.998931  1
  Ga  Ga8  1  0.562923  0.561854  0.420930  1
  Ga  Ga9  1  0.000000  0.000000  0.000000  1
  Ga  Ga10  1  0.437077  0.438146  0.579070  1
  Ru  Ru11  1  0.181198  0.181198  0.000000  1
  Ru  Ru12  1  0.818802  0.818802  0.000000  1
  Ru  Ru13  1  0.250042  0.750042  0.500000  1
  Ru  Ru14  1  0.749958  0.249958  0.500000  1
  Ru  Ru15  1  0.500000  0.500000  0.000000  1
