# generated using pymatgen
data_NaLiHf6MnBr15
_symmetry_space_group_name_H-M   'P 1'
_cell_length_a   9.65898580
_cell_length_b   9.65914123
_cell_length_c   9.65898529
_cell_angle_alpha   107.92518800
_cell_angle_beta   107.92846608
_cell_angle_gamma   112.60553619
_symmetry_Int_Tables_number   1
_chemical_formula_structural   NaLiHf6MnBr15
_chemical_formula_sum   'Na1 Li1 Hf6 Mn1 Br15'
_cell_volume   692.15213375
_cell_formula_units_Z   1
loop_
 _symmetry_equiv_pos_site_id
 _symmetry_equiv_pos_as_xyz
  1  'x, y, z'
loop_
 _atom_site_type_symbol
 _atom_site_label
 _atom_site_symmetry_multiplicity
 _atom_site_fract_x
 _atom_site_fract_y
 _atom_site_fract_z
 _atom_site_occupancy
  Na  Na0  1  0.249984  0.750008  0.500024  1
  Li  Li1  1  0.749997  0.250039  0.500041  1
  Hf  Hf2  1  0.773372  0.773337  0.999964  1
  Hf  Hf3  1  0.999015  0.210005  0.210990  1
  Hf  Hf4  1  0.212025  0.000957  0.211014  1
  Hf  Hf5  1  0.226613  0.226575  0.999963  1
  Hf  Hf6  1  0.999021  0.787951  0.788930  1
  Hf  Hf7  1  0.789942  0.000957  0.788931  1
  Mn  Mn8  1  0.000024  0.999847  0.999823  1
  Br  Br9  1  0.499994  0.500021  0.000027  1
  Br  Br10  1  0.984947  0.484988  0.500041  1
  Br  Br11  1  0.515031  0.015113  0.500082  1
  Br  Br12  1  0.236462  0.236490  0.472953  1
  Br  Br13  1  0.989313  0.749948  0.239444  1
  Br  Br14  1  0.749157  0.988656  0.239499  1
  Br  Br15  1  0.236536  0.763514  0.000046  1
  Br  Br16  1  0.490405  0.250931  0.239571  1
  Br  Br17  1  0.250127  0.010736  0.760609  1
  Br  Br18  1  0.763537  0.236490  0.000028  1
  Br  Br19  1  0.011360  0.250931  0.760525  1
  Br  Br20  1  0.250057  0.489441  0.239385  1
  Br  Br21  1  0.763468  0.763514  0.526978  1
  Br  Br22  1  0.510506  0.749948  0.760635  1
  Br  Br23  1  0.749107  0.509603  0.760495  1
