# generated using pymatgen
data_Ho3Zn3CuNi2
_symmetry_space_group_name_H-M   'P 1'
_cell_length_a   7.07574500
_cell_length_b   7.07574618
_cell_length_c   3.69904000
_cell_angle_alpha   90.00000000
_cell_angle_beta   90.00000000
_cell_angle_gamma   119.99999914
_symmetry_Int_Tables_number   1
_chemical_formula_structural   Ho3Zn3CuNi2
_chemical_formula_sum   'Ho3 Zn3 Cu1 Ni2'
_cell_volume   160.38512322
_cell_formula_units_Z   1
loop_
 _symmetry_equiv_pos_site_id
 _symmetry_equiv_pos_as_xyz
  1  'x, y, z'
loop_
 _atom_site_type_symbol
 _atom_site_label
 _atom_site_symmetry_multiplicity
 _atom_site_fract_x
 _atom_site_fract_y
 _atom_site_fract_z
 _atom_site_occupancy
  Ho  Ho0  1  0.000000  0.583648  0.000000  1
  Ho  Ho1  1  0.416352  0.416352  0.000000  1
  Ho  Ho2  1  0.583648  0.000000  0.000000  1
  Zn  Zn3  1  0.249863  0.000000  0.500000  1
  Zn  Zn4  1  0.750137  0.750137  0.500000  1
  Zn  Zn5  1  0.000000  0.249863  0.500000  1
  Cu  Cu6  1  0.000000  0.000000  0.000000  1
  Ni  Ni7  1  0.666667  0.333333  0.500000  1
  Ni  Ni8  1  0.333333  0.666667  0.500000  1
