# generated using pymatgen
data_Er3TmNb2(B2Ru5)2
_symmetry_space_group_name_H-M   'P 1'
_cell_length_a   9.64931619
_cell_length_b   9.64931619
_cell_length_c   3.12139400
_cell_angle_alpha   90.00000000
_cell_angle_beta   90.00000000
_cell_angle_gamma   90.02293181
_symmetry_Int_Tables_number   1
_chemical_formula_structural   Er3TmNb2(B2Ru5)2
_chemical_formula_sum   'Er3 Tm1 Nb2 B4 Ru10'
_cell_volume   290.63079644
_cell_formula_units_Z   1
loop_
 _symmetry_equiv_pos_site_id
 _symmetry_equiv_pos_as_xyz
  1  'x, y, z'
loop_
 _atom_site_type_symbol
 _atom_site_label
 _atom_site_symmetry_multiplicity
 _atom_site_fract_x
 _atom_site_fract_y
 _atom_site_fract_z
 _atom_site_occupancy
  Er  Er0  1  0.825232  0.674703  0.000000  1
  Er  Er1  1  0.174703  0.325232  0.000000  1
  Er  Er2  1  0.325217  0.825217  0.000000  1
  Tm  Tm3  1  0.674830  0.174830  0.000000  1
  Nb  Nb4  1  0.500045  0.499867  0.000000  1
  Nb  Nb5  1  0.999867  0.000045  0.000000  1
  B  B6  1  0.620246  0.879846  0.000000  1
  B  B7  1  0.379846  0.120246  0.000000  1
  B  B8  1  0.120247  0.620247  0.000000  1
  B  B9  1  0.879635  0.379635  0.000000  1
  Ru  Ru10  1  0.571211  0.718304  0.500000  1
  Ru  Ru11  1  0.429137  0.281619  0.500000  1
  Ru  Ru12  1  0.071249  0.781770  0.500000  1
  Ru  Ru13  1  0.928353  0.218177  0.500000  1
  Ru  Ru14  1  0.281770  0.571249  0.500000  1
  Ru  Ru15  1  0.718177  0.428353  0.500000  1
  Ru  Ru16  1  0.218304  0.071211  0.500000  1
  Ru  Ru17  1  0.781619  0.929137  0.500000  1
  Ru  Ru18  1  0.500355  0.000355  0.500000  1
  Ru  Ru19  1  0.999958  0.499958  0.500000  1
