# generated using pymatgen
data_Ac12Ga9Ge11
_symmetry_space_group_name_H-M   'P 1'
_cell_length_a   6.55295495
_cell_length_b   6.55295364
_cell_length_c   20.40957000
_cell_angle_alpha   90.00000000
_cell_angle_beta   90.00000000
_cell_angle_gamma   102.17931271
_symmetry_Int_Tables_number   1
_chemical_formula_structural   Ac12Ga9Ge11
_chemical_formula_sum   'Ac12 Ga9 Ge11'
_cell_volume   856.68547264
_cell_formula_units_Z   1
loop_
 _symmetry_equiv_pos_site_id
 _symmetry_equiv_pos_as_xyz
  1  'x, y, z'
loop_
 _atom_site_type_symbol
 _atom_site_label
 _atom_site_symmetry_multiplicity
 _atom_site_fract_x
 _atom_site_fract_y
 _atom_site_fract_z
 _atom_site_occupancy
  Ac  Ac0  1  0.657553  0.657553  0.000000  1
  Ac  Ac1  1  0.660916  0.660916  0.500000  1
  Ac  Ac2  1  0.339947  0.339947  0.249394  1
  Ac  Ac3  1  0.339947  0.339947  0.750606  1
  Ac  Ac4  1  0.203299  0.795956  0.125114  1
  Ac  Ac5  1  0.203600  0.797189  0.625355  1
  Ac  Ac6  1  0.203299  0.795956  0.874886  1
  Ac  Ac7  1  0.203600  0.797189  0.374645  1
  Ac  Ac8  1  0.795956  0.203299  0.125114  1
  Ac  Ac9  1  0.797189  0.203600  0.625355  1
  Ac  Ac10  1  0.797189  0.203600  0.374645  1
  Ac  Ac11  1  0.795956  0.203299  0.874886  1
  Ga  Ga12  1  0.306676  0.306676  0.908396  1
  Ga  Ga13  1  0.311529  0.311529  0.405536  1
  Ga  Ga14  1  0.689025  0.689025  0.344290  1
  Ga  Ga15  1  0.690665  0.690665  0.844353  1
  Ga  Ga16  1  0.306676  0.306676  0.091604  1
  Ga  Ga17  1  0.311529  0.311529  0.594464  1
  Ga  Ga18  1  0.690665  0.690665  0.155647  1
  Ga  Ga19  1  0.689025  0.689025  0.655710  1
  Ga  Ga20  1  0.056278  0.056278  0.000000  1
  Ge  Ge21  1  0.482391  0.099759  0.000000  1
  Ge  Ge22  1  0.480036  0.102080  0.500000  1
  Ge  Ge23  1  0.899148  0.521839  0.249839  1
  Ge  Ge24  1  0.899148  0.521839  0.750161  1
  Ge  Ge25  1  0.521839  0.899148  0.249839  1
  Ge  Ge26  1  0.521839  0.899148  0.750161  1
  Ge  Ge27  1  0.099759  0.482391  0.000000  1
  Ge  Ge28  1  0.102080  0.480036  0.500000  1
  Ge  Ge29  1  0.059438  0.059438  0.500000  1
  Ge  Ge30  1  0.941903  0.941903  0.250139  1
  Ge  Ge31  1  0.941903  0.941903  0.749861  1
