# generated using pymatgen
data_Ti(TlTe)4
_symmetry_space_group_name_H-M   'P 1'
_cell_length_a   9.34523700
_cell_length_b   9.43985128
_cell_length_c   17.53586700
_cell_angle_alpha   75.11654490
_cell_angle_beta   90.00000000
_cell_angle_gamma   90.00000000
_symmetry_Int_Tables_number   1
_chemical_formula_structural   Ti(TlTe)4
_chemical_formula_sum   'Ti4 Tl16 Te16'
_cell_volume   1495.07243841
_cell_formula_units_Z   4
loop_
 _symmetry_equiv_pos_site_id
 _symmetry_equiv_pos_as_xyz
  1  'x, y, z'
loop_
 _atom_site_type_symbol
 _atom_site_label
 _atom_site_symmetry_multiplicity
 _atom_site_fract_x
 _atom_site_fract_y
 _atom_site_fract_z
 _atom_site_occupancy
  Ti  Ti0  1  0.889083  0.209159  0.623130  1
  Ti  Ti1  1  0.389083  0.790841  0.876870  1
  Ti  Ti2  1  0.110917  0.790841  0.376870  1
  Ti  Ti3  1  0.610917  0.209159  0.123130  1
  Tl  Tl4  1  0.724349  0.613553  0.363120  1
  Tl  Tl5  1  0.224349  0.386447  0.136880  1
  Tl  Tl6  1  0.275651  0.386447  0.636880  1
  Tl  Tl7  1  0.775651  0.613553  0.863120  1
  Tl  Tl8  1  0.902902  0.174777  0.380535  1
  Tl  Tl9  1  0.402902  0.825223  0.119465  1
  Tl  Tl10  1  0.097098  0.825223  0.619465  1
  Tl  Tl11  1  0.597098  0.174777  0.880535  1
  Tl  Tl12  1  0.314033  0.416008  0.390476  1
  Tl  Tl13  1  0.814033  0.583992  0.109524  1
  Tl  Tl14  1  0.685967  0.583992  0.609524  1
  Tl  Tl15  1  0.185967  0.416008  0.890476  1
  Tl  Tl16  1  0.490812  0.027978  0.363003  1
  Tl  Tl17  1  0.990812  0.972022  0.136997  1
  Tl  Tl18  1  0.509188  0.972022  0.636997  1
  Tl  Tl19  1  0.009188  0.027978  0.863003  1
  Te  Te20  1  0.114964  0.181286  0.536935  1
  Te  Te21  1  0.614964  0.818714  0.963065  1
  Te  Te22  1  0.885036  0.818714  0.463065  1
  Te  Te23  1  0.385036  0.181286  0.036935  1
  Te  Te24  1  0.664100  0.298362  0.534765  1
  Te  Te25  1  0.164100  0.701638  0.965235  1
  Te  Te26  1  0.335900  0.701638  0.465235  1
  Te  Te27  1  0.835900  0.298362  0.034765  1
  Te  Te28  1  0.948665  0.392217  0.708777  1
  Te  Te29  1  0.448665  0.607783  0.791223  1
  Te  Te30  1  0.051335  0.607783  0.291223  1
  Te  Te31  1  0.551335  0.392217  0.208777  1
  Te  Te32  1  0.834030  0.946061  0.714268  1
  Te  Te33  1  0.334030  0.053939  0.785732  1
  Te  Te34  1  0.165970  0.053939  0.285732  1
  Te  Te35  1  0.665970  0.946061  0.214268  1
