# generated using pymatgen
data_Ca5Pr3(Si3Rh4)2
_symmetry_space_group_name_H-M   'P 1'
_cell_length_a   10.83492505
_cell_length_b   10.80551661
_cell_length_c   7.66096053
_cell_angle_alpha   72.45003879
_cell_angle_beta   72.29586186
_cell_angle_gamma   31.02067892
_symmetry_Int_Tables_number   1
_chemical_formula_structural   Ca5Pr3(Si3Rh4)2
_chemical_formula_sum   'Ca5 Pr3 Si6 Rh8'
_cell_volume   438.80235074
_cell_formula_units_Z   1
loop_
 _symmetry_equiv_pos_site_id
 _symmetry_equiv_pos_as_xyz
  1  'x, y, z'
loop_
 _atom_site_type_symbol
 _atom_site_label
 _atom_site_symmetry_multiplicity
 _atom_site_fract_x
 _atom_site_fract_y
 _atom_site_fract_z
 _atom_site_occupancy
  Ca  Ca0  1  0.554045  0.787215  0.093059  1
  Ca  Ca1  1  0.804878  0.061205  0.170742  1
  Ca  Ca2  1  0.935777  0.199074  0.330226  1
  Ca  Ca3  1  0.196324  0.938214  0.832693  1
  Ca  Ca4  1  0.063124  0.803419  0.668643  1
  Pr  Pr5  1  0.781070  0.560748  0.593734  1
  Pr  Pr6  1  0.448243  0.215021  0.904811  1
  Pr  Pr7  1  0.221744  0.442988  0.404743  1
  Si  Si8  1  0.947297  0.700148  0.064742  1
  Si  Si9  1  0.298392  0.044410  0.438149  1
  Si  Si10  1  0.037497  0.305718  0.941821  1
  Si  Si11  1  0.702756  0.942436  0.566201  1
  Si  Si12  1  0.591352  0.409970  0.750259  1
  Si  Si13  1  0.409678  0.592248  0.250856  1
  Rh  Rh14  1  0.582377  0.296844  0.529527  1
  Rh  Rh15  1  0.697833  0.423804  0.972429  1
  Rh  Rh16  1  0.424002  0.698027  0.473785  1
  Rh  Rh17  1  0.298942  0.580748  0.029138  1
  Rh  Rh18  1  0.621959  0.934421  0.310146  1
  Rh  Rh19  1  0.091438  0.353360  0.181492  1
  Rh  Rh20  1  0.348871  0.094836  0.682603  1
  Rh  Rh21  1  0.942401  0.615145  0.810204  1
