# generated using pymatgen
data_Hf2AlFe3
_symmetry_space_group_name_H-M   'P 1'
_cell_length_a   5.01049000
_cell_length_b   5.01049119
_cell_length_c   8.07778000
_cell_angle_alpha   90.00000000
_cell_angle_beta   90.00000000
_cell_angle_gamma   119.99999214
_symmetry_Int_Tables_number   1
_chemical_formula_structural   Hf2AlFe3
_chemical_formula_sum   'Hf4 Al2 Fe6'
_cell_volume   175.62372711
_cell_formula_units_Z   2
loop_
 _symmetry_equiv_pos_site_id
 _symmetry_equiv_pos_as_xyz
  1  'x, y, z'
loop_
 _atom_site_type_symbol
 _atom_site_label
 _atom_site_symmetry_multiplicity
 _atom_site_fract_x
 _atom_site_fract_y
 _atom_site_fract_z
 _atom_site_occupancy
  Hf  Hf0  1  0.333333  0.666667  0.435207  1
  Hf  Hf1  1  0.666667  0.333333  0.935207  1
  Hf  Hf2  1  0.666667  0.333333  0.564793  1
  Hf  Hf3  1  0.333333  0.666667  0.064793  1
  Al  Al4  1  0.000000  0.000000  0.000000  1
  Al  Al5  1  0.000000  0.000000  0.500000  1
  Fe  Fe6  1  0.172648  0.345297  0.750000  1
  Fe  Fe7  1  0.827352  0.172648  0.250000  1
  Fe  Fe8  1  0.345297  0.172648  0.250000  1
  Fe  Fe9  1  0.654703  0.827352  0.750000  1
  Fe  Fe10  1  0.827352  0.654703  0.250000  1
  Fe  Fe11  1  0.172648  0.827352  0.750000  1
