# generated using pymatgen
data_Ho8Er2Si5Sn
_symmetry_space_group_name_H-M   'P 1'
_cell_length_a   8.47113300
_cell_length_b   8.49864963
_cell_length_c   6.34333401
_cell_angle_alpha   89.99483376
_cell_angle_beta   90.00000000
_cell_angle_gamma   119.89294936
_symmetry_Int_Tables_number   1
_chemical_formula_structural   Ho8Er2Si5Sn
_chemical_formula_sum   'Ho8 Er2 Si5 Sn1'
_cell_volume   395.91969308
_cell_formula_units_Z   1
loop_
 _symmetry_equiv_pos_site_id
 _symmetry_equiv_pos_as_xyz
  1  'x, y, z'
loop_
 _atom_site_type_symbol
 _atom_site_label
 _atom_site_symmetry_multiplicity
 _atom_site_fract_x
 _atom_site_fract_y
 _atom_site_fract_z
 _atom_site_occupancy
  Ho  Ho0  1  0.989705  0.749284  0.749986  1
  Ho  Ho1  1  0.998298  0.242080  0.249994  1
  Ho  Ho2  1  0.756218  0.757920  0.250006  1
  Ho  Ho3  1  0.765887  0.000000  0.750000  1
  Ho  Ho4  1  0.240421  0.250716  0.750014  1
  Ho  Ho5  1  0.240996  0.000000  0.250000  1
  Ho  Ho6  1  0.331302  0.657482  0.496994  1
  Ho  Ho7  1  0.673821  0.342518  0.003006  1
  Er  Er8  1  0.673816  0.342520  0.497012  1
  Er  Er9  1  0.331295  0.657480  0.002988  1
  Si  Si10  1  0.393408  0.391946  0.249986  1
  Si  Si11  1  0.001462  0.608054  0.250014  1
  Si  Si12  1  0.998586  0.394273  0.749998  1
  Si  Si13  1  0.604313  0.605727  0.750002  1
  Si  Si14  1  0.604983  0.000000  0.250000  1
  Sn  Sn15  1  0.395490  0.000000  0.750000  1
