# generated using pymatgen
data_Mn4InPd8Au3
_symmetry_space_group_name_H-M   'P 1'
_cell_length_a   6.95428825
_cell_length_b   6.95428815
_cell_length_c   6.95428825
_cell_angle_alpha   107.11319179
_cell_angle_beta   107.11318695
_cell_angle_gamma   114.29780059
_symmetry_Int_Tables_number   1
_chemical_formula_structural   Mn4InPd8Au3
_chemical_formula_sum   'Mn4 In1 Pd8 Au3'
_cell_volume   257.51256484
_cell_formula_units_Z   1
loop_
 _symmetry_equiv_pos_site_id
 _symmetry_equiv_pos_as_xyz
  1  'x, y, z'
loop_
 _atom_site_type_symbol
 _atom_site_label
 _atom_site_symmetry_multiplicity
 _atom_site_fract_x
 _atom_site_fract_y
 _atom_site_fract_z
 _atom_site_occupancy
  Mn  Mn0  1  0.257354  0.257354  0.514708  1
  Mn  Mn1  1  0.742646  0.742646  0.485292  1
  Mn  Mn2  1  0.257354  0.742646  0.000000  1
  Mn  Mn3  1  0.742646  0.257354  0.000000  1
  In  In4  1  0.000000  0.000000  0.000000  1
  Pd  Pd5  1  0.494583  0.245324  0.249257  1
  Pd  Pd6  1  0.505417  0.754676  0.750743  1
  Pd  Pd7  1  0.996067  0.245324  0.750743  1
  Pd  Pd8  1  0.245324  0.996067  0.750743  1
  Pd  Pd9  1  0.003933  0.754676  0.249257  1
  Pd  Pd10  1  0.754676  0.003933  0.249257  1
  Pd  Pd11  1  0.245324  0.494583  0.249257  1
  Pd  Pd12  1  0.754676  0.505417  0.750743  1
  Au  Au13  1  0.500000  0.000000  0.500000  1
  Au  Au14  1  0.000000  0.500000  0.500000  1
  Au  Au15  1  0.500000  0.500000  0.000000  1
