# generated using pymatgen
data_EuDyNbCo8P6W
_symmetry_space_group_name_H-M   'P 1'
_cell_length_a   3.72724900
_cell_length_b   10.52546500
_cell_length_c   11.98686100
_cell_angle_alpha   90.00000000
_cell_angle_beta   90.00000000
_cell_angle_gamma   90.00000000
_symmetry_Int_Tables_number   1
_chemical_formula_structural   EuDyNbCo8P6W
_chemical_formula_sum   'Eu2 Dy2 Nb2 Co16 P12 W2'
_cell_volume   470.25689026
_cell_formula_units_Z   2
loop_
 _symmetry_equiv_pos_site_id
 _symmetry_equiv_pos_as_xyz
  1  'x, y, z'
loop_
 _atom_site_type_symbol
 _atom_site_label
 _atom_site_symmetry_multiplicity
 _atom_site_fract_x
 _atom_site_fract_y
 _atom_site_fract_z
 _atom_site_occupancy
  Eu  Eu0  1  0.250000  0.582331  0.704378  1
  Eu  Eu1  1  0.250000  0.917669  0.204378  1
  Dy  Dy2  1  0.750000  0.416290  0.294655  1
  Dy  Dy3  1  0.750000  0.083710  0.794655  1
  Nb  Nb4  1  0.250000  0.706319  0.988485  1
  Nb  Nb5  1  0.250000  0.793681  0.488485  1
  Co  Co6  1  0.250000  0.401343  0.487660  1
  Co  Co7  1  0.250000  0.098657  0.987660  1
  Co  Co8  1  0.750000  0.588928  0.506585  1
  Co  Co9  1  0.750000  0.911072  0.006585  1
  Co  Co10  1  0.250000  0.223979  0.177295  1
  Co  Co11  1  0.250000  0.276021  0.677295  1
  Co  Co12  1  0.750000  0.781797  0.824098  1
  Co  Co13  1  0.750000  0.718203  0.324098  1
  Co  Co14  1  0.250000  0.891180  0.700729  1
  Co  Co15  1  0.250000  0.608820  0.200729  1
  Co  Co16  1  0.750000  0.118112  0.301733  1
  Co  Co17  1  0.750000  0.381888  0.801733  1
  Co  Co18  1  0.250000  0.462442  0.935012  1
  Co  Co19  1  0.250000  0.037558  0.435012  1
  Co  Co20  1  0.750000  0.532609  0.066078  1
  Co  Co21  1  0.750000  0.967391  0.566078  1
  P  P22  1  0.250000  0.419870  0.115064  1
  P  P23  1  0.250000  0.080130  0.615064  1
  P  P24  1  0.750000  0.577327  0.883375  1
  P  P25  1  0.750000  0.922673  0.383375  1
  P  P26  1  0.250000  0.269045  0.864456  1
  P  P27  1  0.250000  0.230955  0.364456  1
  P  P28  1  0.750000  0.727443  0.139269  1
  P  P29  1  0.750000  0.772557  0.639269  1
  P  P30  1  0.250000  0.589565  0.390121  1
  P  P31  1  0.250000  0.910435  0.890121  1
  P  P32  1  0.750000  0.402435  0.608580  1
  P  P33  1  0.750000  0.097565  0.108580  1
  W  W34  1  0.750000  0.292478  0.012429  1
  W  W35  1  0.750000  0.207522  0.512429  1
