# generated using pymatgen
data_Pm2PaRh3
_symmetry_space_group_name_H-M   'P 1'
_cell_length_a   5.37792816
_cell_length_b   5.94467601
_cell_length_c   5.94447500
_cell_angle_alpha   59.99196444
_cell_angle_beta   56.46361164
_cell_angle_gamma   56.45132143
_symmetry_Int_Tables_number   1
_chemical_formula_structural   Pm2PaRh3
_chemical_formula_sum   'Pm2 Pa1 Rh3'
_cell_volume   126.72385114
_cell_formula_units_Z   1
loop_
 _symmetry_equiv_pos_site_id
 _symmetry_equiv_pos_as_xyz
  1  'x, y, z'
loop_
 _atom_site_type_symbol
 _atom_site_label
 _atom_site_symmetry_multiplicity
 _atom_site_fract_x
 _atom_site_fract_y
 _atom_site_fract_z
 _atom_site_occupancy
  Pm  Pm0  1  0.747894  0.750792  0.750735  1
  Pm  Pm1  1  0.002106  0.999208  0.999265  1
  Pa  Pa2  1  0.875000  0.375000  0.375000  1
  Rh  Rh3  1  0.375000  0.875000  0.375000  1
  Rh  Rh4  1  0.375000  0.375000  0.875000  1
  Rh  Rh5  1  0.375000  0.375000  0.375000  1
