# generated using pymatgen
data_DyY3ReTcB12
_symmetry_space_group_name_H-M   'P 1'
_cell_length_a   3.68999400
_cell_length_b   9.18903287
_cell_length_c   11.57773502
_cell_angle_alpha   90.06198687
_cell_angle_beta   90.00000000
_cell_angle_gamma   90.00000000
_symmetry_Int_Tables_number   1
_chemical_formula_structural   DyY3ReTcB12
_chemical_formula_sum   'Dy2 Y6 Re2 Tc2 B24'
_cell_volume   392.57154431
_cell_formula_units_Z   2
loop_
 _symmetry_equiv_pos_site_id
 _symmetry_equiv_pos_as_xyz
  1  'x, y, z'
loop_
 _atom_site_type_symbol
 _atom_site_label
 _atom_site_symmetry_multiplicity
 _atom_site_fract_x
 _atom_site_fract_y
 _atom_site_fract_z
 _atom_site_occupancy
  Dy  Dy0  1  0.000000  0.443537  0.130602  1
  Dy  Dy1  1  0.000000  0.556463  0.869398  1
  Y  Y2  1  0.000000  0.324031  0.414173  1
  Y  Y3  1  0.000000  0.675969  0.585827  1
  Y  Y4  1  0.000000  0.823492  0.085763  1
  Y  Y5  1  0.000000  0.176508  0.914237  1
  Y  Y6  1  0.000000  0.942067  0.369906  1
  Y  Y7  1  0.000000  0.057933  0.630094  1
  Re  Re8  1  0.000000  0.138699  0.179251  1
  Re  Re9  1  0.000000  0.861301  0.820749  1
  Tc  Tc10  1  0.000000  0.638577  0.320713  1
  Tc  Tc11  1  0.000000  0.361423  0.679287  1
  B  B12  1  0.500000  0.553450  0.432730  1
  B  B13  1  0.500000  0.446550  0.567270  1
  B  B14  1  0.500000  0.053409  0.067197  1
  B  B15  1  0.500000  0.946591  0.932803  1
  B  B16  1  0.500000  0.748482  0.418384  1
  B  B17  1  0.500000  0.251518  0.581616  1
  B  B18  1  0.500000  0.249114  0.081675  1
  B  B19  1  0.500000  0.750886  0.918325  1
  B  B20  1  0.500000  0.791458  0.265392  1
  B  B21  1  0.500000  0.208542  0.734608  1
  B  B22  1  0.500000  0.291846  0.234592  1
  B  B23  1  0.500000  0.708154  0.765408  1
  B  B24  1  0.500000  0.630961  0.185948  1
  B  B25  1  0.500000  0.369039  0.814052  1
  B  B26  1  0.500000  0.130792  0.314307  1
  B  B27  1  0.500000  0.869208  0.685693  1
  B  B28  1  0.500000  0.982318  0.211751  1
  B  B29  1  0.500000  0.017682  0.788249  1
  B  B30  1  0.500000  0.482732  0.288215  1
  B  B31  1  0.500000  0.517268  0.711785  1
  B  B32  1  0.500000  0.600258  0.027933  1
  B  B33  1  0.500000  0.399742  0.972067  1
  B  B34  1  0.500000  0.100252  0.471830  1
  B  B35  1  0.500000  0.899748  0.528170  1
