# generated using pymatgen
data_RbRhF5
_symmetry_space_group_name_H-M   'P 1'
_cell_length_a   5.70811400
_cell_length_b   8.00866600
_cell_length_c   10.82879900
_cell_angle_alpha   90.00000000
_cell_angle_beta   90.00000000
_cell_angle_gamma   90.00000000
_symmetry_Int_Tables_number   1
_chemical_formula_structural   RbRhF5
_chemical_formula_sum   'Rb4 Rh4 F20'
_cell_volume   495.03181636
_cell_formula_units_Z   4
loop_
 _symmetry_equiv_pos_site_id
 _symmetry_equiv_pos_as_xyz
  1  'x, y, z'
loop_
 _atom_site_type_symbol
 _atom_site_label
 _atom_site_symmetry_multiplicity
 _atom_site_fract_x
 _atom_site_fract_y
 _atom_site_fract_z
 _atom_site_occupancy
  Rb  Rb0  1  0.500000  0.887548  0.972280  1
  Rb  Rb1  1  0.500000  0.112452  0.472280  1
  Rb  Rb2  1  0.000000  0.355748  0.122389  1
  Rb  Rb3  1  0.000000  0.644252  0.622389  1
  Rh  Rh4  1  0.000000  0.872941  0.241199  1
  Rh  Rh5  1  0.500000  0.577560  0.336260  1
  Rh  Rh6  1  0.500000  0.422440  0.836260  1
  Rh  Rh7  1  0.000000  0.127059  0.741199  1
  F  F8  1  0.263648  0.543264  0.924711  1
  F  F9  1  0.747809  0.693994  0.232151  1
  F  F10  1  0.234793  0.044345  0.237909  1
  F  F11  1  0.747809  0.306006  0.732151  1
  F  F12  1  0.500000  0.246457  0.957154  1
  F  F13  1  0.765207  0.955655  0.737909  1
  F  F14  1  0.500000  0.593204  0.710808  1
  F  F15  1  0.234793  0.955655  0.737909  1
  F  F16  1  0.000000  0.860805  0.063650  1
  F  F17  1  0.765207  0.044345  0.237909  1
  F  F18  1  0.500000  0.406796  0.210808  1
  F  F19  1  0.736352  0.456736  0.424711  1
  F  F20  1  0.252191  0.693994  0.232151  1
  F  F21  1  0.000000  0.865465  0.418229  1
  F  F22  1  0.000000  0.139195  0.563650  1
  F  F23  1  0.252191  0.306006  0.732151  1
  F  F24  1  0.000000  0.134535  0.918229  1
  F  F25  1  0.263648  0.456736  0.424711  1
  F  F26  1  0.500000  0.753543  0.457154  1
  F  F27  1  0.736352  0.543264  0.924711  1
