# generated using pymatgen
data_Na3Ca2RhO6
_symmetry_space_group_name_H-M   'P 1'
_cell_length_a   10.76661884
_cell_length_b   10.22498881
_cell_length_c   5.71556048
_cell_angle_alpha   79.50113868
_cell_angle_beta   69.03423537
_cell_angle_gamma   31.46462795
_symmetry_Int_Tables_number   1
_chemical_formula_structural   Na3Ca2RhO6
_chemical_formula_sum   'Na6 Ca4 Rh2 O12'
_cell_volume   296.76694418
_cell_formula_units_Z   2
loop_
 _symmetry_equiv_pos_site_id
 _symmetry_equiv_pos_as_xyz
  1  'x, y, z'
loop_
 _atom_site_type_symbol
 _atom_site_label
 _atom_site_symmetry_multiplicity
 _atom_site_fract_x
 _atom_site_fract_y
 _atom_site_fract_z
 _atom_site_occupancy
  Na  Na0  1  0.000000  0.000000  0.000000  1
  Na  Na1  1  0.086294  0.086294  0.413706  1
  Na  Na2  1  0.836294  0.836294  0.163706  1
  Na  Na3  1  0.163706  0.163706  0.836294  1
  Na  Na4  1  0.250000  0.250000  0.250000  1
  Na  Na5  1  0.413706  0.413706  0.086294  1
  Ca  Ca6  1  0.580713  0.580713  0.919287  1
  Ca  Ca7  1  0.919287  0.919287  0.580713  1
  Ca  Ca8  1  0.669287  0.669287  0.330713  1
  Ca  Ca9  1  0.330713  0.330713  0.669287  1
  Rh  Rh10  1  0.750000  0.750000  0.750000  1
  Rh  Rh11  1  0.500000  0.500000  0.500000  1
  O  O12  1  0.285268  0.714732  0.285268  1
  O  O13  1  0.714732  0.285268  0.714732  1
  O  O14  1  0.964732  0.535268  0.964732  1
  O  O15  1  0.535268  0.964732  0.535268  1
  O  O16  1  0.203036  0.647767  0.794075  1
  O  O17  1  0.355122  0.794075  0.647767  1
  O  O18  1  0.794075  0.355122  0.203036  1
  O  O19  1  0.647767  0.203036  0.355122  1
  O  O20  1  0.602233  0.046964  0.894878  1
  O  O21  1  0.894878  0.455925  0.602233  1
  O  O22  1  0.455925  0.894878  0.046964  1
  O  O23  1  0.046964  0.602233  0.455925  1
