# generated using pymatgen
data_Dy8CdCoNiAg
_symmetry_space_group_name_H-M   'P 1'
_cell_length_a   9.46628722
_cell_length_b   9.46628639
_cell_length_c   9.46636000
_cell_angle_alpha   59.99974279
_cell_angle_beta   59.99974566
_cell_angle_gamma   60.21129765
_symmetry_Int_Tables_number   1
_chemical_formula_structural   Dy8CdCoNiAg
_chemical_formula_sum   'Dy16 Cd2 Co2 Ni2 Ag2'
_cell_volume   600.77848583
_cell_formula_units_Z   2
loop_
 _symmetry_equiv_pos_site_id
 _symmetry_equiv_pos_as_xyz
  1  'x, y, z'
loop_
 _atom_site_type_symbol
 _atom_site_label
 _atom_site_symmetry_multiplicity
 _atom_site_fract_x
 _atom_site_fract_y
 _atom_site_fract_z
 _atom_site_occupancy
  Dy  Dy0  1  0.596535  0.596535  0.600150  1
  Dy  Dy1  1  0.596535  0.596535  0.206782  1
  Dy  Dy2  1  0.597033  0.205593  0.598687  1
  Dy  Dy3  1  0.205593  0.597033  0.598687  1
  Dy  Dy4  1  0.064463  0.437813  0.439119  1
  Dy  Dy5  1  0.437813  0.064463  0.058604  1
  Dy  Dy6  1  0.437813  0.064463  0.439119  1
  Dy  Dy7  1  0.064463  0.437813  0.058604  1
  Dy  Dy8  1  0.438020  0.438020  0.061980  1
  Dy  Dy9  1  0.060655  0.060655  0.439345  1
  Dy  Dy10  1  0.184439  0.811975  0.814842  1
  Dy  Dy11  1  0.811975  0.184439  0.188743  1
  Dy  Dy12  1  0.811975  0.184439  0.814842  1
  Dy  Dy13  1  0.184439  0.811975  0.188743  1
  Dy  Dy14  1  0.812393  0.812393  0.187607  1
  Dy  Dy15  1  0.186300  0.186300  0.813700  1
  Cd  Cd16  1  0.831368  0.509924  0.829354  1
  Cd  Cd17  1  0.509924  0.831368  0.829354  1
  Co  Co18  1  0.392635  0.392635  0.390873  1
  Co  Co19  1  0.392635  0.392635  0.823857  1
  Ni  Ni20  1  0.392610  0.823980  0.391705  1
  Ni  Ni21  1  0.823980  0.392610  0.391705  1
  Ag  Ag22  1  0.833201  0.833201  0.831950  1
  Ag  Ag23  1  0.833201  0.833201  0.501647  1
