# generated using pymatgen
data_K4Cd3FeP4(O7F2)2
_symmetry_space_group_name_H-M   'P 1'
_cell_length_a   7.11780400
_cell_length_b   10.84349800
_cell_length_c   11.69951300
_cell_angle_alpha   90.00000000
_cell_angle_beta   90.00000000
_cell_angle_gamma   90.00000000
_symmetry_Int_Tables_number   1
_chemical_formula_structural   K4Cd3FeP4(O7F2)2
_chemical_formula_sum   'K8 Cd6 Fe2 P8 O28 F8'
_cell_volume   902.99056565
_cell_formula_units_Z   2
loop_
 _symmetry_equiv_pos_site_id
 _symmetry_equiv_pos_as_xyz
  1  'x, y, z'
loop_
 _atom_site_type_symbol
 _atom_site_label
 _atom_site_symmetry_multiplicity
 _atom_site_fract_x
 _atom_site_fract_y
 _atom_site_fract_z
 _atom_site_occupancy
  K  K0  1  0.504153  0.063668  0.825310  1
  K  K1  1  0.995847  0.563668  0.674690  1
  K  K2  1  0.001711  0.936568  0.671479  1
  K  K3  1  0.498289  0.436568  0.828521  1
  K  K4  1  0.495847  0.936332  0.174690  1
  K  K5  1  0.004153  0.436332  0.325310  1
  K  K6  1  0.998289  0.063432  0.328521  1
  K  K7  1  0.501711  0.563432  0.171479  1
  Cd  Cd8  1  0.002750  0.253007  0.832885  1
  Cd  Cd9  1  0.497250  0.753007  0.667115  1
  Cd  Cd10  1  0.997250  0.746993  0.167115  1
  Cd  Cd11  1  0.502750  0.246993  0.332885  1
  Cd  Cd12  1  0.000000  0.000000  0.000000  1
  Cd  Cd13  1  0.500000  0.500000  0.500000  1
  Fe  Fe14  1  0.500000  0.000000  0.500000  1
  Fe  Fe15  1  0.000000  0.500000  0.000000  1
  P  P16  1  0.215785  0.244267  0.575839  1
  P  P17  1  0.284215  0.744267  0.924161  1
  P  P18  1  0.713203  0.746814  0.920773  1
  P  P19  1  0.786797  0.246814  0.579227  1
  P  P20  1  0.784215  0.755733  0.424161  1
  P  P21  1  0.715785  0.255733  0.075839  1
  P  P22  1  0.286797  0.253186  0.079227  1
  P  P23  1  0.213203  0.753186  0.420773  1
  O  O24  1  0.000157  0.240850  0.523688  1
  O  O25  1  0.499843  0.740850  0.976312  1
  O  O26  1  0.999843  0.759150  0.476312  1
  O  O27  1  0.500157  0.259150  0.023688  1
  O  O28  1  0.177139  0.330050  0.990214  1
  O  O29  1  0.322861  0.830050  0.509786  1
  O  O30  1  0.685394  0.676699  0.516634  1
  O  O31  1  0.814606  0.176699  0.983366  1
  O  O32  1  0.822861  0.669950  0.009786  1
  O  O33  1  0.677139  0.169950  0.490214  1
  O  O34  1  0.314606  0.323301  0.483366  1
  O  O35  1  0.185394  0.823301  0.016634  1
  O  O36  1  0.280341  0.109978  0.580319  1
  O  O37  1  0.219659  0.609978  0.919681  1
  O  O38  1  0.765087  0.883580  0.915221  1
  O  O39  1  0.734913  0.383580  0.584779  1
  O  O40  1  0.719659  0.890022  0.419681  1
  O  O41  1  0.780341  0.390022  0.080319  1
  O  O42  1  0.234913  0.116420  0.084779  1
  O  O43  1  0.265087  0.616420  0.415221  1
  O  O44  1  0.211002  0.308755  0.692348  1
  O  O45  1  0.288998  0.808755  0.807652  1
  O  O46  1  0.706767  0.685386  0.802837  1
  O  O47  1  0.793233  0.185386  0.697163  1
  O  O48  1  0.788998  0.691245  0.307652  1
  O  O49  1  0.711002  0.191245  0.192348  1
  O  O50  1  0.293233  0.314614  0.197163  1
  O  O51  1  0.206767  0.814614  0.302837  1
  F  F52  1  0.131508  0.065769  0.837627  1
  F  F53  1  0.368492  0.565769  0.662373  1
  F  F54  1  0.619651  0.941405  0.650296  1
  F  F55  1  0.880349  0.441405  0.849704  1
  F  F56  1  0.868492  0.934231  0.162373  1
  F  F57  1  0.631508  0.434231  0.337627  1
  F  F58  1  0.380349  0.058595  0.349704  1
  F  F59  1  0.119651  0.558595  0.150296  1
