# generated using pymatgen
data_Dy4InCo
_symmetry_space_group_name_H-M   'P 1'
_cell_length_a   9.53802400
_cell_length_b   9.53802539
_cell_length_c   9.53802400
_cell_angle_alpha   120.00000212
_cell_angle_beta   90.00000000
_cell_angle_gamma   120.00000212
_symmetry_Int_Tables_number   1
_chemical_formula_structural   Dy4InCo
_chemical_formula_sum   'Dy16 In4 Co4'
_cell_volume   613.56456541
_cell_formula_units_Z   4
loop_
 _symmetry_equiv_pos_site_id
 _symmetry_equiv_pos_as_xyz
  1  'x, y, z'
loop_
 _atom_site_type_symbol
 _atom_site_label
 _atom_site_symmetry_multiplicity
 _atom_site_fract_x
 _atom_site_fract_y
 _atom_site_fract_z
 _atom_site_occupancy
  Dy  Dy0  1  0.189406  0.000000  0.189406  1
  Dy  Dy1  1  0.189406  0.378811  0.189406  1
  Dy  Dy2  1  0.810595  0.000000  0.189406  1
  Dy  Dy3  1  0.652870  0.305740  0.347130  1
  Dy  Dy4  1  0.041390  0.694260  0.347130  1
  Dy  Dy5  1  0.652870  0.694260  0.347130  1
  Dy  Dy6  1  0.060811  0.121622  0.560810  1
  Dy  Dy7  1  0.060811  0.499999  0.560810  1
  Dy  Dy8  1  0.439189  0.499999  0.560810  1
  Dy  Dy9  1  0.189406  0.000000  0.810595  1
  Dy  Dy10  1  0.810595  0.000000  0.810595  1
  Dy  Dy11  1  0.810595  0.621189  0.810595  1
  Dy  Dy12  1  0.060810  0.499999  0.939189  1
  Dy  Dy13  1  0.439189  0.499999  0.939189  1
  Dy  Dy14  1  0.439189  0.878378  0.939189  1
  Dy  Dy15  1  0.652870  0.305740  0.958611  1
  In  In16  1  0.417480  0.834958  0.252438  1
  In  In17  1  0.417480  0.165042  0.582520  1
  In  In18  1  0.747562  0.165042  0.582520  1
  In  In19  1  0.417480  0.834958  0.582520  1
  Co  Co20  1  0.421646  0.281098  0.140549  1
  Co  Co21  1  0.859451  0.281098  0.140549  1
  Co  Co22  1  0.859451  0.718902  0.140549  1
  Co  Co23  1  0.859451  0.718902  0.578354  1
