# generated using pymatgen
data_EuCu4BiO8
_symmetry_space_group_name_H-M   'P 1'
_cell_length_a   6.40212125
_cell_length_b   6.40212102
_cell_length_c   6.40212092
_cell_angle_alpha   125.52121410
_cell_angle_beta   125.52121647
_cell_angle_gamma   80.67648564
_symmetry_Int_Tables_number   1
_chemical_formula_structural   EuCu4BiO8
_chemical_formula_sum   'Eu1 Cu4 Bi1 O8'
_cell_volume   167.61035887
_cell_formula_units_Z   1
loop_
 _symmetry_equiv_pos_site_id
 _symmetry_equiv_pos_as_xyz
  1  'x, y, z'
loop_
 _atom_site_type_symbol
 _atom_site_label
 _atom_site_symmetry_multiplicity
 _atom_site_fract_x
 _atom_site_fract_y
 _atom_site_fract_z
 _atom_site_occupancy
  Eu  Eu0  1  0.750000  0.250000  0.500000  1
  Cu  Cu1  1  0.375759  0.625128  0.251002  1
  Cu  Cu2  1  0.374126  0.124757  0.748998  1
  Cu  Cu3  1  0.374872  0.625874  0.750631  1
  Cu  Cu4  1  0.875243  0.624241  0.249369  1
  Bi  Bi5  1  0.000000  0.000000  0.000000  1
  O  O6  1  0.729784  0.302320  0.129339  1
  O  O7  1  0.172980  0.600445  0.870661  1
  O  O8  1  0.020682  0.945792  0.369065  1
  O  O9  1  0.576727  0.651617  0.630935  1
  O  O10  1  0.054208  0.423273  0.074890  1
  O  O11  1  0.348383  0.979318  0.925110  1
  O  O12  1  0.399555  0.270216  0.572535  1
  O  O13  1  0.697680  0.827020  0.427465  1
