# generated using pymatgen
data_SrAc2Ho(AsPt)4
_symmetry_space_group_name_H-M   'P 1'
_cell_length_a   4.40725500
_cell_length_b   4.40725630
_cell_length_c   16.60255400
_cell_angle_alpha   90.00000000
_cell_angle_beta   90.00000000
_cell_angle_gamma   119.99999777
_symmetry_Int_Tables_number   1
_chemical_formula_structural   SrAc2Ho(AsPt)4
_chemical_formula_sum   'Sr1 Ac2 Ho1 As4 Pt4'
_cell_volume   279.28141038
_cell_formula_units_Z   1
loop_
 _symmetry_equiv_pos_site_id
 _symmetry_equiv_pos_as_xyz
  1  'x, y, z'
loop_
 _atom_site_type_symbol
 _atom_site_label
 _atom_site_symmetry_multiplicity
 _atom_site_fract_x
 _atom_site_fract_y
 _atom_site_fract_z
 _atom_site_occupancy
  Sr  Sr0  1  0.000000  0.000000  0.510020  1
  Ac  Ac1  1  0.000000  0.000000  0.988366  1
  Ac  Ac2  1  0.000000  0.000000  0.248238  1
  Ho  Ho3  1  0.000000  0.000000  0.752016  1
  As  As4  1  0.333333  0.666667  0.871277  1
  As  As5  1  0.666667  0.333333  0.118186  1
  As  As6  1  0.666667  0.333333  0.379085  1
  As  As7  1  0.333333  0.666667  0.635029  1
  Pt  Pt8  1  0.333333  0.666667  0.376128  1
  Pt  Pt9  1  0.666667  0.333333  0.654902  1
  Pt  Pt10  1  0.666667  0.333333  0.849835  1
  Pt  Pt11  1  0.333333  0.666667  0.116917  1
