# generated using pymatgen
data_NaYb5(Mn3N5)2
_symmetry_space_group_name_H-M   'P 1'
_cell_length_a   5.46014805
_cell_length_b   6.81473468
_cell_length_c   8.14791377
_cell_angle_alpha   108.19943002
_cell_angle_beta   104.74256829
_cell_angle_gamma   95.39103211
_symmetry_Int_Tables_number   1
_chemical_formula_structural   NaYb5(Mn3N5)2
_chemical_formula_sum   'Na1 Yb5 Mn6 N10'
_cell_volume   273.52314490
_cell_formula_units_Z   1
loop_
 _symmetry_equiv_pos_site_id
 _symmetry_equiv_pos_as_xyz
  1  'x, y, z'
loop_
 _atom_site_type_symbol
 _atom_site_label
 _atom_site_symmetry_multiplicity
 _atom_site_fract_x
 _atom_site_fract_y
 _atom_site_fract_z
 _atom_site_occupancy
  Na  Na0  1  0.774597  0.425441  0.601114  1
  Yb  Yb1  1  0.166920  0.576322  0.383018  1
  Yb  Yb2  1  0.674274  0.872938  0.887113  1
  Yb  Yb3  1  0.333034  0.134612  0.119600  1
  Yb  Yb4  1  0.648792  0.673114  0.198907  1
  Yb  Yb5  1  0.323773  0.336613  0.788266  1
  Mn  Mn6  1  0.896664  0.322710  0.970849  1
  Mn  Mn7  1  0.091739  0.676610  0.029673  1
  Mn  Mn8  1  0.705486  0.950439  0.571559  1
  Mn  Mn9  1  0.312264  0.036774  0.428187  1
  Mn  Mn10  1  0.117971  0.881562  0.705186  1
  Mn  Mn11  1  0.897918  0.120883  0.303911  1
  N  N12  1  0.955439  0.107112  0.794435  1
  N  N13  1  0.046512  0.881084  0.217267  1
  N  N14  1  0.843151  0.716972  0.506161  1
  N  N15  1  0.198907  0.287894  0.478102  1
  N  N16  1  0.745488  0.536726  0.910519  1
  N  N17  1  0.244462  0.462194  0.090296  1
  N  N18  1  0.388542  0.932881  0.619809  1
  N  N19  1  0.624223  0.054504  0.379697  1
  N  N20  1  0.214990  0.779193  0.885716  1
  N  N21  1  0.794853  0.233420  0.130617  1
