# generated using pymatgen
data_PrNd2Mn(Co4P3)2
_symmetry_space_group_name_H-M   'P 1'
_cell_length_a   3.77664200
_cell_length_b   10.73235200
_cell_length_c   12.45994400
_cell_angle_alpha   90.00000000
_cell_angle_beta   90.00000000
_cell_angle_gamma   90.00000000
_symmetry_Int_Tables_number   1
_chemical_formula_structural   PrNd2Mn(Co4P3)2
_chemical_formula_sum   'Pr2 Nd4 Mn2 Co16 P12'
_cell_volume   505.02958167
_cell_formula_units_Z   2
loop_
 _symmetry_equiv_pos_site_id
 _symmetry_equiv_pos_as_xyz
  1  'x, y, z'
loop_
 _atom_site_type_symbol
 _atom_site_label
 _atom_site_symmetry_multiplicity
 _atom_site_fract_x
 _atom_site_fract_y
 _atom_site_fract_z
 _atom_site_occupancy
  Pr  Pr0  1  0.000000  0.500000  0.522531  1
  Pr  Pr1  1  0.500000  0.000000  0.477469  1
  Nd  Nd2  1  0.500000  0.818579  0.205139  1
  Nd  Nd3  1  0.500000  0.181421  0.205139  1
  Nd  Nd4  1  0.000000  0.681421  0.794861  1
  Nd  Nd5  1  0.000000  0.318579  0.794861  1
  Mn  Mn6  1  0.500000  0.500000  0.152903  1
  Mn  Mn7  1  0.000000  0.000000  0.847097  1
  Co  Co8  1  0.500000  0.500000  0.705357  1
  Co  Co9  1  0.000000  0.000000  0.294643  1
  Co  Co10  1  0.000000  0.500000  0.988887  1
  Co  Co11  1  0.500000  0.000000  0.011113  1
  Co  Co12  1  0.500000  0.333037  0.995969  1
  Co  Co13  1  0.500000  0.666963  0.995969  1
  Co  Co14  1  0.000000  0.166963  0.004031  1
  Co  Co15  1  0.000000  0.833037  0.004031  1
  Co  Co16  1  0.500000  0.296680  0.430007  1
  Co  Co17  1  0.500000  0.703320  0.430007  1
  Co  Co18  1  0.000000  0.203320  0.569993  1
  Co  Co19  1  0.000000  0.796680  0.569993  1
  Co  Co20  1  0.500000  0.880974  0.710272  1
  Co  Co21  1  0.500000  0.119026  0.710272  1
  Co  Co22  1  0.000000  0.619026  0.289728  1
  Co  Co23  1  0.000000  0.380974  0.289728  1
  P  P24  1  0.500000  0.500000  0.887718  1
  P  P25  1  0.000000  0.000000  0.112282  1
  P  P26  1  0.500000  0.500000  0.341858  1
  P  P27  1  0.000000  0.000000  0.658142  1
  P  P28  1  0.500000  0.304847  0.614409  1
  P  P29  1  0.500000  0.695153  0.614409  1
  P  P30  1  0.000000  0.195153  0.385591  1
  P  P31  1  0.000000  0.804847  0.385591  1
  P  P32  1  0.500000  0.846550  0.895615  1
  P  P33  1  0.500000  0.153450  0.895615  1
  P  P34  1  0.000000  0.653450  0.104385  1
  P  P35  1  0.000000  0.346550  0.104385  1
