# generated using pymatgen
data_LiPa3Sb5
_symmetry_space_group_name_H-M   'P 1'
_cell_length_a   9.28072500
_cell_length_b   9.28072385
_cell_length_c   6.10890700
_cell_angle_alpha   90.00000000
_cell_angle_beta   90.00000000
_cell_angle_gamma   120.00000766
_symmetry_Int_Tables_number   1
_chemical_formula_structural   LiPa3Sb5
_chemical_formula_sum   'Li2 Pa6 Sb10'
_cell_volume   455.67779524
_cell_formula_units_Z   2
loop_
 _symmetry_equiv_pos_site_id
 _symmetry_equiv_pos_as_xyz
  1  'x, y, z'
loop_
 _atom_site_type_symbol
 _atom_site_label
 _atom_site_symmetry_multiplicity
 _atom_site_fract_x
 _atom_site_fract_y
 _atom_site_fract_z
 _atom_site_occupancy
  Li  Li0  1  0.000000  0.000000  0.500000  1
  Li  Li1  1  0.000000  0.000000  0.000000  1
  Pa  Pa2  1  0.615616  0.000000  0.750000  1
  Pa  Pa3  1  0.384384  0.000000  0.250000  1
  Pa  Pa4  1  0.000000  0.615616  0.750000  1
  Pa  Pa5  1  0.000000  0.384384  0.250000  1
  Pa  Pa6  1  0.384384  0.384384  0.750000  1
  Pa  Pa7  1  0.615616  0.615616  0.250000  1
  Sb  Sb8  1  0.265047  0.000000  0.750000  1
  Sb  Sb9  1  0.734953  0.000000  0.250000  1
  Sb  Sb10  1  0.000000  0.265047  0.750000  1
  Sb  Sb11  1  0.000000  0.734953  0.250000  1
  Sb  Sb12  1  0.734953  0.734953  0.750000  1
  Sb  Sb13  1  0.265047  0.265047  0.250000  1
  Sb  Sb14  1  0.333333  0.666667  0.500000  1
  Sb  Sb15  1  0.666667  0.333333  0.500000  1
  Sb  Sb16  1  0.666667  0.333333  0.000000  1
  Sb  Sb17  1  0.333333  0.666667  0.000000  1
