# generated using pymatgen
data_Dy4HoBi2Ir
_symmetry_space_group_name_H-M   'P 1'
_cell_length_a   8.00043345
_cell_length_b   9.00051812
_cell_length_c   12.51745388
_cell_angle_alpha   90.01853967
_cell_angle_beta   89.96134213
_cell_angle_gamma   90.00152615
_symmetry_Int_Tables_number   1
_chemical_formula_structural   Dy4HoBi2Ir
_chemical_formula_sum   'Dy16 Ho4 Bi8 Ir4'
_cell_volume   901.35714532
_cell_formula_units_Z   4
loop_
 _symmetry_equiv_pos_site_id
 _symmetry_equiv_pos_as_xyz
  1  'x, y, z'
loop_
 _atom_site_type_symbol
 _atom_site_label
 _atom_site_symmetry_multiplicity
 _atom_site_fract_x
 _atom_site_fract_y
 _atom_site_fract_z
 _atom_site_occupancy
  Dy  Dy0  1  0.839181  0.749924  0.794047  1
  Dy  Dy1  1  0.160693  0.250023  0.205967  1
  Dy  Dy2  1  0.339140  0.250084  0.706071  1
  Dy  Dy3  1  0.661003  0.749976  0.293911  1
  Dy  Dy4  1  0.375614  0.749944  0.691361  1
  Dy  Dy5  1  0.624595  0.250105  0.308632  1
  Dy  Dy6  1  0.875489  0.250057  0.808794  1
  Dy  Dy7  1  0.124270  0.749896  0.191177  1
  Dy  Dy8  1  0.947814  0.749886  0.501708  1
  Dy  Dy9  1  0.051922  0.250082  0.498311  1
  Dy  Dy10  1  0.447959  0.250107  0.998284  1
  Dy  Dy11  1  0.552338  0.749923  0.001732  1
  Dy  Dy12  1  0.676365  0.041802  0.566215  1
  Dy  Dy13  1  0.323605  0.958284  0.433820  1
  Dy  Dy14  1  0.176170  0.958295  0.933893  1
  Dy  Dy15  1  0.323790  0.541756  0.433853  1
  Ho  Ho16  1  0.824388  0.041716  0.066064  1
  Ho  Ho17  1  0.675678  0.458170  0.566090  1
  Ho  Ho18  1  0.824536  0.458241  0.066016  1
  Ho  Ho19  1  0.175468  0.541723  0.934019  1
  Bi  Bi20  1  0.566488  0.491598  0.826553  1
  Bi  Bi21  1  0.433538  0.508359  0.173373  1
  Bi  Bi22  1  0.066565  0.508366  0.673468  1
  Bi  Bi23  1  0.433492  0.991645  0.173389  1
  Bi  Bi24  1  0.933274  0.491569  0.326482  1
  Bi  Bi25  1  0.566673  0.008423  0.826556  1
  Bi  Bi26  1  0.933226  0.008428  0.326472  1
  Bi  Bi27  1  0.066746  0.991613  0.673453  1
  Ir  Ir28  1  0.571623  0.749727  0.508861  1
  Ir  Ir29  1  0.428993  0.250221  0.491280  1
  Ir  Ir30  1  0.070793  0.250286  0.991380  1
  Ir  Ir31  1  0.928571  0.749773  0.008768  1
