# generated using pymatgen
data_U4Re4(Ge2Ru)3
_symmetry_space_group_name_H-M   'P 1'
_cell_length_a   7.23876777
_cell_length_b   7.21921650
_cell_length_c   7.21921572
_cell_angle_alpha   109.05896318
_cell_angle_beta   109.62240849
_cell_angle_gamma   109.62241039
_symmetry_Int_Tables_number   1
_chemical_formula_structural   U4Re4(Ge2Ru)3
_chemical_formula_sum   'U4 Re4 Ge6 Ru3'
_cell_volume   290.80367260
_cell_formula_units_Z   1
loop_
 _symmetry_equiv_pos_site_id
 _symmetry_equiv_pos_as_xyz
  1  'x, y, z'
loop_
 _atom_site_type_symbol
 _atom_site_label
 _atom_site_symmetry_multiplicity
 _atom_site_fract_x
 _atom_site_fract_y
 _atom_site_fract_z
 _atom_site_occupancy
  U  U0  1  0.004520  0.002260  0.502260  1
  U  U1  1  0.004520  0.502260  0.002260  1
  U  U2  1  0.495978  0.993611  0.993611  1
  U  U3  1  0.495978  0.502367  0.502367  1
  Re  Re4  1  0.500450  0.250225  0.750225  1
  Re  Re5  1  0.249289  0.499321  0.749969  1
  Re  Re6  1  0.249289  0.749969  0.499321  1
  Re  Re7  1  0.500450  0.750225  0.250225  1
  Ge  Ge8  1  0.696210  0.693933  0.002276  1
  Ge  Ge9  1  0.308514  0.002709  0.305805  1
  Ge  Ge10  1  0.995515  0.304330  0.304330  1
  Ge  Ge11  1  0.308514  0.305805  0.002709  1
  Ge  Ge12  1  0.696210  0.002276  0.693933  1
  Ge  Ge13  1  0.995515  0.691185  0.691185  1
  Ru  Ru14  1  0.749642  0.250252  0.499390  1
  Ru  Ru15  1  0.749642  0.499390  0.250252  1
  Ru  Ru16  1  0.999765  0.999883  0.999883  1
