# generated using pymatgen
data_DyY3Al2(B2Rh5)2
_symmetry_space_group_name_H-M   'P 1'
_cell_length_a   9.53442506
_cell_length_b   9.53442506
_cell_length_c   3.18509600
_cell_angle_alpha   90.00000000
_cell_angle_beta   90.00000000
_cell_angle_gamma   90.01263167
_symmetry_Int_Tables_number   1
_chemical_formula_structural   DyY3Al2(B2Rh5)2
_chemical_formula_sum   'Dy1 Y3 Al2 B4 Rh10'
_cell_volume   289.54197674
_cell_formula_units_Z   1
loop_
 _symmetry_equiv_pos_site_id
 _symmetry_equiv_pos_as_xyz
  1  'x, y, z'
loop_
 _atom_site_type_symbol
 _atom_site_label
 _atom_site_symmetry_multiplicity
 _atom_site_fract_x
 _atom_site_fract_y
 _atom_site_fract_z
 _atom_site_occupancy
  Dy  Dy0  1  0.825057  0.325057  0.000000  1
  Y  Y1  1  0.324930  0.175078  0.000000  1
  Y  Y2  1  0.675078  0.824930  0.000000  1
  Y  Y3  1  0.175030  0.675030  0.000000  1
  Al  Al4  1  0.000014  0.999976  0.000000  1
  Al  Al5  1  0.499976  0.500014  0.000000  1
  B  B6  1  0.621902  0.121902  0.000000  1
  B  B7  1  0.121955  0.378056  0.000000  1
  B  B8  1  0.878056  0.621955  0.000000  1
  B  B9  1  0.378066  0.878066  0.000000  1
  Rh  Rh10  1  0.069778  0.218941  0.500000  1
  Rh  Rh11  1  0.218740  0.929864  0.500000  1
  Rh  Rh12  1  0.781292  0.070669  0.500000  1
  Rh  Rh13  1  0.929826  0.781232  0.500000  1
  Rh  Rh14  1  0.429864  0.718740  0.500000  1
  Rh  Rh15  1  0.570669  0.281292  0.500000  1
  Rh  Rh16  1  0.718941  0.569778  0.500000  1
  Rh  Rh17  1  0.281232  0.429826  0.500000  1
  Rh  Rh18  1  0.500042  0.000042  0.500000  1
  Rh  Rh19  1  0.999553  0.499553  0.500000  1
