# generated using pymatgen
data_Y3Er3Al19Si5Os8
_symmetry_space_group_name_H-M   'P 1'
_cell_length_a   8.69879300
_cell_length_b   8.68406310
_cell_length_c   9.58302400
_cell_angle_alpha   90.00000000
_cell_angle_beta   90.00000000
_cell_angle_gamma   120.05612949
_symmetry_Int_Tables_number   1
_chemical_formula_structural   Y3Er3Al19Si5Os8
_chemical_formula_sum   'Y3 Er3 Al19 Si5 Os8'
_cell_volume   626.56951414
_cell_formula_units_Z   1
loop_
 _symmetry_equiv_pos_site_id
 _symmetry_equiv_pos_as_xyz
  1  'x, y, z'
loop_
 _atom_site_type_symbol
 _atom_site_label
 _atom_site_symmetry_multiplicity
 _atom_site_fract_x
 _atom_site_fract_y
 _atom_site_fract_z
 _atom_site_occupancy
  Y  Y0  1  0.806243  0.612485  0.750000  1
  Y  Y1  1  0.388734  0.194711  0.750000  1
  Y  Y2  1  0.805978  0.194711  0.750000  1
  Er  Er3  1  0.195258  0.390519  0.250000  1
  Er  Er4  1  0.606692  0.805452  0.250000  1
  Er  Er5  1  0.198758  0.805452  0.250000  1
  Al  Al6  1  0.165122  0.330243  0.576994  1
  Al  Al7  1  0.834787  0.669572  0.420965  1
  Al  Al8  1  0.669213  0.835155  0.575604  1
  Al  Al9  1  0.834787  0.669572  0.079035  1
  Al  Al10  1  0.328820  0.165309  0.421383  1
  Al  Al11  1  0.165122  0.330243  0.923006  1
  Al  Al12  1  0.165942  0.835155  0.575604  1
  Al  Al13  1  0.328820  0.165309  0.078617  1
  Al  Al14  1  0.836488  0.165309  0.421383  1
  Al  Al15  1  0.669213  0.835155  0.924396  1
  Al  Al16  1  0.836488  0.165309  0.078617  1
  Al  Al17  1  0.165942  0.835155  0.924396  1
  Al  Al18  1  0.436977  0.873952  0.750000  1
  Al  Al19  1  0.872993  0.433431  0.250000  1
  Al  Al20  1  0.128061  0.564802  0.750000  1
  Al  Al21  1  0.560438  0.433431  0.250000  1
  Al  Al22  1  0.436740  0.564802  0.750000  1
  Al  Al23  1  0.999603  0.999205  0.250000  1
  Al  Al24  1  0.000433  0.000865  0.750000  1
  Si  Si25  1  0.332519  0.665038  0.039318  1
  Si  Si26  1  0.667375  0.334747  0.961804  1
  Si  Si27  1  0.667375  0.334747  0.538196  1
  Si  Si28  1  0.332519  0.665038  0.460682  1
  Si  Si29  1  0.563622  0.127244  0.250000  1
  Os  Os30  1  0.500514  0.001027  0.007383  1
  Os  Os31  1  0.999586  0.499330  0.001353  1
  Os  Os32  1  0.500514  0.001027  0.492617  1
  Os  Os33  1  0.499744  0.499330  0.001353  1
  Os  Os34  1  0.999586  0.499330  0.498647  1
  Os  Os35  1  0.499744  0.499330  0.498647  1
  Os  Os36  1  0.999627  0.999253  0.999965  1
  Os  Os37  1  0.999627  0.999253  0.500035  1
