# generated using pymatgen
data_Ba4TbY(CoO5)2
_symmetry_space_group_name_H-M   'P 1'
_cell_length_a   6.18035400
_cell_length_b   7.99147185
_cell_length_c   12.52626464
_cell_angle_alpha   91.32399317
_cell_angle_beta   90.00000000
_cell_angle_gamma   90.00000000
_symmetry_Int_Tables_number   1
_chemical_formula_structural   Ba4TbY(CoO5)2
_chemical_formula_sum   'Ba8 Tb2 Y2 Co4 O20'
_cell_volume   618.50860376
_cell_formula_units_Z   2
loop_
 _symmetry_equiv_pos_site_id
 _symmetry_equiv_pos_as_xyz
  1  'x, y, z'
loop_
 _atom_site_type_symbol
 _atom_site_label
 _atom_site_symmetry_multiplicity
 _atom_site_fract_x
 _atom_site_fract_y
 _atom_site_fract_z
 _atom_site_occupancy
  Ba  Ba0  1  0.762035  0.489904  0.359556  1
  Ba  Ba1  1  0.737965  0.989904  0.859556  1
  Ba  Ba2  1  0.238665  0.510023  0.640434  1
  Ba  Ba3  1  0.261335  0.010023  0.140434  1
  Ba  Ba4  1  0.755622  0.993861  0.382900  1
  Ba  Ba5  1  0.744378  0.493861  0.882900  1
  Ba  Ba6  1  0.244955  0.006280  0.617247  1
  Ba  Ba7  1  0.255045  0.506280  0.117247  1
  Tb  Tb8  1  0.747715  0.262430  0.628817  1
  Tb  Tb9  1  0.752285  0.762430  0.128817  1
  Y  Y10  1  0.252559  0.737842  0.371458  1
  Y  Y11  1  0.247441  0.237842  0.871458  1
  Co  Co12  1  0.739264  0.745401  0.591370  1
  Co  Co13  1  0.760736  0.245401  0.091370  1
  Co  Co14  1  0.260945  0.254425  0.408060  1
  Co  Co15  1  0.239055  0.754425  0.908060  1
  O  O16  1  0.759270  0.969338  0.634108  1
  O  O17  1  0.740730  0.469338  0.134108  1
  O  O18  1  0.240584  0.030379  0.365491  1
  O  O19  1  0.259416  0.530379  0.865491  1
  O  O20  1  0.733672  0.054324  0.169246  1
  O  O21  1  0.766328  0.554324  0.669246  1
  O  O22  1  0.266434  0.946195  0.830741  1
  O  O23  1  0.233566  0.446195  0.330741  1
  O  O24  1  0.549066  0.746139  0.274940  1
  O  O25  1  0.950934  0.246139  0.774940  1
  O  O26  1  0.450730  0.253514  0.725928  1
  O  O27  1  0.049270  0.753514  0.225928  1
  O  O28  1  0.536801  0.230078  0.984815  1
  O  O29  1  0.963199  0.730078  0.484815  1
  O  O30  1  0.462082  0.769872  0.014930  1
  O  O31  1  0.037918  0.269872  0.514930  1
  O  O32  1  0.037281  0.236294  0.023120  1
  O  O33  1  0.462719  0.736294  0.523120  1
  O  O34  1  0.963382  0.763701  0.976837  1
  O  O35  1  0.536618  0.263701  0.476837  1
