# generated using pymatgen
data_Tb3Hf2Pt3O
_symmetry_space_group_name_H-M   'P 1'
_cell_length_a   8.45096300
_cell_length_b   8.45096356
_cell_length_c   5.70055500
_cell_angle_alpha   90.00000000
_cell_angle_beta   90.00000000
_cell_angle_gamma   120.00000173
_symmetry_Int_Tables_number   1
_chemical_formula_structural   Tb3Hf2Pt3O
_chemical_formula_sum   'Tb6 Hf4 Pt6 O2'
_cell_volume   352.58204594
_cell_formula_units_Z   2
loop_
 _symmetry_equiv_pos_site_id
 _symmetry_equiv_pos_as_xyz
  1  'x, y, z'
loop_
 _atom_site_type_symbol
 _atom_site_label
 _atom_site_symmetry_multiplicity
 _atom_site_fract_x
 _atom_site_fract_y
 _atom_site_fract_z
 _atom_site_occupancy
  Tb  Tb0  1  0.000000  0.760216  0.750000  1
  Tb  Tb1  1  0.000000  0.239784  0.250000  1
  Tb  Tb2  1  0.239784  0.239784  0.750000  1
  Tb  Tb3  1  0.239784  0.000000  0.250000  1
  Tb  Tb4  1  0.760216  0.760216  0.250000  1
  Tb  Tb5  1  0.760216  0.000000  0.750000  1
  Hf  Hf6  1  0.333333  0.666667  0.000000  1
  Hf  Hf7  1  0.333333  0.666667  0.500000  1
  Hf  Hf8  1  0.666667  0.333333  0.000000  1
  Hf  Hf9  1  0.666667  0.333333  0.500000  1
  Pt  Pt10  1  0.000000  0.589078  0.250000  1
  Pt  Pt11  1  0.000000  0.410922  0.750000  1
  Pt  Pt12  1  0.410922  0.410922  0.250000  1
  Pt  Pt13  1  0.589078  0.589078  0.750000  1
  Pt  Pt14  1  0.410922  0.000000  0.750000  1
  Pt  Pt15  1  0.589078  0.000000  0.250000  1
  O  O16  1  0.000000  0.000000  0.000000  1
  O  O17  1  0.000000  0.000000  0.500000  1
