# generated using pymatgen
data_LiYb7(Si4W3)4
_symmetry_space_group_name_H-M   'P 1'
_cell_length_a   6.71001365
_cell_length_b   6.88026527
_cell_length_c   13.03329800
_cell_angle_alpha   89.81769288
_cell_angle_beta   89.86133753
_cell_angle_gamma   90.02014445
_symmetry_Int_Tables_number   1
_chemical_formula_structural   LiYb7(Si4W3)4
_chemical_formula_sum   'Li1 Yb7 Si16 W12'
_cell_volume   601.69917177
_cell_formula_units_Z   1
loop_
 _symmetry_equiv_pos_site_id
 _symmetry_equiv_pos_as_xyz
  1  'x, y, z'
loop_
 _atom_site_type_symbol
 _atom_site_label
 _atom_site_symmetry_multiplicity
 _atom_site_fract_x
 _atom_site_fract_y
 _atom_site_fract_z
 _atom_site_occupancy
  Li  Li0  1  0.975894  0.171411  0.091294  1
  Yb  Yb1  1  0.499098  0.333400  0.090419  1
  Yb  Yb2  1  0.000411  0.167225  0.409393  1
  Yb  Yb3  1  0.503070  0.667140  0.590454  1
  Yb  Yb4  1  0.000812  0.833233  0.913306  1
  Yb  Yb5  1  0.498931  0.667167  0.912816  1
  Yb  Yb6  1  0.002154  0.832299  0.590179  1
  Yb  Yb7  1  0.498775  0.331180  0.406697  1
  Si  Si8  1  0.661747  0.044639  0.544067  1
  Si  Si9  1  0.158619  0.446037  0.960302  1
  Si  Si10  1  0.327239  0.966311  0.046474  1
  Si  Si11  1  0.839352  0.544267  0.454807  1
  Si  Si12  1  0.340697  0.954887  0.454885  1
  Si  Si13  1  0.843050  0.535191  0.046899  1
  Si  Si14  1  0.661288  0.044091  0.958299  1
  Si  Si15  1  0.162608  0.456713  0.543642  1
  Si  Si16  1  0.536269  0.381526  0.750712  1
  Si  Si17  1  0.035973  0.117180  0.750399  1
  Si  Si18  1  0.465094  0.619161  0.249781  1
  Si  Si19  1  0.968176  0.887407  0.245254  1
  Si  Si20  1  0.800617  0.636500  0.751703  1
  Si  Si21  1  0.299054  0.860998  0.750964  1
  Si  Si22  1  0.194793  0.356861  0.243879  1
  Si  Si23  1  0.709378  0.140257  0.245834  1
  W  W24  1  0.838486  0.332544  0.628806  1
  W  W25  1  0.338516  0.167085  0.871551  1
  W  W26  1  0.166468  0.667675  0.128222  1
  W  W27  1  0.666214  0.835808  0.370237  1
  W  W28  1  0.162963  0.667912  0.370453  1
  W  W29  1  0.662569  0.834861  0.127042  1
  W  W30  1  0.838513  0.330236  0.873036  1
  W  W31  1  0.338272  0.166882  0.628098  1
  W  W32  1  0.659372  0.011804  0.750792  1
  W  W33  1  0.160176  0.486683  0.750521  1
  W  W34  1  0.343146  0.989120  0.248824  1
  W  W35  1  0.842206  0.514306  0.249959  1
