# generated using pymatgen
data_Sm8Sb(PdPt3)6
_symmetry_space_group_name_H-M   'P 1'
_cell_length_a   8.48028200
_cell_length_b   8.51377300
_cell_length_c   8.51377300
_cell_angle_alpha   90.00000000
_cell_angle_beta   90.00000000
_cell_angle_gamma   90.00000000
_symmetry_Int_Tables_number   1
_chemical_formula_structural   Sm8Sb(PdPt3)6
_chemical_formula_sum   'Sm8 Sb1 Pd6 Pt18'
_cell_volume   614.68756488
_cell_formula_units_Z   1
loop_
 _symmetry_equiv_pos_site_id
 _symmetry_equiv_pos_as_xyz
  1  'x, y, z'
loop_
 _atom_site_type_symbol
 _atom_site_label
 _atom_site_symmetry_multiplicity
 _atom_site_fract_x
 _atom_site_fract_y
 _atom_site_fract_z
 _atom_site_occupancy
  Sm  Sm0  1  0.748179  0.747733  0.252267  1
  Sm  Sm1  1  0.748179  0.252267  0.747733  1
  Sm  Sm2  1  0.251709  0.748137  0.748137  1
  Sm  Sm3  1  0.748179  0.747733  0.747733  1
  Sm  Sm4  1  0.748179  0.252267  0.252267  1
  Sm  Sm5  1  0.251709  0.251863  0.748137  1
  Sm  Sm6  1  0.251709  0.748137  0.251863  1
  Sm  Sm7  1  0.251709  0.251863  0.251863  1
  Sb  Sb8  1  0.004336  0.000000  0.000000  1
  Pd  Pd9  1  0.499679  0.500000  0.744901  1
  Pd  Pd10  1  0.499679  0.500000  0.255099  1
  Pd  Pd11  1  0.499679  0.255099  0.500000  1
  Pd  Pd12  1  0.499679  0.744901  0.500000  1
  Pd  Pd13  1  0.745210  0.500000  0.500000  1
  Pd  Pd14  1  0.689786  0.000000  0.000000  1
  Pt  Pt15  1  0.998812  0.000000  0.310764  1
  Pt  Pt16  1  0.732430  0.000000  0.500000  1
  Pt  Pt17  1  0.732430  0.500000  0.000000  1
  Pt  Pt18  1  0.500026  0.000000  0.733153  1
  Pt  Pt19  1  0.000127  0.733427  0.500000  1
  Pt  Pt20  1  0.500026  0.000000  0.266847  1
  Pt  Pt21  1  0.000127  0.266573  0.500000  1
  Pt  Pt22  1  0.500026  0.733153  0.000000  1
  Pt  Pt23  1  0.255181  0.500000  0.500000  1
  Pt  Pt24  1  0.315229  0.000000  0.000000  1
  Pt  Pt25  1  0.998812  0.000000  0.689236  1
  Pt  Pt26  1  0.000127  0.500000  0.266573  1
  Pt  Pt27  1  0.998812  0.310764  0.000000  1
  Pt  Pt28  1  0.998812  0.689236  0.000000  1
  Pt  Pt29  1  0.265636  0.500000  0.000000  1
  Pt  Pt30  1  0.265636  0.000000  0.500000  1
  Pt  Pt31  1  0.000127  0.500000  0.733427  1
  Pt  Pt32  1  0.500026  0.266847  0.000000  1
