# generated using pymatgen
data_Sc12Tc(OsBr8)2
_symmetry_space_group_name_H-M   'P 1'
_cell_length_a   9.10941278
_cell_length_b   11.03189564
_cell_length_c   11.80399678
_cell_angle_alpha   116.73192899
_cell_angle_beta   101.93604131
_cell_angle_gamma   101.52196451
_symmetry_Int_Tables_number   1
_chemical_formula_structural   Sc12Tc(OsBr8)2
_chemical_formula_sum   'Sc12 Tc1 Os2 Br16'
_cell_volume   976.62866400
_cell_formula_units_Z   1
loop_
 _symmetry_equiv_pos_site_id
 _symmetry_equiv_pos_as_xyz
  1  'x, y, z'
loop_
 _atom_site_type_symbol
 _atom_site_label
 _atom_site_symmetry_multiplicity
 _atom_site_fract_x
 _atom_site_fract_y
 _atom_site_fract_z
 _atom_site_occupancy
  Sc  Sc0  1  0.078693  0.259760  0.351318  1
  Sc  Sc1  1  0.922277  0.742186  0.648908  1
  Sc  Sc2  1  0.781512  0.537392  0.321116  1
  Sc  Sc3  1  0.218958  0.463550  0.681013  1
  Sc  Sc4  1  0.276128  0.740494  0.648697  1
  Sc  Sc5  1  0.723823  0.257517  0.351112  1
  Sc  Sc6  1  0.135669  0.535946  0.318995  1
  Sc  Sc7  1  0.863068  0.463144  0.678841  1
  Sc  Sc8  1  0.402638  0.353561  0.265999  1
  Sc  Sc9  1  0.597521  0.646464  0.734005  1
  Sc  Sc10  1  0.458635  0.302494  0.521331  1
  Sc  Sc11  1  0.543833  0.697552  0.478690  1
  Tc  Tc12  1  0.330829  0.500008  0.499312  1
  Os  Os13  1  0.998132  0.499975  0.499961  1
  Os  Os14  1  0.662613  0.500032  0.500669  1
  Br  Br15  1  0.400157  0.742015  0.884943  1
  Br  Br16  1  0.600283  0.258186  0.115337  1
  Br  Br17  1  0.191287  0.970595  0.786081  1
  Br  Br18  1  0.809441  0.029380  0.213917  1
  Br  Br19  1  0.338989  0.091585  0.249762  1
  Br  Br20  1  0.662486  0.908412  0.750208  1
  Br  Br21  1  0.556228  0.436609  0.800321  1
  Br  Br22  1  0.445597  0.563323  0.199631  1
  Br  Br23  1  0.311869  0.826558  0.462616  1
  Br  Br24  1  0.688482  0.172000  0.537620  1
  Br  Br25  1  0.170581  0.170964  0.532377  1
  Br  Br26  1  0.830442  0.830411  0.467410  1
  Br  Br27  1  0.924783  0.577495  0.157988  1
  Br  Br28  1  0.074813  0.422530  0.842008  1
  Br  Br29  1  0.920892  0.740408  0.884780  1
  Br  Br30  1  0.079340  0.259453  0.115033  1
