# generated using pymatgen
data_Mn3V(SeO3)4
_symmetry_space_group_name_H-M   'P 1'
_cell_length_a   5.18418588
_cell_length_b   6.19587551
_cell_length_c   7.98600592
_cell_angle_alpha   90.34820086
_cell_angle_beta   89.91989456
_cell_angle_gamma   89.81575673
_symmetry_Int_Tables_number   1
_chemical_formula_structural   Mn3V(SeO3)4
_chemical_formula_sum   'Mn3 V1 Se4 O12'
_cell_volume   256.50874437
_cell_formula_units_Z   1
loop_
 _symmetry_equiv_pos_site_id
 _symmetry_equiv_pos_as_xyz
  1  'x, y, z'
loop_
 _atom_site_type_symbol
 _atom_site_label
 _atom_site_symmetry_multiplicity
 _atom_site_fract_x
 _atom_site_fract_y
 _atom_site_fract_z
 _atom_site_occupancy
  Mn  Mn0  1  0.500000  0.000000  0.500000  1
  Mn  Mn1  1  0.000000  0.500000  0.500000  1
  Mn  Mn2  1  0.500000  0.000000  0.000000  1
  V  V3  1  0.000000  0.500000  0.000000  1
  Se  Se4  1  0.518131  0.525445  0.246167  1
  Se  Se5  1  0.983080  0.027624  0.247810  1
  Se  Se6  1  0.481869  0.474555  0.753833  1
  Se  Se7  1  0.016920  0.972376  0.752190  1
  O  O8  1  0.639021  0.679507  0.079226  1
  O  O9  1  0.865155  0.181829  0.416425  1
  O  O10  1  0.366741  0.320100  0.585281  1
  O  O11  1  0.133199  0.818321  0.919547  1
  O  O12  1  0.360979  0.320493  0.920774  1
  O  O13  1  0.134845  0.818171  0.583575  1
  O  O14  1  0.633259  0.679900  0.414719  1
  O  O15  1  0.866801  0.181679  0.080453  1
  O  O16  1  0.186622  0.578430  0.246215  1
  O  O17  1  0.313815  0.078365  0.250137  1
  O  O18  1  0.813378  0.421570  0.753785  1
  O  O19  1  0.686185  0.921635  0.749863  1
