# generated using pymatgen
data_Li6Mg2Co(Sn3O8)3
_symmetry_space_group_name_H-M   'P 1'
_cell_length_a   10.67040600
_cell_length_b   10.67303338
_cell_length_c   10.03886500
_cell_angle_alpha   90.00000000
_cell_angle_beta   90.00000000
_cell_angle_gamma   120.04634947
_symmetry_Int_Tables_number   1
_chemical_formula_structural   Li6Mg2Co(Sn3O8)3
_chemical_formula_sum   'Li12 Mg4 Co2 Sn18 O48'
_cell_volume   989.64863896
_cell_formula_units_Z   2
loop_
 _symmetry_equiv_pos_site_id
 _symmetry_equiv_pos_as_xyz
  1  'x, y, z'
loop_
 _atom_site_type_symbol
 _atom_site_label
 _atom_site_symmetry_multiplicity
 _atom_site_fract_x
 _atom_site_fract_y
 _atom_site_fract_z
 _atom_site_occupancy
  Li  Li0  1  0.334334  0.833299  0.009306  1
  Li  Li1  1  0.693930  0.333445  0.781161  1
  Li  Li2  1  0.306071  0.666556  0.281160  1
  Li  Li3  1  0.333656  0.691723  0.781354  1
  Li  Li4  1  0.666345  0.308278  0.281353  1
  Li  Li5  1  0.981274  0.981983  0.783936  1
  Li  Li6  1  0.018725  0.018016  0.283937  1
  Li  Li7  1  0.165444  0.165676  0.509030  1
  Li  Li8  1  0.834556  0.834324  0.009031  1
  Li  Li9  1  0.166697  0.665543  0.509404  1
  Li  Li10  1  0.833304  0.334458  0.009404  1
  Li  Li11  1  0.665667  0.166702  0.509306  1
  Mg  Mg12  1  0.666720  0.666585  0.690477  1
  Mg  Mg13  1  0.333281  0.333416  0.190477  1
  Mg  Mg14  1  0.333965  0.000222  0.695715  1
  Mg  Mg15  1  0.666036  0.999779  0.195714  1
  Co  Co16  1  0.000101  0.334000  0.694970  1
  Co  Co17  1  0.999900  0.666001  0.194969  1
  Sn  Sn18  1  0.015675  0.840314  0.504186  1
  Sn  Sn19  1  0.984324  0.159686  0.004187  1
  Sn  Sn20  1  0.841057  0.016112  0.503922  1
  Sn  Sn21  1  0.158943  0.983887  0.003923  1
  Sn  Sn22  1  0.839408  0.494203  0.503076  1
  Sn  Sn23  1  0.160593  0.505798  0.003077  1
  Sn  Sn24  1  0.495361  0.839824  0.503606  1
  Sn  Sn25  1  0.504640  0.160177  0.003607  1
  Sn  Sn26  1  0.491054  0.319298  0.503757  1
  Sn  Sn27  1  0.508946  0.680702  0.003757  1
  Sn  Sn28  1  0.318783  0.491431  0.503330  1
  Sn  Sn29  1  0.681217  0.508569  0.003330  1
  Sn  Sn30  1  0.004314  0.667274  0.782220  1
  Sn  Sn31  1  0.995687  0.332727  0.282219  1
  Sn  Sn32  1  0.666921  0.004122  0.782241  1
  Sn  Sn33  1  0.333080  0.995879  0.282240  1
  Sn  Sn34  1  0.329042  0.328941  0.782488  1
  Sn  Sn35  1  0.670958  0.671059  0.282490  1
  O  O36  1  0.849673  0.668262  0.628942  1
  O  O37  1  0.150325  0.331737  0.128941  1
  O  O38  1  0.669403  0.850144  0.629195  1
  O  O39  1  0.330596  0.149854  0.129194  1
  O  O40  1  0.339372  0.184399  0.643526  1
  O  O41  1  0.660627  0.815600  0.143526  1
  O  O42  1  0.183748  0.338347  0.642881  1
  O  O43  1  0.816251  0.661652  0.142881  1
  O  O44  1  0.151252  0.822043  0.641106  1
  O  O45  1  0.848748  0.177957  0.141106  1
  O  O46  1  0.821336  0.151768  0.640413  1
  O  O47  1  0.178664  0.848232  0.140413  1
  O  O48  1  0.991891  0.509969  0.641131  1
  O  O49  1  0.008110  0.490031  0.141131  1
  O  O50  1  0.509445  0.990709  0.641848  1
  O  O51  1  0.490555  0.009292  0.141848  1
  O  O52  1  0.665520  0.335745  0.601854  1
  O  O53  1  0.334479  0.664254  0.101854  1
  O  O54  1  0.336026  0.665858  0.601749  1
  O  O55  1  0.663973  0.334141  0.101749  1
  O  O56  1  0.841957  0.841812  0.387647  1
  O  O57  1  0.158043  0.158188  0.887648  1
  O  O58  1  0.166844  0.999793  0.384144  1
  O  O59  1  0.833156  0.000207  0.884143  1
  O  O60  1  0.000194  0.166315  0.383385  1
  O  O61  1  0.999806  0.833685  0.883384  1
  O  O62  1  0.337680  0.337920  0.391850  1
  O  O63  1  0.662319  0.662079  0.891848  1
  O  O64  1  0.664950  0.495524  0.389406  1
  O  O65  1  0.335050  0.504476  0.889406  1
  O  O66  1  0.495710  0.665040  0.389647  1
  O  O67  1  0.504290  0.334960  0.889647  1
  O  O68  1  0.830256  0.334390  0.383472  1
  O  O69  1  0.169744  0.665611  0.883471  1
  O  O70  1  0.335621  0.831239  0.384053  1
  O  O71  1  0.664380  0.168761  0.884052  1
  O  O72  1  0.497507  0.168539  0.383052  1
  O  O73  1  0.502494  0.831462  0.883051  1
  O  O74  1  0.168404  0.497706  0.382357  1
  O  O75  1  0.831597  0.502295  0.882356  1
  O  O76  1  0.997392  0.666604  0.396328  1
  O  O77  1  0.002609  0.333397  0.896328  1
  O  O78  1  0.667202  0.996417  0.395606  1
  O  O79  1  0.332799  0.003584  0.895606  1
  O  O80  1  0.998020  0.997915  0.602549  1
  O  O81  1  0.001980  0.002085  0.102551  1
  O  O82  1  0.482347  0.482810  0.631685  1
  O  O83  1  0.517654  0.517191  0.131684  1
