# generated using pymatgen
data_KRb2GaSe3
_symmetry_space_group_name_H-M   'P 1'
_cell_length_a   13.50018200
_cell_length_b   8.35151899
_cell_length_c   10.92251941
_cell_angle_alpha   52.59695346
_cell_angle_beta   90.00000000
_cell_angle_gamma   90.00000000
_symmetry_Int_Tables_number   1
_chemical_formula_structural   KRb2GaSe3
_chemical_formula_sum   'K4 Rb8 Ga4 Se12'
_cell_volume   978.26720191
_cell_formula_units_Z   4
loop_
 _symmetry_equiv_pos_site_id
 _symmetry_equiv_pos_as_xyz
  1  'x, y, z'
loop_
 _atom_site_type_symbol
 _atom_site_label
 _atom_site_symmetry_multiplicity
 _atom_site_fract_x
 _atom_site_fract_y
 _atom_site_fract_z
 _atom_site_occupancy
  K  K0  1  0.620022  0.370483  0.475716  1
  K  K1  1  0.120022  0.629517  0.024284  1
  K  K2  1  0.379978  0.629517  0.524284  1
  K  K3  1  0.879978  0.370483  0.975716  1
  Rb  Rb4  1  0.909506  0.340612  0.393508  1
  Rb  Rb5  1  0.409506  0.659388  0.106492  1
  Rb  Rb6  1  0.090494  0.659388  0.606492  1
  Rb  Rb7  1  0.590494  0.340612  0.893508  1
  Rb  Rb8  1  0.190798  0.134964  0.582520  1
  Rb  Rb9  1  0.690798  0.865036  0.917480  1
  Rb  Rb10  1  0.809202  0.865036  0.417480  1
  Rb  Rb11  1  0.309202  0.134964  0.082520  1
  Ga  Ga12  1  0.939461  0.062373  0.839590  1
  Ga  Ga13  1  0.439461  0.937627  0.660410  1
  Ga  Ga14  1  0.060539  0.937627  0.160410  1
  Ga  Ga15  1  0.560539  0.062373  0.339590  1
  Se  Se16  1  0.394381  0.151757  0.378738  1
  Se  Se17  1  0.894381  0.848243  0.121262  1
  Se  Se18  1  0.605619  0.848243  0.621262  1
  Se  Se19  1  0.105619  0.151757  0.878738  1
  Se  Se20  1  0.676616  0.340731  0.195987  1
  Se  Se21  1  0.176616  0.659269  0.304013  1
  Se  Se22  1  0.323384  0.659269  0.804013  1
  Se  Se23  1  0.823384  0.340731  0.695987  1
  Se  Se24  1  0.549612  0.864948  0.246589  1
  Se  Se25  1  0.049612  0.135052  0.253411  1
  Se  Se26  1  0.450388  0.135052  0.753411  1
  Se  Se27  1  0.950388  0.864948  0.746589  1
