# generated using pymatgen
data_Pr4ErSi2Hg
_symmetry_space_group_name_H-M   'P 1'
_cell_length_a   7.65655030
_cell_length_b   7.65654988
_cell_length_c   9.41892282
_cell_angle_alpha   113.98172224
_cell_angle_beta   113.98172435
_cell_angle_gamma   90.00000360
_symmetry_Int_Tables_number   1
_chemical_formula_structural   Pr4ErSi2Hg
_chemical_formula_sum   'Pr8 Er2 Si4 Hg2'
_cell_volume   451.83169775
_cell_formula_units_Z   2
loop_
 _symmetry_equiv_pos_site_id
 _symmetry_equiv_pos_as_xyz
  1  'x, y, z'
loop_
 _atom_site_type_symbol
 _atom_site_label
 _atom_site_symmetry_multiplicity
 _atom_site_fract_x
 _atom_site_fract_y
 _atom_site_fract_z
 _atom_site_occupancy
  Pr  Pr0  1  0.961595  0.813229  0.274824  1
  Pr  Pr1  1  0.313229  0.461595  0.274824  1
  Pr  Pr2  1  0.813229  0.313229  0.274824  1
  Pr  Pr3  1  0.461595  0.961595  0.274824  1
  Pr  Pr4  1  0.038405  0.186771  0.725176  1
  Pr  Pr5  1  0.686771  0.538405  0.725176  1
  Pr  Pr6  1  0.186771  0.686771  0.725176  1
  Pr  Pr7  1  0.538405  0.038405  0.725176  1
  Er  Er8  1  0.500000  0.500000  0.000000  1
  Er  Er9  1  0.000000  0.000000  0.000000  1
  Si  Si10  1  0.619455  0.880545  0.000000  1
  Si  Si11  1  0.380545  0.119455  0.000000  1
  Si  Si12  1  0.880545  0.380545  0.000000  1
  Si  Si13  1  0.119455  0.619455  0.000000  1
  Hg  Hg14  1  0.750000  0.750000  0.500000  1
  Hg  Hg15  1  0.250000  0.250000  0.500000  1
