# generated using pymatgen
data_Ru(S2Cl3)2
_symmetry_space_group_name_H-M   'P 1'
_cell_length_a   7.04902245
_cell_length_b   7.18875655
_cell_length_c   7.76649288
_cell_angle_alpha   65.23798944
_cell_angle_beta   63.08139051
_cell_angle_gamma   60.92878051
_symmetry_Int_Tables_number   1
_chemical_formula_structural   Ru(S2Cl3)2
_chemical_formula_sum   'Ru1 S4 Cl6'
_cell_volume   296.55108134
_cell_formula_units_Z   1
loop_
 _symmetry_equiv_pos_site_id
 _symmetry_equiv_pos_as_xyz
  1  'x, y, z'
loop_
 _atom_site_type_symbol
 _atom_site_label
 _atom_site_symmetry_multiplicity
 _atom_site_fract_x
 _atom_site_fract_y
 _atom_site_fract_z
 _atom_site_occupancy
  Ru  Ru0  1  0.000000  0.000000  0.000000  1
  S  S1  1  0.558070  0.665926  0.320309  1
  S  S2  1  0.266324  0.601848  0.497759  1
  S  S3  1  0.733676  0.398152  0.502241  1
  S  S4  1  0.441932  0.334073  0.679692  1
  Cl  Cl5  1  0.040231  0.628024  0.174775  1
  Cl  Cl6  1  0.155755  0.016972  0.203919  1
  Cl  Cl7  1  0.639181  0.122288  0.217788  1
  Cl  Cl8  1  0.360818  0.877712  0.782213  1
  Cl  Cl9  1  0.844245  0.983027  0.796082  1
  Cl  Cl10  1  0.959770  0.371977  0.825224  1
