# generated using pymatgen
data_Yb2BeRhBr
_symmetry_space_group_name_H-M   'P 1'
_cell_length_a   3.84152400
_cell_length_b   3.84152318
_cell_length_c   16.39270500
_cell_angle_alpha   90.00000000
_cell_angle_beta   90.00000000
_cell_angle_gamma   119.99998987
_symmetry_Int_Tables_number   1
_chemical_formula_structural   Yb2BeRhBr
_chemical_formula_sum   'Yb4 Be2 Rh2 Br2'
_cell_volume   209.50206500
_cell_formula_units_Z   2
loop_
 _symmetry_equiv_pos_site_id
 _symmetry_equiv_pos_as_xyz
  1  'x, y, z'
loop_
 _atom_site_type_symbol
 _atom_site_label
 _atom_site_symmetry_multiplicity
 _atom_site_fract_x
 _atom_site_fract_y
 _atom_site_fract_z
 _atom_site_occupancy
  Yb  Yb0  1  0.000000  0.000000  0.616653  1
  Yb  Yb1  1  0.000000  0.000000  0.382813  1
  Yb  Yb2  1  0.000000  0.000000  0.116653  1
  Yb  Yb3  1  0.000000  0.000000  0.882813  1
  Be  Be4  1  0.666667  0.333333  0.500719  1
  Be  Be5  1  0.333333  0.666667  0.000719  1
  Rh  Rh6  1  0.666667  0.333333  0.999036  1
  Rh  Rh7  1  0.333333  0.666667  0.499036  1
  Br  Br8  1  0.666667  0.333333  0.250779  1
  Br  Br9  1  0.333333  0.666667  0.750779  1
