# generated using pymatgen
data_In2PdPtO7
_symmetry_space_group_name_H-M   'P 1'
_cell_length_a   7.15199247
_cell_length_b   7.15199245
_cell_length_c   7.16573500
_cell_angle_alpha   59.93642154
_cell_angle_beta   59.93642167
_cell_angle_gamma   59.84802412
_symmetry_Int_Tables_number   1
_chemical_formula_structural   In2PdPtO7
_chemical_formula_sum   'In4 Pd2 Pt2 O14'
_cell_volume   258.63153837
_cell_formula_units_Z   2
loop_
 _symmetry_equiv_pos_site_id
 _symmetry_equiv_pos_as_xyz
  1  'x, y, z'
loop_
 _atom_site_type_symbol
 _atom_site_label
 _atom_site_symmetry_multiplicity
 _atom_site_fract_x
 _atom_site_fract_y
 _atom_site_fract_z
 _atom_site_occupancy
  In  In0  1  0.125000  0.125000  0.125000  1
  In  In1  1  0.625000  0.125000  0.125000  1
  In  In2  1  0.125000  0.625000  0.125000  1
  In  In3  1  0.125000  0.125000  0.625000  1
  Pd  Pd4  1  0.625000  0.625000  0.125000  1
  Pd  Pd5  1  0.625000  0.625000  0.625000  1
  Pt  Pt6  1  0.625000  0.125000  0.625000  1
  Pt  Pt7  1  0.125000  0.625000  0.625000  1
  O  O8  1  0.250077  0.250077  0.249923  1
  O  O9  1  0.717292  0.281718  0.284026  1
  O  O10  1  0.717292  0.281718  0.716964  1
  O  O11  1  0.281718  0.717292  0.284026  1
  O  O12  1  0.716690  0.716690  0.283310  1
  O  O13  1  0.282193  0.282193  0.717807  1
  O  O14  1  0.968282  0.532708  0.533036  1
  O  O15  1  0.281718  0.717292  0.716964  1
  O  O16  1  0.967807  0.967807  0.532193  1
  O  O17  1  0.532708  0.968282  0.533036  1
  O  O18  1  0.533310  0.533310  0.966690  1
  O  O19  1  0.968282  0.532708  0.965974  1
  O  O20  1  0.532708  0.968282  0.965974  1
  O  O21  1  0.999923  0.999923  0.000077  1
