# generated using pymatgen
data_Tb3DyPa(FeB3)2
_symmetry_space_group_name_H-M   'P 1'
_cell_length_a   5.43395606
_cell_length_b   5.43395505
_cell_length_c   7.97335337
_cell_angle_alpha   70.07698814
_cell_angle_beta   70.07699183
_cell_angle_gamma   59.99998249
_symmetry_Int_Tables_number   1
_chemical_formula_structural   Tb3DyPa(FeB3)2
_chemical_formula_sum   'Tb3 Dy1 Pa1 Fe2 B6'
_cell_volume   187.44687130
_cell_formula_units_Z   1
loop_
 _symmetry_equiv_pos_site_id
 _symmetry_equiv_pos_as_xyz
  1  'x, y, z'
loop_
 _atom_site_type_symbol
 _atom_site_label
 _atom_site_symmetry_multiplicity
 _atom_site_fract_x
 _atom_site_fract_y
 _atom_site_fract_z
 _atom_site_occupancy
  Tb  Tb0  1  0.254505  0.254505  0.236488  1
  Tb  Tb1  1  0.745432  0.745432  0.763702  1
  Tb  Tb2  1  0.412720  0.412720  0.761840  1
  Dy  Dy3  1  0.586877  0.586877  0.239369  1
  Pa  Pa4  1  0.999861  0.999861  0.000418  1
  Fe  Fe5  1  0.108259  0.108259  0.675225  1
  Fe  Fe6  1  0.891886  0.891886  0.324340  1
  B  B7  1  0.166949  0.833285  0.499770  1
  B  B8  1  0.833285  0.499996  0.499770  1
  B  B9  1  0.499996  0.166949  0.499770  1
  B  B10  1  0.166949  0.499996  0.499770  1
  B  B11  1  0.499996  0.833285  0.499770  1
  B  B12  1  0.833285  0.166949  0.499770  1
