# generated using pymatgen
data_GdDy3B10
_symmetry_space_group_name_H-M   'P 1'
_cell_length_a   7.10826800
_cell_length_b   7.10399103
_cell_length_c   7.13462580
_cell_angle_alpha   76.98075096
_cell_angle_beta   90.00000000
_cell_angle_gamma   90.00000000
_symmetry_Int_Tables_number   1
_chemical_formula_structural   GdDy3B10
_chemical_formula_sum   'Gd2 Dy6 B20'
_cell_volume   351.01657166
_cell_formula_units_Z   2
loop_
 _symmetry_equiv_pos_site_id
 _symmetry_equiv_pos_as_xyz
  1  'x, y, z'
loop_
 _atom_site_type_symbol
 _atom_site_label
 _atom_site_symmetry_multiplicity
 _atom_site_fract_x
 _atom_site_fract_y
 _atom_site_fract_z
 _atom_site_occupancy
  Gd  Gd0  1  0.308364  0.230291  0.372120  1
  Gd  Gd1  1  0.808364  0.769709  0.127880  1
  Dy  Dy2  1  0.315343  0.756962  0.253754  1
  Dy  Dy3  1  0.815343  0.243038  0.246246  1
  Dy  Dy4  1  0.684793  0.242667  0.746016  1
  Dy  Dy5  1  0.184793  0.757333  0.753984  1
  Dy  Dy6  1  0.692699  0.765369  0.629299  1
  Dy  Dy7  1  0.192699  0.234631  0.870701  1
  B  B8  1  0.502067  0.314452  0.039723  1
  B  B9  1  0.002067  0.685548  0.460277  1
  B  B10  1  0.497897  0.685897  0.959361  1
  B  B11  1  0.997897  0.314103  0.540639  1
  B  B12  1  0.490172  0.925632  0.924569  1
  B  B13  1  0.990172  0.074368  0.575431  1
  B  B14  1  0.508067  0.075166  0.072738  1
  B  B15  1  0.008067  0.924834  0.427262  1
  B  B16  1  0.326231  0.497129  0.039526  1
  B  B17  1  0.826231  0.502871  0.460474  1
  B  B18  1  0.673937  0.503147  0.960182  1
  B  B19  1  0.173937  0.496853  0.539818  1
  B  B20  1  0.910988  0.498341  0.910787  1
  B  B21  1  0.410988  0.501659  0.589213  1
  B  B22  1  0.089317  0.501056  0.089075  1
  B  B23  1  0.589317  0.498944  0.410925  1
  B  B24  1  0.961746  0.496452  0.674488  1
  B  B25  1  0.461746  0.503548  0.825512  1
  B  B26  1  0.038381  0.503398  0.325832  1
  B  B27  1  0.538381  0.496602  0.174168  1
