# generated using pymatgen
data_Ce2Al20TcRh3
_symmetry_space_group_name_H-M   'P 1'
_cell_length_a   6.88374893
_cell_length_b   6.86745501
_cell_length_c   9.18618623
_cell_angle_alpha   90.39105491
_cell_angle_beta   90.24555829
_cell_angle_gamma   97.60434694
_symmetry_Int_Tables_number   1
_chemical_formula_structural   Ce2Al20TcRh3
_chemical_formula_sum   'Ce2 Al20 Tc1 Rh3'
_cell_volume   430.43118428
_cell_formula_units_Z   1
loop_
 _symmetry_equiv_pos_site_id
 _symmetry_equiv_pos_as_xyz
  1  'x, y, z'
loop_
 _atom_site_type_symbol
 _atom_site_label
 _atom_site_symmetry_multiplicity
 _atom_site_fract_x
 _atom_site_fract_y
 _atom_site_fract_z
 _atom_site_occupancy
  Ce  Ce0  1  0.881133  0.127714  0.750842  1
  Ce  Ce1  1  0.118867  0.872286  0.249158  1
  Al  Al2  1  0.591711  0.859057  0.249537  1
  Al  Al3  1  0.775587  0.518016  0.246663  1
  Al  Al4  1  0.157549  0.842283  0.897732  1
  Al  Al5  1  0.408289  0.140943  0.750463  1
  Al  Al6  1  0.624086  0.379272  0.950364  1
  Al  Al7  1  0.841627  0.157550  0.397030  1
  Al  Al8  1  0.777846  0.777434  0.000476  1
  Al  Al9  1  0.860095  0.592843  0.750350  1
  Al  Al10  1  0.842451  0.157717  0.102268  1
  Al  Al11  1  0.224413  0.481984  0.753337  1
  Al  Al12  1  0.158373  0.842450  0.602970  1
  Al  Al13  1  0.776614  0.776305  0.499603  1
  Al  Al14  1  0.479665  0.224114  0.250783  1
  Al  Al15  1  0.622260  0.378334  0.551674  1
  Al  Al16  1  0.223386  0.223695  0.500397  1
  Al  Al17  1  0.377740  0.621666  0.448326  1
  Al  Al18  1  0.139905  0.407157  0.249650  1
  Al  Al19  1  0.520335  0.775886  0.749217  1
  Al  Al20  1  0.375914  0.620728  0.049636  1
  Al  Al21  1  0.222154  0.222566  0.999524  1
  Tc  Tc22  1  0.000000  0.500000  0.000000  1
  Rh  Rh23  1  0.500000  0.000000  0.000000  1
  Rh  Rh24  1  0.500000  0.000000  0.500000  1
  Rh  Rh25  1  0.000000  0.500000  0.500000  1
