# generated using pymatgen
data_TbPr8Sc11Pb16
_symmetry_space_group_name_H-M   'P 1'
_cell_length_a   8.09564377
_cell_length_b   8.28649782
_cell_length_c   15.56480900
_cell_angle_alpha   90.15045652
_cell_angle_beta   90.04739708
_cell_angle_gamma   90.11335395
_symmetry_Int_Tables_number   1
_chemical_formula_structural   TbPr8Sc11Pb16
_chemical_formula_sum   'Tb1 Pr8 Sc11 Pb16'
_cell_volume   1044.15196069
_cell_formula_units_Z   1
loop_
 _symmetry_equiv_pos_site_id
 _symmetry_equiv_pos_as_xyz
  1  'x, y, z'
loop_
 _atom_site_type_symbol
 _atom_site_label
 _atom_site_symmetry_multiplicity
 _atom_site_fract_x
 _atom_site_fract_y
 _atom_site_fract_z
 _atom_site_occupancy
  Tb  Tb0  1  0.847408  0.662048  0.876428  1
  Pr  Pr1  1  0.512418  0.325505  0.903697  1
  Pr  Pr2  1  0.013162  0.173842  0.593589  1
  Pr  Pr3  1  0.487867  0.674307  0.404723  1
  Pr  Pr4  1  0.988246  0.825061  0.098152  1
  Pr  Pr5  1  0.488634  0.672873  0.097178  1
  Pr  Pr6  1  0.987322  0.826108  0.403842  1
  Pr  Pr7  1  0.511408  0.324159  0.594263  1
  Pr  Pr8  1  0.011905  0.175234  0.904224  1
  Sc  Sc9  1  0.347311  0.837113  0.872322  1
  Sc  Sc10  1  0.847289  0.661128  0.625479  1
  Sc  Sc11  1  0.652648  0.160143  0.373831  1
  Sc  Sc12  1  0.152441  0.339374  0.127031  1
  Sc  Sc13  1  0.650404  0.160735  0.129897  1
  Sc  Sc14  1  0.152386  0.338656  0.373599  1
  Sc  Sc15  1  0.347433  0.841457  0.623418  1
  Sc  Sc16  1  0.180132  0.504876  0.749002  1
  Sc  Sc17  1  0.678388  0.995848  0.747986  1
  Sc  Sc18  1  0.820733  0.493768  0.251252  1
  Sc  Sc19  1  0.320620  0.005466  0.250337  1
  Pb  Pb20  1  0.314863  0.045631  0.044488  1
  Pb  Pb21  1  0.816150  0.454254  0.455646  1
  Pb  Pb22  1  0.686475  0.953369  0.543250  1
  Pb  Pb23  1  0.194411  0.545125  0.957795  1
  Pb  Pb24  1  0.678400  0.962017  0.958661  1
  Pb  Pb25  1  0.183588  0.546092  0.543602  1
  Pb  Pb26  1  0.314919  0.046339  0.454458  1
  Pb  Pb27  1  0.814041  0.448981  0.048890  1
  Pb  Pb28  1  0.537168  0.636315  0.745459  1
  Pb  Pb29  1  0.043445  0.868257  0.746560  1
  Pb  Pb30  1  0.458432  0.364179  0.251995  1
  Pb  Pb31  1  0.960036  0.136023  0.250244  1
  Pb  Pb32  1  0.323178  0.146232  0.748908  1
  Pb  Pb33  1  0.822622  0.350771  0.747822  1
  Pb  Pb34  1  0.676824  0.854016  0.251260  1
  Pb  Pb35  1  0.177296  0.644697  0.250714  1
