# generated using pymatgen
data_Y6Ho10MgZn3Co4
_symmetry_space_group_name_H-M   'P 1'
_cell_length_a   9.40281681
_cell_length_b   9.37751332
_cell_length_c   9.37751300
_cell_angle_alpha   60.00000467
_cell_angle_beta   60.08898416
_cell_angle_gamma   60.08898563
_symmetry_Int_Tables_number   1
_chemical_formula_structural   Y6Ho10MgZn3Co4
_chemical_formula_sum   'Y6 Ho10 Mg1 Zn3 Co4'
_cell_volume   585.46532538
_cell_formula_units_Z   1
loop_
 _symmetry_equiv_pos_site_id
 _symmetry_equiv_pos_as_xyz
  1  'x, y, z'
loop_
 _atom_site_type_symbol
 _atom_site_label
 _atom_site_symmetry_multiplicity
 _atom_site_fract_x
 _atom_site_fract_y
 _atom_site_fract_z
 _atom_site_occupancy
  Y  Y0  1  0.933182  0.562689  0.562689  1
  Y  Y1  1  0.561026  0.937689  0.937689  1
  Y  Y2  1  0.561026  0.937689  0.563598  1
  Y  Y3  1  0.933182  0.562689  0.941440  1
  Y  Y4  1  0.561026  0.563598  0.937689  1
  Y  Y5  1  0.933182  0.941440  0.562689  1
  Ho  Ho6  1  0.349231  0.346681  0.346681  1
  Ho  Ho7  1  0.349231  0.346681  0.957407  1
  Ho  Ho8  1  0.349231  0.957407  0.346681  1
  Ho  Ho9  1  0.948041  0.350653  0.350653  1
  Ho  Ho10  1  0.809374  0.190047  0.190047  1
  Ho  Ho11  1  0.186485  0.813065  0.813065  1
  Ho  Ho12  1  0.186485  0.813065  0.187386  1
  Ho  Ho13  1  0.809374  0.190047  0.810532  1
  Ho  Ho14  1  0.186485  0.187386  0.813065  1
  Ho  Ho15  1  0.809374  0.810532  0.190047  1
  Mg  Mg16  1  0.288689  0.570437  0.570437  1
  Zn  Zn17  1  0.584072  0.577189  0.577189  1
  Zn  Zn18  1  0.584072  0.577189  0.261550  1
  Zn  Zn19  1  0.584072  0.261550  0.577189  1
  Co  Co20  1  0.139333  0.142709  0.142709  1
  Co  Co21  1  0.139333  0.142709  0.575248  1
  Co  Co22  1  0.139333  0.575248  0.142709  1
  Co  Co23  1  0.575165  0.141612  0.141612  1
