# generated using pymatgen
data_TmLu3Sc2(B2Ir5)2
_symmetry_space_group_name_H-M   'P 1'
_cell_length_a   3.15137500
_cell_length_b   9.71533239
_cell_length_c   9.71532539
_cell_angle_alpha   89.96761114
_cell_angle_beta   90.00000000
_cell_angle_gamma   90.00000000
_symmetry_Int_Tables_number   1
_chemical_formula_structural   TmLu3Sc2(B2Ir5)2
_chemical_formula_sum   'Tm1 Lu3 Sc2 B4 Ir10'
_cell_volume   297.45072397
_cell_formula_units_Z   1
loop_
 _symmetry_equiv_pos_site_id
 _symmetry_equiv_pos_as_xyz
  1  'x, y, z'
loop_
 _atom_site_type_symbol
 _atom_site_label
 _atom_site_symmetry_multiplicity
 _atom_site_fract_x
 _atom_site_fract_y
 _atom_site_fract_z
 _atom_site_occupancy
  Tm  Tm0  1  0.000000  0.176705  0.676704  1
  Lu  Lu1  1  0.000000  0.823232  0.323226  1
  Lu  Lu2  1  0.000000  0.323276  0.176744  1
  Lu  Lu3  1  0.000000  0.676747  0.823282  1
  Sc  Sc4  1  0.000000  0.999923  0.000120  1
  Sc  Sc5  1  0.000000  0.500120  0.499925  1
  B  B6  1  0.000000  0.620878  0.120879  1
  B  B7  1  0.000000  0.379264  0.879264  1
  B  B8  1  0.000000  0.879056  0.620827  1
  B  B9  1  0.000000  0.120826  0.379056  1
  Ir  Ir10  1  0.500000  0.069403  0.224310  1
  Ir  Ir11  1  0.500000  0.930150  0.775739  1
  Ir  Ir12  1  0.500000  0.775621  0.069428  1
  Ir  Ir13  1  0.500000  0.431103  0.724546  1
  Ir  Ir14  1  0.500000  0.224545  0.931106  1
  Ir  Ir15  1  0.500000  0.569429  0.275619  1
  Ir  Ir16  1  0.500000  0.724308  0.569404  1
  Ir  Ir17  1  0.500000  0.275741  0.430148  1
  Ir  Ir18  1  0.500000  0.999594  0.499597  1
  Ir  Ir19  1  0.500000  0.500077  0.000077  1
