# generated using pymatgen
data_Y5CoRhO12
_symmetry_space_group_name_H-M   'P 1'
_cell_length_a   6.81726491
_cell_length_b   6.81726406
_cell_length_c   7.24358160
_cell_angle_alpha   74.45581184
_cell_angle_beta   74.45581444
_cell_angle_gamma   51.06362942
_symmetry_Int_Tables_number   1
_chemical_formula_structural   Y5CoRhO12
_chemical_formula_sum   'Y5 Co1 Rh1 O12'
_cell_volume   250.04398442
_cell_formula_units_Z   1
loop_
 _symmetry_equiv_pos_site_id
 _symmetry_equiv_pos_as_xyz
  1  'x, y, z'
loop_
 _atom_site_type_symbol
 _atom_site_label
 _atom_site_symmetry_multiplicity
 _atom_site_fract_x
 _atom_site_fract_y
 _atom_site_fract_z
 _atom_site_occupancy
  Y  Y0  1  0.496646  0.503354  0.500000  1
  Y  Y1  1  0.193001  0.189610  0.167370  1
  Y  Y2  1  0.810390  0.806999  0.832630  1
  Y  Y3  1  0.811142  0.796943  0.357822  1
  Y  Y4  1  0.203057  0.188858  0.642178  1
  Co  Co5  1  0.247817  0.752183  0.000000  1
  Rh  Rh6  1  0.738322  0.261678  0.000000  1
  O  O7  1  0.007755  0.991404  0.180412  1
  O  O8  1  0.008596  0.992245  0.819588  1
  O  O9  1  0.485473  0.515432  0.824000  1
  O  O10  1  0.484568  0.514527  0.176000  1
  O  O11  1  0.600193  0.098561  0.574524  1
  O  O12  1  0.901439  0.399807  0.425476  1
  O  O13  1  0.405823  0.901643  0.424519  1
  O  O14  1  0.401051  0.918830  0.919583  1
  O  O15  1  0.081170  0.598949  0.080417  1
  O  O16  1  0.597811  0.072609  0.082120  1
  O  O17  1  0.927391  0.402189  0.917880  1
  O  O18  1  0.098357  0.594177  0.575481  1
