# generated using pymatgen
data_Yb8Si13Sn
_symmetry_space_group_name_H-M   'P 1'
_cell_length_a   8.02992301
_cell_length_b   7.88375056
_cell_length_c   8.71340100
_cell_angle_alpha   90.00000000
_cell_angle_beta   90.00000000
_cell_angle_gamma   121.07186052
_symmetry_Int_Tables_number   1
_chemical_formula_structural   Yb8Si13Sn
_chemical_formula_sum   'Yb8 Si13 Sn1'
_cell_volume   472.46517493
_cell_formula_units_Z   1
loop_
 _symmetry_equiv_pos_site_id
 _symmetry_equiv_pos_as_xyz
  1  'x, y, z'
loop_
 _atom_site_type_symbol
 _atom_site_label
 _atom_site_symmetry_multiplicity
 _atom_site_fract_x
 _atom_site_fract_y
 _atom_site_fract_z
 _atom_site_occupancy
  Yb  Yb0  1  0.259673  0.249506  0.992135  1
  Yb  Yb1  1  0.751693  0.754815  0.001896  1
  Yb  Yb2  1  0.751693  0.754815  0.498104  1
  Yb  Yb3  1  0.259673  0.249506  0.507865  1
  Yb  Yb4  1  0.252339  0.747838  0.492262  1
  Yb  Yb5  1  0.739597  0.253832  0.513259  1
  Yb  Yb6  1  0.739597  0.253832  0.986741  1
  Yb  Yb7  1  0.252339  0.747838  0.007738  1
  Si  Si8  1  0.943034  0.632631  0.750000  1
  Si  Si9  1  0.586621  0.421559  0.250000  1
  Si  Si10  1  0.413449  0.583288  0.750000  1
  Si  Si11  1  0.417997  0.592284  0.250000  1
  Si  Si12  1  0.592301  0.417928  0.750000  1
  Si  Si13  1  0.074091  0.937783  0.250000  1
  Si  Si14  1  0.931278  0.068620  0.750000  1
  Si  Si15  1  0.623319  0.945042  0.250000  1
  Si  Si16  1  0.381042  0.059971  0.750000  1
  Si  Si17  1  0.924552  0.588279  0.250000  1
  Si  Si18  1  0.070179  0.417549  0.750000  1
  Si  Si19  1  0.414637  0.074237  0.250000  1
  Si  Si20  1  0.589396  0.929759  0.750000  1
  Sn  Sn21  1  0.031501  0.319086  0.250000  1
