# generated using pymatgen
data_YHo5Er4(In2Pt)4
_symmetry_space_group_name_H-M   'P 1'
_cell_length_a   3.60576500
_cell_length_b   8.14922300
_cell_length_c   18.19990501
_cell_angle_alpha   90.00400600
_cell_angle_beta   90.00000000
_cell_angle_gamma   90.00000000
_symmetry_Int_Tables_number   1
_chemical_formula_structural   YHo5Er4(In2Pt)4
_chemical_formula_sum   'Y1 Ho5 Er4 In8 Pt4'
_cell_volume   534.78933973
_cell_formula_units_Z   1
loop_
 _symmetry_equiv_pos_site_id
 _symmetry_equiv_pos_as_xyz
  1  'x, y, z'
loop_
 _atom_site_type_symbol
 _atom_site_label
 _atom_site_symmetry_multiplicity
 _atom_site_fract_x
 _atom_site_fract_y
 _atom_site_fract_z
 _atom_site_occupancy
  Y  Y0  1  0.000000  0.000000  0.000000  1
  Ho  Ho1  1  0.000000  0.242902  0.220138  1
  Ho  Ho2  1  0.000000  0.757098  0.779862  1
  Ho  Ho3  1  0.000000  0.257118  0.720094  1
  Ho  Ho4  1  0.000000  0.742882  0.279906  1
  Ho  Ho5  1  0.000000  0.500000  0.500000  1
  Er  Er6  1  0.000000  0.116884  0.414504  1
  Er  Er7  1  0.000000  0.883116  0.585496  1
  Er  Er8  1  0.000000  0.383319  0.914439  1
  Er  Er9  1  0.000000  0.616681  0.085561  1
  In  In10  1  0.500000  0.422877  0.351177  1
  In  In11  1  0.500000  0.577123  0.648823  1
  In  In12  1  0.500000  0.077243  0.851022  1
  In  In13  1  0.500000  0.922757  0.148978  1
  In  In14  1  0.500000  0.293497  0.066442  1
  In  In15  1  0.500000  0.706503  0.933558  1
  In  In16  1  0.500000  0.207030  0.566351  1
  In  In17  1  0.500000  0.792970  0.433649  1
  Pt  Pt18  1  0.500000  0.024943  0.303684  1
  Pt  Pt19  1  0.500000  0.975057  0.696316  1
  Pt  Pt20  1  0.500000  0.475085  0.803670  1
  Pt  Pt21  1  0.500000  0.524915  0.196330  1
