# generated using pymatgen
data_Ti4MnSi3N
_symmetry_space_group_name_H-M   'P 1'
_cell_length_a   7.29076900
_cell_length_b   7.29076861
_cell_length_c   5.04443400
_cell_angle_alpha   90.00000000
_cell_angle_beta   90.00000000
_cell_angle_gamma   119.99999725
_symmetry_Int_Tables_number   1
_chemical_formula_structural   Ti4MnSi3N
_chemical_formula_sum   'Ti8 Mn2 Si6 N2'
_cell_volume   232.21471733
_cell_formula_units_Z   2
loop_
 _symmetry_equiv_pos_site_id
 _symmetry_equiv_pos_as_xyz
  1  'x, y, z'
loop_
 _atom_site_type_symbol
 _atom_site_label
 _atom_site_symmetry_multiplicity
 _atom_site_fract_x
 _atom_site_fract_y
 _atom_site_fract_z
 _atom_site_occupancy
  Ti  Ti0  1  0.230292  0.000000  0.748017  1
  Ti  Ti1  1  0.769708  0.000000  0.251983  1
  Ti  Ti2  1  0.000000  0.230292  0.748017  1
  Ti  Ti3  1  0.000000  0.769708  0.251983  1
  Ti  Ti4  1  0.769708  0.769708  0.748017  1
  Ti  Ti5  1  0.230292  0.230292  0.251983  1
  Ti  Ti6  1  0.333333  0.666667  0.500000  1
  Ti  Ti7  1  0.666667  0.333333  0.500000  1
  Mn  Mn8  1  0.666667  0.333333  0.000000  1
  Mn  Mn9  1  0.333333  0.666667  0.000000  1
  Si  Si10  1  0.587628  0.000000  0.772558  1
  Si  Si11  1  0.412372  0.000000  0.227442  1
  Si  Si12  1  0.000000  0.587628  0.772558  1
  Si  Si13  1  0.000000  0.412372  0.227442  1
  Si  Si14  1  0.412372  0.412372  0.772558  1
  Si  Si15  1  0.587628  0.587628  0.227442  1
  N  N16  1  0.000000  0.000000  0.500000  1
  N  N17  1  0.000000  0.000000  0.000000  1
