# generated using pymatgen
data_Tb7ErTa11TiSi16
_symmetry_space_group_name_H-M   'P 1'
_cell_length_a   7.06219070
_cell_length_b   7.05973391
_cell_length_c   13.02626050
_cell_angle_alpha   89.85932431
_cell_angle_beta   90.05114549
_cell_angle_gamma   89.94824573
_symmetry_Int_Tables_number   1
_chemical_formula_structural   Tb7ErTa11TiSi16
_chemical_formula_sum   'Tb7 Er1 Ta11 Ti1 Si16'
_cell_volume   649.45022538
_cell_formula_units_Z   1
loop_
 _symmetry_equiv_pos_site_id
 _symmetry_equiv_pos_as_xyz
  1  'x, y, z'
loop_
 _atom_site_type_symbol
 _atom_site_label
 _atom_site_symmetry_multiplicity
 _atom_site_fract_x
 _atom_site_fract_y
 _atom_site_fract_z
 _atom_site_occupancy
  Tb  Tb0  1  0.342339  0.002032  0.467745  1
  Tb  Tb1  1  0.498171  0.842009  0.717837  1
  Tb  Tb2  1  0.502183  0.158320  0.217669  1
  Tb  Tb3  1  0.841453  0.497619  0.282015  1
  Tb  Tb4  1  0.157758  0.502121  0.782636  1
  Tb  Tb5  1  0.658592  0.997327  0.967971  1
  Tb  Tb6  1  0.002826  0.341304  0.532138  1
  Er  Er7  1  0.998722  0.658869  0.031698  1
  Ta  Ta8  1  0.328474  0.329311  0.999814  1
  Ta  Ta9  1  0.171295  0.827960  0.249776  1
  Ta  Ta10  1  0.827213  0.172690  0.750289  1
  Ta  Ta11  1  0.670899  0.671026  0.499787  1
  Ta  Ta12  1  0.151971  0.007497  0.874218  1
  Ta  Ta13  1  0.492543  0.652991  0.123701  1
  Ta  Ta14  1  0.507808  0.346454  0.623863  1
  Ta  Ta15  1  0.653632  0.492042  0.876887  1
  Ta  Ta16  1  0.347206  0.507617  0.375926  1
  Ta  Ta17  1  0.845604  0.991156  0.373655  1
  Ta  Ta18  1  0.008249  0.153106  0.125841  1
  Ti  Ti19  1  0.992265  0.845765  0.626316  1
  Si  Si20  1  0.202071  0.131254  0.682560  1
  Si  Si21  1  0.365651  0.704293  0.932065  1
  Si  Si22  1  0.633618  0.295854  0.432533  1
  Si  Si23  1  0.704738  0.367420  0.068222  1
  Si  Si24  1  0.295652  0.634206  0.567792  1
  Si  Si25  1  0.797363  0.865700  0.181179  1
  Si  Si26  1  0.133194  0.203396  0.318086  1
  Si  Si27  1  0.866558  0.797245  0.817484  1
  Si  Si28  1  0.293054  0.953609  0.063485  1
  Si  Si29  1  0.545365  0.793333  0.313462  1
  Si  Si30  1  0.453869  0.206869  0.813493  1
  Si  Si31  1  0.794542  0.547026  0.685620  1
  Si  Si32  1  0.205958  0.455096  0.186025  1
  Si  Si33  1  0.709442  0.044761  0.564271  1
  Si  Si34  1  0.954214  0.295167  0.936638  1
  Si  Si35  1  0.045505  0.707558  0.437301  1
