# generated using pymatgen
data_Tm2GeB2Ru2Rh3
_symmetry_space_group_name_H-M   'P 1'
_cell_length_a   9.53141300
_cell_length_b   9.53220700
_cell_length_c   3.09540000
_cell_angle_alpha   90.00000000
_cell_angle_beta   90.00000000
_cell_angle_gamma   90.00223008
_symmetry_Int_Tables_number   1
_chemical_formula_structural   Tm2GeB2Ru2Rh3
_chemical_formula_sum   'Tm4 Ge2 B4 Ru4 Rh6'
_cell_volume   281.23381037
_cell_formula_units_Z   2
loop_
 _symmetry_equiv_pos_site_id
 _symmetry_equiv_pos_as_xyz
  1  'x, y, z'
loop_
 _atom_site_type_symbol
 _atom_site_label
 _atom_site_symmetry_multiplicity
 _atom_site_fract_x
 _atom_site_fract_y
 _atom_site_fract_z
 _atom_site_occupancy
  Tm  Tm0  1  0.828573  0.323418  0.000000  1
  Tm  Tm1  1  0.321201  0.171690  0.000000  1
  Tm  Tm2  1  0.673662  0.824834  0.000000  1
  Tm  Tm3  1  0.174855  0.676288  0.000000  1
  Ge  Ge4  1  0.006249  0.004040  0.000000  1
  Ge  Ge5  1  0.499408  0.500548  0.000000  1
  B  B6  1  0.621162  0.119332  0.000000  1
  B  B7  1  0.117804  0.375066  0.000000  1
  B  B8  1  0.880800  0.621645  0.000000  1
  B  B9  1  0.374372  0.882019  0.000000  1
  Ru  Ru10  1  0.068971  0.216557  0.500000  1
  Ru  Ru11  1  0.215660  0.928069  0.500000  1
  Ru  Ru12  1  0.501202  0.999923  0.500000  1
  Ru  Ru13  1  0.000174  0.502195  0.500000  1
  Rh  Rh14  1  0.784172  0.068999  0.500000  1
  Rh  Rh15  1  0.927593  0.785420  0.500000  1
  Rh  Rh16  1  0.431960  0.714988  0.500000  1
  Rh  Rh17  1  0.571043  0.284261  0.500000  1
  Rh  Rh18  1  0.715846  0.569935  0.500000  1
  Rh  Rh19  1  0.285293  0.430773  0.500000  1
