# generated using pymatgen
data_PaNiH
_symmetry_space_group_name_H-M   'P 1'
_cell_length_a   6.05494205
_cell_length_b   6.05494304
_cell_length_c   3.99627400
_cell_angle_alpha   90.00000000
_cell_angle_beta   90.00000000
_cell_angle_gamma   145.87207804
_symmetry_Int_Tables_number   1
_chemical_formula_structural   PaNiH
_chemical_formula_sum   'Pa2 Ni2 H2'
_cell_volume   82.19985391
_cell_formula_units_Z   2
loop_
 _symmetry_equiv_pos_site_id
 _symmetry_equiv_pos_as_xyz
  1  'x, y, z'
loop_
 _atom_site_type_symbol
 _atom_site_label
 _atom_site_symmetry_multiplicity
 _atom_site_fract_x
 _atom_site_fract_y
 _atom_site_fract_z
 _atom_site_occupancy
  Pa  Pa0  1  0.138448  0.861552  0.750000  1
  Pa  Pa1  1  0.861552  0.138448  0.250000  1
  Ni  Ni2  1  0.431415  0.568585  0.750000  1
  Ni  Ni3  1  0.568585  0.431415  0.250000  1
  H  H4  1  0.762900  0.237100  0.750000  1
  H  H5  1  0.237100  0.762900  0.250000  1
