# generated using pymatgen
data_Hf7Ta(V3Si4)4
_symmetry_space_group_name_H-M   'P 1'
_cell_length_a   6.59614036
_cell_length_b   6.59435290
_cell_length_c   12.19889985
_cell_angle_alpha   90.04186847
_cell_angle_beta   89.97447543
_cell_angle_gamma   90.04298312
_symmetry_Int_Tables_number   1
_chemical_formula_structural   Hf7Ta(V3Si4)4
_chemical_formula_sum   'Hf7 Ta1 V12 Si16'
_cell_volume   530.61858568
_cell_formula_units_Z   1
loop_
 _symmetry_equiv_pos_site_id
 _symmetry_equiv_pos_as_xyz
  1  'x, y, z'
loop_
 _atom_site_type_symbol
 _atom_site_label
 _atom_site_symmetry_multiplicity
 _atom_site_fract_x
 _atom_site_fract_y
 _atom_site_fract_z
 _atom_site_occupancy
  Hf  Hf0  1  0.837925  0.501677  0.279536  1
  Hf  Hf1  1  0.161682  0.498457  0.779825  1
  Hf  Hf2  1  0.502199  0.837880  0.720793  1
  Hf  Hf3  1  0.499154  0.161530  0.219300  1
  Hf  Hf4  1  0.998276  0.337609  0.529912  1
  Hf  Hf5  1  0.664312  0.000084  0.971021  1
  Hf  Hf6  1  0.337985  0.997763  0.469890  1
  Ta  Ta7  1  0.005667  0.659479  0.030754  1
  V  V8  1  0.332020  0.335283  0.999907  1
  V  V9  1  0.166990  0.832523  0.249158  1
  V  V10  1  0.833205  0.166503  0.750824  1
  V  V11  1  0.666847  0.666958  0.499760  1
  V  V12  1  0.002263  0.159360  0.125580  1
  V  V13  1  0.340642  0.502753  0.375996  1
  V  V14  1  0.657145  0.498414  0.877612  1
  V  V15  1  0.503283  0.341192  0.623959  1
  V  V16  1  0.495711  0.659669  0.122560  1
  V  V17  1  0.996734  0.840828  0.627227  1
  V  V18  1  0.157114  0.005080  0.874207  1
  V  V19  1  0.840880  0.995853  0.372654  1
  Si  Si20  1  0.289536  0.960101  0.064396  1
  Si  Si21  1  0.539755  0.791025  0.313967  1
  Si  Si22  1  0.460796  0.208539  0.815651  1
  Si  Si23  1  0.791075  0.539280  0.685655  1
  Si  Si24  1  0.208026  0.460973  0.184434  1
  Si  Si25  1  0.708853  0.039396  0.564968  1
  Si  Si26  1  0.959545  0.294756  0.935543  1
  Si  Si27  1  0.039377  0.708508  0.435110  1
  Si  Si28  1  0.707450  0.375724  0.071363  1
  Si  Si29  1  0.127077  0.204635  0.320510  1
  Si  Si30  1  0.873766  0.792559  0.823118  1
  Si  Si31  1  0.205633  0.127202  0.679141  1
  Si  Si32  1  0.797297  0.869586  0.176932  1
  Si  Si33  1  0.294899  0.627424  0.571025  1
  Si  Si34  1  0.369575  0.706930  0.928970  1
  Si  Si35  1  0.627305  0.294469  0.428736  1
