# generated using pymatgen
data_Y3P6Ir8W
_symmetry_space_group_name_H-M   'P 1'
_cell_length_a   4.00030400
_cell_length_b   11.12897000
_cell_length_c   12.82822100
_cell_angle_alpha   90.00000000
_cell_angle_beta   90.00000000
_cell_angle_gamma   90.00000000
_symmetry_Int_Tables_number   1
_chemical_formula_structural   Y3P6Ir8W
_chemical_formula_sum   'Y6 P12 Ir16 W2'
_cell_volume   571.10294718
_cell_formula_units_Z   2
loop_
 _symmetry_equiv_pos_site_id
 _symmetry_equiv_pos_as_xyz
  1  'x, y, z'
loop_
 _atom_site_type_symbol
 _atom_site_label
 _atom_site_symmetry_multiplicity
 _atom_site_fract_x
 _atom_site_fract_y
 _atom_site_fract_z
 _atom_site_occupancy
  Y  Y0  1  0.000000  0.500000  0.522536  1
  Y  Y1  1  0.500000  0.000000  0.477464  1
  Y  Y2  1  0.500000  0.818502  0.203700  1
  Y  Y3  1  0.500000  0.181498  0.203700  1
  Y  Y4  1  0.000000  0.681498  0.796300  1
  Y  Y5  1  0.000000  0.318502  0.796300  1
  P  P6  1  0.500000  0.500000  0.873508  1
  P  P7  1  0.000000  0.000000  0.126492  1
  P  P8  1  0.500000  0.500000  0.347175  1
  P  P9  1  0.000000  0.000000  0.652825  1
  P  P10  1  0.500000  0.314348  0.617599  1
  P  P11  1  0.500000  0.685652  0.617599  1
  P  P12  1  0.000000  0.185652  0.382401  1
  P  P13  1  0.000000  0.814348  0.382401  1
  P  P14  1  0.500000  0.845200  0.885923  1
  P  P15  1  0.500000  0.154800  0.885923  1
  P  P16  1  0.000000  0.654800  0.114077  1
  P  P17  1  0.000000  0.345200  0.114077  1
  Ir  Ir18  1  0.500000  0.500000  0.696629  1
  Ir  Ir19  1  0.000000  0.000000  0.303371  1
  Ir  Ir20  1  0.000000  0.500000  0.995739  1
  Ir  Ir21  1  0.500000  0.000000  0.004261  1
  Ir  Ir22  1  0.500000  0.331694  0.980298  1
  Ir  Ir23  1  0.500000  0.668306  0.980298  1
  Ir  Ir24  1  0.000000  0.168306  0.019702  1
  Ir  Ir25  1  0.000000  0.831694  0.019702  1
  Ir  Ir26  1  0.500000  0.298026  0.432020  1
  Ir  Ir27  1  0.500000  0.701974  0.432020  1
  Ir  Ir28  1  0.000000  0.201974  0.567980  1
  Ir  Ir29  1  0.000000  0.798026  0.567980  1
  Ir  Ir30  1  0.500000  0.872614  0.710536  1
  Ir  Ir31  1  0.500000  0.127386  0.710536  1
  Ir  Ir32  1  0.000000  0.627386  0.289464  1
  Ir  Ir33  1  0.000000  0.372614  0.289464  1
  W  W34  1  0.500000  0.500000  0.159426  1
  W  W35  1  0.000000  0.000000  0.840574  1
