# generated using pymatgen
data_Tm11LuGaCo4Os
_symmetry_space_group_name_H-M   'P 1'
_cell_length_a   8.11529699
_cell_length_b   8.11573805
_cell_length_c   8.11565403
_cell_angle_alpha   111.35688866
_cell_angle_beta   110.67020302
_cell_angle_gamma   106.43261554
_symmetry_Int_Tables_number   1
_chemical_formula_structural   Tm11LuGaCo4Os
_chemical_formula_sum   'Tm11 Lu1 Ga1 Co4 Os1'
_cell_volume   410.57177150
_cell_formula_units_Z   1
loop_
 _symmetry_equiv_pos_site_id
 _symmetry_equiv_pos_as_xyz
  1  'x, y, z'
loop_
 _atom_site_type_symbol
 _atom_site_label
 _atom_site_symmetry_multiplicity
 _atom_site_fract_x
 _atom_site_fract_y
 _atom_site_fract_z
 _atom_site_occupancy
  Tm  Tm0  1  0.180769  0.224323  0.405038  1
  Tm  Tm1  1  0.180773  0.775730  0.956448  1
  Tm  Tm2  1  0.682381  0.486762  0.804320  1
  Tm  Tm3  1  0.682380  0.878064  0.195614  1
  Tm  Tm4  1  0.963661  0.270811  0.692847  1
  Tm  Tm5  1  0.036256  0.729172  0.307086  1
  Tm  Tm6  1  0.317654  0.122014  0.804486  1
  Tm  Tm7  1  0.317650  0.513173  0.195636  1
  Tm  Tm8  1  0.819235  0.224332  0.043638  1
  Tm  Tm9  1  0.819239  0.775600  0.594907  1
  Tm  Tm10  1  0.422132  0.729213  0.692918  1
  Lu  Lu11  1  0.578014  0.270918  0.307093  1
  Ga  Ga12  1  0.499996  0.000020  0.499976  1
  Co  Co13  1  0.886796  0.886785  0.000013  1
  Co  Co14  1  0.371297  0.500004  0.871293  1
  Co  Co15  1  0.628693  0.499953  0.128737  1
  Co  Co16  1  0.113282  0.113238  0.000042  1
  Os  Os17  1  0.999793  0.499887  0.499907  1
