# generated using pymatgen
data_Sr2CaGe(AsPd4)5
_symmetry_space_group_name_H-M   'P 1'
_cell_length_a   8.96956087
_cell_length_b   8.95002774
_cell_length_c   8.95002830
_cell_angle_alpha   60.14444643
_cell_angle_beta   59.92777875
_cell_angle_gamma   59.92777947
_symmetry_Int_Tables_number   1
_chemical_formula_structural   Sr2CaGe(AsPd4)5
_chemical_formula_sum   'Sr2 Ca1 Ge1 As5 Pd20'
_cell_volume   508.04343304
_cell_formula_units_Z   1
loop_
 _symmetry_equiv_pos_site_id
 _symmetry_equiv_pos_as_xyz
  1  'x, y, z'
loop_
 _atom_site_type_symbol
 _atom_site_label
 _atom_site_symmetry_multiplicity
 _atom_site_fract_x
 _atom_site_fract_y
 _atom_site_fract_z
 _atom_site_occupancy
  Sr  Sr0  1  0.749908  0.750092  0.750092  1
  Sr  Sr1  1  0.249908  0.250092  0.250092  1
  Ca  Ca2  1  0.999989  0.000011  0.000011  1
  Ge  Ge3  1  0.734565  0.265435  0.265435  1
  As  As4  1  0.736924  0.735636  0.263076  1
  As  As5  1  0.264364  0.263076  0.735636  1
  As  As6  1  0.736924  0.263076  0.735636  1
  As  As7  1  0.264364  0.735636  0.263076  1
  As  As8  1  0.263128  0.736872  0.736872  1
  Pd  Pd9  1  0.613662  0.613174  0.613174  1
  Pd  Pd10  1  0.386423  0.386056  0.386056  1
  Pd  Pd11  1  0.159989  0.613174  0.613174  1
  Pd  Pd12  1  0.613944  0.158534  0.613577  1
  Pd  Pd13  1  0.841466  0.386056  0.386056  1
  Pd  Pd14  1  0.386826  0.840011  0.386338  1
  Pd  Pd15  1  0.613944  0.613577  0.158534  1
  Pd  Pd16  1  0.386826  0.386338  0.840011  1
  Pd  Pd17  1  0.000428  0.999572  0.650730  1
  Pd  Pd18  1  0.999243  0.000757  0.347567  1
  Pd  Pd19  1  0.349270  0.650730  0.999572  1
  Pd  Pd20  1  0.652433  0.347567  0.000757  1
  Pd  Pd21  1  0.000428  0.650730  0.999572  1
  Pd  Pd22  1  0.652433  0.000757  0.347567  1
  Pd  Pd23  1  0.999243  0.347567  0.000757  1
  Pd  Pd24  1  0.349270  0.999572  0.650730  1
  Pd  Pd25  1  0.650560  0.001474  0.001474  1
  Pd  Pd26  1  0.346490  0.001474  0.001474  1
  Pd  Pd27  1  0.998526  0.653510  0.349440  1
  Pd  Pd28  1  0.998526  0.349440  0.653510  1
