# generated using pymatgen
data_Hf2Nb12AlP7
_symmetry_space_group_name_H-M   'P 1'
_cell_length_a   7.78772089
_cell_length_b   7.78772303
_cell_length_c   14.08014900
_cell_angle_alpha   76.12480108
_cell_angle_beta   76.12479720
_cell_angle_gamma   25.86524987
_symmetry_Int_Tables_number   1
_chemical_formula_structural   Hf2Nb12AlP7
_chemical_formula_sum   'Hf2 Nb12 Al1 P7'
_cell_volume   361.08443103
_cell_formula_units_Z   1
loop_
 _symmetry_equiv_pos_site_id
 _symmetry_equiv_pos_as_xyz
  1  'x, y, z'
loop_
 _atom_site_type_symbol
 _atom_site_label
 _atom_site_symmetry_multiplicity
 _atom_site_fract_x
 _atom_site_fract_y
 _atom_site_fract_z
 _atom_site_occupancy
  Hf  Hf0  1  0.175450  0.175450  0.456135  1
  Hf  Hf1  1  0.825615  0.825615  0.541857  1
  Nb  Nb2  1  0.996472  0.996472  0.002106  1
  Nb  Nb3  1  0.500594  0.500594  0.500366  1
  Nb  Nb4  1  0.429793  0.429793  0.171133  1
  Nb  Nb5  1  0.565207  0.565207  0.825501  1
  Nb  Nb6  1  0.197189  0.197189  0.689068  1
  Nb  Nb7  1  0.805588  0.805588  0.307773  1
  Nb  Nb8  1  0.209164  0.209164  0.198074  1
  Nb  Nb9  1  0.795752  0.795752  0.793180  1
  Nb  Nb10  1  0.338141  0.338141  0.971897  1
  Nb  Nb11  1  0.663607  0.663607  0.039120  1
  Nb  Nb12  1  0.002189  0.002189  0.332972  1
  Nb  Nb13  1  0.997975  0.997975  0.666765  1
  Al  Al14  1  0.175056  0.175056  0.892698  1
  P  P15  1  0.823744  0.823744  0.111036  1
  P  P16  1  0.373502  0.373502  0.398190  1
  P  P17  1  0.625931  0.625931  0.603076  1
  P  P18  1  0.372811  0.372811  0.664868  1
  P  P19  1  0.628696  0.628696  0.332625  1
  P  P20  1  0.061267  0.061267  0.150932  1
  P  P21  1  0.936260  0.936260  0.850628  1
