# generated using pymatgen
data_HoTm(NiIr)2
_symmetry_space_group_name_H-M   'P 1'
_cell_length_a   5.19009887
_cell_length_b   5.37462250
_cell_length_c   5.19009947
_cell_angle_alpha   58.81679178
_cell_angle_beta   58.06677176
_cell_angle_gamma   58.81678811
_symmetry_Int_Tables_number   1
_chemical_formula_structural   HoTm(NiIr)2
_chemical_formula_sum   'Ho1 Tm1 Ni2 Ir2'
_cell_volume   99.00583368
_cell_formula_units_Z   1
loop_
 _symmetry_equiv_pos_site_id
 _symmetry_equiv_pos_as_xyz
  1  'x, y, z'
loop_
 _atom_site_type_symbol
 _atom_site_label
 _atom_site_symmetry_multiplicity
 _atom_site_fract_x
 _atom_site_fract_y
 _atom_site_fract_z
 _atom_site_occupancy
  Ho  Ho0  1  0.997265  0.002735  0.997265  1
  Tm  Tm1  1  0.752849  0.747151  0.752849  1
  Ni  Ni2  1  0.874773  0.375116  0.374995  1
  Ni  Ni3  1  0.374995  0.375116  0.874773  1
  Ir  Ir4  1  0.375059  0.874658  0.375059  1
  Ir  Ir5  1  0.375059  0.375224  0.375059  1
