# generated using pymatgen
data_Sr3PBr3
_symmetry_space_group_name_H-M   'P 1'
_cell_length_a   10.85978443
_cell_length_b   10.85978556
_cell_length_c   10.85978500
_cell_angle_alpha   109.47121772
_cell_angle_beta   109.47121983
_cell_angle_gamma   109.47122196
_symmetry_Int_Tables_number   1
_chemical_formula_structural   Sr3PBr3
_chemical_formula_sum   'Sr12 P4 Br12'
_cell_volume   985.92028808
_cell_formula_units_Z   4
loop_
 _symmetry_equiv_pos_site_id
 _symmetry_equiv_pos_as_xyz
  1  'x, y, z'
loop_
 _atom_site_type_symbol
 _atom_site_label
 _atom_site_symmetry_multiplicity
 _atom_site_fract_x
 _atom_site_fract_y
 _atom_site_fract_z
 _atom_site_occupancy
  Sr  Sr0  1  0.481783  0.490891  0.240891  1
  Sr  Sr1  1  0.750000  0.240891  0.259109  1
  Sr  Sr2  1  0.750000  0.009109  0.490891  1
  Sr  Sr3  1  0.240891  0.481783  0.490891  1
  Sr  Sr4  1  0.259109  0.750000  0.240891  1
  Sr  Sr5  1  0.018217  0.259109  0.009109  1
  Sr  Sr6  1  0.009109  0.018217  0.259109  1
  Sr  Sr7  1  0.490891  0.750000  0.009109  1
  Sr  Sr8  1  0.490891  0.240891  0.481783  1
  Sr  Sr9  1  0.009109  0.490891  0.750000  1
  Sr  Sr10  1  0.259109  0.009109  0.018217  1
  Sr  Sr11  1  0.240891  0.259109  0.750000  1
  P  P12  1  0.250000  0.250000  0.250000  1
  P  P13  1  0.500000  0.000000  0.250000  1
  P  P14  1  0.000000  0.250000  0.500000  1
  P  P15  1  0.250000  0.500000  0.000000  1
  Br  Br16  1  0.250000  0.749351  0.750649  1
  Br  Br17  1  0.498702  0.499351  0.749351  1
  Br  Br18  1  0.001298  0.750649  0.000649  1
  Br  Br19  1  0.750649  0.250000  0.749351  1
  Br  Br20  1  0.000649  0.001298  0.750649  1
  Br  Br21  1  0.250000  0.000649  0.499351  1
  Br  Br22  1  0.749351  0.498702  0.499351  1
  Br  Br23  1  0.499351  0.250000  0.000649  1
  Br  Br24  1  0.749351  0.750649  0.250000  1
  Br  Br25  1  0.750649  0.000649  0.001298  1
  Br  Br26  1  0.000649  0.499351  0.250000  1
  Br  Br27  1  0.499351  0.749351  0.498702  1
