# generated using pymatgen
data_Hf3AlGa2Ni3
_symmetry_space_group_name_H-M   'P 1'
_cell_length_a   6.83986031
_cell_length_b   6.78493728
_cell_length_c   3.44688800
_cell_angle_alpha   90.00000000
_cell_angle_beta   90.00000000
_cell_angle_gamma   119.73471659
_symmetry_Int_Tables_number   1
_chemical_formula_structural   Hf3AlGa2Ni3
_chemical_formula_sum   'Hf3 Al1 Ga2 Ni3'
_cell_volume   138.90107962
_cell_formula_units_Z   1
loop_
 _symmetry_equiv_pos_site_id
 _symmetry_equiv_pos_as_xyz
  1  'x, y, z'
loop_
 _atom_site_type_symbol
 _atom_site_label
 _atom_site_symmetry_multiplicity
 _atom_site_fract_x
 _atom_site_fract_y
 _atom_site_fract_z
 _atom_site_occupancy
  Hf  Hf0  1  0.406437  0.407330  0.500000  1
  Hf  Hf1  1  0.593563  0.000893  0.500000  1
  Hf  Hf2  1  0.000000  0.596356  0.500000  1
  Al  Al3  1  0.000000  0.251667  0.000000  1
  Ga  Ga4  1  0.740221  0.743848  0.000000  1
  Ga  Ga5  1  0.259779  0.003627  0.000000  1
  Ni  Ni6  1  0.670477  0.333139  0.000000  1
  Ni  Ni7  1  0.329523  0.662662  0.000000  1
  Ni  Ni8  1  0.000000  0.000477  0.500000  1
