# generated using pymatgen
data_Y2Tm2TcB12Ru
_symmetry_space_group_name_H-M   'P 1'
_cell_length_a   3.65182300
_cell_length_b   9.11561483
_cell_length_c   11.51177401
_cell_angle_alpha   89.86805237
_cell_angle_beta   90.00000000
_cell_angle_gamma   90.00000000
_symmetry_Int_Tables_number   1
_chemical_formula_structural   Y2Tm2TcB12Ru
_chemical_formula_sum   'Y4 Tm4 Tc2 B24 Ru2'
_cell_volume   383.20996090
_cell_formula_units_Z   2
loop_
 _symmetry_equiv_pos_site_id
 _symmetry_equiv_pos_as_xyz
  1  'x, y, z'
loop_
 _atom_site_type_symbol
 _atom_site_label
 _atom_site_symmetry_multiplicity
 _atom_site_fract_x
 _atom_site_fract_y
 _atom_site_fract_z
 _atom_site_occupancy
  Y  Y0  1  0.000000  0.324248  0.415457  1
  Y  Y1  1  0.000000  0.675752  0.584543  1
  Y  Y2  1  0.000000  0.820703  0.087334  1
  Y  Y3  1  0.000000  0.179297  0.912666  1
  Tm  Tm4  1  0.000000  0.942124  0.370637  1
  Tm  Tm5  1  0.000000  0.057876  0.629363  1
  Tm  Tm6  1  0.000000  0.443178  0.130038  1
  Tm  Tm7  1  0.000000  0.556822  0.869962  1
  Tc  Tc8  1  0.000000  0.639015  0.319507  1
  Tc  Tc9  1  0.000000  0.360985  0.680493  1
  B  B10  1  0.500000  0.553415  0.432650  1
  B  B11  1  0.500000  0.446585  0.567350  1
  B  B12  1  0.500000  0.054152  0.067317  1
  B  B13  1  0.500000  0.945848  0.932683  1
  B  B14  1  0.500000  0.749496  0.418487  1
  B  B15  1  0.500000  0.250504  0.581513  1
  B  B16  1  0.500000  0.249478  0.081629  1
  B  B17  1  0.500000  0.750522  0.918371  1
  B  B18  1  0.500000  0.791882  0.265345  1
  B  B19  1  0.500000  0.208118  0.734655  1
  B  B20  1  0.500000  0.290930  0.234159  1
  B  B21  1  0.500000  0.709070  0.765841  1
  B  B22  1  0.500000  0.630434  0.184917  1
  B  B23  1  0.500000  0.369566  0.815083  1
  B  B24  1  0.500000  0.130146  0.314280  1
  B  B25  1  0.500000  0.869854  0.685720  1
  B  B26  1  0.500000  0.982951  0.212375  1
  B  B27  1  0.500000  0.017049  0.787625  1
  B  B28  1  0.500000  0.482287  0.287095  1
  B  B29  1  0.500000  0.517713  0.712905  1
  B  B30  1  0.500000  0.601691  0.027906  1
  B  B31  1  0.500000  0.398309  0.972094  1
  B  B32  1  0.500000  0.101786  0.471702  1
  B  B33  1  0.500000  0.898214  0.528298  1
  Ru  Ru34  1  0.000000  0.138212  0.179194  1
  Ru  Ru35  1  0.000000  0.861788  0.820806  1
