# generated using pymatgen
data_Fe2RuI8
_symmetry_space_group_name_H-M   'P 1'
_cell_length_a   11.02062393
_cell_length_b   11.02062296
_cell_length_c   13.30811533
_cell_angle_alpha   53.82235770
_cell_angle_beta   53.82236129
_cell_angle_gamma   47.04110198
_symmetry_Int_Tables_number   1
_chemical_formula_structural   Fe2RuI8
_chemical_formula_sum   'Fe4 Ru2 I16'
_cell_volume   905.16709147
_cell_formula_units_Z   2
loop_
 _symmetry_equiv_pos_site_id
 _symmetry_equiv_pos_as_xyz
  1  'x, y, z'
loop_
 _atom_site_type_symbol
 _atom_site_label
 _atom_site_symmetry_multiplicity
 _atom_site_fract_x
 _atom_site_fract_y
 _atom_site_fract_z
 _atom_site_occupancy
  Fe  Fe0  1  0.688510  0.154357  0.020233  1
  Fe  Fe1  1  0.311490  0.845643  0.979767  1
  Fe  Fe2  1  0.845643  0.311490  0.479767  1
  Fe  Fe3  1  0.154357  0.688510  0.520233  1
  Ru  Ru4  1  0.988126  0.011874  0.750000  1
  Ru  Ru5  1  0.011874  0.988126  0.250000  1
  I  I6  1  0.850631  0.850687  0.506409  1
  I  I7  1  0.149369  0.149313  0.493591  1
  I  I8  1  0.684098  0.634485  0.432540  1
  I  I9  1  0.634485  0.684098  0.932540  1
  I  I10  1  0.850687  0.850631  0.006409  1
  I  I11  1  0.855527  0.293204  0.287581  1
  I  I12  1  0.149783  0.700677  0.203932  1
  I  I13  1  0.299323  0.850217  0.296068  1
  I  I14  1  0.144473  0.706796  0.712419  1
  I  I15  1  0.315902  0.365515  0.567460  1
  I  I16  1  0.706796  0.144473  0.212419  1
  I  I17  1  0.149313  0.149369  0.993591  1
  I  I18  1  0.365515  0.315902  0.067460  1
  I  I19  1  0.293204  0.855527  0.787581  1
  I  I20  1  0.700677  0.149783  0.703932  1
  I  I21  1  0.850217  0.299323  0.796068  1
