# generated using pymatgen
data_MgSc3As6Ir3Ru4
_symmetry_space_group_name_H-M   'P 1'
_cell_length_a   7.06330890
_cell_length_b   7.06744406
_cell_length_c   7.06744417
_cell_angle_alpha   109.32532668
_cell_angle_beta   109.26981995
_cell_angle_gamma   109.26982363
_symmetry_Int_Tables_number   1
_chemical_formula_structural   MgSc3As6Ir3Ru4
_chemical_formula_sum   'Mg1 Sc3 As6 Ir3 Ru4'
_cell_volume   273.41186721
_cell_formula_units_Z   1
loop_
 _symmetry_equiv_pos_site_id
 _symmetry_equiv_pos_as_xyz
  1  'x, y, z'
loop_
 _atom_site_type_symbol
 _atom_site_label
 _atom_site_symmetry_multiplicity
 _atom_site_fract_x
 _atom_site_fract_y
 _atom_site_fract_z
 _atom_site_occupancy
  Mg  Mg0  1  0.500000  0.500553  0.499447  1
  Sc  Sc1  1  0.000273  0.000958  0.500586  1
  Sc  Sc2  1  0.500000  0.999945  0.000055  1
  Sc  Sc3  1  0.999727  0.499414  0.999042  1
  As  As4  1  0.683017  0.682715  0.991103  1
  As  As5  1  0.310394  0.310568  0.995474  1
  As  As6  1  0.997785  0.682846  0.689391  1
  As  As7  1  0.002215  0.310609  0.317154  1
  As  As8  1  0.689606  0.004526  0.689432  1
  As  As9  1  0.316983  0.008897  0.317285  1
  Ir  Ir10  1  0.500000  0.749595  0.250405  1
  Ir  Ir11  1  0.749385  0.499274  0.250369  1
  Ir  Ir12  1  0.250615  0.749631  0.500726  1
  Ru  Ru13  1  0.000000  0.000249  0.999751  1
  Ru  Ru14  1  0.250632  0.499930  0.749913  1
  Ru  Ru15  1  0.749368  0.250087  0.500070  1
  Ru  Ru16  1  0.500000  0.250199  0.749801  1
