# generated using pymatgen
data_La5PrTlIn8Ge
_symmetry_space_group_name_H-M   'P 1'
_cell_length_a   8.71999768
_cell_length_b   8.71999729
_cell_length_c   8.71999785
_cell_angle_alpha   119.88535149
_cell_angle_beta   119.88535540
_cell_angle_gamma   90.19868824
_symmetry_Int_Tables_number   1
_chemical_formula_structural   La5PrTlIn8Ge
_chemical_formula_sum   'La5 Pr1 Tl1 In8 Ge1'
_cell_volume   469.65959878
_cell_formula_units_Z   1
loop_
 _symmetry_equiv_pos_site_id
 _symmetry_equiv_pos_as_xyz
  1  'x, y, z'
loop_
 _atom_site_type_symbol
 _atom_site_label
 _atom_site_symmetry_multiplicity
 _atom_site_fract_x
 _atom_site_fract_y
 _atom_site_fract_z
 _atom_site_occupancy
  La  La0  1  0.236096  0.236096  0.000000  1
  La  La1  1  0.323785  0.855243  0.179151  1
  La  La2  1  0.676091  0.144633  0.820849  1
  La  La3  1  0.855243  0.676091  0.531458  1
  La  La4  1  0.144633  0.323785  0.468542  1
  Pr  Pr5  1  0.763775  0.763775  0.000000  1
  Tl  Tl6  1  0.502240  0.502240  0.000000  1
  In  In7  1  0.966539  0.452439  0.788023  1
  In  In8  1  0.664416  0.178515  0.211977  1
  In  In9  1  0.452439  0.664416  0.485903  1
  In  In10  1  0.178515  0.966539  0.514097  1
  In  In11  1  0.031274  0.547830  0.210335  1
  In  In12  1  0.337495  0.820939  0.789665  1
  In  In13  1  0.547830  0.337495  0.516555  1
  In  In14  1  0.820939  0.031274  0.483445  1
  Ge  Ge15  1  0.998687  0.998687  0.000000  1
