# generated using pymatgen
data_DyErZr2(Al3Rh)6
_symmetry_space_group_name_H-M   'P 1'
_cell_length_a   7.52232600
_cell_length_b   7.50112782
_cell_length_c   9.36012100
_cell_angle_alpha   90.00000000
_cell_angle_beta   90.00000000
_cell_angle_gamma   119.69389516
_symmetry_Int_Tables_number   1
_chemical_formula_structural   DyErZr2(Al3Rh)6
_chemical_formula_sum   'Dy1 Er1 Zr2 Al18 Rh6'
_cell_volume   458.79867246
_cell_formula_units_Z   1
loop_
 _symmetry_equiv_pos_site_id
 _symmetry_equiv_pos_as_xyz
  1  'x, y, z'
loop_
 _atom_site_type_symbol
 _atom_site_label
 _atom_site_symmetry_multiplicity
 _atom_site_fract_x
 _atom_site_fract_y
 _atom_site_fract_z
 _atom_site_occupancy
  Dy  Dy0  1  0.329766  0.005837  0.250000  1
  Er  Er1  1  0.670320  0.994238  0.750000  1
  Zr  Zr2  1  0.994678  0.670572  0.750000  1
  Zr  Zr3  1  0.005274  0.329417  0.250000  1
  Al  Al4  1  0.124318  0.122649  0.750000  1
  Al  Al5  1  0.875476  0.877263  0.250000  1
  Al  Al6  1  0.999234  0.337195  0.574846  1
  Al  Al7  1  0.000597  0.662641  0.425275  1
  Al  Al8  1  0.000597  0.662641  0.074725  1
  Al  Al9  1  0.331755  0.997782  0.921396  1
  Al  Al10  1  0.999234  0.337195  0.925154  1
  Al  Al11  1  0.668397  0.002205  0.078355  1
  Al  Al12  1  0.668397  0.002205  0.421645  1
  Al  Al13  1  0.331755  0.997782  0.578604  1
  Al  Al14  1  0.330866  0.333465  0.055434  1
  Al  Al15  1  0.669129  0.666668  0.944445  1
  Al  Al16  1  0.669129  0.666668  0.555555  1
  Al  Al17  1  0.330866  0.333465  0.444566  1
  Al  Al18  1  0.333518  0.548626  0.750000  1
  Al  Al19  1  0.666641  0.451587  0.250000  1
  Al  Al20  1  0.555950  0.344219  0.750000  1
  Al  Al21  1  0.444130  0.655688  0.250000  1
  Rh  Rh22  1  0.672056  0.327374  0.499432  1
  Rh  Rh23  1  0.328042  0.672638  0.500698  1
  Rh  Rh24  1  0.328042  0.672638  0.999302  1
  Rh  Rh25  1  0.672056  0.327374  0.000568  1
  Rh  Rh26  1  0.999886  0.999984  0.500075  1
  Rh  Rh27  1  0.999886  0.999984  0.999925  1
