# generated using pymatgen
data_Hf8Fe5Co2Si14Pd
_symmetry_space_group_name_H-M   'P 1'
_cell_length_a   9.48770851
_cell_length_b   9.45449244
_cell_length_c   9.46577030
_cell_angle_alpha   94.14494580
_cell_angle_beta   94.32938101
_cell_angle_gamma   148.45826807
_symmetry_Int_Tables_number   1
_chemical_formula_structural   Hf8Fe5Co2Si14Pd
_chemical_formula_sum   'Hf8 Fe5 Co2 Si14 Pd1'
_cell_volume   427.44945101
_cell_formula_units_Z   1
loop_
 _symmetry_equiv_pos_site_id
 _symmetry_equiv_pos_as_xyz
  1  'x, y, z'
loop_
 _atom_site_type_symbol
 _atom_site_label
 _atom_site_symmetry_multiplicity
 _atom_site_fract_x
 _atom_site_fract_y
 _atom_site_fract_z
 _atom_site_occupancy
  Hf  Hf0  1  0.138391  0.138386  0.276815  1
  Hf  Hf1  1  0.861735  0.861730  0.723466  1
  Hf  Hf2  1  0.134909  0.858966  0.998983  1
  Hf  Hf3  1  0.864050  0.139995  0.998977  1
  Hf  Hf4  1  0.307906  0.504487  0.802238  1
  Hf  Hf5  1  0.697671  0.504012  0.195133  1
  Hf  Hf6  1  0.497453  0.691111  0.195137  1
  Hf  Hf7  1  0.494313  0.297733  0.802239  1
  Fe  Fe8  1  0.390595  0.890606  0.781355  1
  Fe  Fe9  1  0.907773  0.103225  0.504822  1
  Fe  Fe10  1  0.597016  0.401613  0.504900  1
  Fe  Fe11  1  0.599726  0.099723  0.199555  1
  Fe  Fe12  1  0.903797  0.403753  0.806714  1
  Co  Co13  1  0.101679  0.889465  0.496818  1
  Co  Co14  1  0.395109  0.607341  0.496816  1
  Si  Si15  1  0.290565  0.290572  0.581102  1
  Si  Si16  1  0.709943  0.709943  0.419968  1
  Si  Si17  1  0.308125  0.725999  0.993981  1
  Si  Si18  1  0.685858  0.267963  0.993961  1
  Si  Si19  1  0.074598  0.483354  0.591221  1
  Si  Si20  1  0.860253  0.458019  0.414396  1
  Si  Si21  1  0.554135  0.956376  0.414400  1
  Si  Si22  1  0.516620  0.107862  0.591243  1
  Si  Si23  1  0.249302  0.249442  0.999269  1
  Si  Si24  1  0.749953  0.749811  0.999273  1
  Si  Si25  1  0.317846  0.024846  0.301955  1
  Si  Si26  1  0.709268  0.009328  0.700588  1
  Si  Si27  1  0.991290  0.691252  0.700586  1
  Si  Si28  1  0.984087  0.277090  0.301951  1
  Pd  Pd29  1  0.106027  0.606002  0.212136  1
