# generated using pymatgen
data_ZnNi3(Mo3N)2
_symmetry_space_group_name_H-M   'P 1'
_cell_length_a   6.70404300
_cell_length_b   6.69947258
_cell_length_c   6.69471380
_cell_angle_alpha   90.33586841
_cell_angle_beta   90.00000000
_cell_angle_gamma   90.00000000
_symmetry_Int_Tables_number   1
_chemical_formula_structural   ZnNi3(Mo3N)2
_chemical_formula_sum   'Zn2 Ni6 Mo12 N4'
_cell_volume   300.67821174
_cell_formula_units_Z   2
loop_
 _symmetry_equiv_pos_site_id
 _symmetry_equiv_pos_as_xyz
  1  'x, y, z'
loop_
 _atom_site_type_symbol
 _atom_site_label
 _atom_site_symmetry_multiplicity
 _atom_site_fract_x
 _atom_site_fract_y
 _atom_site_fract_z
 _atom_site_occupancy
  Zn  Zn0  1  0.318679  0.821486  0.931250  1
  Zn  Zn1  1  0.818679  0.178514  0.068750  1
  Ni  Ni2  1  0.182628  0.318807  0.568416  1
  Ni  Ni3  1  0.682628  0.681193  0.431584  1
  Ni  Ni4  1  0.933288  0.432596  0.316600  1
  Ni  Ni5  1  0.569976  0.929195  0.182608  1
  Ni  Ni6  1  0.433288  0.567404  0.683400  1
  Ni  Ni7  1  0.069976  0.070805  0.817392  1
  Mo  Mo8  1  0.379744  0.952530  0.542101  1
  Mo  Mo9  1  0.879744  0.047470  0.457899  1
  Mo  Mo10  1  0.126576  0.454833  0.947350  1
  Mo  Mo11  1  0.626576  0.545167  0.052650  1
  Mo  Mo12  1  0.796903  0.377997  0.697286  1
  Mo  Mo13  1  0.702799  0.873613  0.789445  1
  Mo  Mo14  1  0.202799  0.126387  0.210555  1
  Mo  Mo15  1  0.296903  0.622003  0.302714  1
  Mo  Mo16  1  0.949189  0.791490  0.131192  1
  Mo  Mo17  1  0.042257  0.698873  0.622354  1
  Mo  Mo18  1  0.449189  0.208510  0.868808  1
  Mo  Mo19  1  0.542257  0.301127  0.377646  1
  N  N20  1  0.625891  0.126868  0.622838  1
  N  N21  1  0.125891  0.873132  0.377162  1
  N  N22  1  0.872069  0.625246  0.876094  1
  N  N23  1  0.372069  0.374754  0.123906  1
