# generated using pymatgen
data_Tb7Gd3B2Cl15
_symmetry_space_group_name_H-M   'P 1'
_cell_length_a   8.69319231
_cell_length_b   9.51751934
_cell_length_c   10.26276268
_cell_angle_alpha   90.75374999
_cell_angle_beta   114.54782208
_cell_angle_gamma   111.22134161
_symmetry_Int_Tables_number   1
_chemical_formula_structural   Tb7Gd3B2Cl15
_chemical_formula_sum   'Tb7 Gd3 B2 Cl15'
_cell_volume   706.47621257
_cell_formula_units_Z   1
loop_
 _symmetry_equiv_pos_site_id
 _symmetry_equiv_pos_as_xyz
  1  'x, y, z'
loop_
 _atom_site_type_symbol
 _atom_site_label
 _atom_site_symmetry_multiplicity
 _atom_site_fract_x
 _atom_site_fract_y
 _atom_site_fract_z
 _atom_site_occupancy
  Tb  Tb0  1  0.319740  0.256267  0.181960  1
  Tb  Tb1  1  0.526641  0.700646  0.101078  1
  Tb  Tb2  1  0.473135  0.300036  0.899166  1
  Tb  Tb3  1  0.589991  0.038890  0.332785  1
  Tb  Tb4  1  0.409250  0.961442  0.667016  1
  Tb  Tb5  1  0.731180  0.077604  0.049636  1
  Tb  Tb6  1  0.268576  0.923301  0.951012  1
  Gd  Gd7  1  0.813487  0.420086  0.281857  1
  Gd  Gd8  1  0.186720  0.579053  0.718226  1
  Gd  Gd9  1  0.682702  0.743331  0.817027  1
  B  B10  1  0.465822  0.817473  0.875233  1
  B  B11  1  0.533721  0.182489  0.124612  1
  Cl  Cl12  1  0.002668  0.002399  0.001818  1
  Cl  Cl13  1  0.635792  0.886517  0.582333  1
  Cl  Cl14  1  0.363181  0.115916  0.415028  1
  Cl  Cl15  1  0.882863  0.296112  0.528368  1
  Cl  Cl16  1  0.116822  0.703643  0.471681  1
  Cl  Cl17  1  0.295017  0.763837  0.182411  1
  Cl  Cl18  1  0.704629  0.236204  0.817689  1
  Cl  Cl19  1  0.059283  0.343182  0.227013  1
  Cl  Cl20  1  0.167540  0.058958  0.703165  1
  Cl  Cl21  1  0.832228  0.941054  0.296975  1
  Cl  Cl22  1  0.235262  0.409329  0.947066  1
  Cl  Cl23  1  0.764891  0.589481  0.055436  1
  Cl  Cl24  1  0.406329  0.461427  0.658346  1
  Cl  Cl25  1  0.590122  0.535146  0.340289  1
  Cl  Cl26  1  0.942408  0.656176  0.772776  1
