# generated using pymatgen
data_Ho4Mg3ScRh4
_symmetry_space_group_name_H-M   'P 1'
_cell_length_a   4.14303200
_cell_length_b   7.08239832
_cell_length_c   8.57558875
_cell_angle_alpha   91.10910367
_cell_angle_beta   90.00000000
_cell_angle_gamma   90.00000000
_symmetry_Int_Tables_number   1
_chemical_formula_structural   Ho4Mg3ScRh4
_chemical_formula_sum   'Ho4 Mg3 Sc1 Rh4'
_cell_volume   251.58295217
_cell_formula_units_Z   1
loop_
 _symmetry_equiv_pos_site_id
 _symmetry_equiv_pos_as_xyz
  1  'x, y, z'
loop_
 _atom_site_type_symbol
 _atom_site_label
 _atom_site_symmetry_multiplicity
 _atom_site_fract_x
 _atom_site_fract_y
 _atom_site_fract_z
 _atom_site_occupancy
  Ho  Ho0  1  0.250000  0.541476  0.177820  1
  Ho  Ho1  1  0.750000  0.471899  0.819457  1
  Ho  Ho2  1  0.750000  0.960503  0.670004  1
  Ho  Ho3  1  0.250000  0.028590  0.326987  1
  Mg  Mg4  1  0.250000  0.636276  0.561027  1
  Mg  Mg5  1  0.750000  0.362585  0.439860  1
  Mg  Mg6  1  0.750000  0.856877  0.063785  1
  Sc  Sc7  1  0.250000  0.133054  0.941271  1
  Rh  Rh8  1  0.250000  0.757712  0.875533  1
  Rh  Rh9  1  0.750000  0.252727  0.115640  1
  Rh  Rh10  1  0.750000  0.747205  0.374145  1
  Rh  Rh11  1  0.250000  0.251094  0.634471  1
