# generated using pymatgen
data_Tb16In4OsPt2Rh
_symmetry_space_group_name_H-M   'P 1'
_cell_length_a   9.71784206
_cell_length_b   9.75222746
_cell_length_c   9.71518200
_cell_angle_alpha   60.12557954
_cell_angle_beta   60.00905448
_cell_angle_gamma   60.21190120
_symmetry_Int_Tables_number   1
_chemical_formula_structural   Tb16In4OsPt2Rh
_chemical_formula_sum   'Tb16 In4 Os1 Pt2 Rh1'
_cell_volume   652.74258288
_cell_formula_units_Z   1
loop_
 _symmetry_equiv_pos_site_id
 _symmetry_equiv_pos_as_xyz
  1  'x, y, z'
loop_
 _atom_site_type_symbol
 _atom_site_label
 _atom_site_symmetry_multiplicity
 _atom_site_fract_x
 _atom_site_fract_y
 _atom_site_fract_z
 _atom_site_occupancy
  Tb  Tb0  1  0.809642  0.807275  0.191542  1
  Tb  Tb1  1  0.809305  0.195542  0.809143  1
  Tb  Tb2  1  0.187978  0.192285  0.809869  1
  Tb  Tb3  1  0.644036  0.055753  0.650106  1
  Tb  Tb4  1  0.060795  0.060021  0.439592  1
  Tb  Tb5  1  0.442934  0.435170  0.060948  1
  Tb  Tb6  1  0.650485  0.648885  0.654274  1
  Tb  Tb7  1  0.809305  0.195542  0.186011  1
  Tb  Tb8  1  0.194658  0.807778  0.809631  1
  Tb  Tb9  1  0.052759  0.644843  0.651198  1
  Tb  Tb10  1  0.437130  0.060653  0.063242  1
  Tb  Tb11  1  0.437130  0.060653  0.438974  1
  Tb  Tb12  1  0.058877  0.435427  0.060118  1
  Tb  Tb13  1  0.650485  0.648885  0.046355  1
  Tb  Tb14  1  0.194658  0.807778  0.187933  1
  Tb  Tb15  1  0.058877  0.435427  0.445578  1
  In  In16  1  0.417122  0.417425  0.416867  1
  In  In17  1  0.417122  0.417425  0.748585  1
  In  In18  1  0.418657  0.747436  0.416953  1
  In  In19  1  0.748091  0.417801  0.417053  1
  Os  Os20  1  0.859706  0.425793  0.857250  1
  Pt  Pt21  1  0.857544  0.860591  0.854698  1
  Pt  Pt22  1  0.857544  0.860591  0.427168  1
  Rh  Rh23  1  0.425162  0.861018  0.856910  1
