# generated using pymatgen
data_ErPa3(ZnRh)4
_symmetry_space_group_name_H-M   'P 1'
_cell_length_a   3.96292600
_cell_length_b   6.96026778
_cell_length_c   8.26867071
_cell_angle_alpha   90.29434504
_cell_angle_beta   90.00000000
_cell_angle_gamma   90.00000000
_symmetry_Int_Tables_number   1
_chemical_formula_structural   ErPa3(ZnRh)4
_chemical_formula_sum   'Er1 Pa3 Zn4 Rh4'
_cell_volume   228.07195104
_cell_formula_units_Z   1
loop_
 _symmetry_equiv_pos_site_id
 _symmetry_equiv_pos_as_xyz
  1  'x, y, z'
loop_
 _atom_site_type_symbol
 _atom_site_label
 _atom_site_symmetry_multiplicity
 _atom_site_fract_x
 _atom_site_fract_y
 _atom_site_fract_z
 _atom_site_occupancy
  Er  Er0  1  0.250000  0.055382  0.311631  1
  Pa  Pa1  1  0.250000  0.556552  0.189168  1
  Pa  Pa2  1  0.750000  0.450535  0.815619  1
  Pa  Pa3  1  0.750000  0.950028  0.680305  1
  Zn  Zn4  1  0.250000  0.619864  0.556372  1
  Zn  Zn5  1  0.750000  0.363613  0.442435  1
  Zn  Zn6  1  0.750000  0.885765  0.059974  1
  Zn  Zn7  1  0.250000  0.120761  0.947114  1
  Rh  Rh8  1  0.250000  0.730992  0.867878  1
  Rh  Rh9  1  0.750000  0.285574  0.119427  1
  Rh  Rh10  1  0.750000  0.750075  0.368505  1
  Rh  Rh11  1  0.250000  0.230859  0.641572  1
