# generated using pymatgen
data_Tm20Ga3FeBi8
_symmetry_space_group_name_H-M   'P 1'
_cell_length_a   7.95098987
_cell_length_b   9.19441700
_cell_length_c   11.95414023
_cell_angle_alpha   90.00000000
_cell_angle_beta   90.29415085
_cell_angle_gamma   90.00000000
_symmetry_Int_Tables_number   1
_chemical_formula_structural   Tm20Ga3FeBi8
_chemical_formula_sum   'Tm20 Ga3 Fe1 Bi8'
_cell_volume   873.89251434
_cell_formula_units_Z   1
loop_
 _symmetry_equiv_pos_site_id
 _symmetry_equiv_pos_as_xyz
  1  'x, y, z'
loop_
 _atom_site_type_symbol
 _atom_site_label
 _atom_site_symmetry_multiplicity
 _atom_site_fract_x
 _atom_site_fract_y
 _atom_site_fract_z
 _atom_site_occupancy
  Tm  Tm0  1  0.676469  0.971013  0.439498  1
  Tm  Tm1  1  0.819734  0.554942  0.936068  1
  Tm  Tm2  1  0.327485  0.437500  0.559660  1
  Tm  Tm3  1  0.182743  0.055265  0.063543  1
  Tm  Tm4  1  0.327485  0.062500  0.559660  1
  Tm  Tm5  1  0.182743  0.444735  0.063543  1
  Tm  Tm6  1  0.676469  0.528987  0.439498  1
  Tm  Tm7  1  0.819734  0.945058  0.936068  1
  Tm  Tm8  1  0.325787  0.750000  0.283028  1
  Tm  Tm9  1  0.168389  0.750000  0.784145  1
  Tm  Tm10  1  0.659522  0.250000  0.701576  1
  Tm  Tm11  1  0.824955  0.250000  0.217843  1
  Tm  Tm12  1  0.036073  0.750000  0.496867  1
  Tm  Tm13  1  0.460606  0.750000  0.997006  1
  Tm  Tm14  1  0.945140  0.250000  0.499730  1
  Tm  Tm15  1  0.539653  0.250000  0.999516  1
  Tm  Tm16  1  0.857679  0.750000  0.207062  1
  Tm  Tm17  1  0.641751  0.750000  0.707874  1
  Tm  Tm18  1  0.142030  0.250000  0.796429  1
  Tm  Tm19  1  0.381593  0.250000  0.304926  1
  Ga  Ga20  1  0.093369  0.750000  0.026596  1
  Ga  Ga21  1  0.408718  0.750000  0.523096  1
  Ga  Ga22  1  0.909331  0.250000  0.978065  1
  Fe  Fe23  1  0.582769  0.250000  0.484527  1
  Bi  Bi24  1  0.566419  0.988209  0.171677  1
  Bi  Bi25  1  0.936572  0.509264  0.675252  1
  Bi  Bi26  1  0.434194  0.491357  0.825475  1
  Bi  Bi27  1  0.067702  0.010715  0.324684  1
  Bi  Bi28  1  0.434194  0.008643  0.825475  1
  Bi  Bi29  1  0.067702  0.489285  0.324684  1
  Bi  Bi30  1  0.566419  0.511791  0.171677  1
  Bi  Bi31  1  0.936572  0.990736  0.675252  1
