# generated using pymatgen
data_Mg2MoSeO7
_symmetry_space_group_name_H-M   'P 1'
_cell_length_a   8.70541700
_cell_length_b   5.31567716
_cell_length_c   7.02586702
_cell_angle_alpha   81.18815802
_cell_angle_beta   90.00000000
_cell_angle_gamma   90.00000000
_symmetry_Int_Tables_number   1
_chemical_formula_structural   Mg2MoSeO7
_chemical_formula_sum   'Mg4 Mo2 Se2 O14'
_cell_volume   321.28579038
_cell_formula_units_Z   2
loop_
 _symmetry_equiv_pos_site_id
 _symmetry_equiv_pos_as_xyz
  1  'x, y, z'
loop_
 _atom_site_type_symbol
 _atom_site_label
 _atom_site_symmetry_multiplicity
 _atom_site_fract_x
 _atom_site_fract_y
 _atom_site_fract_z
 _atom_site_occupancy
  Mg  Mg0  1  0.463217  0.931688  0.491946  1
  Mg  Mg1  1  0.963217  0.068312  0.508054  1
  Mg  Mg2  1  0.633793  0.538673  0.234971  1
  Mg  Mg3  1  0.133793  0.461327  0.765029  1
  Mo  Mo4  1  0.463324  0.089958  0.984615  1
  Mo  Mo5  1  0.963324  0.910042  0.015385  1
  Se  Se6  1  0.769338  0.531802  0.623560  1
  Se  Se7  1  0.269338  0.468198  0.376440  1
  O  O8  1  0.945577  0.690802  0.621800  1
  O  O9  1  0.445577  0.309198  0.378200  1
  O  O10  1  0.666341  0.753372  0.467528  1
  O  O11  1  0.166341  0.246628  0.532472  1
  O  O12  1  0.460113  0.831915  0.192407  1
  O  O13  1  0.960113  0.168085  0.807593  1
  O  O14  1  0.795148  0.334034  0.448850  1
  O  O15  1  0.295148  0.665966  0.551150  1
  O  O16  1  0.607172  0.315399  0.025204  1
  O  O17  1  0.107172  0.684601  0.974796  1
  O  O18  1  0.282365  0.247573  0.951868  1
  O  O19  1  0.782365  0.752427  0.048132  1
  O  O20  1  0.506351  0.972103  0.767038  1
  O  O21  1  0.006351  0.027897  0.232962  1
