# generated using pymatgen
data_DyTm6Co6Sn22Hg
_symmetry_space_group_name_H-M   'P 1'
_cell_length_a   9.64238000
_cell_length_b   9.64237947
_cell_length_c   9.98825900
_cell_angle_alpha   90.00000000
_cell_angle_beta   90.00000000
_cell_angle_gamma   119.99999495
_symmetry_Int_Tables_number   1
_chemical_formula_structural   DyTm6Co6Sn22Hg
_chemical_formula_sum   'Dy1 Tm6 Co6 Sn22 Hg1'
_cell_volume   804.24600220
_cell_formula_units_Z   1
loop_
 _symmetry_equiv_pos_site_id
 _symmetry_equiv_pos_as_xyz
  1  'x, y, z'
loop_
 _atom_site_type_symbol
 _atom_site_label
 _atom_site_symmetry_multiplicity
 _atom_site_fract_x
 _atom_site_fract_y
 _atom_site_fract_z
 _atom_site_occupancy
  Dy  Dy0  1  0.000000  0.000000  0.000000  1
  Tm  Tm1  1  0.479404  0.520596  0.306247  1
  Tm  Tm2  1  0.520596  0.479404  0.693753  1
  Tm  Tm3  1  0.479404  0.958808  0.306247  1
  Tm  Tm4  1  0.520596  0.041192  0.693753  1
  Tm  Tm5  1  0.041192  0.520596  0.306247  1
  Tm  Tm6  1  0.958808  0.479404  0.693753  1
  Co  Co7  1  0.831725  0.168275  0.197395  1
  Co  Co8  1  0.168275  0.831725  0.802605  1
  Co  Co9  1  0.831725  0.663449  0.197395  1
  Co  Co10  1  0.168275  0.336551  0.802605  1
  Co  Co11  1  0.336551  0.168275  0.197395  1
  Co  Co12  1  0.663449  0.831725  0.802605  1
  Sn  Sn13  1  0.346512  0.000000  0.000000  1
  Sn  Sn14  1  0.653488  0.000000  0.000000  1
  Sn  Sn15  1  0.000000  0.346512  0.000000  1
  Sn  Sn16  1  0.000000  0.653488  0.000000  1
  Sn  Sn17  1  0.653488  0.653488  0.000000  1
  Sn  Sn18  1  0.346512  0.346512  0.000000  1
  Sn  Sn19  1  0.333333  0.666667  0.818363  1
  Sn  Sn20  1  0.666667  0.333333  0.181637  1
  Sn  Sn21  1  0.781857  0.218143  0.453203  1
  Sn  Sn22  1  0.218143  0.781857  0.546797  1
  Sn  Sn23  1  0.781857  0.563715  0.453203  1
  Sn  Sn24  1  0.218143  0.436285  0.546797  1
  Sn  Sn25  1  0.436285  0.218143  0.453203  1
  Sn  Sn26  1  0.563715  0.781857  0.546797  1
  Sn  Sn27  1  0.333333  0.666667  0.120946  1
  Sn  Sn28  1  0.666667  0.333333  0.879054  1
  Sn  Sn29  1  0.117219  0.882781  0.270820  1
  Sn  Sn30  1  0.882781  0.117219  0.729180  1
  Sn  Sn31  1  0.117219  0.234436  0.270820  1
  Sn  Sn32  1  0.882781  0.765564  0.729180  1
  Sn  Sn33  1  0.765564  0.882781  0.270820  1
  Sn  Sn34  1  0.234436  0.117219  0.729180  1
  Hg  Hg35  1  0.000000  0.000000  0.500000  1
