# generated using pymatgen
data_Ca7Pr(CdIn)4
_symmetry_space_group_name_H-M   'P 1'
_cell_length_a   7.74539700
_cell_length_b   5.45331000
_cell_length_c   10.92784101
_cell_angle_alpha   90.00000000
_cell_angle_beta   89.99610023
_cell_angle_gamma   90.00000000
_symmetry_Int_Tables_number   1
_chemical_formula_structural   Ca7Pr(CdIn)4
_chemical_formula_sum   'Ca7 Pr1 Cd4 In4'
_cell_volume   461.57070401
_cell_formula_units_Z   1
loop_
 _symmetry_equiv_pos_site_id
 _symmetry_equiv_pos_as_xyz
  1  'x, y, z'
loop_
 _atom_site_type_symbol
 _atom_site_label
 _atom_site_symmetry_multiplicity
 _atom_site_fract_x
 _atom_site_fract_y
 _atom_site_fract_z
 _atom_site_occupancy
  Ca  Ca0  1  0.000202  0.750000  0.128268  1
  Ca  Ca1  1  0.500036  0.250000  0.374346  1
  Ca  Ca2  1  0.000105  0.250000  0.371936  1
  Ca  Ca3  1  0.999512  0.750000  0.627863  1
  Ca  Ca4  1  0.500129  0.750000  0.627841  1
  Ca  Ca5  1  0.999834  0.250000  0.871802  1
  Ca  Ca6  1  0.500052  0.250000  0.869689  1
  Pr  Pr7  1  0.500420  0.750000  0.127897  1
  Cd  Cd8  1  0.753255  0.250000  0.118690  1
  Cd  Cd9  1  0.249205  0.750000  0.382343  1
  Cd  Cd10  1  0.750271  0.250000  0.618718  1
  Cd  Cd11  1  0.249126  0.750000  0.880042  1
  In  In12  1  0.247987  0.250000  0.119926  1
  In  In13  1  0.750465  0.750000  0.380888  1
  In  In14  1  0.249084  0.250000  0.619714  1
  In  In15  1  0.750317  0.750000  0.880039  1
