# generated using pymatgen
data_Eu4InSnPd4
_symmetry_space_group_name_H-M   'P 1'
_cell_length_a   5.99789442
_cell_length_b   5.99789457
_cell_length_c   8.48037775
_cell_angle_alpha   77.92714509
_cell_angle_beta   102.07285374
_cell_angle_gamma   120.17876692
_symmetry_Int_Tables_number   1
_chemical_formula_structural   Eu4InSnPd4
_chemical_formula_sum   'Eu4 In1 Sn1 Pd4'
_cell_volume   255.93656466
_cell_formula_units_Z   1
loop_
 _symmetry_equiv_pos_site_id
 _symmetry_equiv_pos_as_xyz
  1  'x, y, z'
loop_
 _atom_site_type_symbol
 _atom_site_label
 _atom_site_symmetry_multiplicity
 _atom_site_fract_x
 _atom_site_fract_y
 _atom_site_fract_z
 _atom_site_occupancy
  Eu  Eu0  1  0.497101  0.793886  0.348695  1
  Eu  Eu1  1  0.793885  0.497102  0.151306  1
  Eu  Eu2  1  0.499232  0.203071  0.646017  1
  Eu  Eu3  1  0.203070  0.499232  0.853984  1
  In  In4  1  0.850521  0.850519  0.750001  1
  Sn  Sn5  1  0.151918  0.151916  0.250001  1
  Pd  Pd6  1  0.269938  0.001597  0.999958  1
  Pd  Pd7  1  0.001597  0.269938  0.500041  1
  Pd  Pd8  1  0.732732  0.000014  0.000274  1
  Pd  Pd9  1  0.000014  0.732732  0.499726  1
