# generated using pymatgen
data_Sm4VTc3B16
_symmetry_space_group_name_H-M   'P 1'
_cell_length_a   3.62386800
_cell_length_b   6.02840476
_cell_length_c   11.66693011
_cell_angle_alpha   90.17889425
_cell_angle_beta   90.00000000
_cell_angle_gamma   90.00000000
_symmetry_Int_Tables_number   1
_chemical_formula_structural   Sm4VTc3B16
_chemical_formula_sum   'Sm4 V1 Tc3 B16'
_cell_volume   254.87618215
_cell_formula_units_Z   1
loop_
 _symmetry_equiv_pos_site_id
 _symmetry_equiv_pos_as_xyz
  1  'x, y, z'
loop_
 _atom_site_type_symbol
 _atom_site_label
 _atom_site_symmetry_multiplicity
 _atom_site_fract_x
 _atom_site_fract_y
 _atom_site_fract_z
 _atom_site_occupancy
  Sm  Sm0  1  0.000000  0.125014  0.150151  1
  Sm  Sm1  1  0.000000  0.875135  0.849887  1
  Sm  Sm2  1  0.000000  0.626586  0.349302  1
  Sm  Sm3  1  0.000000  0.373331  0.651576  1
  V  V4  1  0.000000  0.374043  0.918405  1
  Tc  Tc5  1  0.000000  0.132683  0.413193  1
  Tc  Tc6  1  0.000000  0.867506  0.585579  1
  Tc  Tc7  1  0.000000  0.624922  0.082819  1
  B  B8  1  0.500000  0.476951  0.190783  1
  B  B9  1  0.500000  0.523405  0.809017  1
  B  B10  1  0.500000  0.975858  0.309108  1
  B  B11  1  0.500000  0.024114  0.691052  1
  B  B12  1  0.500000  0.282855  0.315293  1
  B  B13  1  0.500000  0.717235  0.684420  1
  B  B14  1  0.500000  0.783040  0.183421  1
  B  B15  1  0.500000  0.216473  0.815982  1
  B  B16  1  0.500000  0.362042  0.468312  1
  B  B17  1  0.500000  0.638181  0.531737  1
  B  B18  1  0.500000  0.862333  0.032501  1
  B  B19  1  0.500000  0.137159  0.967504  1
  B  B20  1  0.500000  0.387453  0.046350  1
  B  B21  1  0.500000  0.613029  0.953610  1
  B  B22  1  0.500000  0.888170  0.453445  1
  B  B23  1  0.500000  0.112480  0.546557  1
