# generated using pymatgen
data_NdEr4Mg(P2Ru3)6
_symmetry_space_group_name_H-M   'P 1'
_cell_length_a   12.63219374
_cell_length_b   12.47865766
_cell_length_c   3.98032100
_cell_angle_alpha   90.00000000
_cell_angle_beta   90.00000000
_cell_angle_gamma   119.53373315
_symmetry_Int_Tables_number   1
_chemical_formula_structural   NdEr4Mg(P2Ru3)6
_chemical_formula_sum   'Nd1 Er4 Mg1 P12 Ru18'
_cell_volume   545.90460574
_cell_formula_units_Z   1
loop_
 _symmetry_equiv_pos_site_id
 _symmetry_equiv_pos_as_xyz
  1  'x, y, z'
loop_
 _atom_site_type_symbol
 _atom_site_label
 _atom_site_symmetry_multiplicity
 _atom_site_fract_x
 _atom_site_fract_y
 _atom_site_fract_z
 _atom_site_occupancy
  Nd  Nd0  1  0.184041  0.000364  0.500000  1
  Er  Er1  1  0.000276  0.181257  0.500000  1
  Er  Er2  1  0.816171  0.817309  0.500000  1
  Er  Er3  1  0.660702  0.328826  0.000000  1
  Er  Er4  1  0.340182  0.668465  0.000000  1
  Mg  Mg5  1  0.999588  0.561042  0.000000  1
  P  P6  1  0.997662  0.809346  0.000000  1
  P  P7  1  0.182380  0.185322  0.000000  1
  P  P8  1  0.816268  0.000615  0.000000  1
  P  P9  1  0.692218  0.172773  0.500000  1
  P  P10  1  0.817097  0.517217  0.500000  1
  P  P11  1  0.475277  0.307045  0.500000  1
  P  P12  1  0.182308  0.700042  0.500000  1
  P  P13  1  0.525566  0.831764  0.500000  1
  P  P14  1  0.308703  0.482101  0.500000  1
  P  P15  1  0.999721  0.359595  0.000000  1
  P  P16  1  0.625198  0.625575  0.000000  1
  P  P17  1  0.376042  0.000477  0.000000  1
  Ru  Ru18  1  0.444084  0.445509  0.000000  1
  Ru  Ru19  1  0.556319  0.000551  0.000000  1
  Ru  Ru20  1  0.998500  0.713688  0.500000  1
  Ru  Ru21  1  0.282260  0.285472  0.500000  1
  Ru  Ru22  1  0.718654  0.001784  0.500000  1
  Ru  Ru23  1  0.805324  0.184678  0.000000  1
  Ru  Ru24  1  0.812152  0.619461  0.000000  1
  Ru  Ru25  1  0.376153  0.192458  0.000000  1
  Ru  Ru26  1  0.186700  0.803910  0.000000  1
  Ru  Ru27  1  0.626526  0.815869  0.000000  1
  Ru  Ru28  1  0.194405  0.379952  0.000000  1
  Ru  Ru29  1  0.874843  0.365829  0.500000  1
  Ru  Ru30  1  0.630420  0.508842  0.500000  1
  Ru  Ru31  1  0.494001  0.129333  0.500000  1
  Ru  Ru32  1  0.370118  0.878180  0.500000  1
  Ru  Ru33  1  0.507362  0.636288  0.500000  1
  Ru  Ru34  1  0.125560  0.491680  0.500000  1
  Ru  Ru35  1  0.997218  0.997380  0.000000  1
