# generated using pymatgen
data_Ho3Tm7In8Ir3Pt
_symmetry_space_group_name_H-M   'P 1'
_cell_length_a   3.60584800
_cell_length_b   8.04135035
_cell_length_c   18.14178893
_cell_angle_alpha   89.88970314
_cell_angle_beta   90.00000000
_cell_angle_gamma   90.00000000
_symmetry_Int_Tables_number   1
_chemical_formula_structural   Ho3Tm7In8Ir3Pt
_chemical_formula_sum   'Ho3 Tm7 In8 Ir3 Pt1'
_cell_volume   526.03628858
_cell_formula_units_Z   1
loop_
 _symmetry_equiv_pos_site_id
 _symmetry_equiv_pos_as_xyz
  1  'x, y, z'
loop_
 _atom_site_type_symbol
 _atom_site_label
 _atom_site_symmetry_multiplicity
 _atom_site_fract_x
 _atom_site_fract_y
 _atom_site_fract_z
 _atom_site_occupancy
  Ho  Ho0  1  0.000000  0.750641  0.279387  1
  Ho  Ho1  1  0.000000  0.998865  0.999170  1
  Ho  Ho2  1  0.000000  0.500017  0.500313  1
  Tm  Tm3  1  0.000000  0.114206  0.412129  1
  Tm  Tm4  1  0.000000  0.885011  0.590250  1
  Tm  Tm5  1  0.000000  0.384816  0.909629  1
  Tm  Tm6  1  0.000000  0.615506  0.086844  1
  Tm  Tm7  1  0.000000  0.235002  0.222678  1
  Tm  Tm8  1  0.000000  0.757775  0.777499  1
  Tm  Tm9  1  0.000000  0.257413  0.722686  1
  In  In10  1  0.500000  0.423905  0.351840  1
  In  In11  1  0.500000  0.571252  0.648810  1
  In  In12  1  0.500000  0.071591  0.851094  1
  In  In13  1  0.500000  0.927557  0.148436  1
  In  In14  1  0.500000  0.291741  0.065403  1
  In  In15  1  0.500000  0.705688  0.932138  1
  In  In16  1  0.500000  0.206006  0.567844  1
  In  In17  1  0.500000  0.793491  0.433091  1
  Ir  Ir18  1  0.500000  0.021282  0.304287  1
  Ir  Ir19  1  0.500000  0.983868  0.696296  1
  Ir  Ir20  1  0.500000  0.484186  0.803856  1
  Pt  Pt21  1  0.500000  0.520181  0.196323  1
