# generated using pymatgen
data_Sm2Ga(AsRh2)6
_symmetry_space_group_name_H-M   'P 1'
_cell_length_a   9.99171200
_cell_length_b   9.99171164
_cell_length_c   3.98032800
_cell_angle_alpha   90.00000000
_cell_angle_beta   90.00000000
_cell_angle_gamma   120.00000120
_symmetry_Int_Tables_number   1
_chemical_formula_structural   Sm2Ga(AsRh2)6
_chemical_formula_sum   'Sm2 Ga1 As6 Rh12'
_cell_volume   344.13535092
_cell_formula_units_Z   1
loop_
 _symmetry_equiv_pos_site_id
 _symmetry_equiv_pos_as_xyz
  1  'x, y, z'
loop_
 _atom_site_type_symbol
 _atom_site_label
 _atom_site_symmetry_multiplicity
 _atom_site_fract_x
 _atom_site_fract_y
 _atom_site_fract_z
 _atom_site_occupancy
  Sm  Sm0  1  0.333333  0.666667  0.751651  1
  Sm  Sm1  1  0.000000  0.000000  0.249722  1
  Ga  Ga2  1  0.666667  0.333333  0.579719  1
  As  As3  1  0.952971  0.217646  0.750852  1
  As  As4  1  0.782354  0.735325  0.750852  1
  As  As5  1  0.264675  0.047029  0.750852  1
  As  As6  1  0.379596  0.447583  0.251442  1
  As  As7  1  0.552417  0.932012  0.251442  1
  As  As8  1  0.067988  0.620404  0.251442  1
  Rh  Rh9  1  0.731224  0.951088  0.751838  1
  Rh  Rh10  1  0.048912  0.780136  0.751838  1
  Rh  Rh11  1  0.219864  0.268776  0.751838  1
  Rh  Rh12  1  0.604065  0.717727  0.250492  1
  Rh  Rh13  1  0.282273  0.886338  0.250492  1
  Rh  Rh14  1  0.113662  0.395935  0.250492  1
  Rh  Rh15  1  0.945022  0.456550  0.751852  1
  Rh  Rh16  1  0.543450  0.488472  0.751852  1
  Rh  Rh17  1  0.511528  0.054978  0.751852  1
  Rh  Rh18  1  0.399878  0.213747  0.251223  1
  Rh  Rh19  1  0.786253  0.186131  0.251223  1
  Rh  Rh20  1  0.813869  0.600122  0.251223  1
