# generated using pymatgen
data_Tm12Co2TcOs
_symmetry_space_group_name_H-M   'P 1'
_cell_length_a   7.11895441
_cell_length_b   8.98599900
_cell_length_c   6.22149808
_cell_angle_alpha   90.00000000
_cell_angle_beta   89.93218767
_cell_angle_gamma   90.00000000
_symmetry_Int_Tables_number   1
_chemical_formula_structural   Tm12Co2TcOs
_chemical_formula_sum   'Tm12 Co2 Tc1 Os1'
_cell_volume   397.99465986
_cell_formula_units_Z   1
loop_
 _symmetry_equiv_pos_site_id
 _symmetry_equiv_pos_as_xyz
  1  'x, y, z'
loop_
 _atom_site_type_symbol
 _atom_site_label
 _atom_site_symmetry_multiplicity
 _atom_site_fract_x
 _atom_site_fract_y
 _atom_site_fract_z
 _atom_site_occupancy
  Tm  Tm0  1  0.037769  0.250000  0.638631  1
  Tm  Tm1  1  0.956579  0.750000  0.373029  1
  Tm  Tm2  1  0.461545  0.750000  0.138600  1
  Tm  Tm3  1  0.544055  0.250000  0.876889  1
  Tm  Tm4  1  0.172711  0.062799  0.168522  1
  Tm  Tm5  1  0.818305  0.934886  0.824334  1
  Tm  Tm6  1  0.327369  0.936787  0.668371  1
  Tm  Tm7  1  0.818305  0.565114  0.824334  1
  Tm  Tm8  1  0.680756  0.065382  0.325321  1
  Tm  Tm9  1  0.172711  0.437201  0.168522  1
  Tm  Tm10  1  0.680756  0.434618  0.325321  1
  Tm  Tm11  1  0.327369  0.563213  0.668371  1
  Co  Co12  1  0.615845  0.750000  0.536510  1
  Co  Co13  1  0.885271  0.250000  0.036417  1
  Tc  Tc14  1  0.388957  0.250000  0.465623  1
  Os  Os15  1  0.111696  0.750000  0.961205  1
