# generated using pymatgen
data_TmZn3AgRh
_symmetry_space_group_name_H-M   'P 1'
_cell_length_a   5.21220990
_cell_length_b   5.21220924
_cell_length_c   5.21220946
_cell_angle_alpha   60.21213693
_cell_angle_beta   60.21215242
_cell_angle_gamma   60.21213729
_symmetry_Int_Tables_number   1
_chemical_formula_structural   TmZn3AgRh
_chemical_formula_sum   'Tm1 Zn3 Ag1 Rh1'
_cell_volume   100.60780247
_cell_formula_units_Z   1
loop_
 _symmetry_equiv_pos_site_id
 _symmetry_equiv_pos_as_xyz
  1  'x, y, z'
loop_
 _atom_site_type_symbol
 _atom_site_label
 _atom_site_symmetry_multiplicity
 _atom_site_fract_x
 _atom_site_fract_y
 _atom_site_fract_z
 _atom_site_occupancy
  Tm  Tm0  1  0.252399  0.252399  0.252399  1
  Zn  Zn1  1  0.626380  0.626380  0.119509  1
  Zn  Zn2  1  0.626380  0.119509  0.626380  1
  Zn  Zn3  1  0.119509  0.626380  0.626380  1
  Ag  Ag4  1  0.002791  0.002791  0.002791  1
  Rh  Rh5  1  0.622541  0.622541  0.622541  1
