# generated using pymatgen
data_Sr3Cu7(Ni3B)2
_symmetry_space_group_name_H-M   'P 1'
_cell_length_a   5.21281429
_cell_length_b   5.20876426
_cell_length_c   10.94218009
_cell_angle_alpha   89.99419944
_cell_angle_beta   90.01159211
_cell_angle_gamma   120.02571149
_symmetry_Int_Tables_number   1
_chemical_formula_structural   Sr3Cu7(Ni3B)2
_chemical_formula_sum   'Sr3 Cu7 Ni6 B2'
_cell_volume   257.23428880
_cell_formula_units_Z   1
loop_
 _symmetry_equiv_pos_site_id
 _symmetry_equiv_pos_as_xyz
  1  'x, y, z'
loop_
 _atom_site_type_symbol
 _atom_site_label
 _atom_site_symmetry_multiplicity
 _atom_site_fract_x
 _atom_site_fract_y
 _atom_site_fract_z
 _atom_site_occupancy
  Sr  Sr0  1  0.000099  0.000000  0.000086  1
  Sr  Sr1  1  0.000077  0.000000  0.316004  1
  Sr  Sr2  1  0.999744  0.000000  0.684063  1
  Cu  Cu3  1  0.499935  0.000000  0.499947  1
  Cu  Cu4  1  0.499897  0.500001  0.499942  1
  Cu  Cu5  1  0.999897  0.499999  0.499942  1
  Cu  Cu6  1  0.333403  0.666643  0.312726  1
  Cu  Cu7  1  0.666759  0.333357  0.312726  1
  Cu  Cu8  1  0.666425  0.333353  0.687201  1
  Cu  Cu9  1  0.333072  0.666647  0.687201  1
  Ni  Ni10  1  0.500206  0.000000  0.125527  1
  Ni  Ni11  1  0.500181  0.500001  0.125386  1
  Ni  Ni12  1  0.000180  0.499999  0.125386  1
  Ni  Ni13  1  0.499944  0.000000  0.874582  1
  Ni  Ni14  1  0.499946  0.499992  0.874645  1
  Ni  Ni15  1  0.999954  0.500008  0.874645  1
  B  B16  1  0.333432  0.666684  0.999994  1
  B  B17  1  0.666748  0.333316  0.999994  1
