# generated using pymatgen
data_Sr2NdTl(Ir2O7)2
_symmetry_space_group_name_H-M   'P 1'
_cell_length_a   7.46867203
_cell_length_b   7.35257326
_cell_length_c   7.46867422
_cell_angle_alpha   59.34345588
_cell_angle_beta   59.57864180
_cell_angle_gamma   59.34345569
_symmetry_Int_Tables_number   1
_chemical_formula_structural   Sr2NdTl(Ir2O7)2
_chemical_formula_sum   'Sr2 Nd1 Tl1 Ir4 O14'
_cell_volume   286.19055400
_cell_formula_units_Z   1
loop_
 _symmetry_equiv_pos_site_id
 _symmetry_equiv_pos_as_xyz
  1  'x, y, z'
loop_
 _atom_site_type_symbol
 _atom_site_label
 _atom_site_symmetry_multiplicity
 _atom_site_fract_x
 _atom_site_fract_y
 _atom_site_fract_z
 _atom_site_occupancy
  Sr  Sr0  1  0.625000  0.125000  0.125000  1
  Sr  Sr1  1  0.125000  0.125000  0.625000  1
  Nd  Nd2  1  0.125000  0.125000  0.125000  1
  Tl  Tl3  1  0.125000  0.625000  0.125000  1
  Ir  Ir4  1  0.125000  0.625000  0.625000  1
  Ir  Ir5  1  0.625000  0.125000  0.625000  1
  Ir  Ir6  1  0.625000  0.625000  0.125000  1
  Ir  Ir7  1  0.625000  0.625000  0.625000  1
  O  O8  1  0.703272  0.688434  0.302964  1
  O  O9  1  0.296237  0.296550  0.710755  1
  O  O10  1  0.698997  0.299884  0.698997  1
  O  O11  1  0.302276  0.699395  0.302276  1
  O  O12  1  0.302964  0.688434  0.703272  1
  O  O13  1  0.710755  0.296550  0.296237  1
  O  O14  1  0.546728  0.561566  0.947036  1
  O  O15  1  0.953763  0.953450  0.539245  1
  O  O16  1  0.551003  0.950116  0.551003  1
  O  O17  1  0.947724  0.550605  0.947724  1
  O  O18  1  0.947036  0.561566  0.546728  1
  O  O19  1  0.539245  0.953450  0.953763  1
  O  O20  1  0.234425  0.278888  0.234425  1
  O  O21  1  0.015575  0.971112  0.015575  1
