# generated using pymatgen
data_DyThIr6
_symmetry_space_group_name_H-M   'P 1'
_cell_length_a   5.36079793
_cell_length_b   5.36079636
_cell_length_c   17.86620136
_cell_angle_alpha   98.62845075
_cell_angle_beta   98.62844670
_cell_angle_gamma   60.00001149
_symmetry_Int_Tables_number   1
_chemical_formula_structural   DyThIr6
_chemical_formula_sum   'Dy3 Th3 Ir18'
_cell_volume   437.93047413
_cell_formula_units_Z   3
loop_
 _symmetry_equiv_pos_site_id
 _symmetry_equiv_pos_as_xyz
  1  'x, y, z'
loop_
 _atom_site_type_symbol
 _atom_site_label
 _atom_site_symmetry_multiplicity
 _atom_site_fract_x
 _atom_site_fract_y
 _atom_site_fract_z
 _atom_site_occupancy
  Dy  Dy0  1  0.429382  0.429382  0.288146  1
  Dy  Dy1  1  0.931152  0.931152  0.793458  1
  Dy  Dy2  1  0.070359  0.070359  0.211078  1
  Th  Th3  1  0.569962  0.569962  0.709885  1
  Th  Th4  1  0.000653  0.000653  0.001958  1
  Th  Th5  1  0.498544  0.498544  0.495632  1
  Ir  Ir6  1  0.459609  0.958001  0.375612  1
  Ir  Ir7  1  0.960865  0.458518  0.877901  1
  Ir  Ir8  1  0.958001  0.958001  0.375612  1
  Ir  Ir9  1  0.458518  0.458518  0.877901  1
  Ir  Ir10  1  0.958001  0.459609  0.375612  1
  Ir  Ir11  1  0.458518  0.960865  0.877901  1
  Ir  Ir12  1  0.039287  0.542272  0.123831  1
  Ir  Ir13  1  0.540251  0.040949  0.622149  1
  Ir  Ir14  1  0.542272  0.542272  0.123831  1
  Ir  Ir15  1  0.040949  0.040949  0.622149  1
  Ir  Ir16  1  0.542272  0.039287  0.123831  1
  Ir  Ir17  1  0.040949  0.540251  0.622149  1
  Ir  Ir18  1  0.334027  0.334027  0.002081  1
  Ir  Ir19  1  0.833278  0.833278  0.499835  1
  Ir  Ir20  1  0.166198  0.166198  0.498595  1
  Ir  Ir21  1  0.666596  0.666596  0.999788  1
  Ir  Ir22  1  0.750083  0.750083  0.250248  1
  Ir  Ir23  1  0.250272  0.250272  0.750815  1
