# generated using pymatgen
data_Ac2PrMg3Tl2Ag
_symmetry_space_group_name_H-M   'P 1'
_cell_length_a   8.03158631
_cell_length_b   8.01964770
_cell_length_c   4.77139600
_cell_angle_alpha   90.00000000
_cell_angle_beta   90.00000000
_cell_angle_gamma   119.95084909
_symmetry_Int_Tables_number   1
_chemical_formula_structural   Ac2PrMg3Tl2Ag
_chemical_formula_sum   'Ac2 Pr1 Mg3 Tl2 Ag1'
_cell_volume   266.28554875
_cell_formula_units_Z   1
loop_
 _symmetry_equiv_pos_site_id
 _symmetry_equiv_pos_as_xyz
  1  'x, y, z'
loop_
 _atom_site_type_symbol
 _atom_site_label
 _atom_site_symmetry_multiplicity
 _atom_site_fract_x
 _atom_site_fract_y
 _atom_site_fract_z
 _atom_site_occupancy
  Ac  Ac0  1  0.412199  0.413799  0.500000  1
  Ac  Ac1  1  0.587801  0.001600  0.500000  1
  Pr  Pr2  1  0.000000  0.587764  0.500000  1
  Mg  Mg3  1  0.773378  0.767917  0.000000  1
  Mg  Mg4  1  0.226622  0.994539  0.000000  1
  Mg  Mg5  1  0.000000  0.233754  0.000000  1
  Tl  Tl6  1  0.679976  0.343617  0.000000  1
  Tl  Tl7  1  0.320024  0.663643  0.000000  1
  Ag  Ag8  1  0.000000  0.993367  0.500000  1
