# generated using pymatgen
data_Dy3Co5(P3Ir2)2
_symmetry_space_group_name_H-M   'P 1'
_cell_length_a   3.79616500
_cell_length_b   10.83829500
_cell_length_c   12.54201600
_cell_angle_alpha   90.00000000
_cell_angle_beta   90.00000000
_cell_angle_gamma   90.00000000
_symmetry_Int_Tables_number   1
_chemical_formula_structural   Dy3Co5(P3Ir2)2
_chemical_formula_sum   'Dy6 Co10 P12 Ir8'
_cell_volume   516.02815619
_cell_formula_units_Z   2
loop_
 _symmetry_equiv_pos_site_id
 _symmetry_equiv_pos_as_xyz
  1  'x, y, z'
loop_
 _atom_site_type_symbol
 _atom_site_label
 _atom_site_symmetry_multiplicity
 _atom_site_fract_x
 _atom_site_fract_y
 _atom_site_fract_z
 _atom_site_occupancy
  Dy  Dy0  1  0.000000  0.500000  0.521238  1
  Dy  Dy1  1  0.500000  0.000000  0.478762  1
  Dy  Dy2  1  0.500000  0.815507  0.197203  1
  Dy  Dy3  1  0.500000  0.184493  0.197203  1
  Dy  Dy4  1  0.000000  0.684493  0.802797  1
  Dy  Dy5  1  0.000000  0.315507  0.802797  1
  Co  Co6  1  0.000000  0.500000  0.991984  1
  Co  Co7  1  0.500000  0.000000  0.008016  1
  Co  Co8  1  0.500000  0.879271  0.716480  1
  Co  Co9  1  0.500000  0.120729  0.716480  1
  Co  Co10  1  0.000000  0.620729  0.283520  1
  Co  Co11  1  0.000000  0.379271  0.283520  1
  Co  Co12  1  0.500000  0.332891  0.995533  1
  Co  Co13  1  0.500000  0.667109  0.995533  1
  Co  Co14  1  0.000000  0.167109  0.004467  1
  Co  Co15  1  0.000000  0.832891  0.004467  1
  P  P16  1  0.500000  0.309781  0.625047  1
  P  P17  1  0.500000  0.690219  0.625047  1
  P  P18  1  0.000000  0.190219  0.374953  1
  P  P19  1  0.000000  0.809781  0.374953  1
  P  P20  1  0.500000  0.500000  0.894581  1
  P  P21  1  0.000000  0.000000  0.105419  1
  P  P22  1  0.500000  0.843049  0.897222  1
  P  P23  1  0.500000  0.156951  0.897222  1
  P  P24  1  0.000000  0.656951  0.102778  1
  P  P25  1  0.000000  0.343049  0.102778  1
  P  P26  1  0.500000  0.500000  0.344154  1
  P  P27  1  0.000000  0.000000  0.655846  1
  Ir  Ir28  1  0.500000  0.298595  0.426045  1
  Ir  Ir29  1  0.500000  0.701405  0.426045  1
  Ir  Ir30  1  0.000000  0.201405  0.573955  1
  Ir  Ir31  1  0.000000  0.798595  0.573955  1
  Ir  Ir32  1  0.500000  0.500000  0.159477  1
  Ir  Ir33  1  0.000000  0.000000  0.840523  1
  Ir  Ir34  1  0.500000  0.500000  0.708807  1
  Ir  Ir35  1  0.000000  0.000000  0.291193  1
