# generated using pymatgen
data_Yb2Cu4P3
_symmetry_space_group_name_H-M   'P 1'
_cell_length_a   12.79585800
_cell_length_b   12.79585879
_cell_length_c   3.94093900
_cell_angle_alpha   90.00000000
_cell_angle_beta   90.00000000
_cell_angle_gamma   119.99999797
_symmetry_Int_Tables_number   1
_chemical_formula_structural   Yb2Cu4P3
_chemical_formula_sum   'Yb8 Cu16 P12'
_cell_volume   558.81647803
_cell_formula_units_Z   4
loop_
 _symmetry_equiv_pos_site_id
 _symmetry_equiv_pos_as_xyz
  1  'x, y, z'
loop_
 _atom_site_type_symbol
 _atom_site_label
 _atom_site_symmetry_multiplicity
 _atom_site_fract_x
 _atom_site_fract_y
 _atom_site_fract_z
 _atom_site_occupancy
  Yb  Yb0  1  0.000000  0.569201  0.000000  1
  Yb  Yb1  1  0.430799  0.430799  0.000000  1
  Yb  Yb2  1  0.569201  0.000000  0.000000  1
  Yb  Yb3  1  0.000000  0.188827  0.500000  1
  Yb  Yb4  1  0.811173  0.811173  0.500000  1
  Yb  Yb5  1  0.188827  0.000000  0.500000  1
  Yb  Yb6  1  0.666667  0.333333  0.000000  1
  Yb  Yb7  1  0.333333  0.666667  0.000000  1
  Cu  Cu8  1  0.120851  0.483201  0.500000  1
  Cu  Cu9  1  0.483201  0.120851  0.500000  1
  Cu  Cu10  1  0.879149  0.362350  0.500000  1
  Cu  Cu11  1  0.637650  0.516799  0.500000  1
  Cu  Cu12  1  0.516799  0.637650  0.500000  1
  Cu  Cu13  1  0.362350  0.879149  0.500000  1
  Cu  Cu14  1  0.375418  0.188500  0.000000  1
  Cu  Cu15  1  0.811500  0.186918  0.000000  1
  Cu  Cu16  1  0.000000  0.000000  0.000000  1
  Cu  Cu17  1  0.727006  0.000000  0.500000  1
  Cu  Cu18  1  0.272994  0.272994  0.500000  1
  Cu  Cu19  1  0.000000  0.727006  0.500000  1
  Cu  Cu20  1  0.188500  0.375418  0.000000  1
  Cu  Cu21  1  0.186918  0.811500  0.000000  1
  Cu  Cu22  1  0.624582  0.813082  0.000000  1
  Cu  Cu23  1  0.813082  0.624582  0.000000  1
  P  P24  1  0.642370  0.642370  0.000000  1
  P  P25  1  0.000000  0.357630  0.000000  1
  P  P26  1  0.479654  0.304956  0.500000  1
  P  P27  1  0.304956  0.479654  0.500000  1
  P  P28  1  0.174698  0.695044  0.500000  1
  P  P29  1  0.520346  0.825302  0.500000  1
  P  P30  1  0.825302  0.520346  0.500000  1
  P  P31  1  0.695044  0.174698  0.500000  1
  P  P32  1  0.822715  0.000000  0.000000  1
  P  P33  1  0.177285  0.177285  0.000000  1
  P  P34  1  0.000000  0.822715  0.000000  1
  P  P35  1  0.357630  0.000000  0.000000  1
