# generated using pymatgen
data_LuCo(Sn2Ru)3
_symmetry_space_group_name_H-M   'P 1'
_cell_length_a   6.96142203
_cell_length_b   6.87768724
_cell_length_c   6.85480842
_cell_angle_alpha   120.28115207
_cell_angle_beta   120.68517335
_cell_angle_gamma   89.70944972
_symmetry_Int_Tables_number   1
_chemical_formula_structural   LuCo(Sn2Ru)3
_chemical_formula_sum   'Lu1 Co1 Sn6 Ru3'
_cell_volume   229.24462641
_cell_formula_units_Z   1
loop_
 _symmetry_equiv_pos_site_id
 _symmetry_equiv_pos_as_xyz
  1  'x, y, z'
loop_
 _atom_site_type_symbol
 _atom_site_label
 _atom_site_symmetry_multiplicity
 _atom_site_fract_x
 _atom_site_fract_y
 _atom_site_fract_z
 _atom_site_occupancy
  Lu  Lu0  1  0.982908  0.018879  0.000000  1
  Co  Co1  1  0.408398  0.746955  0.000000  1
  Sn  Sn2  1  0.463913  0.107424  0.000000  1
  Sn  Sn3  1  0.121716  0.466896  0.000000  1
  Sn  Sn4  1  0.877893  0.878931  0.342245  1
  Sn  Sn5  1  0.535647  0.536686  0.657755  1
  Sn  Sn6  1  0.008762  0.512040  0.517993  1
  Sn  Sn7  1  0.490768  0.994047  0.482007  1
  Ru  Ru8  1  0.757292  0.391422  0.000000  1
  Ru  Ru9  1  0.254739  0.251748  0.656776  1
  Ru  Ru10  1  0.597963  0.594972  0.343224  1
