# generated using pymatgen
data_DyHo7Sc11Si16Ru
_symmetry_space_group_name_H-M   'P 1'
_cell_length_a   6.99733000
_cell_length_b   7.35545309
_cell_length_c   13.88656900
_cell_angle_alpha   90.00282017
_cell_angle_beta   90.00095355
_cell_angle_gamma   90.09890819
_symmetry_Int_Tables_number   1
_chemical_formula_structural   DyHo7Sc11Si16Ru
_chemical_formula_sum   'Dy1 Ho7 Sc11 Si16 Ru1'
_cell_volume   714.72026284
_cell_formula_units_Z   1
loop_
 _symmetry_equiv_pos_site_id
 _symmetry_equiv_pos_as_xyz
  1  'x, y, z'
loop_
 _atom_site_type_symbol
 _atom_site_label
 _atom_site_symmetry_multiplicity
 _atom_site_fract_x
 _atom_site_fract_y
 _atom_site_fract_z
 _atom_site_occupancy
  Dy  Dy0  1  0.011961  0.178232  0.093447  1
  Ho  Ho1  1  0.992604  0.817983  0.901096  1
  Ho  Ho2  1  0.488668  0.673186  0.902355  1
  Ho  Ho3  1  0.992600  0.817986  0.598892  1
  Ho  Ho4  1  0.511129  0.323397  0.094847  1
  Ho  Ho5  1  0.011970  0.178261  0.406533  1
  Ho  Ho6  1  0.511138  0.323384  0.405158  1
  Ho  Ho7  1  0.488668  0.673179  0.597632  1
  Sc  Sc8  1  0.841092  0.495906  0.250008  1
  Sc  Sc9  1  0.341733  0.003572  0.250008  1
  Sc  Sc10  1  0.657542  0.995927  0.750001  1
  Sc  Sc11  1  0.326048  0.177002  0.627117  1
  Sc  Sc12  1  0.672034  0.824713  0.374398  1
  Sc  Sc13  1  0.172705  0.674044  0.376603  1
  Sc  Sc14  1  0.672036  0.824704  0.125607  1
  Sc  Sc15  1  0.826202  0.330894  0.628251  1
  Sc  Sc16  1  0.326054  0.176992  0.872878  1
  Sc  Sc17  1  0.826195  0.330907  0.871747  1
  Sc  Sc18  1  0.172705  0.674033  0.123402  1
  Si  Si19  1  0.029008  0.116486  0.749999  1
  Si  Si20  1  0.973144  0.885808  0.250011  1
  Si  Si21  1  0.469150  0.615296  0.250002  1
  Si  Si22  1  0.515865  0.395374  0.749998  1
  Si  Si23  1  0.284806  0.863261  0.750002  1
  Si  Si24  1  0.716441  0.129771  0.250021  1
  Si  Si25  1  0.214796  0.370697  0.250019  1
  Si  Si26  1  0.794610  0.629576  0.750000  1
  Si  Si27  1  0.157134  0.465442  0.546969  1
  Si  Si28  1  0.843051  0.535797  0.463312  1
  Si  Si29  1  0.344924  0.964793  0.463123  1
  Si  Si30  1  0.843042  0.535834  0.036680  1
  Si  Si31  1  0.658966  0.034466  0.539791  1
  Si  Si32  1  0.157139  0.465475  0.953022  1
  Si  Si33  1  0.658945  0.034459  0.960206  1
  Si  Si34  1  0.344980  0.964771  0.036866  1
  Ru  Ru35  1  0.150917  0.498396  0.749997  1
