# generated using pymatgen
data_NdSm3Y2NiBr10
_symmetry_space_group_name_H-M   'P 1'
_cell_length_a   7.41430303
_cell_length_b   9.37404157
_cell_length_c   9.40723847
_cell_angle_alpha   108.48674474
_cell_angle_beta   96.20902571
_cell_angle_gamma   105.60913730
_symmetry_Int_Tables_number   1
_chemical_formula_structural   NdSm3Y2NiBr10
_chemical_formula_sum   'Nd1 Sm3 Y2 Ni1 Br10'
_cell_volume   583.66296305
_cell_formula_units_Z   1
loop_
 _symmetry_equiv_pos_site_id
 _symmetry_equiv_pos_as_xyz
  1  'x, y, z'
loop_
 _atom_site_type_symbol
 _atom_site_label
 _atom_site_symmetry_multiplicity
 _atom_site_fract_x
 _atom_site_fract_y
 _atom_site_fract_z
 _atom_site_occupancy
  Nd  Nd0  1  0.873332  0.954724  0.247524  1
  Sm  Sm1  1  0.126262  0.045146  0.755455  1
  Sm  Sm2  1  0.028297  0.703901  0.904161  1
  Sm  Sm3  1  0.971573  0.295471  0.093853  1
  Y  Y4  1  0.645953  0.869692  0.827548  1
  Y  Y5  1  0.354022  0.130485  0.172640  1
  Ni  Ni6  1  0.999834  0.999595  0.000226  1
  Br  Br7  1  0.641946  0.552238  0.729706  1
  Br  Br8  1  0.357350  0.447836  0.270339  1
  Br  Br9  1  0.744309  0.915328  0.551285  1
  Br  Br10  1  0.260734  0.086443  0.453983  1
  Br  Br11  1  0.915356  0.628804  0.170573  1
  Br  Br12  1  0.085974  0.366631  0.826129  1
  Br  Br13  1  0.548603  0.174531  0.916224  1
  Br  Br14  1  0.447482  0.824117  0.081148  1
  Br  Br15  1  0.226912  0.746616  0.655400  1
  Br  Br16  1  0.772061  0.258441  0.343808  1
