# generated using pymatgen
data_TbAs4(RuRh2)2
_symmetry_space_group_name_H-M   'P 1'
_cell_length_a   7.19951753
_cell_length_b   7.26126666
_cell_length_c   3.87102700
_cell_angle_alpha   90.00000000
_cell_angle_beta   90.00000000
_cell_angle_gamma   120.28414177
_symmetry_Int_Tables_number   1
_chemical_formula_structural   TbAs4(RuRh2)2
_chemical_formula_sum   'Tb1 As4 Ru2 Rh4'
_cell_volume   174.75193954
_cell_formula_units_Z   1
loop_
 _symmetry_equiv_pos_site_id
 _symmetry_equiv_pos_as_xyz
  1  'x, y, z'
loop_
 _atom_site_type_symbol
 _atom_site_label
 _atom_site_symmetry_multiplicity
 _atom_site_fract_x
 _atom_site_fract_y
 _atom_site_fract_z
 _atom_site_occupancy
  Tb  Tb0  1  0.000259  0.000130  0.000000  1
  As  As1  1  0.803822  0.616081  0.500000  1
  As  As2  1  0.335622  0.667811  0.000000  1
  As  As3  1  0.388190  0.194095  0.500000  1
  As  As4  1  0.803822  0.187741  0.500000  1
  Ru  Ru5  1  0.538059  0.069639  0.000000  1
  Ru  Ru6  1  0.538059  0.468421  0.000000  1
  Rh  Rh7  1  0.598808  0.799404  0.500000  1
  Rh  Rh8  1  0.195831  0.390339  0.500000  1
  Rh  Rh9  1  0.195831  0.805494  0.500000  1
  Rh  Rh10  1  0.935028  0.467514  0.000000  1
