# generated using pymatgen
data_Nd10Sn6P
_symmetry_space_group_name_H-M   'P 1'
_cell_length_a   6.84861900
_cell_length_b   9.40376063
_cell_length_c   9.40371600
_cell_angle_alpha   120.00015955
_cell_angle_beta   90.00015296
_cell_angle_gamma   89.99969644
_symmetry_Int_Tables_number   1
_chemical_formula_structural   Nd10Sn6P
_chemical_formula_sum   'Nd10 Sn6 P1'
_cell_volume   524.48613265
_cell_formula_units_Z   1
loop_
 _symmetry_equiv_pos_site_id
 _symmetry_equiv_pos_as_xyz
  1  'x, y, z'
loop_
 _atom_site_type_symbol
 _atom_site_label
 _atom_site_symmetry_multiplicity
 _atom_site_fract_x
 _atom_site_fract_y
 _atom_site_fract_z
 _atom_site_occupancy
  Nd  Nd0  1  0.500000  0.333333  0.666667  1
  Nd  Nd1  1  0.500000  0.666666  0.333333  1
  Nd  Nd2  1  0.000000  0.666668  0.333336  1
  Nd  Nd3  1  0.000000  0.333333  0.666664  1
  Nd  Nd4  1  0.744419  0.246140  0.000000  1
  Nd  Nd5  1  0.744413  0.753858  0.753856  1
  Nd  Nd6  1  0.744413  0.000001  0.246144  1
  Nd  Nd7  1  0.255581  0.753860  0.000000  1
  Nd  Nd8  1  0.255587  0.246144  0.246144  1
  Nd  Nd9  1  0.255587  0.000000  0.753856  1
  Sn  Sn10  1  0.749724  0.605999  0.000000  1
  Sn  Sn11  1  0.749725  0.394003  0.394003  1
  Sn  Sn12  1  0.749725  0.000000  0.605997  1
  Sn  Sn13  1  0.250276  0.394001  0.000000  1
  Sn  Sn14  1  0.250275  0.605997  0.605997  1
  Sn  Sn15  1  0.250275  0.000000  0.394003  1
  P  P16  1  0.499999  0.000001  0.000000  1
