# generated using pymatgen
data_Li2EuEr(WO4)4
_symmetry_space_group_name_H-M   'P 1'
_cell_length_a   10.09712619
_cell_length_b   6.07753700
_cell_length_c   5.07644699
_cell_angle_alpha   90.00000000
_cell_angle_beta   92.47979845
_cell_angle_gamma   90.00000000
_symmetry_Int_Tables_number   1
_chemical_formula_structural   Li2EuEr(WO4)4
_chemical_formula_sum   'Li2 Eu1 Er1 W4 O16'
_cell_volume   311.22778378
_cell_formula_units_Z   1
loop_
 _symmetry_equiv_pos_site_id
 _symmetry_equiv_pos_as_xyz
  1  'x, y, z'
loop_
 _atom_site_type_symbol
 _atom_site_label
 _atom_site_symmetry_multiplicity
 _atom_site_fract_x
 _atom_site_fract_y
 _atom_site_fract_z
 _atom_site_occupancy
  Li  Li0  1  0.750000  0.744095  0.250000  1
  Li  Li1  1  0.250000  0.239285  0.749999  1
  Eu  Eu2  1  0.250000  0.667169  0.250001  1
  Er  Er3  1  0.750000  0.342224  0.750000  1
  W  W4  1  0.492160  0.169063  0.248296  1
  W  W5  1  0.007840  0.169063  0.251706  1
  W  W6  1  0.983999  0.833790  0.754380  1
  W  W7  1  0.516000  0.833790  0.745621  1
  O  O8  1  0.889028  0.908429  0.057726  1
  O  O9  1  0.407689  0.895872  0.054848  1
  O  O10  1  0.368972  0.353724  0.094572  1
  O  O11  1  0.885669  0.361747  0.106733  1
  O  O12  1  0.614331  0.361747  0.393267  1
  O  O13  1  0.131028  0.353724  0.405428  1
  O  O14  1  0.092310  0.895872  0.445151  1
  O  O15  1  0.610972  0.908429  0.442274  1
  O  O16  1  0.394087  0.087819  0.547709  1
  O  O17  1  0.897239  0.113621  0.565710  1
  O  O18  1  0.863235  0.643072  0.599551  1
  O  O19  1  0.393330  0.636477  0.610742  1
  O  O20  1  0.106669  0.636477  0.889257  1
  O  O21  1  0.636765  0.643072  0.900448  1
  O  O22  1  0.602760  0.113621  0.934289  1
  O  O23  1  0.105912  0.087819  0.952292  1
