# generated using pymatgen
data_HoLu2Al3GeAu2
_symmetry_space_group_name_H-M   'P 1'
_cell_length_a   6.98321881
_cell_length_b   7.00305185
_cell_length_c   4.28315500
_cell_angle_alpha   90.00000000
_cell_angle_beta   90.00000000
_cell_angle_gamma   120.28783880
_symmetry_Int_Tables_number   1
_chemical_formula_structural   HoLu2Al3GeAu2
_chemical_formula_sum   'Ho1 Lu2 Al3 Ge1 Au2'
_cell_volume   180.87162585
_cell_formula_units_Z   1
loop_
 _symmetry_equiv_pos_site_id
 _symmetry_equiv_pos_as_xyz
  1  'x, y, z'
loop_
 _atom_site_type_symbol
 _atom_site_label
 _atom_site_symmetry_multiplicity
 _atom_site_fract_x
 _atom_site_fract_y
 _atom_site_fract_z
 _atom_site_occupancy
  Ho  Ho0  1  0.424162  0.422779  0.500000  1
  Lu  Lu1  1  0.577337  0.999181  0.500000  1
  Lu  Lu2  1  0.002361  0.579301  0.500000  1
  Al  Al3  1  0.751225  0.763274  0.000000  1
  Al  Al4  1  0.237639  0.989269  0.000000  1
  Al  Al5  1  0.010641  0.248588  0.000000  1
  Ge  Ge6  1  0.668171  0.331998  0.000000  1
  Au  Au7  1  0.331945  0.669251  0.000000  1
  Au  Au8  1  0.996518  0.996360  0.500000  1
