# generated using pymatgen
data_Dy3Y13Cd3Ni4Ag
_symmetry_space_group_name_H-M   'P 1'
_cell_length_a   9.53041688
_cell_length_b   9.53372892
_cell_length_c   9.53372800
_cell_angle_alpha   60.13953044
_cell_angle_beta   60.12453626
_cell_angle_gamma   60.12453721
_symmetry_Int_Tables_number   1
_chemical_formula_structural   Dy3Y13Cd3Ni4Ag
_chemical_formula_sum   'Dy3 Y13 Cd3 Ni4 Ag1'
_cell_volume   614.32047948
_cell_formula_units_Z   1
loop_
 _symmetry_equiv_pos_site_id
 _symmetry_equiv_pos_as_xyz
  1  'x, y, z'
loop_
 _atom_site_type_symbol
 _atom_site_label
 _atom_site_symmetry_multiplicity
 _atom_site_fract_x
 _atom_site_fract_y
 _atom_site_fract_z
 _atom_site_occupancy
  Dy  Dy0  1  0.596641  0.596760  0.596760  1
  Dy  Dy1  1  0.600426  0.600494  0.199853  1
  Dy  Dy2  1  0.600426  0.199853  0.600494  1
  Y  Y3  1  0.198378  0.601004  0.601004  1
  Y  Y4  1  0.061585  0.440275  0.440275  1
  Y  Y5  1  0.439123  0.061295  0.061295  1
  Y  Y6  1  0.440429  0.061718  0.440278  1
  Y  Y7  1  0.061322  0.438947  0.061586  1
  Y  Y8  1  0.440429  0.440278  0.061718  1
  Y  Y9  1  0.061322  0.061586  0.438947  1
  Y  Y10  1  0.184931  0.813103  0.813103  1
  Y  Y11  1  0.811975  0.186735  0.186735  1
  Y  Y12  1  0.812740  0.184787  0.812884  1
  Y  Y13  1  0.186701  0.812305  0.186229  1
  Y  Y14  1  0.812740  0.812884  0.184787  1
  Y  Y15  1  0.186701  0.186229  0.812305  1
  Cd  Cd16  1  0.831060  0.831114  0.507703  1
  Cd  Cd17  1  0.831060  0.507703  0.831114  1
  Cd  Cd18  1  0.507731  0.831078  0.831078  1
  Ni  Ni19  1  0.395261  0.393835  0.393835  1
  Ni  Ni20  1  0.393005  0.391791  0.821537  1
  Ni  Ni21  1  0.393005  0.821537  0.391791  1
  Ni  Ni22  1  0.820778  0.392373  0.392373  1
  Ag  Ag23  1  0.832232  0.832319  0.832319  1
