# generated using pymatgen
data_SmAs4(Ru2Rh)2
_symmetry_space_group_name_H-M   'P 1'
_cell_length_a   7.18461247
_cell_length_b   7.21042233
_cell_length_c   3.89962900
_cell_angle_alpha   90.00000000
_cell_angle_beta   90.00000000
_cell_angle_gamma   120.11891069
_symmetry_Int_Tables_number   1
_chemical_formula_structural   SmAs4(Ru2Rh)2
_chemical_formula_sum   'Sm1 As4 Ru4 Rh2'
_cell_volume   174.74161454
_cell_formula_units_Z   1
loop_
 _symmetry_equiv_pos_site_id
 _symmetry_equiv_pos_as_xyz
  1  'x, y, z'
loop_
 _atom_site_type_symbol
 _atom_site_label
 _atom_site_symmetry_multiplicity
 _atom_site_fract_x
 _atom_site_fract_y
 _atom_site_fract_z
 _atom_site_occupancy
  Sm  Sm0  1  0.998399  0.999200  0.000000  1
  As  As1  1  0.804759  0.613703  0.500000  1
  As  As2  1  0.338146  0.669073  0.000000  1
  As  As3  1  0.388786  0.194392  0.500000  1
  As  As4  1  0.804759  0.191055  0.500000  1
  Ru  Ru5  1  0.533899  0.068429  0.000000  1
  Ru  Ru6  1  0.599004  0.799502  0.500000  1
  Ru  Ru7  1  0.533899  0.465469  0.000000  1
  Ru  Ru8  1  0.933552  0.466776  0.000000  1
  Rh  Rh9  1  0.199066  0.397250  0.500000  1
  Rh  Rh10  1  0.199066  0.801817  0.500000  1
