# generated using pymatgen
data_PrTh3(Si5Tc3)2
_symmetry_space_group_name_H-M   'P 1'
_cell_length_a   8.46211687
_cell_length_b   8.46972356
_cell_length_c   8.46972300
_cell_angle_alpha   140.24077813
_cell_angle_beta   108.74828162
_cell_angle_gamma   84.83971837
_symmetry_Int_Tables_number   1
_chemical_formula_structural   PrTh3(Si5Tc3)2
_chemical_formula_sum   'Pr1 Th3 Si10 Tc6'
_cell_volume   355.04944879
_cell_formula_units_Z   1
loop_
 _symmetry_equiv_pos_site_id
 _symmetry_equiv_pos_as_xyz
  1  'x, y, z'
loop_
 _atom_site_type_symbol
 _atom_site_label
 _atom_site_symmetry_multiplicity
 _atom_site_fract_x
 _atom_site_fract_y
 _atom_site_fract_z
 _atom_site_occupancy
  Pr  Pr0  1  0.102247  0.367806  0.734441  1
  Th  Th1  1  0.633071  0.866780  0.766293  1
  Th  Th2  1  0.366428  0.132222  0.234205  1
  Th  Th3  1  0.901363  0.635166  0.266197  1
  Si  Si4  1  0.999560  0.251611  0.252238  1
  Si  Si5  1  0.999560  0.747324  0.747949  1
  Si  Si6  1  0.291310  0.544293  0.250215  1
  Si  Si7  1  0.707742  0.958965  0.251006  1
  Si  Si8  1  0.707742  0.456736  0.748777  1
  Si  Si9  1  0.291310  0.041096  0.747017  1
  Si  Si10  1  0.431269  0.597819  0.833450  1
  Si  Si11  1  0.767935  0.098418  0.669517  1
  Si  Si12  1  0.231435  0.900459  0.330976  1
  Si  Si13  1  0.569777  0.402536  0.167243  1
  Tc  Tc14  1  0.057341  0.147199  0.910139  1
  Tc  Tc15  1  0.502565  0.751003  0.252268  1
  Tc  Tc16  1  0.242388  0.648662  0.593728  1
  Tc  Tc17  1  0.755135  0.350760  0.404374  1
  Tc  Tc18  1  0.939255  0.850850  0.088406  1
  Tc  Tc19  1  0.502565  0.250297  0.751563  1
