# generated using pymatgen
data_Dy16In3HgIr3Pt
_symmetry_space_group_name_H-M   'P 1'
_cell_length_a   9.65091893
_cell_length_b   9.65091930
_cell_length_c   9.65091881
_cell_angle_alpha   60.19935790
_cell_angle_beta   60.19935710
_cell_angle_gamma   60.19936079
_symmetry_Int_Tables_number   1
_chemical_formula_structural   Dy16In3HgIr3Pt
_chemical_formula_sum   'Dy16 In3 Hg1 Ir3 Pt1'
_cell_volume   638.47973072
_cell_formula_units_Z   1
loop_
 _symmetry_equiv_pos_site_id
 _symmetry_equiv_pos_as_xyz
  1  'x, y, z'
loop_
 _atom_site_type_symbol
 _atom_site_label
 _atom_site_symmetry_multiplicity
 _atom_site_fract_x
 _atom_site_fract_y
 _atom_site_fract_z
 _atom_site_occupancy
  Dy  Dy0  1  0.596954  0.596954  0.596954  1
  Dy  Dy1  1  0.604877  0.604877  0.193937  1
  Dy  Dy2  1  0.604877  0.193937  0.604877  1
  Dy  Dy3  1  0.193937  0.604877  0.604877  1
  Dy  Dy4  1  0.055037  0.441135  0.441135  1
  Dy  Dy5  1  0.437821  0.060179  0.060179  1
  Dy  Dy6  1  0.441135  0.055037  0.441135  1
  Dy  Dy7  1  0.060179  0.437821  0.060179  1
  Dy  Dy8  1  0.441135  0.441135  0.055037  1
  Dy  Dy9  1  0.060179  0.060179  0.437821  1
  Dy  Dy10  1  0.187612  0.811797  0.811797  1
  Dy  Dy11  1  0.812351  0.189885  0.189885  1
  Dy  Dy12  1  0.811797  0.187612  0.811797  1
  Dy  Dy13  1  0.189885  0.812351  0.189885  1
  Dy  Dy14  1  0.811797  0.811797  0.187612  1
  Dy  Dy15  1  0.189885  0.189885  0.812351  1
  In  In16  1  0.832422  0.832422  0.502079  1
  In  In17  1  0.832422  0.502079  0.832422  1
  In  In18  1  0.502079  0.832422  0.832422  1
  Hg  Hg19  1  0.836380  0.836380  0.836380  1
  Ir  Ir20  1  0.390104  0.390104  0.823788  1
  Ir  Ir21  1  0.390104  0.823788  0.390104  1
  Ir  Ir22  1  0.823788  0.390104  0.390104  1
  Pt  Pt23  1  0.393245  0.393245  0.393245  1
