# generated using pymatgen
data_Sr4YbY(IrO6)2
_symmetry_space_group_name_H-M   'P 1'
_cell_length_a   5.86998771
_cell_length_b   5.80754675
_cell_length_c   10.05282362
_cell_angle_alpha   55.10300001
_cell_angle_beta   90.17408753
_cell_angle_gamma   89.97749666
_symmetry_Int_Tables_number   1
_chemical_formula_structural   Sr4YbY(IrO6)2
_chemical_formula_sum   'Sr4 Yb1 Y1 Ir2 O12'
_cell_volume   281.07656893
_cell_formula_units_Z   1
loop_
 _symmetry_equiv_pos_site_id
 _symmetry_equiv_pos_as_xyz
  1  'x, y, z'
loop_
 _atom_site_type_symbol
 _atom_site_label
 _atom_site_symmetry_multiplicity
 _atom_site_fract_x
 _atom_site_fract_y
 _atom_site_fract_z
 _atom_site_occupancy
  Sr  Sr0  1  0.960309  0.747749  0.243959  1
  Sr  Sr1  1  0.464407  0.265402  0.242765  1
  Sr  Sr2  1  0.039691  0.252251  0.756041  1
  Sr  Sr3  1  0.535593  0.734598  0.757235  1
  Yb  Yb4  1  0.500000  0.000000  0.000000  1
  Y  Y5  1  0.000000  0.000000  0.500000  1
  Ir  Ir6  1  0.000000  0.500000  0.000000  1
  Ir  Ir7  1  0.500000  0.500000  0.500000  1
  O  O8  1  0.518636  0.804246  0.268898  1
  O  O9  1  0.018807  0.191223  0.234549  1
  O  O10  1  0.481364  0.195754  0.731102  1
  O  O11  1  0.981193  0.808777  0.765451  1
  O  O12  1  0.772491  0.654157  0.540934  1
  O  O13  1  0.269560  0.346868  0.960174  1
  O  O14  1  0.227509  0.345843  0.459066  1
  O  O15  1  0.730440  0.653132  0.039826  1
  O  O16  1  0.196402  0.731304  0.037313  1
  O  O17  1  0.698483  0.267565  0.461404  1
  O  O18  1  0.803598  0.268696  0.962687  1
  O  O19  1  0.301517  0.732435  0.538596  1
