# generated using pymatgen
data_Ti6Al5AsRu12
_symmetry_space_group_name_H-M   'P 1'
_cell_length_a   4.30677900
_cell_length_b   6.11348800
_cell_length_c   12.89455000
_cell_angle_alpha   90.00000000
_cell_angle_beta   90.00138496
_cell_angle_gamma   90.00000000
_symmetry_Int_Tables_number   1
_chemical_formula_structural   Ti6Al5AsRu12
_chemical_formula_sum   'Ti6 Al5 As1 Ru12'
_cell_volume   339.50630288
_cell_formula_units_Z   1
loop_
 _symmetry_equiv_pos_site_id
 _symmetry_equiv_pos_as_xyz
  1  'x, y, z'
loop_
 _atom_site_type_symbol
 _atom_site_label
 _atom_site_symmetry_multiplicity
 _atom_site_fract_x
 _atom_site_fract_y
 _atom_site_fract_z
 _atom_site_occupancy
  Ti  Ti0  1  0.000000  0.000000  0.000000  1
  Ti  Ti1  1  0.499829  0.499999  0.170018  1
  Ti  Ti2  1  0.999832  0.000000  0.334193  1
  Ti  Ti3  1  0.500000  0.499999  0.500000  1
  Ti  Ti4  1  0.000166  0.000000  0.665807  1
  Ti  Ti5  1  0.500171  0.499999  0.829981  1
  Al  Al6  1  0.499829  0.000000  0.166666  1
  Al  Al7  1  0.999826  0.499999  0.332873  1
  Al  Al8  1  0.500000  0.000000  0.500000  1
  Al  Al9  1  0.000174  0.499999  0.667126  1
  Al  Al10  1  0.500171  0.000000  0.833335  1
  As  As11  1  0.000000  0.499999  0.000000  1
  Ru  Ru12  1  0.500000  0.249936  0.000000  1
  Ru  Ru13  1  0.500000  0.750065  0.000000  1
  Ru  Ru14  1  0.999857  0.251680  0.165536  1
  Ru  Ru15  1  0.999857  0.748318  0.165536  1
  Ru  Ru16  1  0.499845  0.248149  0.332829  1
  Ru  Ru17  1  0.499845  0.751850  0.332829  1
  Ru  Ru18  1  0.000000  0.251875  0.500000  1
  Ru  Ru19  1  0.000000  0.748125  0.500000  1
  Ru  Ru20  1  0.500155  0.248149  0.667172  1
  Ru  Ru21  1  0.500155  0.751850  0.667172  1
  Ru  Ru22  1  0.000143  0.251680  0.834464  1
  Ru  Ru23  1  0.000143  0.748318  0.834464  1
