# generated using pymatgen
data_Th5Mo3(P3Ru4)4
_symmetry_space_group_name_H-M   'P 1'
_cell_length_a   12.76037000
_cell_length_b   12.76037086
_cell_length_c   4.01196200
_cell_angle_alpha   90.00000000
_cell_angle_beta   90.00000000
_cell_angle_gamma   120.00000295
_symmetry_Int_Tables_number   1
_chemical_formula_structural   Th5Mo3(P3Ru4)4
_chemical_formula_sum   'Th5 Mo3 P12 Ru16'
_cell_volume   565.73623225
_cell_formula_units_Z   1
loop_
 _symmetry_equiv_pos_site_id
 _symmetry_equiv_pos_as_xyz
  1  'x, y, z'
loop_
 _atom_site_type_symbol
 _atom_site_label
 _atom_site_symmetry_multiplicity
 _atom_site_fract_x
 _atom_site_fract_y
 _atom_site_fract_z
 _atom_site_occupancy
  Th  Th0  1  0.187525  0.187525  0.500000  1
  Th  Th1  1  0.812475  0.000000  0.500000  1
  Th  Th2  1  0.000000  0.812475  0.500000  1
  Th  Th3  1  0.333333  0.666667  0.000000  1
  Th  Th4  1  0.666667  0.333333  0.000000  1
  Mo  Mo5  1  0.561030  0.561030  0.000000  1
  Mo  Mo6  1  0.438970  0.000000  0.000000  1
  Mo  Mo7  1  0.000000  0.438970  0.000000  1
  P  P8  1  0.814493  0.814493  0.000000  1
  P  P9  1  0.185507  0.000000  0.000000  1
  P  P10  1  0.000000  0.185507  0.000000  1
  P  P11  1  0.165259  0.475252  0.500000  1
  P  P12  1  0.524748  0.690007  0.500000  1
  P  P13  1  0.309993  0.834741  0.500000  1
  P  P14  1  0.690007  0.524748  0.500000  1
  P  P15  1  0.834741  0.309993  0.500000  1
  P  P16  1  0.475252  0.165259  0.500000  1
  P  P17  1  0.374098  0.374098  0.000000  1
  P  P18  1  0.625902  0.000000  0.000000  1
  P  P19  1  0.000000  0.625902  0.000000  1
  Ru  Ru20  1  0.719246  0.719246  0.500000  1
  Ru  Ru21  1  0.280754  0.000000  0.500000  1
  Ru  Ru22  1  0.000000  0.280754  0.500000  1
  Ru  Ru23  1  0.183055  0.375038  0.000000  1
  Ru  Ru24  1  0.624962  0.808017  0.000000  1
  Ru  Ru25  1  0.191983  0.816945  0.000000  1
  Ru  Ru26  1  0.808017  0.624962  0.000000  1
  Ru  Ru27  1  0.816945  0.191983  0.000000  1
  Ru  Ru28  1  0.375038  0.183055  0.000000  1
  Ru  Ru29  1  0.362190  0.489848  0.500000  1
  Ru  Ru30  1  0.510152  0.872342  0.500000  1
  Ru  Ru31  1  0.127658  0.637810  0.500000  1
  Ru  Ru32  1  0.872342  0.510152  0.500000  1
  Ru  Ru33  1  0.637810  0.127658  0.500000  1
  Ru  Ru34  1  0.489848  0.362190  0.500000  1
  Ru  Ru35  1  0.000000  0.000000  0.000000  1
