# generated using pymatgen
data_Pr3Th(Co5P3)4
_symmetry_space_group_name_H-M   'P 1'
_cell_length_a   3.71907600
_cell_length_b   10.44653608
_cell_length_c   11.86411110
_cell_angle_alpha   89.98540057
_cell_angle_beta   90.00000000
_cell_angle_gamma   90.00000000
_symmetry_Int_Tables_number   1
_chemical_formula_structural   Pr3Th(Co5P3)4
_chemical_formula_sum   'Pr3 Th1 Co20 P12'
_cell_volume   460.93804214
_cell_formula_units_Z   1
loop_
 _symmetry_equiv_pos_site_id
 _symmetry_equiv_pos_as_xyz
  1  'x, y, z'
loop_
 _atom_site_type_symbol
 _atom_site_label
 _atom_site_symmetry_multiplicity
 _atom_site_fract_x
 _atom_site_fract_y
 _atom_site_fract_z
 _atom_site_occupancy
  Pr  Pr0  1  0.250000  0.916204  0.201077  1
  Pr  Pr1  1  0.750000  0.416695  0.299499  1
  Pr  Pr2  1  0.750000  0.083551  0.798301  1
  Th  Th3  1  0.250000  0.583007  0.701655  1
  Co  Co4  1  0.250000  0.713171  0.989499  1
  Co  Co5  1  0.250000  0.785921  0.490596  1
  Co  Co6  1  0.750000  0.286012  0.007491  1
  Co  Co7  1  0.750000  0.213032  0.508421  1
  Co  Co8  1  0.250000  0.406573  0.491507  1
  Co  Co9  1  0.250000  0.094690  0.990553  1
  Co  Co10  1  0.750000  0.595367  0.513279  1
  Co  Co11  1  0.750000  0.904418  0.008721  1
  Co  Co12  1  0.250000  0.221366  0.175329  1
  Co  Co13  1  0.250000  0.278802  0.676223  1
  Co  Co14  1  0.750000  0.776997  0.823211  1
  Co  Co15  1  0.750000  0.720563  0.325146  1
  Co  Co16  1  0.250000  0.882212  0.696943  1
  Co  Co17  1  0.250000  0.617540  0.197192  1
  Co  Co18  1  0.750000  0.117190  0.302163  1
  Co  Co19  1  0.750000  0.385724  0.801956  1
  Co  Co20  1  0.250000  0.469284  0.932614  1
  Co  Co21  1  0.250000  0.030650  0.432509  1
  Co  Co22  1  0.750000  0.529857  0.068097  1
  Co  Co23  1  0.750000  0.970392  0.566913  1
  P  P24  1  0.250000  0.418079  0.110245  1
  P  P25  1  0.250000  0.082072  0.609479  1
  P  P26  1  0.750000  0.582574  0.892523  1
  P  P27  1  0.750000  0.918260  0.390131  1
  P  P28  1  0.250000  0.275909  0.870753  1
  P  P29  1  0.250000  0.223340  0.369254  1
  P  P30  1  0.750000  0.723339  0.130059  1
  P  P31  1  0.750000  0.778482  0.629603  1
  P  P32  1  0.250000  0.606539  0.392855  1
  P  P33  1  0.250000  0.894327  0.893237  1
  P  P34  1  0.750000  0.391629  0.606630  1
  P  P35  1  0.750000  0.106232  0.106334  1
