# generated using pymatgen
data_La2Tb(PrIr)2
_symmetry_space_group_name_H-M   'P 1'
_cell_length_a   6.73475385
_cell_length_b   7.28667247
_cell_length_c   9.09651093
_cell_angle_alpha   95.97438559
_cell_angle_beta   111.72692806
_cell_angle_gamma   89.99999443
_symmetry_Int_Tables_number   1
_chemical_formula_structural   La2Tb(PrIr)2
_chemical_formula_sum   'La4 Tb2 Pr4 Ir4'
_cell_volume   412.07755195
_cell_formula_units_Z   2
loop_
 _symmetry_equiv_pos_site_id
 _symmetry_equiv_pos_as_xyz
  1  'x, y, z'
loop_
 _atom_site_type_symbol
 _atom_site_label
 _atom_site_symmetry_multiplicity
 _atom_site_fract_x
 _atom_site_fract_y
 _atom_site_fract_z
 _atom_site_occupancy
  La  La0  1  0.978178  0.919725  0.183373  1
  La  La1  1  0.794804  0.580275  0.816627  1
  La  La2  1  0.021822  0.080275  0.816627  1
  La  La3  1  0.205196  0.419725  0.183373  1
  Tb  Tb4  1  0.437210  0.750000  0.000000  1
  Tb  Tb5  1  0.562790  0.250000  0.000000  1
  Pr  Pr6  1  0.645781  0.813765  0.430377  1
  Pr  Pr7  1  0.215404  0.686235  0.569623  1
  Pr  Pr8  1  0.354219  0.186235  0.569623  1
  Pr  Pr9  1  0.784596  0.313765  0.430377  1
  Ir  Ir10  1  0.813576  0.573473  0.211103  1
  Ir  Ir11  1  0.602472  0.926527  0.788897  1
  Ir  Ir12  1  0.186424  0.426527  0.788897  1
  Ir  Ir13  1  0.397528  0.073473  0.211103  1
