# generated using pymatgen
data_Tb4Yb5PrSn8
_symmetry_space_group_name_H-M   'P 1'
_cell_length_a   7.88260900
_cell_length_b   8.44303192
_cell_length_c   16.05243877
_cell_angle_alpha   90.05368349
_cell_angle_beta   90.00000000
_cell_angle_gamma   90.00000000
_symmetry_Int_Tables_number   1
_chemical_formula_structural   Tb4Yb5PrSn8
_chemical_formula_sum   'Tb8 Yb10 Pr2 Sn16'
_cell_volume   1068.33940544
_cell_formula_units_Z   2
loop_
 _symmetry_equiv_pos_site_id
 _symmetry_equiv_pos_as_xyz
  1  'x, y, z'
loop_
 _atom_site_type_symbol
 _atom_site_label
 _atom_site_symmetry_multiplicity
 _atom_site_fract_x
 _atom_site_fract_y
 _atom_site_fract_z
 _atom_site_occupancy
  Tb  Tb0  1  0.669501  0.169029  0.622722  1
  Tb  Tb1  1  0.169501  0.330971  0.877278  1
  Tb  Tb2  1  0.328963  0.832540  0.122422  1
  Tb  Tb3  1  0.828963  0.667460  0.377578  1
  Tb  Tb4  1  0.328596  0.833049  0.376836  1
  Tb  Tb5  1  0.828596  0.666951  0.123164  1
  Tb  Tb6  1  0.670053  0.168027  0.877511  1
  Tb  Tb7  1  0.170053  0.331973  0.622489  1
  Yb  Yb8  1  0.497822  0.313471  0.093229  1
  Yb  Yb9  1  0.997822  0.186529  0.406771  1
  Yb  Yb10  1  0.496722  0.314066  0.406503  1
  Yb  Yb11  1  0.996722  0.185934  0.093497  1
  Yb  Yb12  1  0.503250  0.685676  0.906480  1
  Yb  Yb13  1  0.003250  0.814324  0.593520  1
  Yb  Yb14  1  0.833356  0.508616  0.750554  1
  Yb  Yb15  1  0.333356  0.991384  0.749446  1
  Yb  Yb16  1  0.166723  0.489104  0.250011  1
  Yb  Yb17  1  0.666723  0.010896  0.249989  1
  Pr  Pr18  1  0.505063  0.684498  0.593231  1
  Pr  Pr19  1  0.005063  0.815502  0.906769  1
  Sn  Sn20  1  0.672566  0.963266  0.461058  1
  Sn  Sn21  1  0.172566  0.536734  0.038942  1
  Sn  Sn22  1  0.328218  0.036142  0.959642  1
  Sn  Sn23  1  0.828218  0.463858  0.540358  1
  Sn  Sn24  1  0.328021  0.033566  0.540613  1
  Sn  Sn25  1  0.828021  0.466434  0.959387  1
  Sn  Sn26  1  0.674450  0.962997  0.039549  1
  Sn  Sn27  1  0.174450  0.537003  0.460451  1
  Sn  Sn28  1  0.467665  0.378084  0.750108  1
  Sn  Sn29  1  0.967665  0.121916  0.749892  1
  Sn  Sn30  1  0.530568  0.621332  0.250012  1
  Sn  Sn31  1  0.030568  0.878668  0.249988  1
  Sn  Sn32  1  0.711911  0.868484  0.750293  1
  Sn  Sn33  1  0.211911  0.631516  0.749707  1
  Sn  Sn34  1  0.286552  0.129052  0.249616  1
  Sn  Sn35  1  0.786552  0.370948  0.250384  1
