# generated using pymatgen
data_Pr3Sc3TcTe2
_symmetry_space_group_name_H-M   'P 1'
_cell_length_a   8.15244400
_cell_length_b   8.15244397
_cell_length_c   4.21252900
_cell_angle_alpha   90.00000000
_cell_angle_beta   90.00000000
_cell_angle_gamma   120.00000822
_symmetry_Int_Tables_number   1
_chemical_formula_structural   Pr3Sc3TcTe2
_chemical_formula_sum   'Pr3 Sc3 Tc1 Te2'
_cell_volume   242.46505016
_cell_formula_units_Z   1
loop_
 _symmetry_equiv_pos_site_id
 _symmetry_equiv_pos_as_xyz
  1  'x, y, z'
loop_
 _atom_site_type_symbol
 _atom_site_label
 _atom_site_symmetry_multiplicity
 _atom_site_fract_x
 _atom_site_fract_y
 _atom_site_fract_z
 _atom_site_occupancy
  Pr  Pr0  1  0.604761  0.000000  0.500000  1
  Pr  Pr1  1  0.395239  0.395239  0.500000  1
  Pr  Pr2  1  0.000000  0.604761  0.500000  1
  Sc  Sc3  1  0.220143  0.000000  0.000000  1
  Sc  Sc4  1  0.779857  0.779857  0.000000  1
  Sc  Sc5  1  0.000000  0.220143  0.000000  1
  Tc  Tc6  1  0.000000  0.000000  0.500000  1
  Te  Te7  1  0.333333  0.666667  0.000000  1
  Te  Te8  1  0.666667  0.333333  0.000000  1
