# generated using pymatgen
data_PrTh2Ga3IrRh2
_symmetry_space_group_name_H-M   'P 1'
_cell_length_a   7.37199037
_cell_length_b   7.30276845
_cell_length_c   4.02335900
_cell_angle_alpha   90.00000000
_cell_angle_beta   90.00000000
_cell_angle_gamma   119.70387233
_symmetry_Int_Tables_number   1
_chemical_formula_structural   PrTh2Ga3IrRh2
_chemical_formula_sum   'Pr1 Th2 Ga3 Ir1 Rh2'
_cell_volume   188.13946911
_cell_formula_units_Z   1
loop_
 _symmetry_equiv_pos_site_id
 _symmetry_equiv_pos_as_xyz
  1  'x, y, z'
loop_
 _atom_site_type_symbol
 _atom_site_label
 _atom_site_symmetry_multiplicity
 _atom_site_fract_x
 _atom_site_fract_y
 _atom_site_fract_z
 _atom_site_occupancy
  Pr  Pr0  1  0.000141  0.413273  0.500000  1
  Th  Th1  1  0.585240  0.587316  0.500000  1
  Th  Th2  1  0.414629  0.001965  0.500000  1
  Ga  Ga3  1  0.000054  0.751939  0.000000  1
  Ga  Ga4  1  0.230825  0.238544  0.000000  1
  Ga  Ga5  1  0.769167  0.007712  0.000000  1
  Ir  Ir6  1  0.357679  0.687099  0.000000  1
  Rh  Rh7  1  0.642277  0.329496  0.000000  1
  Rh  Rh8  1  0.999989  0.982656  0.500000  1
