# generated using pymatgen
data_Ba2NdInSe5
_symmetry_space_group_name_H-M   'P 1'
_cell_length_a   9.89428663
_cell_length_b   9.89428645
_cell_length_c   13.50236400
_cell_angle_alpha   90.00000000
_cell_angle_beta   90.00000000
_cell_angle_gamma   154.35248635
_symmetry_Int_Tables_number   1
_chemical_formula_structural   Ba2NdInSe5
_chemical_formula_sum   'Ba4 Nd2 In2 Se10'
_cell_volume   572.13643737
_cell_formula_units_Z   2
loop_
 _symmetry_equiv_pos_site_id
 _symmetry_equiv_pos_as_xyz
  1  'x, y, z'
loop_
 _atom_site_type_symbol
 _atom_site_label
 _atom_site_symmetry_multiplicity
 _atom_site_fract_x
 _atom_site_fract_y
 _atom_site_fract_z
 _atom_site_occupancy
  Ba  Ba0  1  0.869516  0.130484  0.185284  1
  Ba  Ba1  1  0.130484  0.869516  0.685284  1
  Ba  Ba2  1  0.883611  0.116389  0.819798  1
  Ba  Ba3  1  0.116389  0.883611  0.319798  1
  Nd  Nd4  1  0.788750  0.211250  0.482477  1
  Nd  Nd5  1  0.211250  0.788750  0.982477  1
  In  In6  1  0.552810  0.447190  0.062962  1
  In  In7  1  0.447190  0.552810  0.562962  1
  Se  Se8  1  0.641259  0.358741  0.499512  1
  Se  Se9  1  0.358741  0.641259  0.999512  1
  Se  Se10  1  0.708948  0.291052  0.837677  1
  Se  Se11  1  0.291052  0.708948  0.337677  1
  Se  Se12  1  0.685121  0.314879  0.134584  1
  Se  Se13  1  0.314879  0.685121  0.634584  1
  Se  Se14  1  0.495154  0.504846  0.233767  1
  Se  Se15  1  0.504846  0.495154  0.733767  1
  Se  Se16  1  0.951342  0.048658  0.450829  1
  Se  Se17  1  0.048658  0.951342  0.950829  1
