# generated using pymatgen
data_Ho6Al24FeRu5Au2
_symmetry_space_group_name_H-M   'P 1'
_cell_length_a   8.85008416
_cell_length_b   8.79864877
_cell_length_c   9.53260912
_cell_angle_alpha   89.99999383
_cell_angle_beta   89.94411384
_cell_angle_gamma   119.80792870
_symmetry_Int_Tables_number   1
_chemical_formula_structural   Ho6Al24FeRu5Au2
_chemical_formula_sum   'Ho6 Al24 Fe1 Ru5 Au2'
_cell_volume   644.08446624
_cell_formula_units_Z   1
loop_
 _symmetry_equiv_pos_site_id
 _symmetry_equiv_pos_as_xyz
  1  'x, y, z'
loop_
 _atom_site_type_symbol
 _atom_site_label
 _atom_site_symmetry_multiplicity
 _atom_site_fract_x
 _atom_site_fract_y
 _atom_site_fract_z
 _atom_site_occupancy
  Ho  Ho0  1  0.191181  0.386393  0.253757  1
  Ho  Ho1  1  0.808819  0.613607  0.746243  1
  Ho  Ho2  1  0.615053  0.807527  0.248920  1
  Ho  Ho3  1  0.384947  0.192473  0.751080  1
  Ho  Ho4  1  0.191181  0.804789  0.253757  1
  Ho  Ho5  1  0.808819  0.195211  0.746243  1
  Al  Al6  1  0.321480  0.660740  0.030074  1
  Al  Al7  1  0.678520  0.339260  0.969926  1
  Al  Al8  1  0.666383  0.333191  0.523981  1
  Al  Al9  1  0.333617  0.666809  0.476019  1
  Al  Al10  1  0.161134  0.321613  0.575148  1
  Al  Al11  1  0.838866  0.678387  0.424852  1
  Al  Al12  1  0.679524  0.839762  0.572221  1
  Al  Al13  1  0.848056  0.677595  0.080883  1
  Al  Al14  1  0.320476  0.160238  0.427779  1
  Al  Al15  1  0.151944  0.322405  0.919117  1
  Al  Al16  1  0.161134  0.839522  0.575148  1
  Al  Al17  1  0.317114  0.158556  0.084390  1
  Al  Al18  1  0.838866  0.160478  0.424852  1
  Al  Al19  1  0.682886  0.841444  0.915610  1
  Al  Al20  1  0.848056  0.170460  0.080883  1
  Al  Al21  1  0.151944  0.829540  0.919117  1
  Al  Al22  1  0.564103  0.127854  0.256918  1
  Al  Al23  1  0.435897  0.872146  0.743082  1
  Al  Al24  1  0.878024  0.439013  0.249653  1
  Al  Al25  1  0.121976  0.560987  0.750347  1
  Al  Al26  1  0.564103  0.436249  0.256918  1
  Al  Al27  1  0.435897  0.563751  0.743082  1
  Al  Al28  1  0.997172  0.998586  0.256838  1
  Al  Al29  1  0.002828  0.001414  0.743162  1
  Fe  Fe30  1  0.000000  0.000000  0.500000  1
  Ru  Ru31  1  0.000000  0.500000  0.000000  1
  Ru  Ru32  1  0.500000  0.000000  0.500000  1
  Ru  Ru33  1  0.000000  0.500000  0.500000  1
  Ru  Ru34  1  0.500000  0.500000  0.500000  1
  Ru  Ru35  1  0.000000  0.000000  0.000000  1
  Au  Au36  1  0.500000  0.000000  0.000000  1
  Au  Au37  1  0.500000  0.500000  0.000000  1
