# generated using pymatgen
data_Pr2Y(IrRh2)3
_symmetry_space_group_name_H-M   'P 1'
_cell_length_a   5.34857764
_cell_length_b   5.34017903
_cell_length_c   17.64991596
_cell_angle_alpha   89.99999989
_cell_angle_beta   89.95319640
_cell_angle_gamma   119.94805742
_symmetry_Int_Tables_number   1
_chemical_formula_structural   Pr2Y(IrRh2)3
_chemical_formula_sum   'Pr4 Y2 Ir6 Rh12'
_cell_volume   436.81171533
_cell_formula_units_Z   2
loop_
 _symmetry_equiv_pos_site_id
 _symmetry_equiv_pos_as_xyz
  1  'x, y, z'
loop_
 _atom_site_type_symbol
 _atom_site_label
 _atom_site_symmetry_multiplicity
 _atom_site_fract_x
 _atom_site_fract_y
 _atom_site_fract_z
 _atom_site_occupancy
  Pr  Pr0  1  0.333152  0.666577  0.956876  1
  Pr  Pr1  1  0.666923  0.333461  0.043158  1
  Pr  Pr2  1  0.333577  0.666789  0.746255  1
  Pr  Pr3  1  0.666810  0.333405  0.254105  1
  Y  Y4  1  0.666261  0.333130  0.460316  1
  Y  Y5  1  0.331812  0.665906  0.539522  1
  Ir  Ir6  1  0.167786  0.832400  0.375765  1
  Ir  Ir7  1  0.167786  0.335385  0.375765  1
  Ir  Ir8  1  0.665168  0.832584  0.375918  1
  Ir  Ir9  1  0.835531  0.169874  0.624254  1
  Ir  Ir10  1  0.835531  0.665658  0.624254  1
  Ir  Ir11  1  0.994720  0.997360  0.500133  1
  Rh  Rh12  1  0.336903  0.168452  0.624083  1
  Rh  Rh13  1  0.833943  0.166771  0.871232  1
  Rh  Rh14  1  0.833943  0.667173  0.871232  1
  Rh  Rh15  1  0.332266  0.166133  0.870480  1
  Rh  Rh16  1  0.165989  0.833309  0.128788  1
  Rh  Rh17  1  0.165989  0.332679  0.128788  1
  Rh  Rh18  1  0.667198  0.833598  0.128991  1
  Rh  Rh19  1  0.333802  0.666902  0.251129  1
  Rh  Rh20  1  0.667426  0.333713  0.748835  1
  Rh  Rh21  1  0.000523  0.000261  0.252748  1
  Rh  Rh22  1  0.996666  0.998333  0.747287  1
  Rh  Rh23  1  0.000294  0.000147  0.000086  1
