# generated using pymatgen
data_Y8TmZr3Ga20
_symmetry_space_group_name_H-M   'P 1'
_cell_length_a   6.05072212
_cell_length_b   9.49630200
_cell_length_c   11.37292111
_cell_angle_alpha   90.00000000
_cell_angle_beta   90.06967695
_cell_angle_gamma   90.00000000
_symmetry_Int_Tables_number   1
_chemical_formula_structural   Y8TmZr3Ga20
_chemical_formula_sum   'Y8 Tm1 Zr3 Ga20'
_cell_volume   653.48170123
_cell_formula_units_Z   1
loop_
 _symmetry_equiv_pos_site_id
 _symmetry_equiv_pos_as_xyz
  1  'x, y, z'
loop_
 _atom_site_type_symbol
 _atom_site_label
 _atom_site_symmetry_multiplicity
 _atom_site_fract_x
 _atom_site_fract_y
 _atom_site_fract_z
 _atom_site_occupancy
  Y  Y0  1  0.887823  0.510291  0.351846  1
  Y  Y1  1  0.613630  0.988712  0.853025  1
  Y  Y2  1  0.111894  0.010177  0.648640  1
  Y  Y3  1  0.388421  0.489150  0.147976  1
  Y  Y4  1  0.111894  0.489823  0.648640  1
  Y  Y5  1  0.388421  0.010850  0.147976  1
  Y  Y6  1  0.887823  0.989709  0.351846  1
  Y  Y7  1  0.613630  0.511288  0.853025  1
  Tm  Tm8  1  0.349944  0.250000  0.423455  1
  Zr  Zr9  1  0.857308  0.750000  0.076041  1
  Zr  Zr10  1  0.641428  0.750000  0.577870  1
  Zr  Zr11  1  0.144784  0.250000  0.923044  1
  Ga  Ga12  1  0.874886  0.051208  0.087199  1
  Ga  Ga13  1  0.625256  0.449927  0.590274  1
  Ga  Ga14  1  0.124673  0.552956  0.912608  1
  Ga  Ga15  1  0.376281  0.941579  0.411709  1
  Ga  Ga16  1  0.124673  0.947044  0.912608  1
  Ga  Ga17  1  0.376281  0.558421  0.411709  1
  Ga  Ga18  1  0.874886  0.448792  0.087199  1
  Ga  Ga19  1  0.625256  0.050073  0.590274  1
  Ga  Ga20  1  0.166393  0.750000  0.251235  1
  Ga  Ga21  1  0.332637  0.750000  0.751840  1
  Ga  Ga22  1  0.833880  0.250000  0.749230  1
  Ga  Ga23  1  0.673797  0.250000  0.246175  1
  Ga  Ga24  1  0.384726  0.750000  0.004672  1
  Ga  Ga25  1  0.112154  0.750000  0.505487  1
  Ga  Ga26  1  0.616606  0.250000  0.994028  1
  Ga  Ga27  1  0.875371  0.250000  0.497816  1
  Ga  Ga28  1  0.602616  0.750000  0.291645  1
  Ga  Ga29  1  0.899459  0.750000  0.794066  1
  Ga  Ga30  1  0.402266  0.250000  0.709231  1
  Ga  Ga31  1  0.100902  0.250000  0.197609  1
