# generated using pymatgen
data_Yb8Si12NiPd3
_symmetry_space_group_name_H-M   'P 1'
_cell_length_a   8.18815300
_cell_length_b   8.18815094
_cell_length_c   8.16016000
_cell_angle_alpha   90.00000000
_cell_angle_beta   90.00000000
_cell_angle_gamma   119.99999619
_symmetry_Int_Tables_number   1
_chemical_formula_structural   Yb8Si12NiPd3
_chemical_formula_sum   'Yb8 Si12 Ni1 Pd3'
_cell_volume   473.80660625
_cell_formula_units_Z   1
loop_
 _symmetry_equiv_pos_site_id
 _symmetry_equiv_pos_as_xyz
  1  'x, y, z'
loop_
 _atom_site_type_symbol
 _atom_site_label
 _atom_site_symmetry_multiplicity
 _atom_site_fract_x
 _atom_site_fract_y
 _atom_site_fract_z
 _atom_site_occupancy
  Yb  Yb0  1  0.498892  0.997784  0.249287  1
  Yb  Yb1  1  0.499086  0.998173  0.750762  1
  Yb  Yb2  1  0.002216  0.501108  0.249287  1
  Yb  Yb3  1  0.001827  0.500914  0.750762  1
  Yb  Yb4  1  0.498892  0.501108  0.249287  1
  Yb  Yb5  1  0.499086  0.500914  0.750762  1
  Yb  Yb6  1  0.000000  0.000000  0.248491  1
  Yb  Yb7  1  0.000000  0.000000  0.751508  1
  Si  Si8  1  0.169104  0.338209  0.000120  1
  Si  Si9  1  0.835979  0.671959  0.999774  1
  Si  Si10  1  0.661791  0.830896  0.000120  1
  Si  Si11  1  0.835807  0.671615  0.499702  1
  Si  Si12  1  0.328041  0.164021  0.999774  1
  Si  Si13  1  0.163773  0.327547  0.500373  1
  Si  Si14  1  0.169104  0.830896  0.000120  1
  Si  Si15  1  0.328385  0.164193  0.499702  1
  Si  Si16  1  0.835979  0.164021  0.999774  1
  Si  Si17  1  0.672453  0.836227  0.500373  1
  Si  Si18  1  0.835807  0.164193  0.499702  1
  Si  Si19  1  0.163773  0.836227  0.500373  1
  Ni  Ni20  1  0.333333  0.666667  0.999711  1
  Pd  Pd21  1  0.666667  0.333333  0.999747  1
  Pd  Pd22  1  0.666667  0.333333  0.499743  1
  Pd  Pd23  1  0.333333  0.666667  0.500745  1
