# generated using pymatgen
data_Ba12Al3Fe(O4F)4
_symmetry_space_group_name_H-M   'P 1'
_cell_length_a   7.39093332
_cell_length_b   8.25062500
_cell_length_c   10.60837891
_cell_angle_alpha   90.00000000
_cell_angle_beta   90.06858086
_cell_angle_gamma   90.00000000
_symmetry_Int_Tables_number   1
_chemical_formula_structural   Ba12Al3Fe(O4F)4
_chemical_formula_sum   'Ba12 Al3 Fe1 O16 F4'
_cell_volume   646.89656447
_cell_formula_units_Z   1
loop_
 _symmetry_equiv_pos_site_id
 _symmetry_equiv_pos_as_xyz
  1  'x, y, z'
loop_
 _atom_site_type_symbol
 _atom_site_label
 _atom_site_symmetry_multiplicity
 _atom_site_fract_x
 _atom_site_fract_y
 _atom_site_fract_z
 _atom_site_occupancy
  Ba  Ba0  1  0.400467  0.024586  0.834432  1
  Ba  Ba1  1  0.099031  0.475890  0.332063  1
  Ba  Ba2  1  0.598820  0.525626  0.167027  1
  Ba  Ba3  1  0.898996  0.974074  0.666829  1
  Ba  Ba4  1  0.598820  0.974374  0.167027  1
  Ba  Ba5  1  0.898996  0.525926  0.666829  1
  Ba  Ba6  1  0.400467  0.475414  0.834432  1
  Ba  Ba7  1  0.099031  0.024110  0.332063  1
  Ba  Ba8  1  0.901259  0.250000  0.967725  1
  Ba  Ba9  1  0.597820  0.250000  0.463543  1
  Ba  Ba10  1  0.096041  0.750000  0.034465  1
  Ba  Ba11  1  0.407470  0.750000  0.533176  1
  Al  Al12  1  0.310139  0.250000  0.103073  1
  Al  Al13  1  0.811614  0.750000  0.396543  1
  Al  Al14  1  0.689833  0.750000  0.897420  1
  Fe  Fe15  1  0.190632  0.250000  0.602468  1
  O  O16  1  0.312080  0.055193  0.570315  1
  O  O17  1  0.194616  0.434701  0.072978  1
  O  O18  1  0.695639  0.565873  0.426816  1
  O  O19  1  0.805235  0.934173  0.928772  1
  O  O20  1  0.695639  0.934127  0.426816  1
  O  O21  1  0.805235  0.565827  0.928772  1
  O  O22  1  0.312080  0.444807  0.570315  1
  O  O23  1  0.194616  0.065299  0.072978  1
  O  O24  1  0.973815  0.250000  0.505469  1
  O  O25  1  0.513718  0.250000  0.011187  1
  O  O26  1  0.014012  0.750000  0.489638  1
  O  O27  1  0.485597  0.750000  0.988727  1
  O  O28  1  0.129102  0.250000  0.777054  1
  O  O29  1  0.369806  0.250000  0.267607  1
  O  O30  1  0.871196  0.750000  0.232237  1
  O  O31  1  0.632241  0.750000  0.732612  1
  F  F32  1  0.660533  0.250000  0.726955  1
  F  F33  1  0.837170  0.250000  0.226539  1
  F  F34  1  0.337986  0.750000  0.271365  1
  F  F35  1  0.160248  0.750000  0.773734  1
