# generated using pymatgen
data_TbTh3(SiTc2)8
_symmetry_space_group_name_H-M   'P 1'
_cell_length_a   4.16669600
_cell_length_b   7.15296252
_cell_length_c   15.66424568
_cell_angle_alpha   90.21492455
_cell_angle_beta   90.00000000
_cell_angle_gamma   90.00000000
_symmetry_Int_Tables_number   1
_chemical_formula_structural   TbTh3(SiTc2)8
_chemical_formula_sum   'Tb1 Th3 Si8 Tc16'
_cell_volume   466.85734497
_cell_formula_units_Z   1
loop_
 _symmetry_equiv_pos_site_id
 _symmetry_equiv_pos_as_xyz
  1  'x, y, z'
loop_
 _atom_site_type_symbol
 _atom_site_label
 _atom_site_symmetry_multiplicity
 _atom_site_fract_x
 _atom_site_fract_y
 _atom_site_fract_z
 _atom_site_occupancy
  Tb  Tb0  1  0.000000  0.591195  0.117123  1
  Th  Th1  1  0.000000  0.408868  0.885257  1
  Th  Th2  1  0.500000  0.091051  0.380866  1
  Th  Th3  1  0.500000  0.907349  0.616957  1
  Si  Si4  1  0.000000  0.827342  0.472287  1
  Si  Si5  1  0.000000  0.172462  0.526066  1
  Si  Si6  1  0.500000  0.331873  0.028524  1
  Si  Si7  1  0.500000  0.673201  0.976045  1
  Si  Si8  1  0.000000  0.312490  0.270858  1
  Si  Si9  1  0.000000  0.687128  0.727225  1
  Si  Si10  1  0.500000  0.804503  0.222854  1
  Si  Si11  1  0.500000  0.188179  0.774300  1
  Tc  Tc12  1  0.000000  0.144993  0.052175  1
  Tc  Tc13  1  0.000000  0.860692  0.950056  1
  Tc  Tc14  1  0.500000  0.641327  0.448397  1
  Tc  Tc15  1  0.500000  0.358038  0.550677  1
  Tc  Tc16  1  0.000000  0.736833  0.318715  1
  Tc  Tc17  1  0.000000  0.263034  0.679905  1
  Tc  Tc18  1  0.500000  0.237877  0.179786  1
  Tc  Tc19  1  0.500000  0.762055  0.821777  1
  Tc  Tc20  1  0.000000  0.430805  0.419958  1
  Tc  Tc21  1  0.000000  0.569007  0.578826  1
  Tc  Tc22  1  0.500000  0.936119  0.079555  1
  Tc  Tc23  1  0.500000  0.069828  0.921958  1
  Tc  Tc24  1  0.000000  0.000621  0.205116  1
  Tc  Tc25  1  0.000000  0.994751  0.795363  1
  Tc  Tc26  1  0.500000  0.503829  0.293268  1
  Tc  Tc27  1  0.500000  0.494551  0.706104  1
