# generated using pymatgen
data_DyHoEr4(Al3Os)8
_symmetry_space_group_name_H-M   'P 1'
_cell_length_a   8.80436000
_cell_length_b   8.80296364
_cell_length_c   9.58336300
_cell_angle_alpha   90.00000000
_cell_angle_beta   90.00000000
_cell_angle_gamma   120.00524739
_symmetry_Int_Tables_number   1
_chemical_formula_structural   DyHoEr4(Al3Os)8
_chemical_formula_sum   'Dy1 Ho1 Er4 Al24 Os8'
_cell_volume   643.20928364
_cell_formula_units_Z   1
loop_
 _symmetry_equiv_pos_site_id
 _symmetry_equiv_pos_as_xyz
  1  'x, y, z'
loop_
 _atom_site_type_symbol
 _atom_site_label
 _atom_site_symmetry_multiplicity
 _atom_site_fract_x
 _atom_site_fract_y
 _atom_site_fract_z
 _atom_site_occupancy
  Dy  Dy0  1  0.807004  0.614014  0.750000  1
  Ho  Ho1  1  0.193021  0.386047  0.250000  1
  Er  Er2  1  0.612172  0.806163  0.250000  1
  Er  Er3  1  0.387883  0.193836  0.750000  1
  Er  Er4  1  0.193999  0.806159  0.250000  1
  Er  Er5  1  0.805945  0.193833  0.750000  1
  Al  Al6  1  0.333284  0.666569  0.018270  1
  Al  Al7  1  0.666655  0.333310  0.981729  1
  Al  Al8  1  0.666655  0.333310  0.518271  1
  Al  Al9  1  0.333284  0.666569  0.481730  1
  Al  Al10  1  0.162867  0.325733  0.575971  1
  Al  Al11  1  0.837171  0.674344  0.424022  1
  Al  Al12  1  0.674212  0.837258  0.575294  1
  Al  Al13  1  0.837171  0.674344  0.075978  1
  Al  Al14  1  0.325768  0.162812  0.424735  1
  Al  Al15  1  0.162867  0.325733  0.924029  1
  Al  Al16  1  0.163046  0.837259  0.575295  1
  Al  Al17  1  0.325768  0.162812  0.075265  1
  Al  Al18  1  0.837044  0.162811  0.424734  1
  Al  Al19  1  0.674212  0.837258  0.924706  1
  Al  Al20  1  0.837044  0.162811  0.075266  1
  Al  Al21  1  0.163046  0.837259  0.924705  1
  Al  Al22  1  0.560768  0.121541  0.250000  1
  Al  Al23  1  0.439235  0.878470  0.750000  1
  Al  Al24  1  0.878397  0.439330  0.250000  1
  Al  Al25  1  0.121754  0.560687  0.750000  1
  Al  Al26  1  0.560932  0.439329  0.250000  1
  Al  Al27  1  0.438932  0.560687  0.750000  1
  Al  Al28  1  0.999282  0.998566  0.250000  1
  Al  Al29  1  0.000724  0.001449  0.750000  1
  Os  Os30  1  0.499957  0.999911  0.000029  1
  Os  Os31  1  0.000088  0.499952  0.000085  1
  Os  Os32  1  0.499957  0.999911  0.499971  1
  Os  Os33  1  0.499867  0.499952  0.000082  1
  Os  Os34  1  0.000088  0.499952  0.499915  1
  Os  Os35  1  0.499867  0.499952  0.499918  1
  Os  Os36  1  0.000018  0.000036  0.000053  1
  Os  Os37  1  0.000018  0.000036  0.499947  1
