# generated using pymatgen
data_Hf4Zr12Pd3Rh5N4
_symmetry_space_group_name_H-M   'P 1'
_cell_length_a   8.81256892
_cell_length_b   8.81256809
_cell_length_c   8.81256758
_cell_angle_alpha   60.07383145
_cell_angle_beta   60.07383323
_cell_angle_gamma   60.07383385
_symmetry_Int_Tables_number   1
_chemical_formula_structural   Hf4Zr12Pd3Rh5N4
_chemical_formula_sum   'Hf4 Zr12 Pd3 Rh5 N4'
_cell_volume   484.75079136
_cell_formula_units_Z   1
loop_
 _symmetry_equiv_pos_site_id
 _symmetry_equiv_pos_as_xyz
  1  'x, y, z'
loop_
 _atom_site_type_symbol
 _atom_site_label
 _atom_site_symmetry_multiplicity
 _atom_site_fract_x
 _atom_site_fract_y
 _atom_site_fract_z
 _atom_site_occupancy
  Hf  Hf0  1  0.115341  0.627244  0.627244  1
  Hf  Hf1  1  0.627244  0.115341  0.627244  1
  Hf  Hf2  1  0.627244  0.627244  0.115341  1
  Hf  Hf3  1  0.631061  0.631061  0.631061  1
  Zr  Zr4  1  0.817751  0.817751  0.181997  1
  Zr  Zr5  1  0.182787  0.182787  0.816830  1
  Zr  Zr6  1  0.817751  0.181997  0.817751  1
  Zr  Zr7  1  0.182787  0.816830  0.182787  1
  Zr  Zr8  1  0.181997  0.817751  0.817751  1
  Zr  Zr9  1  0.816830  0.182787  0.182787  1
  Zr  Zr10  1  0.432484  0.432484  0.069321  1
  Zr  Zr11  1  0.067549  0.067549  0.432186  1
  Zr  Zr12  1  0.432484  0.069321  0.432484  1
  Zr  Zr13  1  0.067549  0.432186  0.067549  1
  Zr  Zr14  1  0.069321  0.432484  0.432484  1
  Zr  Zr15  1  0.432186  0.067549  0.067549  1
  Pd  Pd16  1  0.757327  0.415158  0.415158  1
  Pd  Pd17  1  0.415158  0.757327  0.415158  1
  Pd  Pd18  1  0.415158  0.415158  0.757327  1
  Rh  Rh19  1  0.409960  0.409960  0.409960  1
  Rh  Rh20  1  0.473259  0.843382  0.843382  1
  Rh  Rh21  1  0.843382  0.473259  0.843382  1
  Rh  Rh22  1  0.843382  0.843382  0.473259  1
  Rh  Rh23  1  0.841005  0.841005  0.841005  1
  N  N24  1  0.624645  0.124671  0.124671  1
  N  N25  1  0.124671  0.624645  0.124671  1
  N  N26  1  0.124671  0.124671  0.624645  1
  N  N27  1  0.125016  0.125016  0.125016  1
