# generated using pymatgen
data_Rb4Ba2(CrH9)3
_symmetry_space_group_name_H-M   'P 1'
_cell_length_a   9.09778200
_cell_length_b   9.12436167
_cell_length_c   5.29718700
_cell_angle_alpha   90.00000000
_cell_angle_beta   90.00000000
_cell_angle_gamma   119.90368397
_symmetry_Int_Tables_number   1
_chemical_formula_structural   Rb4Ba2(CrH9)3
_chemical_formula_sum   'Rb4 Ba2 Cr3 H27'
_cell_volume   381.18397802
_cell_formula_units_Z   1
loop_
 _symmetry_equiv_pos_site_id
 _symmetry_equiv_pos_as_xyz
  1  'x, y, z'
loop_
 _atom_site_type_symbol
 _atom_site_label
 _atom_site_symmetry_multiplicity
 _atom_site_fract_x
 _atom_site_fract_y
 _atom_site_fract_z
 _atom_site_occupancy
  Rb  Rb0  1  0.023157  0.283630  0.500000  1
  Rb  Rb1  1  0.739526  0.716370  0.500000  1
  Rb  Rb2  1  0.993521  0.582968  0.000000  1
  Rb  Rb3  1  0.410552  0.417032  0.000000  1
  Ba  Ba4  1  0.235902  0.000000  0.500000  1
  Ba  Ba5  1  0.610927  0.000000  0.000000  1
  Cr  Cr6  1  0.992502  0.000000  0.000000  1
  Cr  Cr7  1  0.349070  0.708009  0.500000  1
  Cr  Cr8  1  0.641063  0.291991  0.500000  1
  H  H9  1  0.881643  0.000000  0.234880  1
  H  H10  1  0.988498  0.863340  0.195837  1
  H  H11  1  0.881643  0.000000  0.765120  1
  H  H12  1  0.988498  0.863340  0.804163  1
  H  H13  1  0.125158  0.136660  0.195837  1
  H  H14  1  0.125158  0.136660  0.804163  1
  H  H15  1  0.169194  0.000000  0.000000  1
  H  H16  1  0.966598  0.163866  0.000000  1
  H  H17  1  0.802732  0.836134  0.000000  1
  H  H18  1  0.239503  0.564232  0.299497  1
  H  H19  1  0.483547  0.722645  0.290316  1
  H  H20  1  0.239503  0.564232  0.700503  1
  H  H21  1  0.519783  0.195378  0.743395  1
  H  H22  1  0.324406  0.804622  0.256605  1
  H  H23  1  0.483547  0.722645  0.709684  1
  H  H24  1  0.675272  0.435768  0.700503  1
  H  H25  1  0.519783  0.195378  0.256605  1
  H  H26  1  0.324406  0.804622  0.743395  1
  H  H27  1  0.675272  0.435768  0.299497  1
  H  H28  1  0.760902  0.277355  0.709684  1
  H  H29  1  0.760902  0.277355  0.290316  1
  H  H30  1  0.393970  0.561607  0.500000  1
  H  H31  1  0.538991  0.877910  0.500000  1
  H  H32  1  0.485026  0.328627  0.500000  1
  H  H33  1  0.156399  0.671373  0.500000  1
  H  H34  1  0.832363  0.438393  0.500000  1
  H  H35  1  0.661081  0.122090  0.500000  1
