# generated using pymatgen
data_Yb3(PrRh)2
_symmetry_space_group_name_H-M   'P 1'
_cell_length_a   6.44966834
_cell_length_b   7.55430081
_cell_length_c   8.65889362
_cell_angle_alpha   96.84018514
_cell_angle_beta   111.86557536
_cell_angle_gamma   90.00000040
_symmetry_Int_Tables_number   1
_chemical_formula_structural   Yb3(PrRh)2
_chemical_formula_sum   'Yb6 Pr4 Rh4'
_cell_volume   388.29712334
_cell_formula_units_Z   2
loop_
 _symmetry_equiv_pos_site_id
 _symmetry_equiv_pos_as_xyz
  1  'x, y, z'
loop_
 _atom_site_type_symbol
 _atom_site_label
 _atom_site_symmetry_multiplicity
 _atom_site_fract_x
 _atom_site_fract_y
 _atom_site_fract_z
 _atom_site_occupancy
  Yb  Yb0  1  0.626781  0.816751  0.429706  1
  Yb  Yb1  1  0.197074  0.683249  0.570294  1
  Yb  Yb2  1  0.373219  0.183249  0.570294  1
  Yb  Yb3  1  0.802926  0.316751  0.429706  1
  Yb  Yb4  1  0.418411  0.750000  0.000000  1
  Yb  Yb5  1  0.581589  0.250000  0.000000  1
  Pr  Pr6  1  0.976330  0.920322  0.183374  1
  Pr  Pr7  1  0.792955  0.579678  0.816626  1
  Pr  Pr8  1  0.023670  0.079678  0.816626  1
  Pr  Pr9  1  0.207045  0.420322  0.183374  1
  Rh  Rh10  1  0.822061  0.581267  0.219618  1
  Rh  Rh11  1  0.602444  0.918733  0.780382  1
  Rh  Rh12  1  0.177939  0.418733  0.780382  1
  Rh  Rh13  1  0.397556  0.081267  0.219618  1
