# generated using pymatgen
data_TmPa3(Ni2Pt)2
_symmetry_space_group_name_H-M   'P 1'
_cell_length_a   7.13840691
_cell_length_b   7.13840686
_cell_length_c   3.56917900
_cell_angle_alpha   90.00000000
_cell_angle_beta   90.00000000
_cell_angle_gamma   90.38099676
_symmetry_Int_Tables_number   1
_chemical_formula_structural   TmPa3(Ni2Pt)2
_chemical_formula_sum   'Tm1 Pa3 Ni4 Pt2'
_cell_volume   181.87010813
_cell_formula_units_Z   1
loop_
 _symmetry_equiv_pos_site_id
 _symmetry_equiv_pos_as_xyz
  1  'x, y, z'
loop_
 _atom_site_type_symbol
 _atom_site_label
 _atom_site_symmetry_multiplicity
 _atom_site_fract_x
 _atom_site_fract_y
 _atom_site_fract_z
 _atom_site_occupancy
  Tm  Tm0  1  0.821077  0.678923  0.500000  1
  Pa  Pa1  1  0.680766  0.177046  0.500000  1
  Pa  Pa2  1  0.322954  0.819234  0.500000  1
  Pa  Pa3  1  0.177358  0.322642  0.500000  1
  Ni  Ni4  1  0.878515  0.365831  0.000000  1
  Ni  Ni5  1  0.134169  0.621485  0.000000  1
  Ni  Ni6  1  0.368472  0.131528  0.000000  1
  Ni  Ni7  1  0.612025  0.887975  0.000000  1
  Pt  Pt8  1  0.504315  0.499650  0.000000  1
  Pt  Pt9  1  0.000350  0.995685  0.000000  1
