# generated using pymatgen
data_Nd20TcIr3Pt8
_symmetry_space_group_name_H-M   'P 1'
_cell_length_a   11.42428900
_cell_length_b   11.42428900
_cell_length_c   6.56868600
_cell_angle_alpha   90.00000000
_cell_angle_beta   90.00000000
_cell_angle_gamma   90.00000000
_symmetry_Int_Tables_number   1
_chemical_formula_structural   Nd20TcIr3Pt8
_chemical_formula_sum   'Nd20 Tc1 Ir3 Pt8'
_cell_volume   857.30797516
_cell_formula_units_Z   1
loop_
 _symmetry_equiv_pos_site_id
 _symmetry_equiv_pos_as_xyz
  1  'x, y, z'
loop_
 _atom_site_type_symbol
 _atom_site_label
 _atom_site_symmetry_multiplicity
 _atom_site_fract_x
 _atom_site_fract_y
 _atom_site_fract_z
 _atom_site_occupancy
  Nd  Nd0  1  0.088330  0.297052  0.127225  1
  Nd  Nd1  1  0.797052  0.411670  0.127225  1
  Nd  Nd2  1  0.202948  0.588330  0.127225  1
  Nd  Nd3  1  0.911670  0.702948  0.127225  1
  Nd  Nd4  1  0.409763  0.795395  0.376198  1
  Nd  Nd5  1  0.590237  0.204605  0.376198  1
  Nd  Nd6  1  0.295395  0.090237  0.376198  1
  Nd  Nd7  1  0.704605  0.909763  0.376198  1
  Nd  Nd8  1  0.409689  0.205020  0.876131  1
  Nd  Nd9  1  0.705020  0.090311  0.876131  1
  Nd  Nd10  1  0.294980  0.909689  0.876131  1
  Nd  Nd11  1  0.590311  0.794980  0.876131  1
  Nd  Nd12  1  0.087936  0.702785  0.622952  1
  Nd  Nd13  1  0.912064  0.297215  0.622952  1
  Nd  Nd14  1  0.202785  0.412064  0.622952  1
  Nd  Nd15  1  0.797215  0.587936  0.622952  1
  Nd  Nd16  1  0.000000  0.000000  0.000639  1
  Nd  Nd17  1  0.500000  0.500000  0.000639  1
  Nd  Nd18  1  0.500000  0.500000  0.500342  1
  Nd  Nd19  1  0.000000  0.000000  0.500342  1
  Tc  Tc20  1  0.000000  0.500000  0.376160  1
  Ir  Ir21  1  0.500000  0.000000  0.117691  1
  Ir  Ir22  1  0.500000  0.000000  0.617050  1
  Ir  Ir23  1  0.000000  0.500000  0.879860  1
  Pt  Pt24  1  0.154047  0.847062  0.249350  1
  Pt  Pt25  1  0.347062  0.345953  0.249350  1
  Pt  Pt26  1  0.652938  0.654047  0.249350  1
  Pt  Pt27  1  0.845953  0.152938  0.249350  1
  Pt  Pt28  1  0.347679  0.654076  0.749964  1
  Pt  Pt29  1  0.154076  0.152321  0.749964  1
  Pt  Pt30  1  0.845924  0.847679  0.749964  1
  Pt  Pt31  1  0.652321  0.345924  0.749964  1
