# generated using pymatgen
data_Yb2Er2(Ga8Pt3)3
_symmetry_space_group_name_H-M   'P 1'
_cell_length_a   7.47753633
_cell_length_b   7.57948163
_cell_length_c   13.38076012
_cell_angle_alpha   84.61078499
_cell_angle_beta   79.41824321
_cell_angle_gamma   60.45444383
_symmetry_Int_Tables_number   1
_chemical_formula_structural   Yb2Er2(Ga8Pt3)3
_chemical_formula_sum   'Yb2 Er2 Ga24 Pt9'
_cell_volume   648.52615282
_cell_formula_units_Z   1
loop_
 _symmetry_equiv_pos_site_id
 _symmetry_equiv_pos_as_xyz
  1  'x, y, z'
loop_
 _atom_site_type_symbol
 _atom_site_label
 _atom_site_symmetry_multiplicity
 _atom_site_fract_x
 _atom_site_fract_y
 _atom_site_fract_z
 _atom_site_occupancy
  Yb  Yb0  1  0.733093  0.498919  0.808962  1
  Yb  Yb1  1  0.266905  0.501081  0.191041  1
  Er  Er2  1  0.397364  0.167348  0.809734  1
  Er  Er3  1  0.602645  0.832674  0.190236  1
  Ga  Ga4  1  0.686939  0.833250  0.938532  1
  Ga  Ga5  1  0.313056  0.166758  0.061467  1
  Ga  Ga6  1  0.145956  0.832855  0.559713  1
  Ga  Ga7  1  0.854051  0.167140  0.440286  1
  Ga  Ga8  1  0.478209  0.166509  0.556426  1
  Ga  Ga9  1  0.521785  0.833487  0.443576  1
  Ga  Ga10  1  0.219382  0.165772  0.322920  1
  Ga  Ga11  1  0.780618  0.834229  0.677077  1
  Ga  Ga12  1  0.437486  0.504117  0.676453  1
  Ga  Ga13  1  0.562514  0.495879  0.323546  1
  Ga  Ga14  1  0.106858  0.161901  0.675768  1
  Ga  Ga15  1  0.893143  0.838099  0.324234  1
  Ga  Ga16  1  0.359424  0.497384  0.940151  1
  Ga  Ga17  1  0.640575  0.502624  0.059851  1
  Ga  Ga18  1  0.020895  0.170021  0.943788  1
  Ga  Ga19  1  0.979105  0.829980  0.056215  1
  Ga  Ga20  1  0.187144  0.497446  0.443818  1
  Ga  Ga21  1  0.812849  0.502552  0.556185  1
  Ga  Ga22  1  0.734190  0.164129  0.181722  1
  Ga  Ga23  1  0.265812  0.835860  0.818286  1
  Ga  Ga24  1  0.063162  0.628311  0.817378  1
  Ga  Ga25  1  0.936842  0.371689  0.182623  1
  Ga  Ga26  1  0.855927  0.039525  0.816551  1
  Ga  Ga27  1  0.144079  0.960477  0.183449  1
  Pt  Pt28  1  0.116763  0.494101  0.639896  1
  Pt  Pt29  1  0.883236  0.505895  0.360108  1
  Pt  Pt30  1  0.660970  0.169486  0.999001  1
  Pt  Pt31  1  0.339030  0.830511  0.001003  1
  Pt  Pt32  1  0.540644  0.166847  0.360080  1
  Pt  Pt33  1  0.459351  0.833151  0.639924  1
  Pt  Pt34  1  0.777542  0.174972  0.637071  1
  Pt  Pt35  1  0.222458  0.825023  0.362932  1
  Pt  Pt36  1  0.999999  0.500000  0.000002  1
