# generated using pymatgen
data_SrPr(Si2Ir3)2
_symmetry_space_group_name_H-M   'P 1'
_cell_length_a   6.75738839
_cell_length_b   6.75738797
_cell_length_c   6.75738918
_cell_angle_alpha   130.20279537
_cell_angle_beta   115.50274653
_cell_angle_gamma   85.63848509
_symmetry_Int_Tables_number   1
_chemical_formula_structural   SrPr(Si2Ir3)2
_chemical_formula_sum   'Sr1 Pr1 Si4 Ir6'
_cell_volume   203.37852704
_cell_formula_units_Z   1
loop_
 _symmetry_equiv_pos_site_id
 _symmetry_equiv_pos_as_xyz
  1  'x, y, z'
loop_
 _atom_site_type_symbol
 _atom_site_label
 _atom_site_symmetry_multiplicity
 _atom_site_fract_x
 _atom_site_fract_y
 _atom_site_fract_z
 _atom_site_occupancy
  Sr  Sr0  1  0.250000  0.978698  0.728698  1
  Pr  Pr1  1  0.750000  0.024958  0.274958  1
  Si  Si2  1  0.084692  0.292459  0.207767  1
  Si  Si3  1  0.926026  0.724833  0.798807  1
  Si  Si4  1  0.415308  0.623075  0.207767  1
  Si  Si5  1  0.573974  0.372781  0.798807  1
  Ir  Ir6  1  0.510103  0.497244  0.507346  1
  Ir  Ir7  1  0.989897  0.497244  0.987141  1
  Ir  Ir8  1  0.281022  0.999166  0.276209  1
  Ir  Ir9  1  0.722957  0.999166  0.718144  1
  Ir  Ir10  1  0.218978  0.495188  0.718144  1
  Ir  Ir11  1  0.777043  0.495188  0.276209  1
