# generated using pymatgen
data_SmTm3Mo4F28
_symmetry_space_group_name_H-M   'P 1'
_cell_length_a   5.69568334
_cell_length_b   9.01468197
_cell_length_c   12.09743000
_cell_angle_alpha   62.36682757
_cell_angle_beta   89.96076791
_cell_angle_gamma   90.01815278
_symmetry_Int_Tables_number   1
_chemical_formula_structural   SmTm3Mo4F28
_chemical_formula_sum   'Sm1 Tm3 Mo4 F28'
_cell_volume   550.28934789
_cell_formula_units_Z   1
loop_
 _symmetry_equiv_pos_site_id
 _symmetry_equiv_pos_as_xyz
  1  'x, y, z'
loop_
 _atom_site_type_symbol
 _atom_site_label
 _atom_site_symmetry_multiplicity
 _atom_site_fract_x
 _atom_site_fract_y
 _atom_site_fract_z
 _atom_site_occupancy
  Sm  Sm0  1  0.754287  0.816203  0.767494  1
  Tm  Tm1  1  0.746754  0.817096  0.267594  1
  Tm  Tm2  1  0.247130  0.184726  0.232652  1
  Tm  Tm3  1  0.254613  0.190415  0.731493  1
  Mo  Mo4  1  0.743571  0.276520  0.452457  1
  Mo  Mo5  1  0.244859  0.725847  0.049926  1
  Mo  Mo6  1  0.254640  0.726205  0.540958  1
  Mo  Mo7  1  0.755465  0.269437  0.956714  1
  F  F8  1  0.464672  0.706809  0.923876  1
  F  F9  1  0.970568  0.292136  0.577030  1
  F  F10  1  0.528468  0.289201  0.078298  1
  F  F11  1  0.030100  0.706834  0.420350  1
  F  F12  1  0.458991  0.282068  0.547885  1
  F  F13  1  0.963071  0.715120  0.956745  1
  F  F14  1  0.546160  0.720188  0.447917  1
  F  F15  1  0.042019  0.278166  0.051470  1
  F  F16  1  0.770575  0.515507  0.859676  1
  F  F17  1  0.266513  0.477871  0.639722  1
  F  F18  1  0.232388  0.477897  0.143816  1
  F  F19  1  0.731723  0.523389  0.356614  1
  F  F20  1  0.759093  0.023179  0.055055  1
  F  F21  1  0.260044  0.973421  0.444212  1
  F  F22  1  0.237951  0.971045  0.948317  1
  F  F23  1  0.737502  0.030158  0.549863  1
  F  F24  1  0.980169  0.731984  0.641692  1
  F  F25  1  0.481037  0.265158  0.854954  1
  F  F26  1  0.013504  0.264863  0.351986  1
  F  F27  1  0.514327  0.736310  0.149743  1
  F  F28  1  0.027422  0.747956  0.177005  1
  F  F29  1  0.523232  0.254348  0.326601  1
  F  F30  1  0.974472  0.249964  0.830188  1
  F  F31  1  0.465701  0.744167  0.667899  1
  F  F32  1  0.435445  0.976299  0.235568  1
  F  F33  1  0.935960  0.024508  0.264892  1
  F  F34  1  0.566356  0.036628  0.764997  1
  F  F35  1  0.081220  0.978369  0.734339  1
