# generated using pymatgen
data_LiIn2Rh5C
_symmetry_space_group_name_H-M   'P 1'
_cell_length_a   5.68491945
_cell_length_b   5.62051725
_cell_length_c   5.62051700
_cell_angle_alpha   60.75953488
_cell_angle_beta   59.62022698
_cell_angle_gamma   59.62023308
_symmetry_Int_Tables_number   1
_chemical_formula_structural   LiIn2Rh5C
_chemical_formula_sum   'Li1 In2 Rh5 C1'
_cell_volume   126.95402382
_cell_formula_units_Z   1
loop_
 _symmetry_equiv_pos_site_id
 _symmetry_equiv_pos_as_xyz
  1  'x, y, z'
loop_
 _atom_site_type_symbol
 _atom_site_label
 _atom_site_symmetry_multiplicity
 _atom_site_fract_x
 _atom_site_fract_y
 _atom_site_fract_z
 _atom_site_occupancy
  Li  Li0  1  0.762899  0.237100  0.237100  1
  In  In1  1  0.251942  0.248058  0.248058  1
  In  In2  1  0.751942  0.748058  0.748058  1
  Rh  Rh3  1  0.250814  0.749185  0.247104  1
  Rh  Rh4  1  0.752895  0.749185  0.247104  1
  Rh  Rh5  1  0.250814  0.247104  0.749185  1
  Rh  Rh6  1  0.752895  0.247104  0.749185  1
  Rh  Rh7  1  0.238674  0.761325  0.761325  1
  C  C8  1  0.487120  0.512878  0.512878  1
