# generated using pymatgen
data_Sc4TcB12Os
_symmetry_space_group_name_H-M   'P 1'
_cell_length_a   3.50586700
_cell_length_b   8.89115574
_cell_length_c   11.20178035
_cell_angle_alpha   89.93957288
_cell_angle_beta   90.00000000
_cell_angle_gamma   90.00000000
_symmetry_Int_Tables_number   1
_chemical_formula_structural   Sc4TcB12Os
_chemical_formula_sum   'Sc8 Tc2 B24 Os2'
_cell_volume   349.17284773
_cell_formula_units_Z   2
loop_
 _symmetry_equiv_pos_site_id
 _symmetry_equiv_pos_as_xyz
  1  'x, y, z'
loop_
 _atom_site_type_symbol
 _atom_site_label
 _atom_site_symmetry_multiplicity
 _atom_site_fract_x
 _atom_site_fract_y
 _atom_site_fract_z
 _atom_site_occupancy
  Sc  Sc0  1  0.000000  0.817413  0.087600  1
  Sc  Sc1  1  0.000000  0.182587  0.912400  1
  Sc  Sc2  1  0.000000  0.323367  0.415466  1
  Sc  Sc3  1  0.000000  0.676633  0.584534  1
  Sc  Sc4  1  0.000000  0.444895  0.128606  1
  Sc  Sc5  1  0.000000  0.555105  0.871394  1
  Sc  Sc6  1  0.000000  0.942948  0.371905  1
  Sc  Sc7  1  0.000000  0.057052  0.628095  1
  Tc  Tc8  1  0.000000  0.638964  0.319954  1
  Tc  Tc9  1  0.000000  0.361036  0.680046  1
  B  B10  1  0.500000  0.053547  0.064893  1
  B  B11  1  0.500000  0.946453  0.935107  1
  B  B12  1  0.500000  0.553149  0.435056  1
  B  B13  1  0.500000  0.446851  0.564944  1
  B  B14  1  0.500000  0.252821  0.079275  1
  B  B15  1  0.500000  0.747179  0.920725  1
  B  B16  1  0.500000  0.752467  0.421393  1
  B  B17  1  0.500000  0.247533  0.578607  1
  B  B18  1  0.500000  0.294348  0.236183  1
  B  B19  1  0.500000  0.705652  0.763817  1
  B  B20  1  0.500000  0.794846  0.263782  1
  B  B21  1  0.500000  0.205154  0.736218  1
  B  B22  1  0.500000  0.129894  0.317619  1
  B  B23  1  0.500000  0.870106  0.682381  1
  B  B24  1  0.500000  0.630300  0.182206  1
  B  B25  1  0.500000  0.369700  0.817794  1
  B  B26  1  0.500000  0.479442  0.287445  1
  B  B27  1  0.500000  0.520558  0.712555  1
  B  B28  1  0.500000  0.979726  0.212635  1
  B  B29  1  0.500000  0.020274  0.787365  1
  B  B30  1  0.500000  0.099516  0.472521  1
  B  B31  1  0.500000  0.900484  0.527479  1
  B  B32  1  0.500000  0.599992  0.027229  1
  B  B33  1  0.500000  0.400008  0.972771  1
  Os  Os34  1  0.000000  0.138612  0.179018  1
  Os  Os35  1  0.000000  0.861388  0.820982  1
