# generated using pymatgen
data_BaHo(SnPd)2
_symmetry_space_group_name_H-M   'P 1'
_cell_length_a   4.74147200
_cell_length_b   8.15104229
_cell_length_c   8.28479801
_cell_angle_alpha   90.01821333
_cell_angle_beta   90.00000000
_cell_angle_gamma   90.00000000
_symmetry_Int_Tables_number   1
_chemical_formula_structural   BaHo(SnPd)2
_chemical_formula_sum   'Ba2 Ho2 Sn4 Pd4'
_cell_volume   320.19035018
_cell_formula_units_Z   2
loop_
 _symmetry_equiv_pos_site_id
 _symmetry_equiv_pos_as_xyz
  1  'x, y, z'
loop_
 _atom_site_type_symbol
 _atom_site_label
 _atom_site_symmetry_multiplicity
 _atom_site_fract_x
 _atom_site_fract_y
 _atom_site_fract_z
 _atom_site_occupancy
  Ba  Ba0  1  0.250000  0.498053  0.249260  1
  Ba  Ba1  1  0.750000  0.501947  0.750740  1
  Ho  Ho2  1  0.250000  0.998543  0.250011  1
  Ho  Ho3  1  0.750000  0.001457  0.749989  1
  Sn  Sn4  1  0.250000  0.800667  0.585115  1
  Sn  Sn5  1  0.750000  0.798931  0.085113  1
  Sn  Sn6  1  0.250000  0.201069  0.914887  1
  Sn  Sn7  1  0.750000  0.199333  0.414885  1
  Pd  Pd8  1  0.750000  0.166169  0.084184  1
  Pd  Pd9  1  0.250000  0.170198  0.583782  1
  Pd  Pd10  1  0.750000  0.829802  0.416218  1
  Pd  Pd11  1  0.250000  0.833831  0.915816  1
