# generated using pymatgen
data_DyHo10In9Ru4
_symmetry_space_group_name_H-M   'P 1'
_cell_length_a   3.80951500
_cell_length_b   12.85341421
_cell_length_c   12.85541628
_cell_angle_alpha   112.83224630
_cell_angle_beta   90.00000000
_cell_angle_gamma   90.00000000
_symmetry_Int_Tables_number   1
_chemical_formula_structural   DyHo10In9Ru4
_chemical_formula_sum   'Dy1 Ho10 In9 Ru4'
_cell_volume   580.14688477
_cell_formula_units_Z   1
loop_
 _symmetry_equiv_pos_site_id
 _symmetry_equiv_pos_as_xyz
  1  'x, y, z'
loop_
 _atom_site_type_symbol
 _atom_site_label
 _atom_site_symmetry_multiplicity
 _atom_site_fract_x
 _atom_site_fract_y
 _atom_site_fract_z
 _atom_site_occupancy
  Dy  Dy0  1  0.000000  0.000000  0.000000  1
  Ho  Ho1  1  0.000000  0.914209  0.581722  1
  Ho  Ho2  1  0.000000  0.085791  0.418278  1
  Ho  Ho3  1  0.000000  0.581723  0.914211  1
  Ho  Ho4  1  0.000000  0.418277  0.085789  1
  Ho  Ho5  1  0.000000  0.163527  0.836472  1
  Ho  Ho6  1  0.000000  0.836473  0.163528  1
  Ho  Ho7  1  0.000000  0.369556  0.630426  1
  Ho  Ho8  1  0.000000  0.630444  0.369574  1
  Ho  Ho9  1  0.000000  0.694319  0.694306  1
  Ho  Ho10  1  0.000000  0.305681  0.305694  1
  In  In11  1  0.500000  0.152638  0.630482  1
  In  In12  1  0.500000  0.847362  0.369518  1
  In  In13  1  0.500000  0.630473  0.152618  1
  In  In14  1  0.500000  0.369527  0.847382  1
  In  In15  1  0.500000  0.929068  0.781650  1
  In  In16  1  0.500000  0.070932  0.218350  1
  In  In17  1  0.500000  0.781662  0.929122  1
  In  In18  1  0.500000  0.218338  0.070878  1
  In  In19  1  0.500000  0.500000  0.500000  1
  Ru  Ru20  1  0.500000  0.741207  0.547670  1
  Ru  Ru21  1  0.500000  0.258793  0.452330  1
  Ru  Ru22  1  0.500000  0.547650  0.741168  1
  Ru  Ru23  1  0.500000  0.452350  0.258832  1
