# generated using pymatgen
data_Yb2PrDy5(B6Os)4
_symmetry_space_group_name_H-M   'P 1'
_cell_length_a   3.67012800
_cell_length_b   9.19477601
_cell_length_c   11.60747478
_cell_angle_alpha   89.99326309
_cell_angle_beta   90.00000000
_cell_angle_gamma   90.00000000
_symmetry_Int_Tables_number   1
_chemical_formula_structural   Yb2PrDy5(B6Os)4
_chemical_formula_sum   'Yb2 Pr1 Dy5 B24 Os4'
_cell_volume   391.70589820
_cell_formula_units_Z   1
loop_
 _symmetry_equiv_pos_site_id
 _symmetry_equiv_pos_as_xyz
  1  'x, y, z'
loop_
 _atom_site_type_symbol
 _atom_site_label
 _atom_site_symmetry_multiplicity
 _atom_site_fract_x
 _atom_site_fract_y
 _atom_site_fract_z
 _atom_site_occupancy
  Yb  Yb0  1  0.000000  0.677270  0.586227  1
  Yb  Yb1  1  0.000000  0.822970  0.085337  1
  Pr  Pr2  1  0.000000  0.323801  0.414433  1
  Dy  Dy3  1  0.000000  0.175531  0.914566  1
  Dy  Dy4  1  0.000000  0.940567  0.368818  1
  Dy  Dy5  1  0.000000  0.055708  0.630656  1
  Dy  Dy6  1  0.000000  0.443806  0.129081  1
  Dy  Dy7  1  0.000000  0.559414  0.870206  1
  B  B8  1  0.500000  0.556916  0.432731  1
  B  B9  1  0.500000  0.447037  0.570657  1
  B  B10  1  0.500000  0.053180  0.066941  1
  B  B11  1  0.500000  0.945951  0.933034  1
  B  B12  1  0.500000  0.748274  0.417941  1
  B  B13  1  0.500000  0.251739  0.585300  1
  B  B14  1  0.500000  0.247890  0.080608  1
  B  B15  1  0.500000  0.753135  0.918023  1
  B  B16  1  0.500000  0.789786  0.264726  1
  B  B17  1  0.500000  0.209123  0.736206  1
  B  B18  1  0.500000  0.288866  0.231755  1
  B  B19  1  0.500000  0.710987  0.765710  1
  B  B20  1  0.500000  0.632112  0.185101  1
  B  B21  1  0.500000  0.369112  0.814851  1
  B  B22  1  0.500000  0.128992  0.311452  1
  B  B23  1  0.500000  0.868750  0.686288  1
  B  B24  1  0.500000  0.982501  0.210431  1
  B  B25  1  0.500000  0.015866  0.788936  1
  B  B26  1  0.500000  0.486967  0.287159  1
  B  B27  1  0.500000  0.516981  0.712889  1
  B  B28  1  0.500000  0.602303  0.027737  1
  B  B29  1  0.500000  0.397655  0.971301  1
  B  B30  1  0.500000  0.097525  0.472594  1
  B  B31  1  0.500000  0.898575  0.527710  1
  Os  Os32  1  0.000000  0.639131  0.319887  1
  Os  Os33  1  0.000000  0.360556  0.681807  1
  Os  Os34  1  0.000000  0.137741  0.177725  1
  Os  Os35  1  0.000000  0.863281  0.821178  1
