# generated using pymatgen
data_Ba4In(TcO6)2
_symmetry_space_group_name_H-M   'P 1'
_cell_length_a   10.02384343
_cell_length_b   10.02384432
_cell_length_c   10.02384324
_cell_angle_alpha   33.91231420
_cell_angle_beta   33.91231627
_cell_angle_gamma   33.91231864
_symmetry_Int_Tables_number   1
_chemical_formula_structural   Ba4In(TcO6)2
_chemical_formula_sum   'Ba4 In1 Tc2 O12'
_cell_volume   279.41510946
_cell_formula_units_Z   1
loop_
 _symmetry_equiv_pos_site_id
 _symmetry_equiv_pos_as_xyz
  1  'x, y, z'
loop_
 _atom_site_type_symbol
 _atom_site_label
 _atom_site_symmetry_multiplicity
 _atom_site_fract_x
 _atom_site_fract_y
 _atom_site_fract_z
 _atom_site_occupancy
  Ba  Ba0  1  0.708553  0.708553  0.708553  1
  Ba  Ba1  1  0.291447  0.291447  0.291447  1
  Ba  Ba2  1  0.869553  0.869553  0.869553  1
  Ba  Ba3  1  0.130447  0.130447  0.130447  1
  In  In4  1  0.000000  0.000000  0.000000  1
  Tc  Tc5  1  0.578314  0.578314  0.578314  1
  Tc  Tc6  1  0.421686  0.421686  0.421686  1
  O  O7  1  0.219960  0.693009  0.219960  1
  O  O8  1  0.219960  0.219960  0.693009  1
  O  O9  1  0.693009  0.219960  0.219960  1
  O  O10  1  0.780040  0.306991  0.780040  1
  O  O11  1  0.780040  0.780040  0.306991  1
  O  O12  1  0.306991  0.780040  0.780040  1
  O  O13  1  0.388715  0.857627  0.388715  1
  O  O14  1  0.388715  0.388715  0.857627  1
  O  O15  1  0.857627  0.388715  0.388715  1
  O  O16  1  0.611285  0.142373  0.611285  1
  O  O17  1  0.611285  0.611285  0.142373  1
  O  O18  1  0.142373  0.611285  0.611285  1
