# generated using pymatgen
data_Hf18Fe2Mo7Os
_symmetry_space_group_name_H-M   'P 1'
_cell_length_a   8.48338000
_cell_length_b   8.64429602
_cell_length_c   8.64072907
_cell_angle_alpha   120.01240504
_cell_angle_beta   90.00000000
_cell_angle_gamma   90.00000000
_symmetry_Int_Tables_number   1
_chemical_formula_structural   Hf18Fe2Mo7Os
_chemical_formula_sum   'Hf18 Fe2 Mo7 Os1'
_cell_volume   548.68775777
_cell_formula_units_Z   1
loop_
 _symmetry_equiv_pos_site_id
 _symmetry_equiv_pos_as_xyz
  1  'x, y, z'
loop_
 _atom_site_type_symbol
 _atom_site_label
 _atom_site_symmetry_multiplicity
 _atom_site_fract_x
 _atom_site_fract_y
 _atom_site_fract_z
 _atom_site_occupancy
  Hf  Hf0  1  0.557888  0.797797  0.595593  1
  Hf  Hf1  1  0.560255  0.798375  0.201381  1
  Hf  Hf2  1  0.560247  0.402990  0.201374  1
  Hf  Hf3  1  0.442799  0.201910  0.403821  1
  Hf  Hf4  1  0.441787  0.201885  0.797075  1
  Hf  Hf5  1  0.441803  0.595201  0.797079  1
  Hf  Hf6  1  0.057201  0.201910  0.403821  1
  Hf  Hf7  1  0.058213  0.201885  0.797075  1
  Hf  Hf8  1  0.058197  0.595201  0.797079  1
  Hf  Hf9  1  0.942112  0.797797  0.595593  1
  Hf  Hf10  1  0.939745  0.798375  0.201381  1
  Hf  Hf11  1  0.939753  0.402990  0.201374  1
  Hf  Hf12  1  0.750000  0.457797  0.915610  1
  Hf  Hf13  1  0.750000  0.457085  0.540175  1
  Hf  Hf14  1  0.750000  0.083096  0.540189  1
  Hf  Hf15  1  0.250000  0.541324  0.082635  1
  Hf  Hf16  1  0.250000  0.540653  0.457893  1
  Hf  Hf17  1  0.250000  0.917238  0.457882  1
  Fe  Fe18  1  0.750000  0.667321  0.334707  1
  Fe  Fe19  1  0.250000  0.331971  0.663868  1
  Mo  Mo20  1  0.750000  0.113638  0.891682  1
  Mo  Mo21  1  0.750000  0.778035  0.891681  1
  Mo  Mo22  1  0.250000  0.886790  0.773564  1
  Mo  Mo23  1  0.250000  0.889154  0.113148  1
  Mo  Mo24  1  0.250000  0.224007  0.113151  1
  Mo  Mo25  1  0.499542  0.000316  0.000633  1
  Mo  Mo26  1  0.000458  0.000316  0.000633  1
  Os  Os27  1  0.750000  0.114944  0.229903  1
