# generated using pymatgen
data_Ho6MgNi17P12
_symmetry_space_group_name_H-M   'P 1'
_cell_length_a   3.77804800
_cell_length_b   10.54932000
_cell_length_c   12.30759100
_cell_angle_alpha   90.00000000
_cell_angle_beta   90.00000000
_cell_angle_gamma   90.00000000
_symmetry_Int_Tables_number   1
_chemical_formula_structural   Ho6MgNi17P12
_chemical_formula_sum   'Ho6 Mg1 Ni17 P12'
_cell_volume   490.52934479
_cell_formula_units_Z   1
loop_
 _symmetry_equiv_pos_site_id
 _symmetry_equiv_pos_as_xyz
  1  'x, y, z'
loop_
 _atom_site_type_symbol
 _atom_site_label
 _atom_site_symmetry_multiplicity
 _atom_site_fract_x
 _atom_site_fract_y
 _atom_site_fract_z
 _atom_site_occupancy
  Ho  Ho0  1  0.000000  0.500000  0.526351  1
  Ho  Ho1  1  0.500000  0.000000  0.477735  1
  Ho  Ho2  1  0.500000  0.820140  0.206685  1
  Ho  Ho3  1  0.500000  0.179860  0.206685  1
  Ho  Ho4  1  0.000000  0.682648  0.796010  1
  Ho  Ho5  1  0.000000  0.317352  0.796010  1
  Mg  Mg6  1  0.500000  0.500000  0.151893  1
  Ni  Ni7  1  0.000000  0.000000  0.837544  1
  Ni  Ni8  1  0.500000  0.500000  0.702457  1
  Ni  Ni9  1  0.000000  0.000000  0.300240  1
  Ni  Ni10  1  0.000000  0.500000  0.987434  1
  Ni  Ni11  1  0.500000  0.000000  0.015997  1
  Ni  Ni12  1  0.500000  0.325819  0.991557  1
  Ni  Ni13  1  0.500000  0.674181  0.991557  1
  Ni  Ni14  1  0.000000  0.161441  0.999965  1
  Ni  Ni15  1  0.000000  0.838559  0.999965  1
  Ni  Ni16  1  0.500000  0.299083  0.431872  1
  Ni  Ni17  1  0.500000  0.700917  0.431872  1
  Ni  Ni18  1  0.000000  0.199060  0.570897  1
  Ni  Ni19  1  0.000000  0.800940  0.570897  1
  Ni  Ni20  1  0.500000  0.879420  0.709476  1
  Ni  Ni21  1  0.500000  0.120580  0.709476  1
  Ni  Ni22  1  0.000000  0.620423  0.291743  1
  Ni  Ni23  1  0.000000  0.379577  0.291743  1
  P  P24  1  0.500000  0.500000  0.880119  1
  P  P25  1  0.000000  0.000000  0.122597  1
  P  P26  1  0.500000  0.500000  0.356309  1
  P  P27  1  0.000000  0.000000  0.653462  1
  P  P28  1  0.500000  0.313217  0.617126  1
  P  P29  1  0.500000  0.686783  0.617126  1
  P  P30  1  0.000000  0.185998  0.386369  1
  P  P31  1  0.000000  0.814002  0.386369  1
  P  P32  1  0.500000  0.851065  0.889001  1
  P  P33  1  0.500000  0.148935  0.889001  1
  P  P34  1  0.000000  0.664475  0.103228  1
  P  P35  1  0.000000  0.335525  0.103228  1
