# generated using pymatgen
data_CaTm4Tl5
_symmetry_space_group_name_H-M   'P 1'
_cell_length_a   3.70697400
_cell_length_b   3.70697400
_cell_length_c   20.00587400
_cell_angle_alpha   90.00000000
_cell_angle_beta   90.00000000
_cell_angle_gamma   90.00000000
_symmetry_Int_Tables_number   1
_chemical_formula_structural   CaTm4Tl5
_chemical_formula_sum   'Ca1 Tm4 Tl5'
_cell_volume   274.91384322
_cell_formula_units_Z   1
loop_
 _symmetry_equiv_pos_site_id
 _symmetry_equiv_pos_as_xyz
  1  'x, y, z'
loop_
 _atom_site_type_symbol
 _atom_site_label
 _atom_site_symmetry_multiplicity
 _atom_site_fract_x
 _atom_site_fract_y
 _atom_site_fract_z
 _atom_site_occupancy
  Ca  Ca0  1  0.000000  0.000000  0.000000  1
  Tm  Tm1  1  0.000000  0.000000  0.206338  1
  Tm  Tm2  1  0.000000  0.000000  0.402184  1
  Tm  Tm3  1  0.000000  0.000000  0.597816  1
  Tm  Tm4  1  0.000000  0.000000  0.793662  1
  Tl  Tl5  1  0.500000  0.500000  0.106283  1
  Tl  Tl6  1  0.500000  0.500000  0.304369  1
  Tl  Tl7  1  0.500000  0.500000  0.500000  1
  Tl  Tl8  1  0.500000  0.500000  0.695631  1
  Tl  Tl9  1  0.500000  0.500000  0.893717  1
