# generated using pymatgen
data_GdTm(MgIr)2
_symmetry_space_group_name_H-M   'P 1'
_cell_length_a   4.09189000
_cell_length_b   7.04957975
_cell_length_c   8.51892300
_cell_angle_alpha   90.30327265
_cell_angle_beta   90.00000000
_cell_angle_gamma   90.00000000
_symmetry_Int_Tables_number   1
_chemical_formula_structural   GdTm(MgIr)2
_chemical_formula_sum   'Gd2 Tm2 Mg4 Ir4'
_cell_volume   245.73430407
_cell_formula_units_Z   2
loop_
 _symmetry_equiv_pos_site_id
 _symmetry_equiv_pos_as_xyz
  1  'x, y, z'
loop_
 _atom_site_type_symbol
 _atom_site_label
 _atom_site_symmetry_multiplicity
 _atom_site_fract_x
 _atom_site_fract_y
 _atom_site_fract_z
 _atom_site_occupancy
  Gd  Gd0  1  0.750000  0.961169  0.676284  1
  Gd  Gd1  1  0.250000  0.038831  0.323716  1
  Tm  Tm2  1  0.250000  0.539562  0.172312  1
  Tm  Tm3  1  0.750000  0.460438  0.827688  1
  Mg  Mg4  1  0.250000  0.634359  0.559631  1
  Mg  Mg5  1  0.750000  0.365641  0.440369  1
  Mg  Mg6  1  0.750000  0.863677  0.059091  1
  Mg  Mg7  1  0.250000  0.136323  0.940909  1
  Ir  Ir8  1  0.250000  0.747065  0.871312  1
  Ir  Ir9  1  0.750000  0.252935  0.128688  1
  Ir  Ir10  1  0.750000  0.744708  0.367375  1
  Ir  Ir11  1  0.250000  0.255292  0.632625  1
