# generated using pymatgen
data_Pa2Co3
_symmetry_space_group_name_H-M   'P 1'
_cell_length_a   5.41774100
_cell_length_b   7.57734600
_cell_length_c   8.16023400
_cell_angle_alpha   90.00000000
_cell_angle_beta   90.00000000
_cell_angle_gamma   90.00000000
_symmetry_Int_Tables_number   1
_chemical_formula_structural   Pa2Co3
_chemical_formula_sum   'Pa8 Co12'
_cell_volume   334.99472665
_cell_formula_units_Z   4
loop_
 _symmetry_equiv_pos_site_id
 _symmetry_equiv_pos_as_xyz
  1  'x, y, z'
loop_
 _atom_site_type_symbol
 _atom_site_label
 _atom_site_symmetry_multiplicity
 _atom_site_fract_x
 _atom_site_fract_y
 _atom_site_fract_z
 _atom_site_occupancy
  Pa  Pa0  1  0.750000  0.893951  0.855340  1
  Pa  Pa1  1  0.750000  0.393951  0.644660  1
  Pa  Pa2  1  0.250000  0.106049  0.144660  1
  Pa  Pa3  1  0.250000  0.606049  0.355340  1
  Pa  Pa4  1  0.750000  0.941246  0.406579  1
  Pa  Pa5  1  0.750000  0.441246  0.093421  1
  Pa  Pa6  1  0.250000  0.058754  0.593421  1
  Pa  Pa7  1  0.250000  0.558754  0.906579  1
  Co  Co8  1  0.750000  0.590419  0.366116  1
  Co  Co9  1  0.750000  0.090419  0.133884  1
  Co  Co10  1  0.250000  0.409581  0.633884  1
  Co  Co11  1  0.250000  0.909581  0.866116  1
  Co  Co12  1  0.992650  0.274258  0.373322  1
  Co  Co13  1  0.507350  0.774258  0.126678  1
  Co  Co14  1  0.492650  0.725742  0.626678  1
  Co  Co15  1  0.007350  0.225742  0.873322  1
  Co  Co16  1  0.007350  0.725742  0.626678  1
  Co  Co17  1  0.492650  0.225742  0.873322  1
  Co  Co18  1  0.507350  0.274258  0.373322  1
  Co  Co19  1  0.992650  0.774258  0.126678  1
