# generated using pymatgen
data_La4Y12Cd4Ir3Pd
_symmetry_space_group_name_H-M   'P 1'
_cell_length_a   9.78614665
_cell_length_b   9.78614539
_cell_length_c   9.78614517
_cell_angle_alpha   60.37215691
_cell_angle_beta   60.37216181
_cell_angle_gamma   60.37216000
_symmetry_Int_Tables_number   1
_chemical_formula_structural   La4Y12Cd4Ir3Pd
_chemical_formula_sum   'La4 Y12 Cd4 Ir3 Pd1'
_cell_volume   668.28317129
_cell_formula_units_Z   1
loop_
 _symmetry_equiv_pos_site_id
 _symmetry_equiv_pos_as_xyz
  1  'x, y, z'
loop_
 _atom_site_type_symbol
 _atom_site_label
 _atom_site_symmetry_multiplicity
 _atom_site_fract_x
 _atom_site_fract_y
 _atom_site_fract_z
 _atom_site_occupancy
  La  La0  1  0.349119  0.349119  0.349119  1
  La  La1  1  0.354314  0.354314  0.944435  1
  La  La2  1  0.354314  0.944435  0.354314  1
  La  La3  1  0.944435  0.354314  0.354314  1
  Y  Y4  1  0.807404  0.187912  0.187912  1
  Y  Y5  1  0.186294  0.813223  0.813223  1
  Y  Y6  1  0.187912  0.807404  0.187912  1
  Y  Y7  1  0.813223  0.186294  0.813223  1
  Y  Y8  1  0.187912  0.187912  0.807404  1
  Y  Y9  1  0.813223  0.813223  0.186294  1
  Y  Y10  1  0.935512  0.565899  0.565899  1
  Y  Y11  1  0.567862  0.934832  0.934832  1
  Y  Y12  1  0.565899  0.935512  0.565899  1
  Y  Y13  1  0.934832  0.567862  0.934832  1
  Y  Y14  1  0.565899  0.565899  0.935512  1
  Y  Y15  1  0.934832  0.934832  0.567862  1
  Cd  Cd16  1  0.582234  0.582234  0.582234  1
  Cd  Cd17  1  0.581747  0.581747  0.253505  1
  Cd  Cd18  1  0.581747  0.253505  0.581747  1
  Cd  Cd19  1  0.253505  0.581747  0.581747  1
  Ir  Ir20  1  0.140337  0.140337  0.576443  1
  Ir  Ir21  1  0.140337  0.576443  0.140337  1
  Ir  Ir22  1  0.576443  0.140337  0.140337  1
  Pd  Pd23  1  0.140666  0.140666  0.140666  1
