# generated using pymatgen
data_Ba3SrPuSe6
_symmetry_space_group_name_H-M   'P 1'
_cell_length_a   9.01321667
_cell_length_b   9.01321647
_cell_length_c   9.01321700
_cell_angle_alpha   90.67726321
_cell_angle_beta   90.67726319
_cell_angle_gamma   90.67727064
_symmetry_Int_Tables_number   1
_chemical_formula_structural   Ba3SrPuSe6
_chemical_formula_sum   'Ba6 Sr2 Pu2 Se12'
_cell_volume   732.06169861
_cell_formula_units_Z   2
loop_
 _symmetry_equiv_pos_site_id
 _symmetry_equiv_pos_as_xyz
  1  'x, y, z'
loop_
 _atom_site_type_symbol
 _atom_site_label
 _atom_site_symmetry_multiplicity
 _atom_site_fract_x
 _atom_site_fract_y
 _atom_site_fract_z
 _atom_site_occupancy
  Ba  Ba0  1  0.873111  0.626889  0.250000  1
  Ba  Ba1  1  0.250000  0.873111  0.626889  1
  Ba  Ba2  1  0.626889  0.250000  0.873111  1
  Ba  Ba3  1  0.750000  0.126889  0.373111  1
  Ba  Ba4  1  0.373111  0.750000  0.126889  1
  Ba  Ba5  1  0.126889  0.373111  0.750000  1
  Sr  Sr6  1  0.250000  0.250000  0.250000  1
  Sr  Sr7  1  0.750000  0.750000  0.750000  1
  Pu  Pu8  1  0.500000  0.500000  0.500000  1
  Pu  Pu9  1  0.000000  0.000000  0.000000  1
  Se  Se10  1  0.200759  0.554322  0.417967  1
  Se  Se11  1  0.417967  0.200759  0.554322  1
  Se  Se12  1  0.554322  0.417967  0.200759  1
  Se  Se13  1  0.917967  0.054322  0.700759  1
  Se  Se14  1  0.700759  0.917967  0.054322  1
  Se  Se15  1  0.054322  0.700759  0.917967  1
  Se  Se16  1  0.799241  0.445678  0.582033  1
  Se  Se17  1  0.582033  0.799241  0.445678  1
  Se  Se18  1  0.445678  0.582033  0.799241  1
  Se  Se19  1  0.082033  0.945678  0.299241  1
  Se  Se20  1  0.299241  0.082033  0.945678  1
  Se  Se21  1  0.945678  0.299241  0.082033  1
