# generated using pymatgen
data_Th2Mn4Al19W
_symmetry_space_group_name_H-M   'P 1'
_cell_length_a   6.82488807
_cell_length_b   6.82129636
_cell_length_c   9.07751951
_cell_angle_alpha   90.10227358
_cell_angle_beta   89.91362536
_cell_angle_gamma   97.25494311
_symmetry_Int_Tables_number   1
_chemical_formula_structural   Th2Mn4Al19W
_chemical_formula_sum   'Th2 Mn4 Al19 W1'
_cell_volume   419.21581578
_cell_formula_units_Z   1
loop_
 _symmetry_equiv_pos_site_id
 _symmetry_equiv_pos_as_xyz
  1  'x, y, z'
loop_
 _atom_site_type_symbol
 _atom_site_label
 _atom_site_symmetry_multiplicity
 _atom_site_fract_x
 _atom_site_fract_y
 _atom_site_fract_z
 _atom_site_occupancy
  Th  Th0  1  0.873550  0.119207  0.746083  1
  Th  Th1  1  0.119367  0.873613  0.253906  1
  Mn  Mn2  1  0.998317  0.508339  0.497364  1
  Mn  Mn3  1  0.004179  0.499809  0.001218  1
  Mn  Mn4  1  0.499963  0.004077  0.998956  1
  Mn  Mn5  1  0.508416  0.998515  0.502667  1
  Al  Al6  1  0.520087  0.776154  0.756610  1
  Al  Al7  1  0.478441  0.219595  0.253225  1
  Al  Al8  1  0.593145  0.867486  0.249018  1
  Al  Al9  1  0.166842  0.840397  0.601042  1
  Al  Al10  1  0.232394  0.232599  0.999889  1
  Al  Al11  1  0.132984  0.406476  0.250797  1
  Al  Al12  1  0.627780  0.378083  0.950728  1
  Al  Al13  1  0.842996  0.150438  0.095658  1
  Al  Al14  1  0.376875  0.622788  0.451205  1
  Al  Al15  1  0.150080  0.842570  0.904350  1
  Al  Al16  1  0.219422  0.478523  0.746853  1
  Al  Al17  1  0.377819  0.627387  0.049201  1
  Al  Al18  1  0.840583  0.166988  0.398977  1
  Al  Al19  1  0.622957  0.377019  0.548743  1
  Al  Al20  1  0.406365  0.133179  0.749076  1
  Al  Al21  1  0.776461  0.519968  0.243224  1
  Al  Al22  1  0.771463  0.771453  0.499974  1
  Al  Al23  1  0.229665  0.229857  0.499998  1
  Al  Al24  1  0.867679  0.593095  0.751221  1
  W  W25  1  0.762171  0.762384  0.000018  1
