# generated using pymatgen
data_Tb5Ho11(InPd)4
_symmetry_space_group_name_H-M   'P 1'
_cell_length_a   9.70777053
_cell_length_b   9.68217586
_cell_length_c   9.68218200
_cell_angle_alpha   59.85154128
_cell_angle_beta   59.91251862
_cell_angle_gamma   59.91225813
_symmetry_Int_Tables_number   1
_chemical_formula_structural   Tb5Ho11(InPd)4
_chemical_formula_sum   'Tb5 Ho11 In4 Pd4'
_cell_volume   641.92749890
_cell_formula_units_Z   1
loop_
 _symmetry_equiv_pos_site_id
 _symmetry_equiv_pos_as_xyz
  1  'x, y, z'
loop_
 _atom_site_type_symbol
 _atom_site_label
 _atom_site_symmetry_multiplicity
 _atom_site_fract_x
 _atom_site_fract_y
 _atom_site_fract_z
 _atom_site_occupancy
  Tb  Tb0  1  0.562534  0.937468  0.937465  1
  Tb  Tb1  1  0.563851  0.935723  0.563459  1
  Tb  Tb2  1  0.936971  0.563455  0.935724  1
  Tb  Tb3  1  0.563852  0.563459  0.935721  1
  Tb  Tb4  1  0.936970  0.935725  0.563456  1
  Ho  Ho5  1  0.352893  0.351694  0.351695  1
  Ho  Ho6  1  0.352847  0.352103  0.942195  1
  Ho  Ho7  1  0.352847  0.942194  0.352105  1
  Ho  Ho8  1  0.943718  0.351692  0.351694  1
  Ho  Ho9  1  0.811222  0.188781  0.188780  1
  Ho  Ho10  1  0.189366  0.810637  0.810630  1
  Ho  Ho11  1  0.188127  0.811199  0.190155  1
  Ho  Ho12  1  0.810527  0.190153  0.811191  1
  Ho  Ho13  1  0.188126  0.190154  0.811194  1
  Ho  Ho14  1  0.810527  0.811190  0.190157  1
  Ho  Ho15  1  0.937314  0.562687  0.562687  1
  In  In16  1  0.583902  0.582843  0.582849  1
  In  In17  1  0.582204  0.582226  0.253353  1
  In  In18  1  0.582217  0.253349  0.582223  1
  In  In19  1  0.250400  0.582850  0.582848  1
  Pd  Pd20  1  0.144444  0.144010  0.144014  1
  Pd  Pd21  1  0.143804  0.144610  0.567784  1
  Pd  Pd22  1  0.143801  0.567783  0.144611  1
  Pd  Pd23  1  0.567534  0.144011  0.144013  1
