# generated using pymatgen
data_Lu5In4AgPt
_symmetry_space_group_name_H-M   'P 1'
_cell_length_a   3.57213600
_cell_length_b   8.09201030
_cell_length_c   18.14838364
_cell_angle_alpha   89.96917253
_cell_angle_beta   90.00000000
_cell_angle_gamma   90.00000000
_symmetry_Int_Tables_number   1
_chemical_formula_structural   Lu5In4AgPt
_chemical_formula_sum   'Lu10 In8 Ag2 Pt2'
_cell_volume   524.59276966
_cell_formula_units_Z   2
loop_
 _symmetry_equiv_pos_site_id
 _symmetry_equiv_pos_as_xyz
  1  'x, y, z'
loop_
 _atom_site_type_symbol
 _atom_site_label
 _atom_site_symmetry_multiplicity
 _atom_site_fract_x
 _atom_site_fract_y
 _atom_site_fract_z
 _atom_site_occupancy
  Lu  Lu0  1  0.000000  0.121270  0.421699  1
  Lu  Lu1  1  0.000000  0.878730  0.578301  1
  Lu  Lu2  1  0.000000  0.382498  0.916668  1
  Lu  Lu3  1  0.000000  0.617502  0.083332  1
  Lu  Lu4  1  0.000000  0.258191  0.215509  1
  Lu  Lu5  1  0.000000  0.741809  0.784491  1
  Lu  Lu6  1  0.000000  0.273847  0.721444  1
  Lu  Lu7  1  0.000000  0.726153  0.278556  1
  Lu  Lu8  1  0.000000  0.000000  0.000000  1
  Lu  Lu9  1  0.000000  0.500000  0.500000  1
  In  In10  1  0.500000  0.416601  0.352875  1
  In  In11  1  0.500000  0.583399  0.647125  1
  In  In12  1  0.500000  0.075100  0.852527  1
  In  In13  1  0.500000  0.924900  0.147473  1
  In  In14  1  0.500000  0.292330  0.063986  1
  In  In15  1  0.500000  0.707670  0.936014  1
  In  In16  1  0.500000  0.210300  0.569043  1
  In  In17  1  0.500000  0.789700  0.430957  1
  Ag  Ag18  1  0.500000  0.029091  0.301769  1
  Ag  Ag19  1  0.500000  0.970909  0.698231  1
  Pt  Pt20  1  0.500000  0.470771  0.804684  1
  Pt  Pt21  1  0.500000  0.529229  0.195316  1
