# generated using pymatgen
data_YbMnF5
_symmetry_space_group_name_H-M   'P 1'
_cell_length_a   5.53802941
_cell_length_b   5.53802917
_cell_length_c   7.79885700
_cell_angle_alpha   97.16901015
_cell_angle_beta   110.74178761
_cell_angle_gamma   108.99706912
_symmetry_Int_Tables_number   1
_chemical_formula_structural   YbMnF5
_chemical_formula_sum   'Yb2 Mn2 F10'
_cell_volume   203.55840462
_cell_formula_units_Z   2
loop_
 _symmetry_equiv_pos_site_id
 _symmetry_equiv_pos_as_xyz
  1  'x, y, z'
loop_
 _atom_site_type_symbol
 _atom_site_label
 _atom_site_symmetry_multiplicity
 _atom_site_fract_x
 _atom_site_fract_y
 _atom_site_fract_z
 _atom_site_occupancy
  Yb  Yb0  1  0.294549  0.544549  0.750000  1
  Yb  Yb1  1  0.705451  0.455451  0.250000  1
  Mn  Mn2  1  0.500000  0.000000  0.500000  1
  Mn  Mn3  1  0.000000  0.000000  0.000000  1
  F  F4  1  0.742625  0.684896  0.031902  1
  F  F5  1  0.847007  0.289277  0.531902  1
  F  F6  1  0.353290  0.103290  0.250000  1
  F  F7  1  0.646710  0.896710  0.750000  1
  F  F8  1  0.152993  0.710723  0.468098  1
  F  F9  1  0.257375  0.315104  0.968098  1
  F  F10  1  0.128374  0.792206  0.880227  1
  F  F11  1  0.871626  0.207794  0.119773  1
  F  F12  1  0.588021  0.751853  0.380227  1
  F  F13  1  0.411979  0.248147  0.619773  1
