# generated using pymatgen
data_Ba5Pr(BiPb4)2
_symmetry_space_group_name_H-M   'P 1'
_cell_length_a   9.48629135
_cell_length_b   9.48629182
_cell_length_c   9.48629178
_cell_angle_alpha   120.86909597
_cell_angle_beta   120.86910130
_cell_angle_gamma   88.50115946
_symmetry_Int_Tables_number   1
_chemical_formula_structural   Ba5Pr(BiPb4)2
_chemical_formula_sum   'Ba5 Pr1 Bi2 Pb8'
_cell_volume   595.48428637
_cell_formula_units_Z   1
loop_
 _symmetry_equiv_pos_site_id
 _symmetry_equiv_pos_as_xyz
  1  'x, y, z'
loop_
 _atom_site_type_symbol
 _atom_site_label
 _atom_site_symmetry_multiplicity
 _atom_site_fract_x
 _atom_site_fract_y
 _atom_site_fract_z
 _atom_site_occupancy
  Ba  Ba0  1  0.750000  0.750000  0.000000  1
  Ba  Ba1  1  0.163072  0.663072  0.826145  1
  Ba  Ba2  1  0.836928  0.336928  0.173855  1
  Ba  Ba3  1  0.663072  0.836928  0.500000  1
  Ba  Ba4  1  0.336928  0.163072  0.500000  1
  Pr  Pr5  1  0.250000  0.250000  0.000000  1
  Bi  Bi6  1  0.011177  0.011177  0.000000  1
  Bi  Bi7  1  0.488823  0.488823  0.000000  1
  Pb  Pb8  1  0.833882  0.326260  0.787964  1
  Pb  Pb9  1  0.173740  0.666118  0.212036  1
  Pb  Pb10  1  0.538297  0.045920  0.212036  1
  Pb  Pb11  1  0.326260  0.538297  0.492377  1
  Pb  Pb12  1  0.961703  0.173740  0.507623  1
  Pb  Pb13  1  0.454080  0.961703  0.787964  1
  Pb  Pb14  1  0.666118  0.454080  0.492377  1
  Pb  Pb15  1  0.045920  0.833882  0.507623  1
