# generated using pymatgen
data_La2Zn2Ni7Ir
_symmetry_space_group_name_H-M   'P 1'
_cell_length_a   4.07262300
_cell_length_b   5.12849779
_cell_length_c   8.75566070
_cell_angle_alpha   88.84526862
_cell_angle_beta   90.00000000
_cell_angle_gamma   90.00000000
_symmetry_Int_Tables_number   1
_chemical_formula_structural   La2Zn2Ni7Ir
_chemical_formula_sum   'La2 Zn2 Ni7 Ir1'
_cell_volume   182.83742618
_cell_formula_units_Z   1
loop_
 _symmetry_equiv_pos_site_id
 _symmetry_equiv_pos_as_xyz
  1  'x, y, z'
loop_
 _atom_site_type_symbol
 _atom_site_label
 _atom_site_symmetry_multiplicity
 _atom_site_fract_x
 _atom_site_fract_y
 _atom_site_fract_z
 _atom_site_occupancy
  La  La0  1  0.000000  0.244689  0.750676  1
  La  La1  1  0.000000  0.755311  0.249324  1
  Zn  Zn2  1  0.500000  0.255639  0.255331  1
  Zn  Zn3  1  0.500000  0.744361  0.744669  1
  Ni  Ni4  1  0.500000  0.500000  0.500000  1
  Ni  Ni5  1  0.500000  0.500000  0.000000  1
  Ni  Ni6  1  0.500000  0.000000  0.500000  1
  Ni  Ni7  1  0.000000  0.266370  0.078318  1
  Ni  Ni8  1  0.000000  0.752182  0.569770  1
  Ni  Ni9  1  0.000000  0.733630  0.921682  1
  Ni  Ni10  1  0.000000  0.247818  0.430230  1
  Ir  Ir11  1  0.500000  0.000000  0.000000  1
