# generated using pymatgen
data_Dy2Er3Os2C7
_symmetry_space_group_name_H-M   'P 1'
_cell_length_a   8.15467104
_cell_length_b   8.12713262
_cell_length_c   3.50153700
_cell_angle_alpha   90.00000000
_cell_angle_beta   90.00000000
_cell_angle_gamma   121.86303157
_symmetry_Int_Tables_number   1
_chemical_formula_structural   Dy2Er3Os2C7
_chemical_formula_sum   'Dy2 Er3 Os2 C7'
_cell_volume   197.09246150
_cell_formula_units_Z   1
loop_
 _symmetry_equiv_pos_site_id
 _symmetry_equiv_pos_as_xyz
  1  'x, y, z'
loop_
 _atom_site_type_symbol
 _atom_site_label
 _atom_site_symmetry_multiplicity
 _atom_site_fract_x
 _atom_site_fract_y
 _atom_site_fract_z
 _atom_site_occupancy
  Dy  Dy0  1  0.500121  0.500352  0.000000  1
  Dy  Dy1  1  0.075520  0.335413  0.500000  1
  Er  Er2  1  0.922628  0.662885  0.500000  1
  Er  Er3  1  0.660164  0.922613  0.500000  1
  Er  Er4  1  0.339917  0.077076  0.500000  1
  Os  Os5  1  0.714557  0.286387  0.000000  1
  Os  Os6  1  0.284923  0.714517  0.000000  1
  C  C7  1  0.632697  0.368833  0.500000  1
  C  C8  1  0.367241  0.632209  0.500000  1
  C  C9  1  0.000712  0.999174  0.000000  1
  C  C10  1  0.173723  0.169422  0.000000  1
  C  C11  1  0.827596  0.828894  0.000000  1
  C  C12  1  0.999738  0.501738  0.000000  1
  C  C13  1  0.500466  0.000486  0.000000  1
