# generated using pymatgen
data_Dy2Si5Pd2Rh
_symmetry_space_group_name_H-M   'P 1'
_cell_length_a   8.17856935
_cell_length_b   8.19110982
_cell_length_c   8.19387914
_cell_angle_alpha   137.98532025
_cell_angle_beta   105.11878501
_cell_angle_gamma   89.80731277
_symmetry_Int_Tables_number   1
_chemical_formula_structural   Dy2Si5Pd2Rh
_chemical_formula_sum   'Dy4 Si10 Pd4 Rh2'
_cell_volume   338.93580268
_cell_formula_units_Z   2
loop_
 _symmetry_equiv_pos_site_id
 _symmetry_equiv_pos_as_xyz
  1  'x, y, z'
loop_
 _atom_site_type_symbol
 _atom_site_label
 _atom_site_symmetry_multiplicity
 _atom_site_fract_x
 _atom_site_fract_y
 _atom_site_fract_z
 _atom_site_occupancy
  Dy  Dy0  1  0.601862  0.370755  0.231084  1
  Dy  Dy1  1  0.397347  0.630247  0.768420  1
  Dy  Dy2  1  0.862322  0.129317  0.732698  1
  Dy  Dy3  1  0.136907  0.870278  0.266992  1
  Si  Si4  1  0.265589  0.112527  0.161256  1
  Si  Si5  1  0.739247  0.894811  0.850902  1
  Si  Si6  1  0.045484  0.388261  0.650156  1
  Si  Si7  1  0.955528  0.604663  0.344127  1
  Si  Si8  1  0.775602  0.030874  0.251680  1
  Si  Si9  1  0.219964  0.469878  0.249889  1
  Si  Si10  1  0.223587  0.973165  0.750474  1
  Si  Si11  1  0.500849  0.757184  0.252362  1
  Si  Si12  1  0.500638  0.248146  0.743283  1
  Si  Si13  1  0.771991  0.520532  0.744700  1
  Pd  Pd14  1  0.000572  0.750352  0.751226  1
  Pd  Pd15  1  0.471314  0.859278  0.608854  1
  Pd  Pd16  1  0.251213  0.361885  0.891809  1
  Pd  Pd17  1  0.751143  0.640735  0.112533  1
  Rh  Rh18  1  0.000498  0.249503  0.250249  1
  Rh  Rh19  1  0.528344  0.137610  0.387307  1
