# generated using pymatgen
data_Li8Sm8SnPb7
_symmetry_space_group_name_H-M   'P 1'
_cell_length_a   9.60255400
_cell_length_b   9.60255426
_cell_length_c   7.62814800
_cell_angle_alpha   90.00000000
_cell_angle_beta   90.00000000
_cell_angle_gamma   119.99999912
_symmetry_Int_Tables_number   1
_chemical_formula_structural   Li8Sm8SnPb7
_chemical_formula_sum   'Li8 Sm8 Sn1 Pb7'
_cell_volume   609.14863288
_cell_formula_units_Z   1
loop_
 _symmetry_equiv_pos_site_id
 _symmetry_equiv_pos_as_xyz
  1  'x, y, z'
loop_
 _atom_site_type_symbol
 _atom_site_label
 _atom_site_symmetry_multiplicity
 _atom_site_fract_x
 _atom_site_fract_y
 _atom_site_fract_z
 _atom_site_occupancy
  Li  Li0  1  0.832784  0.167216  0.709479  1
  Li  Li1  1  0.832784  0.665570  0.709479  1
  Li  Li2  1  0.334430  0.167216  0.709479  1
  Li  Li3  1  0.167797  0.832203  0.209945  1
  Li  Li4  1  0.167797  0.335593  0.209945  1
  Li  Li5  1  0.664407  0.832203  0.209945  1
  Li  Li6  1  0.666667  0.333333  0.332364  1
  Li  Li7  1  0.333333  0.666667  0.834167  1
  Sm  Sm8  1  0.485945  0.514055  0.504488  1
  Sm  Sm9  1  0.485945  0.971891  0.504488  1
  Sm  Sm10  1  0.028109  0.514055  0.504488  1
  Sm  Sm11  1  0.512257  0.487743  0.005508  1
  Sm  Sm12  1  0.512257  0.024514  0.005508  1
  Sm  Sm13  1  0.975486  0.487743  0.005508  1
  Sm  Sm14  1  0.000000  0.000000  0.497808  1
  Sm  Sm15  1  0.000000  0.000000  0.998061  1
  Sn  Sn16  1  0.333333  0.666667  0.233713  1
  Pb  Pb17  1  0.833238  0.166762  0.272937  1
  Pb  Pb18  1  0.833238  0.666474  0.272937  1
  Pb  Pb19  1  0.333526  0.166762  0.272937  1
  Pb  Pb20  1  0.166776  0.833224  0.772631  1
  Pb  Pb21  1  0.166776  0.333553  0.772631  1
  Pb  Pb22  1  0.666447  0.833224  0.772631  1
  Pb  Pb23  1  0.666667  0.333333  0.736939  1
