# generated using pymatgen
data_Dy2Y2Hf3ZrIr4
_symmetry_space_group_name_H-M   'P 1'
_cell_length_a   4.54187600
_cell_length_b   7.09234890
_cell_length_c   8.32531943
_cell_angle_alpha   89.75809941
_cell_angle_beta   90.00000000
_cell_angle_gamma   90.00000000
_symmetry_Int_Tables_number   1
_chemical_formula_structural   Dy2Y2Hf3ZrIr4
_chemical_formula_sum   'Dy2 Y2 Hf3 Zr1 Ir4'
_cell_volume   268.17753873
_cell_formula_units_Z   1
loop_
 _symmetry_equiv_pos_site_id
 _symmetry_equiv_pos_as_xyz
  1  'x, y, z'
loop_
 _atom_site_type_symbol
 _atom_site_label
 _atom_site_symmetry_multiplicity
 _atom_site_fract_x
 _atom_site_fract_y
 _atom_site_fract_z
 _atom_site_occupancy
  Dy  Dy0  1  0.250000  0.984302  0.323966  1
  Dy  Dy1  1  0.250000  0.484030  0.176721  1
  Y  Y2  1  0.750000  0.015647  0.676708  1
  Y  Y3  1  0.750000  0.514246  0.822770  1
  Hf  Hf4  1  0.250000  0.359094  0.572082  1
  Hf  Hf5  1  0.750000  0.640476  0.426456  1
  Hf  Hf6  1  0.750000  0.141413  0.073836  1
  Zr  Zr7  1  0.250000  0.858530  0.927106  1
  Ir  Ir8  1  0.250000  0.233525  0.908748  1
  Ir  Ir9  1  0.250000  0.730064  0.589289  1
  Ir  Ir10  1  0.750000  0.769212  0.095782  1
  Ir  Ir11  1  0.750000  0.269458  0.406536  1
