# generated using pymatgen
data_Er3Zr7(Si5Ir2)4
_symmetry_space_group_name_H-M   'P 1'
_cell_length_a   12.47538192
_cell_length_b   12.47538192
_cell_length_c   4.14172000
_cell_angle_alpha   90.00000000
_cell_angle_beta   90.00000000
_cell_angle_gamma   90.13705561
_symmetry_Int_Tables_number   1
_chemical_formula_structural   Er3Zr7(Si5Ir2)4
_chemical_formula_sum   'Er3 Zr7 Si20 Ir8'
_cell_volume   644.59538635
_cell_formula_units_Z   1
loop_
 _symmetry_equiv_pos_site_id
 _symmetry_equiv_pos_as_xyz
  1  'x, y, z'
loop_
 _atom_site_type_symbol
 _atom_site_label
 _atom_site_symmetry_multiplicity
 _atom_site_fract_x
 _atom_site_fract_y
 _atom_site_fract_z
 _atom_site_occupancy
  Er  Er0  1  0.115527  0.615527  0.500000  1
  Er  Er1  1  0.384046  0.116352  0.500000  1
  Er  Er2  1  0.616352  0.884046  0.500000  1
  Zr  Zr3  1  0.499589  0.500686  0.000000  1
  Zr  Zr4  1  0.000686  0.999589  0.000000  1
  Zr  Zr5  1  0.677593  0.177593  0.500000  1
  Zr  Zr6  1  0.324920  0.824920  0.500000  1
  Zr  Zr7  1  0.173828  0.324046  0.500000  1
  Zr  Zr8  1  0.824046  0.673828  0.500000  1
  Zr  Zr9  1  0.882060  0.382060  0.500000  1
  Si  Si10  1  0.567555  0.067555  0.000000  1
  Si  Si11  1  0.433805  0.933805  0.000000  1
  Si  Si12  1  0.064818  0.432852  0.000000  1
  Si  Si13  1  0.932852  0.564818  0.000000  1
  Si  Si14  1  0.664805  0.699104  0.000000  1
  Si  Si15  1  0.335382  0.300657  0.000000  1
  Si  Si16  1  0.164867  0.800125  0.000000  1
  Si  Si17  1  0.836550  0.201296  0.000000  1
  Si  Si18  1  0.300125  0.664867  0.000000  1
  Si  Si19  1  0.701296  0.336550  0.000000  1
  Si  Si20  1  0.199104  0.164805  0.000000  1
  Si  Si21  1  0.800657  0.835382  0.000000  1
  Si  Si22  1  0.653428  0.505483  0.500000  1
  Si  Si23  1  0.346608  0.491539  0.500000  1
  Si  Si24  1  0.153366  0.993268  0.500000  1
  Si  Si25  1  0.847364  0.006767  0.500000  1
  Si  Si26  1  0.493268  0.653366  0.500000  1
  Si  Si27  1  0.506767  0.347364  0.500000  1
  Si  Si28  1  0.005483  0.153428  0.500000  1
  Si  Si29  1  0.991539  0.846608  0.500000  1
  Ir  Ir30  1  0.744700  0.520091  0.000000  1
  Ir  Ir31  1  0.255066  0.479369  0.000000  1
  Ir  Ir32  1  0.244026  0.979937  0.000000  1
  Ir  Ir33  1  0.756970  0.021551  0.000000  1
  Ir  Ir34  1  0.479937  0.744026  0.000000  1
  Ir  Ir35  1  0.521551  0.256970  0.000000  1
  Ir  Ir36  1  0.020091  0.244700  0.000000  1
  Ir  Ir37  1  0.979369  0.755066  0.000000  1
