# generated using pymatgen
data_Dy6Y2Tc3B24Os
_symmetry_space_group_name_H-M   'P 1'
_cell_length_a   3.68466000
_cell_length_b   9.17183406
_cell_length_c   11.56108001
_cell_angle_alpha   89.95535601
_cell_angle_beta   90.00000000
_cell_angle_gamma   90.00000000
_symmetry_Int_Tables_number   1
_chemical_formula_structural   Dy6Y2Tc3B24Os
_chemical_formula_sum   'Dy6 Y2 Tc3 B24 Os1'
_cell_volume   390.70762200
_cell_formula_units_Z   1
loop_
 _symmetry_equiv_pos_site_id
 _symmetry_equiv_pos_as_xyz
  1  'x, y, z'
loop_
 _atom_site_type_symbol
 _atom_site_label
 _atom_site_symmetry_multiplicity
 _atom_site_fract_x
 _atom_site_fract_y
 _atom_site_fract_z
 _atom_site_occupancy
  Dy  Dy0  1  0.000000  0.823063  0.087186  1
  Dy  Dy1  1  0.000000  0.177806  0.914562  1
  Dy  Dy2  1  0.000000  0.942398  0.369976  1
  Dy  Dy3  1  0.000000  0.058436  0.630126  1
  Dy  Dy4  1  0.000000  0.442694  0.130302  1
  Dy  Dy5  1  0.000000  0.557156  0.869336  1
  Y  Y6  1  0.000000  0.323673  0.413930  1
  Y  Y7  1  0.000000  0.675507  0.584281  1
  Tc  Tc8  1  0.000000  0.638363  0.320587  1
  Tc  Tc9  1  0.000000  0.361701  0.679959  1
  Tc  Tc10  1  0.000000  0.137700  0.178139  1
  B  B11  1  0.500000  0.553122  0.432807  1
  B  B12  1  0.500000  0.446843  0.566957  1
  B  B13  1  0.500000  0.053054  0.066946  1
  B  B14  1  0.500000  0.946316  0.932874  1
  B  B15  1  0.500000  0.748281  0.418458  1
  B  B16  1  0.500000  0.251415  0.581570  1
  B  B17  1  0.500000  0.248727  0.081419  1
  B  B18  1  0.500000  0.751667  0.918283  1
  B  B19  1  0.500000  0.791339  0.265516  1
  B  B20  1  0.500000  0.208895  0.734990  1
  B  B21  1  0.500000  0.291196  0.234508  1
  B  B22  1  0.500000  0.709541  0.765514  1
  B  B23  1  0.500000  0.631099  0.185743  1
  B  B24  1  0.500000  0.368803  0.814722  1
  B  B25  1  0.500000  0.130496  0.313857  1
  B  B26  1  0.500000  0.869052  0.686052  1
  B  B27  1  0.500000  0.981977  0.211657  1
  B  B28  1  0.500000  0.016847  0.788341  1
  B  B29  1  0.500000  0.482431  0.288045  1
  B  B30  1  0.500000  0.517347  0.711738  1
  B  B31  1  0.500000  0.602085  0.028234  1
  B  B32  1  0.500000  0.398883  0.971625  1
  B  B33  1  0.500000  0.101857  0.471701  1
  B  B34  1  0.500000  0.898188  0.528738  1
  Os  Os35  1  0.000000  0.862039  0.821320  1
