# generated using pymatgen
data_Ca(Al5Ru)2
_symmetry_space_group_name_H-M   'P 1'
_cell_length_a   6.89170017
_cell_length_b   6.89170030
_cell_length_c   9.12270900
_cell_angle_alpha   90.00000000
_cell_angle_beta   90.00000000
_cell_angle_gamma   96.77816042
_symmetry_Int_Tables_number   1
_chemical_formula_structural   Ca(Al5Ru)2
_chemical_formula_sum   'Ca2 Al20 Ru4'
_cell_volume   430.25948179
_cell_formula_units_Z   2
loop_
 _symmetry_equiv_pos_site_id
 _symmetry_equiv_pos_as_xyz
  1  'x, y, z'
loop_
 _atom_site_type_symbol
 _atom_site_label
 _atom_site_symmetry_multiplicity
 _atom_site_fract_x
 _atom_site_fract_y
 _atom_site_fract_z
 _atom_site_occupancy
  Ca  Ca0  1  0.875079  0.124921  0.750000  1
  Ca  Ca1  1  0.124921  0.875079  0.250000  1
  Al  Al2  1  0.774497  0.774497  0.000000  1
  Al  Al3  1  0.774497  0.774497  0.500000  1
  Al  Al4  1  0.225503  0.225503  0.000000  1
  Al  Al5  1  0.225503  0.225503  0.500000  1
  Al  Al6  1  0.623236  0.376764  0.952534  1
  Al  Al7  1  0.376764  0.623236  0.047466  1
  Al  Al8  1  0.623236  0.376764  0.547466  1
  Al  Al9  1  0.376764  0.623236  0.452534  1
  Al  Al10  1  0.843096  0.156904  0.400906  1
  Al  Al11  1  0.156904  0.843096  0.599094  1
  Al  Al12  1  0.843096  0.156904  0.099094  1
  Al  Al13  1  0.156904  0.843096  0.900906  1
  Al  Al14  1  0.412449  0.140267  0.750000  1
  Al  Al15  1  0.140267  0.412449  0.250000  1
  Al  Al16  1  0.587551  0.859733  0.250000  1
  Al  Al17  1  0.859733  0.587551  0.750000  1
  Al  Al18  1  0.523065  0.780805  0.750000  1
  Al  Al19  1  0.780805  0.523065  0.250000  1
  Al  Al20  1  0.476935  0.219195  0.250000  1
  Al  Al21  1  0.219195  0.476935  0.750000  1
  Ru  Ru22  1  0.500000  0.000000  0.000000  1
  Ru  Ru23  1  0.000000  0.500000  0.000000  1
  Ru  Ru24  1  0.500000  0.000000  0.500000  1
  Ru  Ru25  1  0.000000  0.500000  0.500000  1
