# generated using pymatgen
data_SmHoNi2(B4Os3)2
_symmetry_space_group_name_H-M   'P 1'
_cell_length_a   7.56753273
_cell_length_b   7.26199019
_cell_length_c   4.00034800
_cell_angle_alpha   90.00000000
_cell_angle_beta   90.00000000
_cell_angle_gamma   87.64379502
_symmetry_Int_Tables_number   1
_chemical_formula_structural   SmHoNi2(B4Os3)2
_chemical_formula_sum   'Sm1 Ho1 Ni2 B8 Os6'
_cell_volume   219.65465325
_cell_formula_units_Z   1
loop_
 _symmetry_equiv_pos_site_id
 _symmetry_equiv_pos_as_xyz
  1  'x, y, z'
loop_
 _atom_site_type_symbol
 _atom_site_label
 _atom_site_symmetry_multiplicity
 _atom_site_fract_x
 _atom_site_fract_y
 _atom_site_fract_z
 _atom_site_occupancy
  Sm  Sm0  1  0.000000  0.000000  0.011820  1
  Ho  Ho1  1  0.500000  0.500000  0.610067  1
  Ni  Ni2  1  0.137350  0.384110  0.880205  1
  Ni  Ni3  1  0.862650  0.615890  0.880205  1
  B  B4  1  0.673552  0.779239  0.106196  1
  B  B5  1  0.326448  0.220761  0.106196  1
  B  B6  1  0.282093  0.834504  0.602440  1
  B  B7  1  0.717907  0.165496  0.602440  1
  B  B8  1  0.844533  0.691181  0.382764  1
  B  B9  1  0.155467  0.308819  0.382764  1
  B  B10  1  0.206107  0.668715  0.880931  1
  B  B11  1  0.793893  0.331285  0.880931  1
  Os  Os12  1  0.879148  0.369092  0.374636  1
  Os  Os13  1  0.120852  0.630908  0.374636  1
  Os  Os14  1  0.347489  0.115928  0.606735  1
  Os  Os15  1  0.652511  0.884072  0.606735  1
  Os  Os16  1  0.602179  0.152613  0.105150  1
  Os  Os17  1  0.397821  0.847387  0.105150  1
