# generated using pymatgen
data_La10Bi6AsPt
_symmetry_space_group_name_H-M   'P 1'
_cell_length_a   9.84447400
_cell_length_b   9.84447437
_cell_length_c   6.85862900
_cell_angle_alpha   90.00000000
_cell_angle_beta   90.00000000
_cell_angle_gamma   119.99999875
_symmetry_Int_Tables_number   1
_chemical_formula_structural   La10Bi6AsPt
_chemical_formula_sum   'La10 Bi6 As1 Pt1'
_cell_volume   575.64269480
_cell_formula_units_Z   1
loop_
 _symmetry_equiv_pos_site_id
 _symmetry_equiv_pos_as_xyz
  1  'x, y, z'
loop_
 _atom_site_type_symbol
 _atom_site_label
 _atom_site_symmetry_multiplicity
 _atom_site_fract_x
 _atom_site_fract_y
 _atom_site_fract_z
 _atom_site_occupancy
  La  La0  1  0.751415  0.000000  0.751458  1
  La  La1  1  0.000000  0.248585  0.248542  1
  La  La2  1  0.751415  0.751415  0.248542  1
  La  La3  1  0.333333  0.666667  0.500000  1
  La  La4  1  0.333333  0.666667  0.000000  1
  La  La5  1  0.666667  0.333333  0.500000  1
  La  La6  1  0.666667  0.333333  0.000000  1
  La  La7  1  0.248585  0.000000  0.248542  1
  La  La8  1  0.248585  0.248585  0.751458  1
  La  La9  1  0.000000  0.751415  0.751458  1
  Bi  Bi10  1  0.389711  0.000000  0.751005  1
  Bi  Bi11  1  0.610289  0.000000  0.248995  1
  Bi  Bi12  1  0.000000  0.610289  0.248995  1
  Bi  Bi13  1  0.610289  0.610289  0.751005  1
  Bi  Bi14  1  0.000000  0.389711  0.751005  1
  Bi  Bi15  1  0.389711  0.389711  0.248995  1
  As  As16  1  0.000000  0.000000  0.500000  1
  Pt  Pt17  1  0.000000  0.000000  0.000000  1
