# generated using pymatgen
data_Rb8ThU3I20
_symmetry_space_group_name_H-M   'P 1'
_cell_length_a   9.47628867
_cell_length_b   9.95498500
_cell_length_c   15.20851709
_cell_angle_alpha   90.00000000
_cell_angle_beta   89.77714146
_cell_angle_gamma   90.00000000
_symmetry_Int_Tables_number   1
_chemical_formula_structural   Rb8ThU3I20
_chemical_formula_sum   'Rb8 Th1 U3 I20'
_cell_volume   1434.70455316
_cell_formula_units_Z   1
loop_
 _symmetry_equiv_pos_site_id
 _symmetry_equiv_pos_as_xyz
  1  'x, y, z'
loop_
 _atom_site_type_symbol
 _atom_site_label
 _atom_site_symmetry_multiplicity
 _atom_site_fract_x
 _atom_site_fract_y
 _atom_site_fract_z
 _atom_site_occupancy
  Rb  Rb0  1  0.542369  0.499544  0.828079  1
  Rb  Rb1  1  0.457942  0.497421  0.172596  1
  Rb  Rb2  1  0.040290  0.496005  0.676689  1
  Rb  Rb3  1  0.457942  0.002579  0.172596  1
  Rb  Rb4  1  0.959308  0.498465  0.322934  1
  Rb  Rb5  1  0.542369  0.000456  0.828079  1
  Rb  Rb6  1  0.959308  0.001535  0.322934  1
  Rb  Rb7  1  0.040290  0.003995  0.676689  1
  Th  Th8  1  0.572768  0.750000  0.502936  1
  U  U9  1  0.426029  0.250000  0.496413  1
  U  U10  1  0.073404  0.250000  0.997604  1
  U  U11  1  0.927207  0.750000  0.001909  1
  I  I12  1  0.831207  0.750000  0.799548  1
  I  I13  1  0.169088  0.250000  0.200208  1
  I  I14  1  0.334607  0.250000  0.700122  1
  I  I15  1  0.667810  0.750000  0.301683  1
  I  I16  1  0.365096  0.750000  0.667824  1
  I  I17  1  0.635815  0.250000  0.330006  1
  I  I18  1  0.863871  0.250000  0.829873  1
  I  I19  1  0.133597  0.750000  0.170464  1
  I  I20  1  0.915277  0.750000  0.509389  1
  I  I21  1  0.081979  0.250000  0.488446  1
  I  I22  1  0.417338  0.250000  0.989258  1
  I  I23  1  0.583015  0.750000  0.011847  1
  I  I24  1  0.657975  0.039013  0.580595  1
  I  I25  1  0.342604  0.953423  0.420961  1
  I  I26  1  0.158132  0.956537  0.918808  1
  I  I27  1  0.342604  0.546577  0.420961  1
  I  I28  1  0.842325  0.042828  0.080572  1
  I  I29  1  0.657975  0.460987  0.580595  1
  I  I30  1  0.842325  0.457172  0.080572  1
  I  I31  1  0.158132  0.543463  0.918808  1
