# generated using pymatgen
data_TbYb6HoBi6
_symmetry_space_group_name_H-M   'P 1'
_cell_length_a   8.17707214
_cell_length_b   8.36590325
_cell_length_c   8.36590222
_cell_angle_alpha   109.92392981
_cell_angle_beta   109.01462799
_cell_angle_gamma   109.01462387
_symmetry_Int_Tables_number   1
_chemical_formula_structural   TbYb6HoBi6
_chemical_formula_sum   'Tb1 Yb6 Ho1 Bi6'
_cell_volume   443.01439694
_cell_formula_units_Z   1
loop_
 _symmetry_equiv_pos_site_id
 _symmetry_equiv_pos_as_xyz
  1  'x, y, z'
loop_
 _atom_site_type_symbol
 _atom_site_label
 _atom_site_symmetry_multiplicity
 _atom_site_fract_x
 _atom_site_fract_y
 _atom_site_fract_z
 _atom_site_occupancy
  Tb  Tb0  1  0.141441  0.500000  0.000000  1
  Yb  Yb1  1  0.500976  0.999024  0.646592  1
  Yb  Yb2  1  0.354465  0.352419  0.353526  1
  Yb  Yb3  1  0.502045  0.001107  0.147581  1
  Yb  Yb4  1  0.001952  0.647568  0.500976  1
  Yb  Yb5  1  0.854386  0.853408  0.852432  1
  Yb  Yb6  1  0.000938  0.146474  0.498893  1
  Ho  Ho7  1  0.641269  0.500000  0.000000  1
  Bi  Bi8  1  0.377200  0.622810  0.756373  1
  Bi  Bi9  1  0.876393  0.256085  0.122989  1
  Bi  Bi10  1  0.620828  0.743627  0.366437  1
  Bi  Bi11  1  0.120309  0.866904  0.243915  1
  Bi  Bi12  1  0.254391  0.133563  0.877190  1
  Bi  Bi13  1  0.753404  0.377011  0.633096  1
