# generated using pymatgen
data_Eu3SiI2
_symmetry_space_group_name_H-M   'P 1'
_cell_length_a   15.23904733
_cell_length_b   14.53576878
_cell_length_c   8.09762880
_cell_angle_alpha   79.07111512
_cell_angle_beta   69.48009760
_cell_angle_gamma   31.44879171
_symmetry_Int_Tables_number   1
_chemical_formula_structural   Eu3SiI2
_chemical_formula_sum   'Eu12 Si4 I8'
_cell_volume   854.19688544
_cell_formula_units_Z   4
loop_
 _symmetry_equiv_pos_site_id
 _symmetry_equiv_pos_as_xyz
  1  'x, y, z'
loop_
 _atom_site_type_symbol
 _atom_site_label
 _atom_site_symmetry_multiplicity
 _atom_site_fract_x
 _atom_site_fract_y
 _atom_site_fract_z
 _atom_site_occupancy
  Eu  Eu0  1  0.047584  0.452416  0.452416  1
  Eu  Eu1  1  0.797584  0.202416  0.202416  1
  Eu  Eu2  1  0.093921  0.589485  0.949949  1
  Eu  Eu3  1  0.883355  0.300051  0.660515  1
  Eu  Eu4  1  0.589485  0.093921  0.366645  1
  Eu  Eu5  1  0.156079  0.660515  0.300051  1
  Eu  Eu6  1  0.300051  0.883355  0.156079  1
  Eu  Eu7  1  0.366645  0.949949  0.589485  1
  Eu  Eu8  1  0.202416  0.797584  0.797584  1
  Eu  Eu9  1  0.452416  0.047584  0.047584  1
  Eu  Eu10  1  0.949949  0.366645  0.093921  1
  Eu  Eu11  1  0.660515  0.156079  0.883355  1
  Si  Si12  1  0.334143  0.334143  0.165857  1
  Si  Si13  1  0.165857  0.165857  0.334143  1
  Si  Si14  1  0.084143  0.084143  0.915857  1
  Si  Si15  1  0.915857  0.915857  0.084143  1
  I  I16  1  0.577945  0.577945  0.422055  1
  I  I17  1  0.672055  0.672055  0.827945  1
  I  I18  1  0.254859  0.254859  0.745141  1
  I  I19  1  0.422055  0.422055  0.577945  1
  I  I20  1  0.995141  0.995141  0.504859  1
  I  I21  1  0.745141  0.745141  0.254859  1
  I  I22  1  0.827945  0.827945  0.672055  1
  I  I23  1  0.504859  0.504859  0.995141  1
