# generated using pymatgen
data_Tm8Mn3B24Ir
_symmetry_space_group_name_H-M   'P 1'
_cell_length_a   3.54481700
_cell_length_b   9.04078691
_cell_length_c   11.40936891
_cell_angle_alpha   90.06365730
_cell_angle_beta   90.00000000
_cell_angle_gamma   90.00000000
_symmetry_Int_Tables_number   1
_chemical_formula_structural   Tm8Mn3B24Ir
_chemical_formula_sum   'Tm8 Mn3 B24 Ir1'
_cell_volume   365.64648888
_cell_formula_units_Z   1
loop_
 _symmetry_equiv_pos_site_id
 _symmetry_equiv_pos_as_xyz
  1  'x, y, z'
loop_
 _atom_site_type_symbol
 _atom_site_label
 _atom_site_symmetry_multiplicity
 _atom_site_fract_x
 _atom_site_fract_y
 _atom_site_fract_z
 _atom_site_occupancy
  Tm  Tm0  1  0.000000  0.318283  0.416825  1
  Tm  Tm1  1  0.000000  0.677375  0.591815  1
  Tm  Tm2  1  0.000000  0.828271  0.080139  1
  Tm  Tm3  1  0.000000  0.175817  0.912962  1
  Tm  Tm4  1  0.000000  0.946811  0.368998  1
  Tm  Tm5  1  0.000000  0.057158  0.631501  1
  Tm  Tm6  1  0.000000  0.438098  0.128035  1
  Tm  Tm7  1  0.000000  0.557574  0.869149  1
  Mn  Mn8  1  0.000000  0.362272  0.678353  1
  Mn  Mn9  1  0.000000  0.138338  0.180400  1
  Mn  Mn10  1  0.000000  0.861523  0.820523  1
  B  B11  1  0.500000  0.552727  0.435241  1
  B  B12  1  0.500000  0.445712  0.567989  1
  B  B13  1  0.500000  0.053986  0.066911  1
  B  B14  1  0.500000  0.946722  0.931907  1
  B  B15  1  0.500000  0.749792  0.421078  1
  B  B16  1  0.500000  0.252208  0.582464  1
  B  B17  1  0.500000  0.246439  0.081827  1
  B  B18  1  0.500000  0.753284  0.917648  1
  B  B19  1  0.500000  0.792830  0.263852  1
  B  B20  1  0.500000  0.209627  0.734540  1
  B  B21  1  0.500000  0.289924  0.234803  1
  B  B22  1  0.500000  0.709508  0.765855  1
  B  B23  1  0.500000  0.631440  0.183123  1
  B  B24  1  0.500000  0.369055  0.813478  1
  B  B25  1  0.500000  0.131401  0.314135  1
  B  B26  1  0.500000  0.868813  0.686673  1
  B  B27  1  0.500000  0.984910  0.210715  1
  B  B28  1  0.500000  0.016051  0.788384  1
  B  B29  1  0.500000  0.480541  0.288011  1
  B  B30  1  0.500000  0.516004  0.711661  1
  B  B31  1  0.500000  0.603761  0.028539  1
  B  B32  1  0.500000  0.396208  0.971029  1
  B  B33  1  0.500000  0.103097  0.471749  1
  B  B34  1  0.500000  0.896301  0.528760  1
  Ir  Ir35  1  0.000000  0.638140  0.320930  1
