# generated using pymatgen
data_HoMgIn4Rh
_symmetry_space_group_name_H-M   'P 1'
_cell_length_a   4.64817600
_cell_length_b   4.59113700
_cell_length_c   7.52887800
_cell_angle_alpha   90.00000000
_cell_angle_beta   90.00000000
_cell_angle_gamma   90.00000000
_symmetry_Int_Tables_number   1
_chemical_formula_structural   HoMgIn4Rh
_chemical_formula_sum   'Ho1 Mg1 In4 Rh1'
_cell_volume   160.66936456
_cell_formula_units_Z   1
loop_
 _symmetry_equiv_pos_site_id
 _symmetry_equiv_pos_as_xyz
  1  'x, y, z'
loop_
 _atom_site_type_symbol
 _atom_site_label
 _atom_site_symmetry_multiplicity
 _atom_site_fract_x
 _atom_site_fract_y
 _atom_site_fract_z
 _atom_site_occupancy
  Ho  Ho0  1  0.000000  0.000000  0.006188  1
  Mg  Mg1  1  0.500000  0.000000  0.691867  1
  In  In2  1  0.500000  0.500000  0.993056  1
  In  In3  1  0.000000  0.500000  0.301553  1
  In  In4  1  0.500000  0.000000  0.304500  1
  In  In5  1  0.000000  0.500000  0.701842  1
  Rh  Rh6  1  0.000000  0.000000  0.500994  1
