# generated using pymatgen
data_Nd2AlGaRh2
_symmetry_space_group_name_H-M   'P 1'
_cell_length_a   4.32858300
_cell_length_b   7.05969930
_cell_length_c   8.04474035
_cell_angle_alpha   89.77683895
_cell_angle_beta   90.00000000
_cell_angle_gamma   90.00000000
_symmetry_Int_Tables_number   1
_chemical_formula_structural   Nd2AlGaRh2
_chemical_formula_sum   'Nd4 Al2 Ga2 Rh4'
_cell_volume   245.83328819
_cell_formula_units_Z   2
loop_
 _symmetry_equiv_pos_site_id
 _symmetry_equiv_pos_as_xyz
  1  'x, y, z'
loop_
 _atom_site_type_symbol
 _atom_site_label
 _atom_site_symmetry_multiplicity
 _atom_site_fract_x
 _atom_site_fract_y
 _atom_site_fract_z
 _atom_site_occupancy
  Nd  Nd0  1  0.250000  0.535904  0.186760  1
  Nd  Nd1  1  0.750000  0.464096  0.813240  1
  Nd  Nd2  1  0.750000  0.963696  0.681052  1
  Nd  Nd3  1  0.250000  0.036304  0.318948  1
  Al  Al4  1  0.750000  0.862748  0.064280  1
  Al  Al5  1  0.250000  0.137252  0.935720  1
  Ga  Ga6  1  0.250000  0.646522  0.566383  1
  Ga  Ga7  1  0.750000  0.353478  0.433617  1
  Rh  Rh8  1  0.250000  0.772681  0.890394  1
  Rh  Rh9  1  0.750000  0.227319  0.109606  1
  Rh  Rh10  1  0.750000  0.728721  0.382154  1
  Rh  Rh11  1  0.250000  0.271279  0.617846  1
