# generated using pymatgen
data_CeNdSi2PtRh3
_symmetry_space_group_name_H-M   'P 1'
_cell_length_a   9.32187613
_cell_length_b   9.32187611
_cell_length_c   4.10150400
_cell_angle_alpha   90.00000000
_cell_angle_beta   90.00000000
_cell_angle_gamma   155.02106585
_symmetry_Int_Tables_number   1
_chemical_formula_structural   CeNdSi2PtRh3
_chemical_formula_sum   'Ce1 Nd1 Si2 Pt1 Rh3'
_cell_volume   150.50657105
_cell_formula_units_Z   1
loop_
 _symmetry_equiv_pos_site_id
 _symmetry_equiv_pos_as_xyz
  1  'x, y, z'
loop_
 _atom_site_type_symbol
 _atom_site_label
 _atom_site_symmetry_multiplicity
 _atom_site_fract_x
 _atom_site_fract_y
 _atom_site_fract_z
 _atom_site_occupancy
  Ce  Ce0  1  0.900598  0.099402  0.250000  1
  Nd  Nd1  1  0.103295  0.896705  0.750000  1
  Si  Si2  1  0.320191  0.679809  0.750000  1
  Si  Si3  1  0.680222  0.319778  0.250000  1
  Pt  Pt4  1  0.546841  0.453159  0.250000  1
  Rh  Rh5  1  0.449250  0.550750  0.750000  1
  Rh  Rh6  1  0.249834  0.750166  0.250000  1
  Rh  Rh7  1  0.749770  0.250230  0.750000  1
