# generated using pymatgen
data_Y16Cd4Ir2RuRh
_symmetry_space_group_name_H-M   'P 1'
_cell_length_a   9.71780194
_cell_length_b   9.71780098
_cell_length_c   9.70608002
_cell_angle_alpha   59.65968277
_cell_angle_beta   59.65968886
_cell_angle_gamma   59.59225082
_symmetry_Int_Tables_number   1
_chemical_formula_structural   Y16Cd4Ir2RuRh
_chemical_formula_sum   'Y16 Cd4 Ir2 Ru1 Rh1'
_cell_volume   642.79036150
_cell_formula_units_Z   1
loop_
 _symmetry_equiv_pos_site_id
 _symmetry_equiv_pos_as_xyz
  1  'x, y, z'
loop_
 _atom_site_type_symbol
 _atom_site_label
 _atom_site_symmetry_multiplicity
 _atom_site_fract_x
 _atom_site_fract_y
 _atom_site_fract_z
 _atom_site_occupancy
  Y  Y0  1  0.349554  0.349554  0.349648  1
  Y  Y1  1  0.348682  0.348682  0.956401  1
  Y  Y2  1  0.349169  0.955181  0.348539  1
  Y  Y3  1  0.955181  0.349169  0.348539  1
  Y  Y4  1  0.811513  0.189294  0.188428  1
  Y  Y5  1  0.188025  0.809318  0.810355  1
  Y  Y6  1  0.189294  0.811513  0.188428  1
  Y  Y7  1  0.809318  0.188025  0.810355  1
  Y  Y8  1  0.188968  0.188968  0.811733  1
  Y  Y9  1  0.809765  0.809765  0.187572  1
  Y  Y10  1  0.938127  0.562879  0.560950  1
  Y  Y11  1  0.560354  0.937842  0.937408  1
  Y  Y12  1  0.562879  0.938127  0.560950  1
  Y  Y13  1  0.937842  0.560354  0.937408  1
  Y  Y14  1  0.561161  0.561161  0.938805  1
  Y  Y15  1  0.937324  0.937324  0.560317  1
  Cd  Cd16  1  0.579722  0.579722  0.579649  1
  Cd  Cd17  1  0.580819  0.580819  0.256962  1
  Cd  Cd18  1  0.580876  0.256961  0.580666  1
  Cd  Cd19  1  0.256961  0.580876  0.580666  1
  Ir  Ir20  1  0.143296  0.576634  0.144237  1
  Ir  Ir21  1  0.576634  0.143296  0.144237  1
  Ru  Ru22  1  0.141181  0.141181  0.141191  1
  Rh  Rh23  1  0.143360  0.143360  0.576562  1
