# generated using pymatgen
data_Y9Er7(TmBi3)4
_symmetry_space_group_name_H-M   'P 1'
_cell_length_a   8.22577230
_cell_length_b   9.46392823
_cell_length_c   12.03805800
_cell_angle_alpha   90.00200341
_cell_angle_beta   90.03251108
_cell_angle_gamma   89.98635416
_symmetry_Int_Tables_number   1
_chemical_formula_structural   Y9Er7(TmBi3)4
_chemical_formula_sum   'Y9 Er7 Tm4 Bi12'
_cell_volume   937.13999025
_cell_formula_units_Z   1
loop_
 _symmetry_equiv_pos_site_id
 _symmetry_equiv_pos_as_xyz
  1  'x, y, z'
loop_
 _atom_site_type_symbol
 _atom_site_label
 _atom_site_symmetry_multiplicity
 _atom_site_fract_x
 _atom_site_fract_y
 _atom_site_fract_z
 _atom_site_occupancy
  Y  Y0  1  0.186210  0.750009  0.718762  1
  Y  Y1  1  0.686517  0.750018  0.781448  1
  Y  Y2  1  0.813612  0.249707  0.281106  1
  Y  Y3  1  0.313577  0.249938  0.218552  1
  Y  Y4  1  0.806828  0.437067  0.559691  1
  Y  Y5  1  0.354076  0.749951  0.215645  1
  Y  Y6  1  0.853698  0.749812  0.284337  1
  Y  Y7  1  0.645524  0.249435  0.784689  1
  Y  Y8  1  0.146340  0.249546  0.715824  1
  Er  Er9  1  0.306653  0.435290  0.940370  1
  Er  Er10  1  0.806566  0.064581  0.559811  1
  Er  Er11  1  0.693384  0.935204  0.059623  1
  Er  Er12  1  0.193426  0.564891  0.440215  1
  Er  Er13  1  0.693278  0.564812  0.059647  1
  Er  Er14  1  0.193734  0.935340  0.440089  1
  Er  Er15  1  0.306604  0.064661  0.940444  1
  Tm  Tm16  1  0.025311  0.749914  0.988978  1
  Tm  Tm17  1  0.525101  0.750021  0.510980  1
  Tm  Tm18  1  0.974722  0.249921  0.011005  1
  Tm  Tm19  1  0.474141  0.249571  0.488962  1
  Bi  Bi20  1  0.433853  0.003651  0.672777  1
  Bi  Bi21  1  0.934121  0.496053  0.827477  1
  Bi  Bi22  1  0.566026  0.503654  0.327166  1
  Bi  Bi23  1  0.066110  0.996027  0.172676  1
  Bi  Bi24  1  0.566061  0.996091  0.327310  1
  Bi  Bi25  1  0.066210  0.503773  0.172601  1
  Bi  Bi26  1  0.433539  0.495991  0.672794  1
  Bi  Bi27  1  0.933965  0.003744  0.827361  1
  Bi  Bi28  1  0.407577  0.750008  0.957926  1
  Bi  Bi29  1  0.908186  0.751589  0.541761  1
  Bi  Bi30  1  0.592509  0.250038  0.042171  1
  Bi  Bi31  1  0.092541  0.249691  0.457803  1
