# generated using pymatgen
data_YbZr2Pa(Al3Ir)6
_symmetry_space_group_name_H-M   'P 1'
_cell_length_a   7.54114488
_cell_length_b   7.53386905
_cell_length_c   9.33586600
_cell_angle_alpha   90.00000000
_cell_angle_beta   90.00000000
_cell_angle_gamma   119.71820771
_symmetry_Int_Tables_number   1
_chemical_formula_structural   YbZr2Pa(Al3Ir)6
_chemical_formula_sum   'Yb1 Zr2 Pa1 Al18 Ir6'
_cell_volume   460.64545786
_cell_formula_units_Z   1
loop_
 _symmetry_equiv_pos_site_id
 _symmetry_equiv_pos_as_xyz
  1  'x, y, z'
loop_
 _atom_site_type_symbol
 _atom_site_label
 _atom_site_symmetry_multiplicity
 _atom_site_fract_x
 _atom_site_fract_y
 _atom_site_fract_z
 _atom_site_occupancy
  Yb  Yb0  1  0.329320  0.005304  0.750000  1
  Zr  Zr1  1  0.004565  0.328918  0.750000  1
  Zr  Zr2  1  0.669897  0.993163  0.250000  1
  Pa  Pa3  1  0.997435  0.674059  0.250000  1
  Al  Al4  1  0.128892  0.131896  0.250000  1
  Al  Al5  1  0.872832  0.879622  0.750000  1
  Al  Al6  1  0.997649  0.329396  0.073237  1
  Al  Al7  1  0.000511  0.662683  0.918113  1
  Al  Al8  1  0.000511  0.662683  0.581887  1
  Al  Al9  1  0.341789  0.004839  0.426043  1
  Al  Al10  1  0.997649  0.329396  0.426763  1
  Al  Al11  1  0.667169  0.003007  0.574972  1
  Al  Al12  1  0.667169  0.003007  0.925028  1
  Al  Al13  1  0.341789  0.004839  0.073957  1
  Al  Al14  1  0.329938  0.331503  0.558197  1
  Al  Al15  1  0.663011  0.667456  0.447612  1
  Al  Al16  1  0.663011  0.667456  0.052388  1
  Al  Al17  1  0.329938  0.331503  0.941803  1
  Al  Al18  1  0.342804  0.550326  0.250000  1
  Al  Al19  1  0.663054  0.448487  0.750000  1
  Al  Al20  1  0.547235  0.337445  0.250000  1
  Al  Al21  1  0.444454  0.655706  0.750000  1
  Ir  Ir22  1  0.675432  0.331024  0.002837  1
  Ir  Ir23  1  0.325770  0.671631  0.003297  1
  Ir  Ir24  1  0.325770  0.671631  0.496703  1
  Ir  Ir25  1  0.675432  0.331024  0.497163  1
  Ir  Ir26  1  0.998487  0.995998  0.004453  1
  Ir  Ir27  1  0.998487  0.995998  0.495547  1
