# generated using pymatgen
data_Y2LuAl3SiAu2
_symmetry_space_group_name_H-M   'P 1'
_cell_length_a   6.96825744
_cell_length_b   7.02591693
_cell_length_c   4.30016900
_cell_angle_alpha   90.00000000
_cell_angle_beta   90.00000000
_cell_angle_gamma   120.04316042
_symmetry_Int_Tables_number   1
_chemical_formula_structural   Y2LuAl3SiAu2
_chemical_formula_sum   'Y2 Lu1 Al3 Si1 Au2'
_cell_volume   182.24444884
_cell_formula_units_Z   1
loop_
 _symmetry_equiv_pos_site_id
 _symmetry_equiv_pos_as_xyz
  1  'x, y, z'
loop_
 _atom_site_type_symbol
 _atom_site_label
 _atom_site_symmetry_multiplicity
 _atom_site_fract_x
 _atom_site_fract_y
 _atom_site_fract_z
 _atom_site_occupancy
  Y  Y0  1  0.425295  0.422477  0.500000  1
  Y  Y1  1  0.578609  0.005799  0.500000  1
  Lu  Lu2  1  0.000015  0.577988  0.500000  1
  Al  Al3  1  0.752056  0.758906  0.000000  1
  Al  Al4  1  0.240179  0.992058  0.000000  1
  Al  Al5  1  0.005502  0.248317  0.000000  1
  Si  Si6  1  0.671444  0.336246  0.000000  1
  Au  Au7  1  0.326496  0.664613  0.000000  1
  Au  Au8  1  0.000403  0.993596  0.500000  1
