# generated using pymatgen
data_Dy5Mn2Co17As11P
_symmetry_space_group_name_H-M   'P 1'
_cell_length_a   12.46780306
_cell_length_b   12.49329348
_cell_length_c   3.79997500
_cell_angle_alpha   90.00000000
_cell_angle_beta   90.00000000
_cell_angle_gamma   120.06764545
_symmetry_Int_Tables_number   1
_chemical_formula_structural   Dy5Mn2Co17As11P
_chemical_formula_sum   'Dy5 Mn2 Co17 As11 P1'
_cell_volume   512.24981515
_cell_formula_units_Z   1
loop_
 _symmetry_equiv_pos_site_id
 _symmetry_equiv_pos_as_xyz
  1  'x, y, z'
loop_
 _atom_site_type_symbol
 _atom_site_label
 _atom_site_symmetry_multiplicity
 _atom_site_fract_x
 _atom_site_fract_y
 _atom_site_fract_z
 _atom_site_occupancy
  Dy  Dy0  1  0.668880  0.333684  0.000000  1
  Dy  Dy1  1  0.331120  0.664805  0.000000  1
  Dy  Dy2  1  0.181470  0.185060  0.500000  1
  Dy  Dy3  1  0.818530  0.003590  0.500000  1
  Dy  Dy4  1  0.000000  0.811410  0.500000  1
  Mn  Mn5  1  0.561033  0.560980  0.000000  1
  Mn  Mn6  1  0.438967  0.999947  0.000000  1
  Co  Co7  1  0.000000  0.443042  0.000000  1
  Co  Co8  1  0.829430  0.200354  0.000000  1
  Co  Co9  1  0.802017  0.623551  0.000000  1
  Co  Co10  1  0.376553  0.178328  0.000000  1
  Co  Co11  1  0.197983  0.821534  0.000000  1
  Co  Co12  1  0.623447  0.801776  0.000000  1
  Co  Co13  1  0.170570  0.370923  0.000000  1
  Co  Co14  1  0.647107  0.126588  0.500000  1
  Co  Co15  1  0.876405  0.518540  0.500000  1
  Co  Co16  1  0.480131  0.355747  0.500000  1
  Co  Co17  1  0.123595  0.642135  0.500000  1
  Co  Co18  1  0.519869  0.875616  0.500000  1
  Co  Co19  1  0.352893  0.479481  0.500000  1
  Co  Co20  1  0.716635  0.716202  0.500000  1
  Co  Co21  1  0.283365  0.999567  0.500000  1
  Co  Co22  1  0.000000  0.277521  0.500000  1
  Co  Co23  1  0.000000  0.009753  0.000000  1
  As  As24  1  0.361456  0.362987  0.000000  1
  As  As25  1  0.638544  0.001531  0.000000  1
  As  As26  1  0.000000  0.632579  0.000000  1
  As  As27  1  0.837090  0.316311  0.500000  1
  As  As28  1  0.685056  0.517189  0.500000  1
  As  As29  1  0.482832  0.167661  0.500000  1
  As  As30  1  0.314944  0.832133  0.500000  1
  As  As31  1  0.517168  0.684829  0.500000  1
  As  As32  1  0.162910  0.479221  0.500000  1
  As  As33  1  0.822711  0.822875  0.000000  1
  As  As34  1  0.177289  0.000165  0.000000  1
  P  P35  1  0.000000  0.182382  0.000000  1
