# generated using pymatgen
data_Er8Ga12Ag3Ir
_symmetry_space_group_name_H-M   'P 1'
_cell_length_a   7.02135900
_cell_length_b   8.92556346
_cell_length_c   8.92516800
_cell_angle_alpha   119.99744761
_cell_angle_beta   90.00070396
_cell_angle_gamma   89.99787558
_symmetry_Int_Tables_number   1
_chemical_formula_structural   Er8Ga12Ag3Ir
_chemical_formula_sum   'Er8 Ga12 Ag3 Ir1'
_cell_volume   484.41214341
_cell_formula_units_Z   1
loop_
 _symmetry_equiv_pos_site_id
 _symmetry_equiv_pos_as_xyz
  1  'x, y, z'
loop_
 _atom_site_type_symbol
 _atom_site_label
 _atom_site_symmetry_multiplicity
 _atom_site_fract_x
 _atom_site_fract_y
 _atom_site_fract_z
 _atom_site_occupancy
  Er  Er0  1  0.744743  0.000001  0.000001  1
  Er  Er1  1  0.252488  0.999990  0.999992  1
  Er  Er2  1  0.747571  0.489093  0.510912  1
  Er  Er3  1  0.256736  0.521715  0.478277  1
  Er  Er4  1  0.747586  0.021799  0.510901  1
  Er  Er5  1  0.256716  0.956559  0.478278  1
  Er  Er6  1  0.747587  0.489097  0.978194  1
  Er  Er7  1  0.256718  0.521719  0.043444  1
  Ga  Ga8  1  0.963322  0.836509  0.163512  1
  Ga  Ga9  1  0.040488  0.165475  0.834539  1
  Ga  Ga10  1  0.963296  0.327050  0.163505  1
  Ga  Ga11  1  0.462996  0.165114  0.834872  1
  Ga  Ga12  1  0.040564  0.669021  0.834520  1
  Ga  Ga13  1  0.541124  0.831548  0.168468  1
  Ga  Ga14  1  0.963281  0.836493  0.672944  1
  Ga  Ga15  1  0.462988  0.669843  0.834923  1
  Ga  Ga16  1  0.040518  0.165462  0.330939  1
  Ga  Ga17  1  0.541124  0.336918  0.168451  1
  Ga  Ga18  1  0.463026  0.165104  0.330224  1
  Ga  Ga19  1  0.541135  0.831570  0.663112  1
  Ag  Ag20  1  0.946293  0.666687  0.333314  1
  Ag  Ag21  1  0.036427  0.333285  0.666681  1
  Ag  Ag22  1  0.468481  0.333333  0.666673  1
  Ir  Ir23  1  0.514797  0.666616  0.333324  1
