# generated using pymatgen
data_Pm(GaIr)2
_symmetry_space_group_name_H-M   'P 1'
_cell_length_a   5.90416989
_cell_length_b   5.90417005
_cell_length_c   5.90417029
_cell_angle_alpha   137.55792677
_cell_angle_beta   137.55793009
_cell_angle_gamma   61.58072037
_symmetry_Int_Tables_number   1
_chemical_formula_structural   Pm(GaIr)2
_chemical_formula_sum   'Pm1 Ga2 Ir2'
_cell_volume   92.65963499
_cell_formula_units_Z   1
loop_
 _symmetry_equiv_pos_site_id
 _symmetry_equiv_pos_as_xyz
  1  'x, y, z'
loop_
 _atom_site_type_symbol
 _atom_site_label
 _atom_site_symmetry_multiplicity
 _atom_site_fract_x
 _atom_site_fract_y
 _atom_site_fract_z
 _atom_site_occupancy
  Pm  Pm0  1  0.000000  0.000000  0.000000  1
  Ga  Ga1  1  0.375221  0.375221  0.000000  1
  Ga  Ga2  1  0.624778  0.624778  0.000000  1
  Ir  Ir3  1  0.750000  0.250000  0.500000  1
  Ir  Ir4  1  0.250000  0.750000  0.500000  1
