# generated using pymatgen
data_Yb4FeOs7
_symmetry_space_group_name_H-M   'P 1'
_cell_length_a   5.29665992
_cell_length_b   5.27134165
_cell_length_c   8.65036300
_cell_angle_alpha   90.00000000
_cell_angle_beta   90.00000000
_cell_angle_gamma   119.84572646
_symmetry_Int_Tables_number   1
_chemical_formula_structural   Yb4FeOs7
_chemical_formula_sum   'Yb4 Fe1 Os7'
_cell_volume   209.48901716
_cell_formula_units_Z   1
loop_
 _symmetry_equiv_pos_site_id
 _symmetry_equiv_pos_as_xyz
  1  'x, y, z'
loop_
 _atom_site_type_symbol
 _atom_site_label
 _atom_site_symmetry_multiplicity
 _atom_site_fract_x
 _atom_site_fract_y
 _atom_site_fract_z
 _atom_site_occupancy
  Yb  Yb0  1  0.663422  0.331721  0.564944  1
  Yb  Yb1  1  0.333721  0.666834  0.434739  1
  Yb  Yb2  1  0.333721  0.666834  0.065261  1
  Yb  Yb3  1  0.663422  0.331721  0.935056  1
  Fe  Fe4  1  0.346102  0.172993  0.250000  1
  Os  Os5  1  0.988994  0.994453  0.492561  1
  Os  Os6  1  0.988994  0.994453  0.007439  1
  Os  Os7  1  0.173147  0.345623  0.750000  1
  Os  Os8  1  0.173082  0.827742  0.750000  1
  Os  Os9  1  0.662731  0.831400  0.750000  1
  Os  Os10  1  0.836315  0.654754  0.250000  1
  Os  Os11  1  0.836349  0.181473  0.250000  1
