# generated using pymatgen
data_Yb4Al2(GaOs)3
_symmetry_space_group_name_H-M   'P 1'
_cell_length_a   5.49040913
_cell_length_b   5.53057022
_cell_length_c   8.55817400
_cell_angle_alpha   90.00000000
_cell_angle_beta   90.00000000
_cell_angle_gamma   120.24225887
_symmetry_Int_Tables_number   1
_chemical_formula_structural   Yb4Al2(GaOs)3
_chemical_formula_sum   'Yb4 Al2 Ga3 Os3'
_cell_volume   224.50240369
_cell_formula_units_Z   1
loop_
 _symmetry_equiv_pos_site_id
 _symmetry_equiv_pos_as_xyz
  1  'x, y, z'
loop_
 _atom_site_type_symbol
 _atom_site_label
 _atom_site_symmetry_multiplicity
 _atom_site_fract_x
 _atom_site_fract_y
 _atom_site_fract_z
 _atom_site_occupancy
  Yb  Yb0  1  0.333225  0.666614  0.436774  1
  Yb  Yb1  1  0.667354  0.333676  0.548226  1
  Yb  Yb2  1  0.667354  0.333676  0.951774  1
  Yb  Yb3  1  0.333225  0.666614  0.063226  1
  Al  Al4  1  0.188702  0.847853  0.750000  1
  Al  Al5  1  0.188702  0.340849  0.750000  1
  Ga  Ga6  1  0.839286  0.162633  0.250000  1
  Ga  Ga7  1  0.839286  0.676653  0.250000  1
  Ga  Ga8  1  0.322589  0.161294  0.250000  1
  Os  Os9  1  0.976870  0.988435  0.513258  1
  Os  Os10  1  0.976870  0.988435  0.986742  1
  Os  Os11  1  0.666536  0.833268  0.750000  1
