# generated using pymatgen
data_Th3(SiIr)2
_symmetry_space_group_name_H-M   'P 1'
_cell_length_a   5.77871113
_cell_length_b   5.77871146
_cell_length_c   13.72299300
_cell_angle_alpha   90.00000000
_cell_angle_beta   90.00000000
_cell_angle_gamma   138.39603588
_symmetry_Int_Tables_number   1
_chemical_formula_structural   Th3(SiIr)2
_chemical_formula_sum   'Th6 Si4 Ir4'
_cell_volume   304.27375446
_cell_formula_units_Z   2
loop_
 _symmetry_equiv_pos_site_id
 _symmetry_equiv_pos_as_xyz
  1  'x, y, z'
loop_
 _atom_site_type_symbol
 _atom_site_label
 _atom_site_symmetry_multiplicity
 _atom_site_fract_x
 _atom_site_fract_y
 _atom_site_fract_z
 _atom_site_occupancy
  Th  Th0  1  0.776199  0.223801  0.600613  1
  Th  Th1  1  0.512982  0.487018  0.250000  1
  Th  Th2  1  0.223801  0.776199  0.399387  1
  Th  Th3  1  0.776199  0.223801  0.899387  1
  Th  Th4  1  0.487018  0.512982  0.750000  1
  Th  Th5  1  0.223801  0.776199  0.100613  1
  Si  Si6  1  0.060335  0.939665  0.592050  1
  Si  Si7  1  0.060335  0.939665  0.907950  1
  Si  Si8  1  0.939665  0.060335  0.407950  1
  Si  Si9  1  0.939665  0.060335  0.092050  1
  Ir  Ir10  1  0.795526  0.204474  0.250000  1
  Ir  Ir11  1  0.204474  0.795526  0.750000  1
  Ir  Ir12  1  0.500000  0.500000  0.000000  1
  Ir  Ir13  1  0.500000  0.500000  0.500000  1
