# generated using pymatgen
data_YCd3(Ir2O7)2
_symmetry_space_group_name_H-M   'P 1'
_cell_length_a   7.22397933
_cell_length_b   7.22397941
_cell_length_c   7.29757764
_cell_angle_alpha   60.33306757
_cell_angle_beta   60.33306516
_cell_angle_gamma   60.00000706
_symmetry_Int_Tables_number   1
_chemical_formula_structural   YCd3(Ir2O7)2
_chemical_formula_sum   'Y1 Cd3 Ir4 O14'
_cell_volume   270.63556236
_cell_formula_units_Z   1
loop_
 _symmetry_equiv_pos_site_id
 _symmetry_equiv_pos_as_xyz
  1  'x, y, z'
loop_
 _atom_site_type_symbol
 _atom_site_label
 _atom_site_symmetry_multiplicity
 _atom_site_fract_x
 _atom_site_fract_y
 _atom_site_fract_z
 _atom_site_occupancy
  Y  Y0  1  0.125000  0.125000  0.625000  1
  Cd  Cd1  1  0.625000  0.125000  0.125000  1
  Cd  Cd2  1  0.125000  0.625000  0.125000  1
  Cd  Cd3  1  0.125000  0.125000  0.125000  1
  Ir  Ir4  1  0.125000  0.625000  0.625000  1
  Ir  Ir5  1  0.625000  0.125000  0.625000  1
  Ir  Ir6  1  0.625000  0.625000  0.125000  1
  Ir  Ir7  1  0.625000  0.625000  0.625000  1
  O  O8  1  0.697982  0.697982  0.303430  1
  O  O9  1  0.295600  0.295600  0.696642  1
  O  O10  1  0.712157  0.295600  0.696642  1
  O  O11  1  0.300607  0.697982  0.303430  1
  O  O12  1  0.295600  0.712157  0.696642  1
  O  O13  1  0.697982  0.300607  0.303430  1
  O  O14  1  0.552018  0.552018  0.946570  1
  O  O15  1  0.954400  0.954400  0.553358  1
  O  O16  1  0.537843  0.954400  0.553358  1
  O  O17  1  0.949393  0.552018  0.946570  1
  O  O18  1  0.954400  0.537843  0.553358  1
  O  O19  1  0.552018  0.949393  0.946570  1
  O  O20  1  0.250966  0.250966  0.247103  1
  O  O21  1  0.999034  0.999034  0.002897  1
