# generated using pymatgen
data_SrMnCo7O16
_symmetry_space_group_name_H-M   'P 1'
_cell_length_a   5.71585439
_cell_length_b   6.91760731
_cell_length_c   6.84146658
_cell_angle_alpha   88.44642024
_cell_angle_beta   102.11760816
_cell_angle_gamma   101.84198795
_symmetry_Int_Tables_number   1
_chemical_formula_structural   SrMnCo7O16
_chemical_formula_sum   'Sr1 Mn1 Co7 O16'
_cell_volume   258.81951048
_cell_formula_units_Z   1
loop_
 _symmetry_equiv_pos_site_id
 _symmetry_equiv_pos_as_xyz
  1  'x, y, z'
loop_
 _atom_site_type_symbol
 _atom_site_label
 _atom_site_symmetry_multiplicity
 _atom_site_fract_x
 _atom_site_fract_y
 _atom_site_fract_z
 _atom_site_occupancy
  Sr  Sr0  1  0.995820  0.986217  0.996133  1
  Mn  Mn1  1  0.576240  0.821845  0.483128  1
  Co  Co2  1  0.077114  0.818136  0.486131  1
  Co  Co3  1  0.926707  0.187964  0.513952  1
  Co  Co4  1  0.425334  0.186752  0.517014  1
  Co  Co5  1  0.165835  0.480036  0.182682  1
  Co  Co6  1  0.664177  0.474963  0.183058  1
  Co  Co7  1  0.333130  0.515794  0.818114  1
  Co  Co8  1  0.830834  0.510345  0.818236  1
  O  O9  1  0.680373  0.056115  0.650837  1
  O  O10  1  0.172789  0.051987  0.646571  1
  O  O11  1  0.831278  0.954900  0.347961  1
  O  O12  1  0.321019  0.954787  0.347805  1
  O  O13  1  0.652990  0.641371  0.960546  1
  O  O14  1  0.146439  0.642116  0.958740  1
  O  O15  1  0.851293  0.345329  0.045518  1
  O  O16  1  0.343759  0.346422  0.042912  1
  O  O17  1  0.977506  0.621610  0.294546  1
  O  O18  1  0.477995  0.613801  0.293587  1
  O  O19  1  0.519987  0.386086  0.698569  1
  O  O20  1  0.020919  0.380568  0.699139  1
  O  O21  1  0.666444  0.292463  0.375689  1
  O  O22  1  0.166413  0.291049  0.372032  1
  O  O23  1  0.840700  0.721915  0.637760  1
  O  O24  1  0.334903  0.717430  0.629341  1
