# generated using pymatgen
data_LaPr2U2O10
_symmetry_space_group_name_H-M   'P 1'
_cell_length_a   6.83641764
_cell_length_b   7.77641032
_cell_length_c   8.68957357
_cell_angle_alpha   101.54912529
_cell_angle_beta   97.82822733
_cell_angle_gamma   107.10690546
_symmetry_Int_Tables_number   1
_chemical_formula_structural   LaPr2U2O10
_chemical_formula_sum   'La2 Pr4 U4 O20'
_cell_volume   423.09137416
_cell_formula_units_Z   2
loop_
 _symmetry_equiv_pos_site_id
 _symmetry_equiv_pos_as_xyz
  1  'x, y, z'
loop_
 _atom_site_type_symbol
 _atom_site_label
 _atom_site_symmetry_multiplicity
 _atom_site_fract_x
 _atom_site_fract_y
 _atom_site_fract_z
 _atom_site_occupancy
  La  La0  1  0.199511  0.896647  0.895336  1
  La  La1  1  0.800489  0.103353  0.104664  1
  Pr  Pr2  1  0.609798  0.701371  0.700154  1
  Pr  Pr3  1  0.390202  0.298629  0.299846  1
  Pr  Pr4  1  0.000000  0.500000  0.500000  1
  Pr  Pr5  1  0.000000  0.000000  0.500000  1
  U  U6  1  0.402218  0.803288  0.302510  1
  U  U7  1  0.199825  0.403055  0.902809  1
  U  U8  1  0.800175  0.596945  0.097191  1
  U  U9  1  0.597782  0.196712  0.697490  1
  O  O10  1  0.438453  0.533344  0.132180  1
  O  O11  1  0.559081  0.995753  0.835228  1
  O  O12  1  0.277995  0.154954  0.747037  1
  O  O13  1  0.361732  0.600252  0.437074  1
  O  O14  1  0.057779  0.729621  0.324662  1
  O  O15  1  0.440919  0.004247  0.164772  1
  O  O16  1  0.150827  0.193610  0.028120  1
  O  O17  1  0.561547  0.466656  0.867820  1
  O  O18  1  0.853956  0.343970  0.948727  1
  O  O19  1  0.255585  0.599112  0.764633  1
  O  O20  1  0.952373  0.771713  0.652282  1
  O  O21  1  0.360035  0.060530  0.456068  1
  O  O22  1  0.639965  0.939470  0.543932  1
  O  O23  1  0.047627  0.228287  0.347718  1
  O  O24  1  0.744415  0.400888  0.235367  1
  O  O25  1  0.146044  0.656030  0.051273  1
  O  O26  1  0.849173  0.806390  0.971880  1
  O  O27  1  0.942221  0.270379  0.675338  1
  O  O28  1  0.638268  0.399748  0.562926  1
  O  O29  1  0.722005  0.845046  0.252963  1
