# generated using pymatgen
data_MgZr10Bi4Pb
_symmetry_space_group_name_H-M   'P 1'
_cell_length_a   5.74735311
_cell_length_b   8.58865862
_cell_length_c   8.58865825
_cell_angle_alpha   96.42774520
_cell_angle_beta   109.54757945
_cell_angle_gamma   70.45241252
_symmetry_Int_Tables_number   1
_chemical_formula_structural   MgZr10Bi4Pb
_chemical_formula_sum   'Mg1 Zr10 Bi4 Pb1'
_cell_volume   376.49209744
_cell_formula_units_Z   1
loop_
 _symmetry_equiv_pos_site_id
 _symmetry_equiv_pos_as_xyz
  1  'x, y, z'
loop_
 _atom_site_type_symbol
 _atom_site_label
 _atom_site_symmetry_multiplicity
 _atom_site_fract_x
 _atom_site_fract_y
 _atom_site_fract_z
 _atom_site_occupancy
  Mg  Mg0  1  0.750000  0.000000  0.000000  1
  Zr  Zr1  1  0.431488  0.854506  0.701341  1
  Zr  Zr2  1  0.584654  0.145494  0.298659  1
  Zr  Zr3  1  0.915346  0.298659  0.145494  1
  Zr  Zr4  1  0.068512  0.701341  0.854506  1
  Zr  Zr5  1  0.730147  0.701341  0.145494  1
  Zr  Zr6  1  0.285994  0.298659  0.854506  1
  Zr  Zr7  1  0.769853  0.145494  0.701341  1
  Zr  Zr8  1  0.214006  0.854506  0.298659  1
  Zr  Zr9  1  0.250000  0.500000  0.500000  1
  Zr  Zr10  1  0.750000  0.500000  0.500000  1
  Bi  Bi11  1  0.335851  0.500000  0.171703  1
  Bi  Bi12  1  0.664149  0.500000  0.828297  1
  Bi  Bi13  1  0.835851  0.828297  0.500000  1
  Bi  Bi14  1  0.164149  0.171703  0.500000  1
  Pb  Pb15  1  0.250000  0.000000  0.000000  1
