# generated using pymatgen
data_Hf4Fe2SiAs3Rh2
_symmetry_space_group_name_H-M   'P 1'
_cell_length_a   3.91313100
_cell_length_b   6.47838764
_cell_length_c   7.41030694
_cell_angle_alpha   91.27116100
_cell_angle_beta   90.00000000
_cell_angle_gamma   90.00000000
_symmetry_Int_Tables_number   1
_chemical_formula_structural   Hf4Fe2SiAs3Rh2
_chemical_formula_sum   'Hf4 Fe2 Si1 As3 Rh2'
_cell_volume   187.81082586
_cell_formula_units_Z   1
loop_
 _symmetry_equiv_pos_site_id
 _symmetry_equiv_pos_as_xyz
  1  'x, y, z'
loop_
 _atom_site_type_symbol
 _atom_site_label
 _atom_site_symmetry_multiplicity
 _atom_site_fract_x
 _atom_site_fract_y
 _atom_site_fract_z
 _atom_site_occupancy
  Hf  Hf0  1  0.250000  0.474022  0.190684  1
  Hf  Hf1  1  0.750000  0.530166  0.808821  1
  Hf  Hf2  1  0.750000  0.012813  0.681840  1
  Hf  Hf3  1  0.250000  0.978136  0.318865  1
  Fe  Fe4  1  0.750000  0.650736  0.447341  1
  Fe  Fe5  1  0.250000  0.357150  0.557364  1
  Si  Si6  1  0.250000  0.718425  0.604919  1
  As  As7  1  0.750000  0.278493  0.396132  1
  As  As8  1  0.750000  0.756956  0.134832  1
  As  As9  1  0.250000  0.244247  0.865220  1
  Rh  Rh10  1  0.250000  0.847815  0.925243  1
  Rh  Rh11  1  0.750000  0.151042  0.068738  1
