# generated using pymatgen
data_Tb3Al9Si3Os4
_symmetry_space_group_name_H-M   'P 1'
_cell_length_a   8.72029300
_cell_length_b   8.69443630
_cell_length_c   9.56020200
_cell_angle_alpha   90.00000000
_cell_angle_beta   90.00000000
_cell_angle_gamma   120.09842206
_symmetry_Int_Tables_number   1
_chemical_formula_structural   Tb3Al9Si3Os4
_chemical_formula_sum   'Tb6 Al18 Si6 Os8'
_cell_volume   627.10264772
_cell_formula_units_Z   2
loop_
 _symmetry_equiv_pos_site_id
 _symmetry_equiv_pos_as_xyz
  1  'x, y, z'
loop_
 _atom_site_type_symbol
 _atom_site_label
 _atom_site_symmetry_multiplicity
 _atom_site_fract_x
 _atom_site_fract_y
 _atom_site_fract_z
 _atom_site_occupancy
  Tb  Tb0  1  0.192531  0.385062  0.250000  1
  Tb  Tb1  1  0.807469  0.614938  0.750000  1
  Tb  Tb2  1  0.611739  0.808410  0.250000  1
  Tb  Tb3  1  0.388261  0.191590  0.750000  1
  Tb  Tb4  1  0.196671  0.808410  0.250000  1
  Tb  Tb5  1  0.803329  0.191590  0.750000  1
  Al  Al6  1  0.165029  0.330056  0.578122  1
  Al  Al7  1  0.834971  0.669944  0.421878  1
  Al  Al8  1  0.670346  0.834499  0.576480  1
  Al  Al9  1  0.834971  0.669944  0.078122  1
  Al  Al10  1  0.329654  0.165501  0.423520  1
  Al  Al11  1  0.165029  0.330056  0.921878  1
  Al  Al12  1  0.164154  0.834499  0.576480  1
  Al  Al13  1  0.329654  0.165501  0.076480  1
  Al  Al14  1  0.835846  0.165501  0.423520  1
  Al  Al15  1  0.670346  0.834499  0.923520  1
  Al  Al16  1  0.835846  0.165501  0.076480  1
  Al  Al17  1  0.164154  0.834499  0.923520  1
  Al  Al18  1  0.872388  0.432921  0.250000  1
  Al  Al19  1  0.127612  0.567079  0.750000  1
  Al  Al20  1  0.560533  0.432921  0.250000  1
  Al  Al21  1  0.439467  0.567079  0.750000  1
  Al  Al22  1  0.999483  0.998966  0.250000  1
  Al  Al23  1  0.000517  0.001034  0.750000  1
  Si  Si24  1  0.332013  0.664028  0.038370  1
  Si  Si25  1  0.667987  0.335972  0.961630  1
  Si  Si26  1  0.667987  0.335972  0.538370  1
  Si  Si27  1  0.332013  0.664028  0.461630  1
  Si  Si28  1  0.563557  0.127115  0.250000  1
  Si  Si29  1  0.436443  0.872885  0.750000  1
  Os  Os30  1  0.500000  0.000000  0.000000  1
  Os  Os31  1  0.000000  0.500000  0.000000  1
  Os  Os32  1  0.500000  0.000000  0.500000  1
  Os  Os33  1  0.500000  0.500000  0.000000  1
  Os  Os34  1  0.000000  0.500000  0.500000  1
  Os  Os35  1  0.500000  0.500000  0.500000  1
  Os  Os36  1  0.000000  0.000000  0.000000  1
  Os  Os37  1  0.000000  0.000000  0.500000  1
