# generated using pymatgen
data_Sm3P6AuN13
_symmetry_space_group_name_H-M   'P 1'
_cell_length_a   7.38513032
_cell_length_b   7.38513160
_cell_length_c   7.38513200
_cell_angle_alpha   108.97479798
_cell_angle_beta   108.97479320
_cell_angle_gamma   108.97478782
_symmetry_Int_Tables_number   1
_chemical_formula_structural   Sm3P6AuN13
_chemical_formula_sum   'Sm3 P6 Au1 N13'
_cell_volume   315.63529323
_cell_formula_units_Z   1
loop_
 _symmetry_equiv_pos_site_id
 _symmetry_equiv_pos_as_xyz
  1  'x, y, z'
loop_
 _atom_site_type_symbol
 _atom_site_label
 _atom_site_symmetry_multiplicity
 _atom_site_fract_x
 _atom_site_fract_y
 _atom_site_fract_z
 _atom_site_occupancy
  Sm  Sm0  1  0.691738  0.017547  0.017547  1
  Sm  Sm1  1  0.017547  0.017547  0.691738  1
  Sm  Sm2  1  0.017547  0.691738  0.017547  1
  P  P3  1  0.256842  0.760742  0.511213  1
  P  P4  1  0.760742  0.256842  0.511213  1
  P  P5  1  0.760742  0.511213  0.256842  1
  P  P6  1  0.256842  0.511213  0.760742  1
  P  P7  1  0.511213  0.760742  0.256842  1
  P  P8  1  0.511213  0.256842  0.760742  1
  Au  Au9  1  0.204042  0.204042  0.204042  1
  N  N10  1  0.877615  0.877615  0.877615  1
  N  N11  1  0.752616  0.324149  0.324149  1
  N  N12  1  0.324149  0.752616  0.324149  1
  N  N13  1  0.285263  0.591300  0.591300  1
  N  N14  1  0.591300  0.591300  0.285263  1
  N  N15  1  0.397762  0.728868  0.005940  1
  N  N16  1  0.005940  0.728868  0.397762  1
  N  N17  1  0.591300  0.285263  0.591300  1
  N  N18  1  0.728868  0.005940  0.397762  1
  N  N19  1  0.397762  0.005940  0.728868  1
  N  N20  1  0.728868  0.397762  0.005940  1
  N  N21  1  0.324149  0.324149  0.752616  1
  N  N22  1  0.005940  0.397762  0.728868  1
