# generated using pymatgen
data_Lu6Th2AlPd24
_symmetry_space_group_name_H-M   'P 1'
_cell_length_a   8.37665914
_cell_length_b   8.37665929
_cell_length_c   8.37665900
_cell_angle_alpha   89.98937075
_cell_angle_beta   89.98937075
_cell_angle_gamma   89.98936877
_symmetry_Int_Tables_number   1
_chemical_formula_structural   Lu6Th2AlPd24
_chemical_formula_sum   'Lu6 Th2 Al1 Pd24'
_cell_volume   587.77689342
_cell_formula_units_Z   1
loop_
 _symmetry_equiv_pos_site_id
 _symmetry_equiv_pos_as_xyz
  1  'x, y, z'
loop_
 _atom_site_type_symbol
 _atom_site_label
 _atom_site_symmetry_multiplicity
 _atom_site_fract_x
 _atom_site_fract_y
 _atom_site_fract_z
 _atom_site_occupancy
  Lu  Lu0  1  0.747369  0.747369  0.252333  1
  Lu  Lu1  1  0.747369  0.252333  0.747369  1
  Lu  Lu2  1  0.252631  0.252631  0.747667  1
  Lu  Lu3  1  0.252631  0.747667  0.252631  1
  Lu  Lu4  1  0.252333  0.747369  0.747369  1
  Lu  Lu5  1  0.747667  0.252631  0.252631  1
  Th  Th6  1  0.253946  0.253946  0.253946  1
  Th  Th7  1  0.746054  0.746054  0.746054  1
  Al  Al8  1  0.000000  0.000000  0.000000  1
  Pd  Pd9  1  0.259222  0.500808  0.998924  1
  Pd  Pd10  1  0.740778  0.499192  0.001076  1
  Pd  Pd11  1  0.998924  0.259222  0.500808  1
  Pd  Pd12  1  0.500808  0.259222  0.998924  1
  Pd  Pd13  1  0.001076  0.740778  0.499192  1
  Pd  Pd14  1  0.499192  0.740778  0.001076  1
  Pd  Pd15  1  0.500808  0.998924  0.259222  1
  Pd  Pd16  1  0.259222  0.998924  0.500808  1
  Pd  Pd17  1  0.499192  0.001076  0.740778  1
  Pd  Pd18  1  0.740778  0.001076  0.499192  1
  Pd  Pd19  1  0.998924  0.500808  0.259222  1
  Pd  Pd20  1  0.001076  0.499192  0.740778  1
  Pd  Pd21  1  0.252832  0.501404  0.501404  1
  Pd  Pd22  1  0.747168  0.498596  0.498596  1
  Pd  Pd23  1  0.501404  0.252832  0.501404  1
  Pd  Pd24  1  0.498596  0.747168  0.498596  1
  Pd  Pd25  1  0.501404  0.501404  0.252832  1
  Pd  Pd26  1  0.498596  0.498596  0.747168  1
  Pd  Pd27  1  0.287855  0.998345  0.998345  1
  Pd  Pd28  1  0.712145  0.001655  0.001655  1
  Pd  Pd29  1  0.998345  0.287855  0.998345  1
  Pd  Pd30  1  0.001655  0.712145  0.001655  1
  Pd  Pd31  1  0.998345  0.998345  0.287855  1
  Pd  Pd32  1  0.001655  0.001655  0.712145  1
