# generated using pymatgen
data_Ho4Mn2(TcOs)3
_symmetry_space_group_name_H-M   'P 1'
_cell_length_a   5.36939183
_cell_length_b   5.35763315
_cell_length_c   8.85006900
_cell_angle_alpha   90.00000000
_cell_angle_beta   90.00000000
_cell_angle_gamma   122.40715585
_symmetry_Int_Tables_number   1
_chemical_formula_structural   Ho4Mn2(TcOs)3
_chemical_formula_sum   'Ho4 Mn2 Tc3 Os3'
_cell_volume   214.94208336
_cell_formula_units_Z   1
loop_
 _symmetry_equiv_pos_site_id
 _symmetry_equiv_pos_as_xyz
  1  'x, y, z'
loop_
 _atom_site_type_symbol
 _atom_site_label
 _atom_site_symmetry_multiplicity
 _atom_site_fract_x
 _atom_site_fract_y
 _atom_site_fract_z
 _atom_site_occupancy
  Ho  Ho0  1  0.335591  0.665210  0.439574  1
  Ho  Ho1  1  0.665773  0.335661  0.562619  1
  Ho  Ho2  1  0.665773  0.335661  0.937381  1
  Ho  Ho3  1  0.335591  0.665210  0.060426  1
  Mn  Mn4  1  0.829067  0.169483  0.250000  1
  Mn  Mn5  1  0.169144  0.831168  0.750000  1
  Tc  Tc6  1  0.822721  0.656898  0.250000  1
  Tc  Tc7  1  0.339325  0.173793  0.250000  1
  Tc  Tc8  1  0.172529  0.338321  0.750000  1
  Os  Os9  1  0.003622  0.002152  0.499302  1
  Os  Os10  1  0.003622  0.002152  0.000698  1
  Os  Os11  1  0.657246  0.824293  0.750000  1
