# generated using pymatgen
data_Sc3Nb2Si3
_symmetry_space_group_name_H-M   'P 1'
_cell_length_a   7.81731100
_cell_length_b   7.81731132
_cell_length_c   5.45600600
_cell_angle_alpha   90.00000000
_cell_angle_beta   90.00000000
_cell_angle_gamma   120.00000286
_symmetry_Int_Tables_number   1
_chemical_formula_structural   Sc3Nb2Si3
_chemical_formula_sum   'Sc6 Nb4 Si6'
_cell_volume   288.74884551
_cell_formula_units_Z   2
loop_
 _symmetry_equiv_pos_site_id
 _symmetry_equiv_pos_as_xyz
  1  'x, y, z'
loop_
 _atom_site_type_symbol
 _atom_site_label
 _atom_site_symmetry_multiplicity
 _atom_site_fract_x
 _atom_site_fract_y
 _atom_site_fract_z
 _atom_site_occupancy
  Sc  Sc0  1  0.246642  0.000000  0.750000  1
  Sc  Sc1  1  0.753358  0.000000  0.250000  1
  Sc  Sc2  1  0.000000  0.246642  0.750000  1
  Sc  Sc3  1  0.000000  0.753358  0.250000  1
  Sc  Sc4  1  0.753358  0.753358  0.750000  1
  Sc  Sc5  1  0.246642  0.246642  0.250000  1
  Nb  Nb6  1  0.333333  0.666667  0.500000  1
  Nb  Nb7  1  0.666667  0.333333  0.500000  1
  Nb  Nb8  1  0.666667  0.333333  0.000000  1
  Nb  Nb9  1  0.333333  0.666667  0.000000  1
  Si  Si10  1  0.600001  0.000000  0.750000  1
  Si  Si11  1  0.399999  0.000000  0.250000  1
  Si  Si12  1  0.000000  0.600001  0.750000  1
  Si  Si13  1  0.000000  0.399999  0.250000  1
  Si  Si14  1  0.399999  0.399999  0.750000  1
  Si  Si15  1  0.600001  0.600001  0.250000  1
