# generated using pymatgen
data_TbPa3Ge4(IrPt)2
_symmetry_space_group_name_H-M   'P 1'
_cell_length_a   4.35640800
_cell_length_b   7.04700559
_cell_length_c   7.65592014
_cell_angle_alpha   89.66812749
_cell_angle_beta   90.00000000
_cell_angle_gamma   90.00000000
_symmetry_Int_Tables_number   1
_chemical_formula_structural   TbPa3Ge4(IrPt)2
_chemical_formula_sum   'Tb1 Pa3 Ge4 Ir2 Pt2'
_cell_volume   235.02998435
_cell_formula_units_Z   1
loop_
 _symmetry_equiv_pos_site_id
 _symmetry_equiv_pos_as_xyz
  1  'x, y, z'
loop_
 _atom_site_type_symbol
 _atom_site_label
 _atom_site_symmetry_multiplicity
 _atom_site_fract_x
 _atom_site_fract_y
 _atom_site_fract_z
 _atom_site_occupancy
  Tb  Tb0  1  0.250000  0.491658  0.202399  1
  Pa  Pa1  1  0.750000  0.500809  0.793677  1
  Pa  Pa2  1  0.250000  0.991843  0.296436  1
  Pa  Pa3  1  0.750000  0.003600  0.707164  1
  Ge  Ge4  1  0.250000  0.811427  0.914354  1
  Ge  Ge5  1  0.250000  0.317053  0.585906  1
  Ge  Ge6  1  0.750000  0.186105  0.087636  1
  Ge  Ge7  1  0.750000  0.687976  0.413533  1
  Ir  Ir8  1  0.250000  0.730338  0.586954  1
  Ir  Ir9  1  0.250000  0.218312  0.908678  1
  Pt  Pt10  1  0.750000  0.782169  0.085114  1
  Pt  Pt11  1  0.750000  0.278709  0.418149  1
