# generated using pymatgen
data_Er3(H6Os)2
_symmetry_space_group_name_H-M   'P 1'
_cell_length_a   4.70918500
_cell_length_b   4.70918402
_cell_length_c   8.14758600
_cell_angle_alpha   90.00000000
_cell_angle_beta   90.00000000
_cell_angle_gamma   119.99999985
_symmetry_Int_Tables_number   1
_chemical_formula_structural   Er3(H6Os)2
_chemical_formula_sum   'Er3 H12 Os2'
_cell_volume   156.47717591
_cell_formula_units_Z   1
loop_
 _symmetry_equiv_pos_site_id
 _symmetry_equiv_pos_as_xyz
  1  'x, y, z'
loop_
 _atom_site_type_symbol
 _atom_site_label
 _atom_site_symmetry_multiplicity
 _atom_site_fract_x
 _atom_site_fract_y
 _atom_site_fract_z
 _atom_site_occupancy
  Er  Er0  1  0.000000  0.000000  0.000000  1
  Er  Er1  1  0.666667  0.333333  0.364204  1
  Er  Er2  1  0.333333  0.666667  0.635796  1
  H  H3  1  0.163558  0.836442  0.372114  1
  H  H4  1  0.672884  0.836442  0.372114  1
  H  H5  1  0.163558  0.327116  0.372114  1
  H  H6  1  0.836442  0.163558  0.627886  1
  H  H7  1  0.327116  0.163558  0.627886  1
  H  H8  1  0.836442  0.672884  0.627886  1
  H  H9  1  0.496234  0.992467  0.878408  1
  H  H10  1  0.496234  0.503766  0.878408  1
  H  H11  1  0.007533  0.503766  0.878408  1
  H  H12  1  0.503766  0.007533  0.121592  1
  H  H13  1  0.503766  0.496234  0.121592  1
  H  H14  1  0.992467  0.496234  0.121592  1
  Os  Os15  1  0.666667  0.333333  0.756419  1
  Os  Os16  1  0.333333  0.666667  0.243581  1
