# generated using pymatgen
data_Ca5Nd3In4
_symmetry_space_group_name_H-M   'P 1'
_cell_length_a   7.18768084
_cell_length_b   5.38375100
_cell_length_c   9.89316903
_cell_angle_alpha   90.00000000
_cell_angle_beta   90.78549500
_cell_angle_gamma   90.00000000
_symmetry_Int_Tables_number   1
_chemical_formula_structural   Ca5Nd3In4
_chemical_formula_sum   'Ca5 Nd3 In4'
_cell_volume   382.79685883
_cell_formula_units_Z   1
loop_
 _symmetry_equiv_pos_site_id
 _symmetry_equiv_pos_as_xyz
  1  'x, y, z'
loop_
 _atom_site_type_symbol
 _atom_site_label
 _atom_site_symmetry_multiplicity
 _atom_site_fract_x
 _atom_site_fract_y
 _atom_site_fract_z
 _atom_site_occupancy
  Ca  Ca0  1  0.814065  0.749999  0.931257  1
  Ca  Ca1  1  0.684844  0.250000  0.424649  1
  Ca  Ca2  1  0.528511  0.250000  0.793563  1
  Ca  Ca3  1  0.471251  0.749999  0.204991  1
  Ca  Ca4  1  0.971139  0.749999  0.295891  1
  Nd  Nd5  1  0.334165  0.749999  0.572260  1
  Nd  Nd6  1  0.172347  0.250000  0.072686  1
  Nd  Nd7  1  0.024418  0.250000  0.703787  1
  In  In8  1  0.786405  0.749999  0.604805  1
  In  In9  1  0.725589  0.250000  0.101233  1
  In  In10  1  0.271489  0.749999  0.894126  1
  In  In11  1  0.215777  0.250000  0.400750  1
