# generated using pymatgen
data_MnNb12Al9(CoN2)2
_symmetry_space_group_name_H-M   'P 1'
_cell_length_a   8.26304188
_cell_length_b   8.26301673
_cell_length_c   8.27021431
_cell_angle_alpha   59.74164115
_cell_angle_beta   59.74311952
_cell_angle_gamma   59.74253499
_symmetry_Int_Tables_number   1
_chemical_formula_structural   MnNb12Al9(CoN2)2
_chemical_formula_sum   'Mn1 Nb12 Al9 Co2 N4'
_cell_volume   396.94712525
_cell_formula_units_Z   1
loop_
 _symmetry_equiv_pos_site_id
 _symmetry_equiv_pos_as_xyz
  1  'x, y, z'
loop_
 _atom_site_type_symbol
 _atom_site_label
 _atom_site_symmetry_multiplicity
 _atom_site_fract_x
 _atom_site_fract_y
 _atom_site_fract_z
 _atom_site_occupancy
  Mn  Mn0  1  0.625000  0.625000  0.625000  1
  Nb  Nb1  1  0.805413  0.805433  0.193615  1
  Nb  Nb2  1  0.185948  0.185817  0.815368  1
  Nb  Nb3  1  0.809059  0.193176  0.812628  1
  Nb  Nb4  1  0.196300  0.807906  0.186404  1
  Nb  Nb5  1  0.193165  0.809136  0.812681  1
  Nb  Nb6  1  0.807836  0.196303  0.186538  1
  Nb  Nb7  1  0.444587  0.444567  0.056385  1
  Nb  Nb8  1  0.064052  0.064183  0.434632  1
  Nb  Nb9  1  0.440941  0.056824  0.437372  1
  Nb  Nb10  1  0.053700  0.442094  0.063596  1
  Nb  Nb11  1  0.056835  0.440864  0.437319  1
  Nb  Nb12  1  0.442164  0.053697  0.063462  1
  Al  Al13  1  0.625000  0.625000  0.125000  1
  Al  Al14  1  0.747451  0.406189  0.431205  1
  Al  Al15  1  0.406293  0.747505  0.431133  1
  Al  Al16  1  0.413384  0.413218  0.752543  1
  Al  Al17  1  0.407879  0.407701  0.431824  1
  Al  Al18  1  0.502549  0.843811  0.818795  1
  Al  Al19  1  0.843707  0.502495  0.818867  1
  Al  Al20  1  0.836616  0.836782  0.497457  1
  Al  Al21  1  0.842121  0.842299  0.818176  1
  Co  Co22  1  0.125000  0.625000  0.625000  1
  Co  Co23  1  0.625000  0.125000  0.625000  1
  N  N24  1  0.625000  0.125000  0.125000  1
  N  N25  1  0.125000  0.625000  0.125000  1
  N  N26  1  0.125000  0.125000  0.625000  1
  N  N27  1  0.125000  0.125000  0.125000  1
