# generated using pymatgen
data_Y16MgCo2Ni2Ag3
_symmetry_space_group_name_H-M   'P 1'
_cell_length_a   9.52443002
_cell_length_b   9.52431268
_cell_length_c   9.50052900
_cell_angle_alpha   60.08257434
_cell_angle_beta   60.08298052
_cell_angle_gamma   60.28976226
_symmetry_Int_Tables_number   1
_chemical_formula_structural   Y16MgCo2Ni2Ag3
_chemical_formula_sum   'Y16 Mg1 Co2 Ni2 Ag3'
_cell_volume   611.49385838
_cell_formula_units_Z   1
loop_
 _symmetry_equiv_pos_site_id
 _symmetry_equiv_pos_as_xyz
  1  'x, y, z'
loop_
 _atom_site_type_symbol
 _atom_site_label
 _atom_site_symmetry_multiplicity
 _atom_site_fract_x
 _atom_site_fract_y
 _atom_site_fract_z
 _atom_site_occupancy
  Y  Y0  1  0.347403  0.347283  0.343658  1
  Y  Y1  1  0.347403  0.347283  0.961657  1
  Y  Y2  1  0.352197  0.956200  0.345802  1
  Y  Y3  1  0.945662  0.355515  0.349412  1
  Y  Y4  1  0.806154  0.189124  0.190303  1
  Y  Y5  1  0.186260  0.809673  0.816163  1
  Y  Y6  1  0.186260  0.809673  0.187904  1
  Y  Y7  1  0.806154  0.189124  0.814418  1
  Y  Y8  1  0.187499  0.187603  0.812449  1
  Y  Y9  1  0.810487  0.811919  0.188797  1
  Y  Y10  1  0.934813  0.565191  0.562266  1
  Y  Y11  1  0.564133  0.936462  0.936653  1
  Y  Y12  1  0.564133  0.936462  0.562751  1
  Y  Y13  1  0.934813  0.565191  0.937729  1
  Y  Y14  1  0.562963  0.563915  0.936561  1
  Y  Y15  1  0.934451  0.938513  0.563518  1
  Mg  Mg16  1  0.288502  0.570149  0.570674  1
  Co  Co17  1  0.138978  0.574432  0.143295  1
  Co  Co18  1  0.573785  0.141850  0.142182  1
  Ni  Ni19  1  0.139543  0.142933  0.144002  1
  Ni  Ni20  1  0.139543  0.142933  0.573522  1
  Ag  Ag21  1  0.583000  0.583110  0.582207  1
  Ag  Ag22  1  0.583000  0.583110  0.251683  1
  Ag  Ag23  1  0.582862  0.252353  0.582393  1
