# generated using pymatgen
data_Ce3Ho5Tc3B24Ru
_symmetry_space_group_name_H-M   'P 1'
_cell_length_a   3.69825400
_cell_length_b   9.18158394
_cell_length_c   11.59415500
_cell_angle_alpha   89.91153756
_cell_angle_beta   90.00000000
_cell_angle_gamma   90.00000000
_symmetry_Int_Tables_number   1
_chemical_formula_structural   Ce3Ho5Tc3B24Ru
_chemical_formula_sum   'Ce3 Ho5 Tc3 B24 Ru1'
_cell_volume   393.68868167
_cell_formula_units_Z   1
loop_
 _symmetry_equiv_pos_site_id
 _symmetry_equiv_pos_as_xyz
  1  'x, y, z'
loop_
 _atom_site_type_symbol
 _atom_site_label
 _atom_site_symmetry_multiplicity
 _atom_site_fract_x
 _atom_site_fract_y
 _atom_site_fract_z
 _atom_site_occupancy
  Ce  Ce0  1  0.000000  0.321892  0.414018  1
  Ce  Ce1  1  0.000000  0.675255  0.584532  1
  Ce  Ce2  1  0.000000  0.823725  0.087025  1
  Ho  Ho3  1  0.000000  0.179600  0.915257  1
  Ho  Ho4  1  0.000000  0.944334  0.372339  1
  Ho  Ho5  1  0.000000  0.057020  0.628795  1
  Ho  Ho6  1  0.000000  0.443318  0.127264  1
  Ho  Ho7  1  0.000000  0.555240  0.871625  1
  Tc  Tc8  1  0.000000  0.638839  0.320484  1
  Tc  Tc9  1  0.000000  0.361989  0.679264  1
  Tc  Tc10  1  0.000000  0.137946  0.179216  1
  B  B11  1  0.500000  0.553992  0.431243  1
  B  B12  1  0.500000  0.445403  0.568502  1
  B  B13  1  0.500000  0.054376  0.067124  1
  B  B14  1  0.500000  0.946103  0.931804  1
  B  B15  1  0.500000  0.748162  0.418456  1
  B  B16  1  0.500000  0.251326  0.582393  1
  B  B17  1  0.500000  0.248534  0.080140  1
  B  B18  1  0.500000  0.751858  0.918456  1
  B  B19  1  0.500000  0.791276  0.265738  1
  B  B20  1  0.500000  0.208138  0.735678  1
  B  B21  1  0.500000  0.290907  0.232992  1
  B  B22  1  0.500000  0.709724  0.766366  1
  B  B23  1  0.500000  0.631646  0.185419  1
  B  B24  1  0.500000  0.368139  0.815383  1
  B  B25  1  0.500000  0.131268  0.313620  1
  B  B26  1  0.500000  0.869141  0.686017  1
  B  B27  1  0.500000  0.983668  0.212042  1
  B  B28  1  0.500000  0.017352  0.787905  1
  B  B29  1  0.500000  0.483433  0.286476  1
  B  B30  1  0.500000  0.515789  0.713410  1
  B  B31  1  0.500000  0.606211  0.028532  1
  B  B32  1  0.500000  0.393207  0.970244  1
  B  B33  1  0.500000  0.105778  0.471340  1
  B  B34  1  0.500000  0.893919  0.530135  1
  Ru  Ru35  1  0.000000  0.861487  0.820769  1
