# generated using pymatgen
data_LaCo4NiP3
_symmetry_space_group_name_H-M   'P 1'
_cell_length_a   6.05458572
_cell_length_b   6.05458703
_cell_length_c   11.39150600
_cell_angle_alpha   90.00000000
_cell_angle_beta   90.00000000
_cell_angle_gamma   145.07754119
_symmetry_Int_Tables_number   1
_chemical_formula_structural   LaCo4NiP3
_chemical_formula_sum   'La2 Co8 Ni2 P6'
_cell_volume   239.05663164
_cell_formula_units_Z   2
loop_
 _symmetry_equiv_pos_site_id
 _symmetry_equiv_pos_as_xyz
  1  'x, y, z'
loop_
 _atom_site_type_symbol
 _atom_site_label
 _atom_site_symmetry_multiplicity
 _atom_site_fract_x
 _atom_site_fract_y
 _atom_site_fract_z
 _atom_site_occupancy
  La  La0  1  0.334569  0.665431  0.250000  1
  La  La1  1  0.665431  0.334569  0.750000  1
  Co  Co2  1  0.050526  0.949474  0.141308  1
  Co  Co3  1  0.050526  0.949474  0.358692  1
  Co  Co4  1  0.696775  0.303225  0.432479  1
  Co  Co5  1  0.303225  0.696775  0.567521  1
  Co  Co6  1  0.303225  0.696775  0.932479  1
  Co  Co7  1  0.696775  0.303225  0.067521  1
  Co  Co8  1  0.949474  0.050526  0.641308  1
  Co  Co9  1  0.949474  0.050526  0.858692  1
  Ni  Ni10  1  0.500000  0.500000  0.500000  1
  Ni  Ni11  1  0.500000  0.500000  0.000000  1
  P  P12  1  0.606743  0.393257  0.250000  1
  P  P13  1  0.393257  0.606743  0.750000  1
  P  P14  1  0.120109  0.879891  0.537303  1
  P  P15  1  0.879891  0.120109  0.462697  1
  P  P16  1  0.879891  0.120109  0.037303  1
  P  P17  1  0.120109  0.879891  0.962697  1
