# generated using pymatgen
data_GdCrH5
_symmetry_space_group_name_H-M   'P 1'
_cell_length_a   4.35230900
_cell_length_b   4.56299800
_cell_length_c   11.43213600
_cell_angle_alpha   90.00000000
_cell_angle_beta   90.00000000
_cell_angle_gamma   90.00000000
_symmetry_Int_Tables_number   1
_chemical_formula_structural   GdCrH5
_chemical_formula_sum   'Gd4 Cr4 H20'
_cell_volume   227.03738817
_cell_formula_units_Z   4
loop_
 _symmetry_equiv_pos_site_id
 _symmetry_equiv_pos_as_xyz
  1  'x, y, z'
loop_
 _atom_site_type_symbol
 _atom_site_label
 _atom_site_symmetry_multiplicity
 _atom_site_fract_x
 _atom_site_fract_y
 _atom_site_fract_z
 _atom_site_occupancy
  Gd  Gd0  1  0.263416  0.250349  0.647679  1
  Gd  Gd1  1  0.763416  0.249651  0.352321  1
  Gd  Gd2  1  0.236584  0.749651  0.147679  1
  Gd  Gd3  1  0.736584  0.750349  0.852321  1
  Cr  Cr4  1  0.278525  0.250486  0.921900  1
  Cr  Cr5  1  0.778525  0.249514  0.078100  1
  Cr  Cr6  1  0.221475  0.749514  0.421900  1
  Cr  Cr7  1  0.721475  0.750486  0.578100  1
  H  H8  1  0.492373  0.511721  0.496122  1
  H  H9  1  0.992373  0.988279  0.503878  1
  H  H10  1  0.007627  0.488279  0.996122  1
  H  H11  1  0.507627  0.011721  0.003878  1
  H  H12  1  0.186191  0.996042  0.820378  1
  H  H13  1  0.686191  0.503958  0.179622  1
  H  H14  1  0.313809  0.003958  0.320378  1
  H  H15  1  0.813809  0.496042  0.679622  1
  H  H16  1  0.188246  0.506596  0.820742  1
  H  H17  1  0.688246  0.993404  0.179258  1
  H  H18  1  0.311754  0.493404  0.320742  1
  H  H19  1  0.811754  0.006596  0.679258  1
  H  H20  1  0.574592  0.250208  0.826618  1
  H  H21  1  0.074592  0.249792  0.173382  1
  H  H22  1  0.925408  0.749792  0.326618  1
  H  H23  1  0.425408  0.750208  0.673382  1
  H  H24  1  0.008199  0.011586  0.996038  1
  H  H25  1  0.508199  0.488414  0.003962  1
  H  H26  1  0.491801  0.988414  0.496038  1
  H  H27  1  0.991801  0.511586  0.503962  1
