# generated using pymatgen
data_Th6Co6SbTe7
_symmetry_space_group_name_H-M   'P 1'
_cell_length_a   8.31767658
_cell_length_b   8.31760210
_cell_length_c   8.31756446
_cell_angle_alpha   109.49216449
_cell_angle_beta   109.48939342
_cell_angle_gamma   109.49572668
_symmetry_Int_Tables_number   1
_chemical_formula_structural   Th6Co6SbTe7
_chemical_formula_sum   'Th6 Co6 Sb1 Te7'
_cell_volume   442.62198483
_cell_formula_units_Z   1
loop_
 _symmetry_equiv_pos_site_id
 _symmetry_equiv_pos_as_xyz
  1  'x, y, z'
loop_
 _atom_site_type_symbol
 _atom_site_label
 _atom_site_symmetry_multiplicity
 _atom_site_fract_x
 _atom_site_fract_y
 _atom_site_fract_z
 _atom_site_occupancy
  Th  Th0  1  0.874901  0.747527  0.122704  1
  Th  Th1  1  0.122720  0.374882  0.247521  1
  Th  Th2  1  0.626767  0.250308  0.379690  1
  Th  Th3  1  0.750268  0.879495  0.626586  1
  Th  Th4  1  0.379596  0.126680  0.750274  1
  Th  Th5  1  0.247520  0.622841  0.874964  1
  Co  Co6  1  0.750033  0.375267  0.125504  1
  Co  Co7  1  0.624344  0.874502  0.249199  1
  Co  Co8  1  0.249176  0.124387  0.374525  1
  Co  Co9  1  0.374452  0.749195  0.624317  1
  Co  Co10  1  0.875300  0.625597  0.750056  1
  Co  Co11  1  0.125565  0.250047  0.875338  1
  Sb  Sb12  1  0.838402  0.338391  0.838392  1
  Te  Te13  1  0.159780  0.000406  0.999860  1
  Te  Te14  1  0.659185  0.000463  0.000954  1
  Te  Te15  1  0.500353  0.499819  0.159756  1
  Te  Te16  1  0.340378  0.840341  0.340372  1
  Te  Te17  1  0.000966  0.159151  0.500459  1
  Te  Te18  1  0.999861  0.659774  0.500352  1
  Te  Te19  1  0.500427  0.500926  0.659179  1
