# generated using pymatgen
data_YErMnAl3
_symmetry_space_group_name_H-M   'P 1'
_cell_length_a   5.55084271
_cell_length_b   5.55084267
_cell_length_c   5.43804806
_cell_angle_alpha   59.31147329
_cell_angle_beta   59.31147028
_cell_angle_gamma   59.99999569
_symmetry_Int_Tables_number   1
_chemical_formula_structural   YErMnAl3
_chemical_formula_sum   'Y1 Er1 Mn1 Al3'
_cell_volume   117.23217989
_cell_formula_units_Z   1
loop_
 _symmetry_equiv_pos_site_id
 _symmetry_equiv_pos_as_xyz
  1  'x, y, z'
loop_
 _atom_site_type_symbol
 _atom_site_label
 _atom_site_symmetry_multiplicity
 _atom_site_fract_x
 _atom_site_fract_y
 _atom_site_fract_z
 _atom_site_occupancy
  Y  Y0  1  0.998766  0.998766  0.003703  1
  Er  Er1  1  0.251501  0.251501  0.245496  1
  Mn  Mn2  1  0.624767  0.624767  0.125699  1
  Al  Al3  1  0.624931  0.125102  0.625034  1
  Al  Al4  1  0.125102  0.624931  0.625034  1
  Al  Al5  1  0.624931  0.624931  0.625034  1
