# generated using pymatgen
data_MnZn2Ni3O8
_symmetry_space_group_name_H-M   'P 1'
_cell_length_a   5.88942194
_cell_length_b   5.88942215
_cell_length_c   5.95082157
_cell_angle_alpha   60.34072927
_cell_angle_beta   60.34072703
_cell_angle_gamma   59.99999770
_symmetry_Int_Tables_number   1
_chemical_formula_structural   MnZn2Ni3O8
_chemical_formula_sum   'Mn1 Zn2 Ni3 O8'
_cell_volume   146.69822072
_cell_formula_units_Z   1
loop_
 _symmetry_equiv_pos_site_id
 _symmetry_equiv_pos_as_xyz
  1  'x, y, z'
loop_
 _atom_site_type_symbol
 _atom_site_label
 _atom_site_symmetry_multiplicity
 _atom_site_fract_x
 _atom_site_fract_y
 _atom_site_fract_z
 _atom_site_occupancy
  Mn  Mn0  1  0.125000  0.125000  0.625000  1
  Zn  Zn1  1  0.756047  0.756047  0.731858  1
  Zn  Zn2  1  0.493953  0.493953  0.518142  1
  Ni  Ni3  1  0.125000  0.125000  0.125000  1
  Ni  Ni4  1  0.625000  0.125000  0.125000  1
  Ni  Ni5  1  0.125000  0.625000  0.125000  1
  O  O6  1  0.893463  0.345158  0.867916  1
  O  O7  1  0.358634  0.358634  0.924098  1
  O  O8  1  0.356537  0.356537  0.382084  1
  O  O9  1  0.904842  0.356537  0.382084  1
  O  O10  1  0.893463  0.893463  0.867916  1
  O  O11  1  0.345158  0.893463  0.867916  1
  O  O12  1  0.356537  0.904842  0.382084  1
  O  O13  1  0.891366  0.891366  0.325902  1
