# generated using pymatgen
data_Ba4SbRuO10
_symmetry_space_group_name_H-M   'P 1'
_cell_length_a   5.87998600
_cell_length_b   7.55206679
_cell_length_c   11.65305600
_cell_angle_alpha   88.43534567
_cell_angle_beta   90.00000000
_cell_angle_gamma   90.00000000
_symmetry_Int_Tables_number   1
_chemical_formula_structural   Ba4SbRuO10
_chemical_formula_sum   'Ba8 Sb2 Ru2 O20'
_cell_volume   517.27321500
_cell_formula_units_Z   2
loop_
 _symmetry_equiv_pos_site_id
 _symmetry_equiv_pos_as_xyz
  1  'x, y, z'
loop_
 _atom_site_type_symbol
 _atom_site_label
 _atom_site_symmetry_multiplicity
 _atom_site_fract_x
 _atom_site_fract_y
 _atom_site_fract_z
 _atom_site_occupancy
  Ba  Ba0  1  0.750000  0.473325  0.276505  1
  Ba  Ba1  1  0.250000  0.526675  0.723495  1
  Ba  Ba2  1  0.750000  0.976723  0.205156  1
  Ba  Ba3  1  0.250000  0.023277  0.794844  1
  Ba  Ba4  1  0.750000  0.197101  0.595570  1
  Ba  Ba5  1  0.250000  0.802899  0.404430  1
  Ba  Ba6  1  0.750000  0.662607  0.933677  1
  Ba  Ba7  1  0.250000  0.337393  0.066323  1
  Sb  Sb8  1  0.750000  0.171456  0.929062  1
  Sb  Sb9  1  0.250000  0.828544  0.070938  1
  Ru  Ru10  1  0.750000  0.683471  0.558243  1
  Ru  Ru11  1  0.250000  0.316529  0.441757  1
  O  O12  1  0.481029  0.169333  0.398203  1
  O  O13  1  0.981029  0.830667  0.601797  1
  O  O14  1  0.000518  0.675291  0.131540  1
  O  O15  1  0.500518  0.324709  0.868460  1
  O  O16  1  0.518971  0.830667  0.601797  1
  O  O17  1  0.018971  0.169333  0.398203  1
  O  O18  1  0.999482  0.324709  0.868460  1
  O  O19  1  0.499482  0.675291  0.131540  1
  O  O20  1  0.500000  0.500000  0.500000  1
  O  O21  1  0.000000  0.500000  0.500000  1
  O  O22  1  0.000000  0.000000  0.000000  1
  O  O23  1  0.500000  0.000000  0.000000  1
  O  O24  1  0.750000  0.289681  0.082550  1
  O  O25  1  0.250000  0.710319  0.917450  1
  O  O26  1  0.750000  0.763128  0.403002  1
  O  O27  1  0.250000  0.236872  0.596998  1
  O  O28  1  0.750000  0.015410  0.794961  1
  O  O29  1  0.250000  0.984590  0.205039  1
  O  O30  1  0.750000  0.538386  0.686330  1
  O  O31  1  0.250000  0.461614  0.313670  1
