# generated using pymatgen
data_Tc12HgBr25
_symmetry_space_group_name_H-M   'P 1'
_cell_length_a   10.04692173
_cell_length_b   11.01568928
_cell_length_c   11.80987637
_cell_angle_alpha   83.07730138
_cell_angle_beta   74.72405879
_cell_angle_gamma   87.55882496
_symmetry_Int_Tables_number   1
_chemical_formula_structural   Tc12HgBr25
_chemical_formula_sum   'Tc12 Hg1 Br25'
_cell_volume   1251.59096408
_cell_formula_units_Z   1
loop_
 _symmetry_equiv_pos_site_id
 _symmetry_equiv_pos_as_xyz
  1  'x, y, z'
loop_
 _atom_site_type_symbol
 _atom_site_label
 _atom_site_symmetry_multiplicity
 _atom_site_fract_x
 _atom_site_fract_y
 _atom_site_fract_z
 _atom_site_occupancy
  Tc  Tc0  1  0.830775  0.257286  0.125207  1
  Tc  Tc1  1  0.169225  0.742714  0.874793  1
  Tc  Tc2  1  0.759741  0.123389  0.281436  1
  Tc  Tc3  1  0.240259  0.876611  0.718564  1
  Tc  Tc4  1  0.066308  0.276858  0.191123  1
  Tc  Tc5  1  0.933692  0.723142  0.808877  1
  Tc  Tc6  1  0.849917  0.428092  0.264532  1
  Tc  Tc7  1  0.150083  0.571908  0.735468  1
  Tc  Tc8  1  0.776865  0.295633  0.422881  1
  Tc  Tc9  1  0.223135  0.704367  0.577119  1
  Tc  Tc10  1  0.992842  0.145162  0.349710  1
  Tc  Tc11  1  0.007158  0.854838  0.650290  1
  Hg  Hg12  1  0.500000  0.000000  0.000000  1
  Br  Br13  1  0.943080  0.962003  0.262672  1
  Br  Br14  1  0.056920  0.037997  0.737328  1
  Br  Br15  1  0.975100  0.274261  0.513215  1
  Br  Br16  1  0.024900  0.725739  0.486785  1
  Br  Br17  1  0.654071  0.424960  0.169133  1
  Br  Br18  1  0.345929  0.575040  0.830867  1
  Br  Br19  1  0.089889  0.469256  0.276274  1
  Br  Br20  1  0.910111  0.530744  0.723726  1
  Br  Br21  1  0.000000  0.500000  0.000000  1
  Br  Br22  1  0.604523  0.971479  0.237813  1
  Br  Br23  1  0.395477  0.028521  0.762187  1
  Br  Br24  1  0.197724  0.033638  0.402986  1
  Br  Br25  1  0.802276  0.966362  0.597014  1
  Br  Br26  1  0.553295  0.218565  0.407582  1
  Br  Br27  1  0.446705  0.781435  0.592418  1
  Br  Br28  1  0.055517  0.163899  0.023214  1
  Br  Br29  1  0.944483  0.836101  0.976786  1
  Br  Br30  1  0.779417  0.639853  0.312360  1
  Br  Br31  1  0.220583  0.360147  0.687640  1
  Br  Br32  1  0.732069  0.209856  0.959167  1
  Br  Br33  1  0.267931  0.790144  0.040833  1
  Br  Br34  1  0.324326  0.261337  0.118348  1
  Br  Br35  1  0.675674  0.738663  0.881652  1
  Br  Br36  1  0.647119  0.402964  0.592460  1
  Br  Br37  1  0.352881  0.597036  0.407540  1
