# generated using pymatgen
data_Pr5NdBi2(SeO5)4
_symmetry_space_group_name_H-M   'P 1'
_cell_length_a   8.82317671
_cell_length_b   8.82158587
_cell_length_c   11.25935080
_cell_angle_alpha   90.17114506
_cell_angle_beta   89.84413423
_cell_angle_gamma   142.35313821
_symmetry_Int_Tables_number   1
_chemical_formula_structural   Pr5NdBi2(SeO5)4
_chemical_formula_sum   'Pr5 Nd1 Bi2 Se4 O20'
_cell_volume   535.27506227
_cell_formula_units_Z   1
loop_
 _symmetry_equiv_pos_site_id
 _symmetry_equiv_pos_as_xyz
  1  'x, y, z'
loop_
 _atom_site_type_symbol
 _atom_site_label
 _atom_site_symmetry_multiplicity
 _atom_site_fract_x
 _atom_site_fract_y
 _atom_site_fract_z
 _atom_site_occupancy
  Pr  Pr0  1  0.254415  0.754318  0.386990  1
  Pr  Pr1  1  0.244895  0.754915  0.882074  1
  Pr  Pr2  1  0.754922  0.244129  0.117021  1
  Pr  Pr3  1  0.894609  0.070502  0.378735  1
  Pr  Pr4  1  0.070565  0.894945  0.622218  1
  Nd  Nd5  1  0.754969  0.255983  0.611467  1
  Bi  Bi6  1  0.404619  0.572228  0.600915  1
  Bi  Bi7  1  0.571172  0.404553  0.399854  1
  Se  Se8  1  0.395000  0.573768  0.127106  1
  Se  Se9  1  0.574327  0.394562  0.872615  1
  Se  Se10  1  0.875340  0.065494  0.865730  1
  Se  Se11  1  0.064747  0.874618  0.133620  1
  O  O12  1  0.145257  0.443220  0.213608  1
  O  O13  1  0.445601  0.146275  0.785180  1
  O  O14  1  0.643486  0.980977  0.788809  1
  O  O15  1  0.976160  0.639834  0.209710  1
  O  O16  1  0.576004  0.901404  0.509578  1
  O  O17  1  0.900002  0.575460  0.491336  1
  O  O18  1  0.084364  0.413134  0.496595  1
  O  O19  1  0.414025  0.085892  0.504598  1
  O  O20  1  0.086715  0.642260  0.707070  1
  O  O21  1  0.646703  0.091791  0.293284  1
  O  O22  1  0.493583  0.816439  0.053633  1
  O  O23  1  0.817481  0.494023  0.946184  1
  O  O24  1  0.171975  0.070584  0.246639  1
  O  O25  1  0.072646  0.171614  0.753957  1
  O  O26  1  0.720095  0.616085  0.767571  1
  O  O27  1  0.614997  0.720290  0.233335  1
  O  O28  1  0.250941  0.251351  0.500288  1
  O  O29  1  0.734177  0.734517  0.500497  1
  O  O30  1  0.332205  0.016130  0.060806  1
  O  O31  1  0.019041  0.333745  0.938976  1
