# generated using pymatgen
data_LaMnSnP6IN12
_symmetry_space_group_name_H-M   'P 1'
_cell_length_a   7.31109371
_cell_length_b   7.28915140
_cell_length_c   7.28915200
_cell_angle_alpha   107.66189253
_cell_angle_beta   110.65705628
_cell_angle_gamma   110.65704224
_symmetry_Int_Tables_number   1
_chemical_formula_structural   LaMnSnP6IN12
_chemical_formula_sum   'La1 Mn1 Sn1 P6 I1 N12'
_cell_volume   296.73567330
_cell_formula_units_Z   1
loop_
 _symmetry_equiv_pos_site_id
 _symmetry_equiv_pos_as_xyz
  1  'x, y, z'
loop_
 _atom_site_type_symbol
 _atom_site_label
 _atom_site_symmetry_multiplicity
 _atom_site_fract_x
 _atom_site_fract_y
 _atom_site_fract_z
 _atom_site_occupancy
  La  La0  1  0.016045  0.318707  0.026571  1
  Mn  Mn1  1  0.381001  0.013635  0.012499  1
  Sn  Sn2  1  0.008030  0.040620  0.339776  1
  P  P3  1  0.496428  0.263826  0.750650  1
  P  P4  1  0.259094  0.760898  0.511239  1
  P  P5  1  0.746368  0.509157  0.262542  1
  P  P6  1  0.743222  0.263069  0.509014  1
  P  P7  1  0.510478  0.761047  0.267436  1
  P  P8  1  0.267503  0.518603  0.762962  1
  I  I9  1  0.935533  0.840923  0.843186  1
  N  N10  1  0.407871  0.696625  0.414741  1
  N  N11  1  0.676619  0.411389  0.410426  1
  N  N12  1  0.415916  0.426499  0.697237  1
  N  N13  1  0.712117  0.287649  0.722822  1
  N  N14  1  0.998794  0.576023  0.305724  1
  N  N15  1  0.305588  0.579625  0.010856  1
  N  N16  1  0.277804  0.005475  0.567498  1
  N  N17  1  0.001925  0.302926  0.604100  1
  N  N18  1  0.734909  0.738289  0.304201  1
  N  N19  1  0.577303  0.007882  0.293230  1
  N  N20  1  0.313756  0.743487  0.740054  1
  N  N21  1  0.573685  0.293641  0.003230  1
