# generated using pymatgen
data_Th8In4Rh3Au5
_symmetry_space_group_name_H-M   'P 1'
_cell_length_a   8.03886048
_cell_length_b   8.03886028
_cell_length_c   7.67097200
_cell_angle_alpha   90.03476009
_cell_angle_beta   90.03476009
_cell_angle_gamma   90.98700887
_symmetry_Int_Tables_number   1
_chemical_formula_structural   Th8In4Rh3Au5
_chemical_formula_sum   'Th8 In4 Rh3 Au5'
_cell_volume   495.64960478
_cell_formula_units_Z   1
loop_
 _symmetry_equiv_pos_site_id
 _symmetry_equiv_pos_as_xyz
  1  'x, y, z'
loop_
 _atom_site_type_symbol
 _atom_site_label
 _atom_site_symmetry_multiplicity
 _atom_site_fract_x
 _atom_site_fract_y
 _atom_site_fract_z
 _atom_site_occupancy
  Th  Th0  1  0.175140  0.175140  0.007518  1
  Th  Th1  1  0.816091  0.816091  0.998783  1
  Th  Th2  1  0.667192  0.341754  0.493515  1
  Th  Th3  1  0.341754  0.667192  0.493515  1
  Th  Th4  1  0.672853  0.336368  0.006112  1
  Th  Th5  1  0.336368  0.672853  0.006112  1
  Th  Th6  1  0.810812  0.810812  0.500606  1
  Th  Th7  1  0.182647  0.182647  0.493608  1
  In  In8  1  0.501814  0.005700  0.249374  1
  In  In9  1  0.501087  0.994828  0.749551  1
  In  In10  1  0.005700  0.501814  0.249374  1
  In  In11  1  0.994828  0.501087  0.749551  1
  Rh  Rh12  1  0.364986  0.364986  0.245237  1
  Rh  Rh13  1  0.630176  0.630176  0.754430  1
  Rh  Rh14  1  0.630341  0.630341  0.244757  1
  Au  Au15  1  0.871550  0.128249  0.743111  1
  Au  Au16  1  0.870231  0.123585  0.257067  1
  Au  Au17  1  0.374596  0.374596  0.757600  1
  Au  Au18  1  0.123585  0.870231  0.257067  1
  Au  Au19  1  0.128249  0.871550  0.743111  1
