# generated using pymatgen
data_Li3Ac4MgSn4
_symmetry_space_group_name_H-M   'P 1'
_cell_length_a   8.05355605
_cell_length_b   4.96847800
_cell_length_c   8.72294600
_cell_angle_alpha   90.00000000
_cell_angle_beta   89.56412120
_cell_angle_gamma   90.00000000
_symmetry_Int_Tables_number   1
_chemical_formula_structural   Li3Ac4MgSn4
_chemical_formula_sum   'Li3 Ac4 Mg1 Sn4'
_cell_volume   349.02912867
_cell_formula_units_Z   1
loop_
 _symmetry_equiv_pos_site_id
 _symmetry_equiv_pos_as_xyz
  1  'x, y, z'
loop_
 _atom_site_type_symbol
 _atom_site_label
 _atom_site_symmetry_multiplicity
 _atom_site_fract_x
 _atom_site_fract_y
 _atom_site_fract_z
 _atom_site_occupancy
  Li  Li0  1  0.828082  0.749999  0.074906  1
  Li  Li1  1  0.329214  0.749999  0.427103  1
  Li  Li2  1  0.670304  0.249999  0.575272  1
  Ac  Ac3  1  0.506241  0.249999  0.218679  1
  Ac  Ac4  1  0.998653  0.249999  0.287929  1
  Ac  Ac5  1  0.989847  0.749999  0.706666  1
  Ac  Ac6  1  0.499122  0.749999  0.783726  1
  Mg  Mg7  1  0.176626  0.249999  0.922307  1
  Sn  Sn8  1  0.229465  0.749999  0.098032  1
  Sn  Sn9  1  0.722502  0.749999  0.407157  1
  Sn  Sn10  1  0.274143  0.249999  0.590419  1
  Sn  Sn11  1  0.775799  0.249999  0.907804  1
