# generated using pymatgen
data_Ho4Er12Cd4Ir3Os
_symmetry_space_group_name_H-M   'P 1'
_cell_length_a   9.60380643
_cell_length_b   9.60022281
_cell_length_c   9.60022271
_cell_angle_alpha   59.51337389
_cell_angle_beta   59.49732278
_cell_angle_gamma   59.49731844
_symmetry_Int_Tables_number   1
_chemical_formula_structural   Ho4Er12Cd4Ir3Os
_chemical_formula_sum   'Ho4 Er12 Cd4 Ir3 Os1'
_cell_volume   618.80094055
_cell_formula_units_Z   1
loop_
 _symmetry_equiv_pos_site_id
 _symmetry_equiv_pos_as_xyz
  1  'x, y, z'
loop_
 _atom_site_type_symbol
 _atom_site_label
 _atom_site_symmetry_multiplicity
 _atom_site_fract_x
 _atom_site_fract_y
 _atom_site_fract_z
 _atom_site_occupancy
  Ho  Ho0  1  0.811604  0.188519  0.811607  1
  Ho  Ho1  1  0.189298  0.807218  0.189244  1
  Ho  Ho2  1  0.811604  0.811607  0.188519  1
  Ho  Ho3  1  0.189298  0.189244  0.807218  1
  Er  Er4  1  0.599356  0.599284  0.599284  1
  Er  Er5  1  0.598832  0.598844  0.206014  1
  Er  Er6  1  0.598832  0.206014  0.598844  1
  Er  Er7  1  0.205928  0.598856  0.598856  1
  Er  Er8  1  0.061617  0.438722  0.438722  1
  Er  Er9  1  0.437682  0.060076  0.060076  1
  Er  Er10  1  0.438825  0.061629  0.438773  1
  Er  Er11  1  0.059980  0.437724  0.059974  1
  Er  Er12  1  0.438825  0.438773  0.061629  1
  Er  Er13  1  0.059980  0.059974  0.437724  1
  Er  Er14  1  0.188898  0.811185  0.811185  1
  Er  Er15  1  0.806902  0.189583  0.189583  1
  Cd  Cd16  1  0.830120  0.829846  0.829846  1
  Cd  Cd17  1  0.830495  0.830754  0.506689  1
  Cd  Cd18  1  0.830495  0.506689  0.830754  1
  Cd  Cd19  1  0.506728  0.830510  0.830510  1
  Ir  Ir20  1  0.393088  0.393512  0.826622  1
  Ir  Ir21  1  0.393088  0.826622  0.393512  1
  Ir  Ir22  1  0.826612  0.393164  0.393164  1
  Os  Os23  1  0.391912  0.391653  0.391653  1
