# generated using pymatgen
data_NaSb(S8F3)2
_symmetry_space_group_name_H-M   'P 1'
_cell_length_a   10.11207351
_cell_length_b   10.11207351
_cell_length_c   16.37794300
_cell_angle_alpha   79.52892692
_cell_angle_beta   79.52892693
_cell_angle_gamma   48.17573755
_symmetry_Int_Tables_number   1
_chemical_formula_structural   NaSb(S8F3)2
_chemical_formula_sum   'Na2 Sb2 S32 F12'
_cell_volume   1223.00466290
_cell_formula_units_Z   2
loop_
 _symmetry_equiv_pos_site_id
 _symmetry_equiv_pos_as_xyz
  1  'x, y, z'
loop_
 _atom_site_type_symbol
 _atom_site_label
 _atom_site_symmetry_multiplicity
 _atom_site_fract_x
 _atom_site_fract_y
 _atom_site_fract_z
 _atom_site_occupancy
  Na  Na0  1  0.326161  0.673839  0.750000  1
  Na  Na1  1  0.673839  0.326161  0.250000  1
  Sb  Sb2  1  0.500000  0.500000  0.000000  1
  Sb  Sb3  1  0.500000  0.500000  0.500000  1
  S  S4  1  0.085137  0.265657  0.584043  1
  S  S5  1  0.999784  0.700316  0.932175  1
  S  S6  1  0.280243  0.906974  0.175186  1
  S  S7  1  0.978189  0.366078  0.334980  1
  S  S8  1  0.093026  0.719757  0.324814  1
  S  S9  1  0.112730  0.064963  0.852746  1
  S  S10  1  0.487536  0.200435  0.255883  1
  S  S11  1  0.887270  0.935037  0.147254  1
  S  S12  1  0.200435  0.487536  0.755883  1
  S  S13  1  0.799565  0.512464  0.244117  1
  S  S14  1  0.906974  0.280243  0.675186  1
  S  S15  1  0.719757  0.093026  0.824814  1
  S  S16  1  0.064963  0.112730  0.352746  1
  S  S17  1  0.914863  0.734343  0.415957  1
  S  S18  1  0.000216  0.299684  0.067825  1
  S  S19  1  0.021811  0.633922  0.665020  1
  S  S20  1  0.700316  0.999784  0.432175  1
  S  S21  1  0.633922  0.021811  0.165020  1
  S  S22  1  0.688720  0.056867  0.712320  1
  S  S23  1  0.935037  0.887270  0.647254  1
  S  S24  1  0.056867  0.688720  0.212320  1
  S  S25  1  0.311280  0.943133  0.287680  1
  S  S26  1  0.299684  0.000216  0.567825  1
  S  S27  1  0.505751  0.924114  0.627589  1
  S  S28  1  0.924114  0.505751  0.127589  1
  S  S29  1  0.734343  0.914863  0.915957  1
  S  S30  1  0.512464  0.799565  0.744117  1
  S  S31  1  0.075886  0.494249  0.872411  1
  S  S32  1  0.494249  0.075886  0.372411  1
  S  S33  1  0.943133  0.311280  0.787680  1
  S  S34  1  0.366078  0.978189  0.834980  1
  S  S35  1  0.265657  0.085137  0.084043  1
  F  F36  1  0.263446  0.701182  0.471028  1
  F  F37  1  0.568068  0.639974  0.467777  1
  F  F38  1  0.736555  0.298818  0.528972  1
  F  F39  1  0.573334  0.432855  0.113555  1
  F  F40  1  0.360026  0.431932  0.032223  1
  F  F41  1  0.432855  0.573334  0.613555  1
  F  F42  1  0.426666  0.567145  0.886445  1
  F  F43  1  0.639974  0.568068  0.967777  1
  F  F44  1  0.701182  0.263445  0.971028  1
  F  F45  1  0.567145  0.426666  0.386445  1
  F  F46  1  0.298818  0.736554  0.028972  1
  F  F47  1  0.431932  0.360026  0.532223  1
