# generated using pymatgen
data_ThPa3CuTe12
_symmetry_space_group_name_H-M   'P 1'
_cell_length_a   7.55572069
_cell_length_b   7.55997570
_cell_length_c   11.16196205
_cell_angle_alpha   70.50402637
_cell_angle_beta   70.49858214
_cell_angle_gamma   68.75700397
_symmetry_Int_Tables_number   1
_chemical_formula_structural   ThPa3CuTe12
_chemical_formula_sum   'Th1 Pa3 Cu1 Te12'
_cell_volume   543.49274980
_cell_formula_units_Z   1
loop_
 _symmetry_equiv_pos_site_id
 _symmetry_equiv_pos_as_xyz
  1  'x, y, z'
loop_
 _atom_site_type_symbol
 _atom_site_label
 _atom_site_symmetry_multiplicity
 _atom_site_fract_x
 _atom_site_fract_y
 _atom_site_fract_z
 _atom_site_occupancy
  Th  Th0  1  0.189732  0.687798  0.169406  1
  Pa  Pa1  1  0.811735  0.812127  0.829757  1
  Pa  Pa2  1  0.313592  0.313546  0.830778  1
  Pa  Pa3  1  0.688675  0.189908  0.167956  1
  Cu  Cu4  1  0.812964  0.815181  0.533227  1
  Te  Te5  1  0.006895  0.021410  0.327554  1
  Te  Te6  1  0.509872  0.492586  0.333954  1
  Te  Te7  1  0.485890  0.990083  0.674937  1
  Te  Te8  1  0.992473  0.488095  0.671221  1
  Te  Te9  1  0.264575  0.248535  0.336521  1
  Te  Te10  1  0.742589  0.758415  0.331957  1
  Te  Te11  1  0.243276  0.741725  0.673765  1
  Te  Te12  1  0.741692  0.243706  0.670922  1
  Te  Te13  1  0.016489  0.029764  0.938756  1
  Te  Te14  1  0.528360  0.515837  0.938995  1
  Te  Te15  1  0.484026  0.983893  0.052463  1
  Te  Te16  1  0.978462  0.478691  0.052228  1
