# generated using pymatgen
data_K4NiH8Pt
_symmetry_space_group_name_H-M   'P 1'
_cell_length_a   5.57494588
_cell_length_b   5.57494588
_cell_length_c   8.12588700
_cell_angle_alpha   90.00000000
_cell_angle_beta   90.00000000
_cell_angle_gamma   89.40608870
_symmetry_Int_Tables_number   1
_chemical_formula_structural   K4NiH8Pt
_chemical_formula_sum   'K4 Ni1 H8 Pt1'
_cell_volume   252.53917490
_cell_formula_units_Z   1
loop_
 _symmetry_equiv_pos_site_id
 _symmetry_equiv_pos_as_xyz
  1  'x, y, z'
loop_
 _atom_site_type_symbol
 _atom_site_label
 _atom_site_symmetry_multiplicity
 _atom_site_fract_x
 _atom_site_fract_y
 _atom_site_fract_z
 _atom_site_occupancy
  K  K0  1  0.500000  0.000000  0.247845  1
  K  K1  1  0.000000  0.500000  0.247845  1
  K  K2  1  0.500000  0.000000  0.752155  1
  K  K3  1  0.000000  0.500000  0.752155  1
  Ni  Ni4  1  0.000000  0.000000  0.000000  1
  H  H5  1  0.194097  0.194097  0.000000  1
  H  H6  1  0.805903  0.805903  0.000000  1
  H  H7  1  0.000000  0.000000  0.189254  1
  H  H8  1  0.500000  0.500000  0.295487  1
  H  H9  1  0.711771  0.288229  0.500000  1
  H  H10  1  0.288229  0.711771  0.500000  1
  H  H11  1  0.500000  0.500000  0.704513  1
  H  H12  1  0.000000  0.000000  0.810746  1
  Pt  Pt13  1  0.500000  0.500000  0.500000  1
