# generated using pymatgen
data_La3EuTi2O10
_symmetry_space_group_name_H-M   'P 1'
_cell_length_a   3.90322600
_cell_length_b   10.99365314
_cell_length_c   11.43910572
_cell_angle_alpha   89.44313603
_cell_angle_beta   90.00000000
_cell_angle_gamma   90.00000000
_symmetry_Int_Tables_number   1
_chemical_formula_structural   La3EuTi2O10
_chemical_formula_sum   'La6 Eu2 Ti4 O20'
_cell_volume   490.83699668
_cell_formula_units_Z   2
loop_
 _symmetry_equiv_pos_site_id
 _symmetry_equiv_pos_as_xyz
  1  'x, y, z'
loop_
 _atom_site_type_symbol
 _atom_site_label
 _atom_site_symmetry_multiplicity
 _atom_site_fract_x
 _atom_site_fract_y
 _atom_site_fract_z
 _atom_site_occupancy
  La  La0  1  0.750000  0.597641  0.782584  1
  La  La1  1  0.250000  0.402359  0.217416  1
  La  La2  1  0.250000  0.361309  0.561012  1
  La  La3  1  0.750000  0.638691  0.438988  1
  La  La4  1  0.250000  0.865818  0.936636  1
  La  La5  1  0.750000  0.134182  0.063364  1
  Eu  Eu6  1  0.750000  0.099626  0.717799  1
  Eu  Eu7  1  0.250000  0.900374  0.282201  1
  Ti  Ti8  1  0.250000  0.306461  0.873113  1
  Ti  Ti9  1  0.750000  0.693539  0.126887  1
  Ti  Ti10  1  0.250000  0.812864  0.625367  1
  Ti  Ti11  1  0.750000  0.187136  0.374632  1
  O  O12  1  0.250000  0.464269  0.831790  1
  O  O13  1  0.750000  0.535731  0.168210  1
  O  O14  1  0.250000  0.968027  0.670587  1
  O  O15  1  0.750000  0.031973  0.329413  1
  O  O16  1  0.250000  0.217194  0.730749  1
  O  O17  1  0.750000  0.782806  0.269251  1
  O  O18  1  0.250000  0.722844  0.769653  1
  O  O19  1  0.750000  0.277156  0.230347  1
  O  O20  1  0.750000  0.261154  0.875895  1
  O  O21  1  0.250000  0.738846  0.124105  1
  O  O22  1  0.750000  0.762892  0.621397  1
  O  O23  1  0.250000  0.237108  0.378603  1
  O  O24  1  0.250000  0.005707  0.104374  1
  O  O25  1  0.750000  0.994293  0.895626  1
  O  O26  1  0.250000  0.509570  0.397795  1
  O  O27  1  0.750000  0.490430  0.602205  1
  O  O28  1  0.250000  0.272418  0.035728  1
  O  O29  1  0.750000  0.727582  0.964272  1
  O  O30  1  0.250000  0.780184  0.461540  1
  O  O31  1  0.750000  0.219816  0.538460  1
