# generated using pymatgen
data_La3Th(ZnRh)4
_symmetry_space_group_name_H-M   'P 1'
_cell_length_a   4.00834200
_cell_length_b   7.54637385
_cell_length_c   16.72012925
_cell_angle_alpha   90.26323490
_cell_angle_beta   90.00000000
_cell_angle_gamma   90.00000000
_symmetry_Int_Tables_number   1
_chemical_formula_structural   La3Th(ZnRh)4
_chemical_formula_sum   'La6 Th2 Zn8 Rh8'
_cell_volume   505.75260997
_cell_formula_units_Z   2
loop_
 _symmetry_equiv_pos_site_id
 _symmetry_equiv_pos_as_xyz
  1  'x, y, z'
loop_
 _atom_site_type_symbol
 _atom_site_label
 _atom_site_symmetry_multiplicity
 _atom_site_fract_x
 _atom_site_fract_y
 _atom_site_fract_z
 _atom_site_occupancy
  La  La0  1  0.250000  0.550079  0.783275  1
  La  La1  1  0.250000  0.674443  0.559795  1
  La  La2  1  0.750000  0.825487  0.059284  1
  La  La3  1  0.250000  0.172053  0.941939  1
  La  La4  1  0.750000  0.451720  0.215789  1
  La  La5  1  0.750000  0.947674  0.283363  1
  Th  Th6  1  0.750000  0.325417  0.440784  1
  Th  Th7  1  0.250000  0.050603  0.717395  1
  Zn  Zn8  1  0.250000  0.124683  0.149872  1
  Zn  Zn9  1  0.250000  0.991771  0.439667  1
  Zn  Zn10  1  0.750000  0.875412  0.850839  1
  Zn  Zn11  1  0.750000  0.001779  0.559134  1
  Zn  Zn12  1  0.250000  0.498765  0.059155  1
  Zn  Zn13  1  0.750000  0.373964  0.649907  1
  Zn  Zn14  1  0.750000  0.500686  0.940047  1
  Zn  Zn15  1  0.250000  0.620531  0.349697  1
  Rh  Rh16  1  0.750000  0.241447  0.806601  1
  Rh  Rh17  1  0.250000  0.253519  0.323446  1
  Rh  Rh18  1  0.250000  0.739868  0.934389  1
  Rh  Rh19  1  0.250000  0.246718  0.560141  1
  Rh  Rh20  1  0.250000  0.749376  0.186225  1
  Rh  Rh21  1  0.750000  0.747573  0.435516  1
  Rh  Rh22  1  0.750000  0.259077  0.065693  1
  Rh  Rh23  1  0.750000  0.777357  0.688046  1
