# generated using pymatgen
data_Cs9K3In(FeSe4)3
_symmetry_space_group_name_H-M   'P 1'
_cell_length_a   11.12444394
_cell_length_b   11.13062594
_cell_length_c   14.03816605
_cell_angle_alpha   89.74146800
_cell_angle_beta   89.83811503
_cell_angle_gamma   140.64332709
_symmetry_Int_Tables_number   1
_chemical_formula_structural   Cs9K3In(FeSe4)3
_chemical_formula_sum   'Cs9 K3 In1 Fe3 Se12'
_cell_volume   1102.22834073
_cell_formula_units_Z   1
loop_
 _symmetry_equiv_pos_site_id
 _symmetry_equiv_pos_as_xyz
  1  'x, y, z'
loop_
 _atom_site_type_symbol
 _atom_site_label
 _atom_site_symmetry_multiplicity
 _atom_site_fract_x
 _atom_site_fract_y
 _atom_site_fract_z
 _atom_site_occupancy
  Cs  Cs0  1  0.358421  0.357135  0.821699  1
  Cs  Cs1  1  0.160687  0.523265  0.133566  1
  Cs  Cs2  1  0.490651  0.842740  0.872004  1
  Cs  Cs3  1  0.978530  0.334239  0.629206  1
  Cs  Cs4  1  0.664487  0.013391  0.376209  1
  Cs  Cs5  1  0.836199  0.490119  0.873924  1
  Cs  Cs6  1  0.520106  0.164776  0.132937  1
  Cs  Cs7  1  0.011106  0.664359  0.372399  1
  Cs  Cs8  1  0.333087  0.979547  0.632542  1
  K  K9  1  0.839397  0.839452  0.647291  1
  K  K10  1  0.163580  0.163945  0.335230  1
  K  K11  1  0.660523  0.659277  0.162411  1
  In  In12  1  0.930675  0.090517  0.003661  1
  Fe  Fe13  1  0.413486  0.569177  0.497540  1
  Fe  Fe14  1  0.090058  0.927947  0.002922  1
  Fe  Fe15  1  0.568710  0.412461  0.497598  1
  Se  Se16  1  0.275226  0.275157  0.567793  1
  Se  Se17  1  0.692515  0.691971  0.414469  1
  Se  Se18  1  0.224851  0.211295  0.087297  1
  Se  Se19  1  0.823619  0.811390  0.911027  1
  Se  Se20  1  0.678676  0.968111  0.125816  1
  Se  Se21  1  0.023819  0.331810  0.884955  1
  Se  Se22  1  0.505965  0.784119  0.615087  1
  Se  Se23  1  0.195021  0.484739  0.387931  1
  Se  Se24  1  0.310152  0.010208  0.893935  1
  Se  Se25  1  0.982588  0.699499  0.116829  1
  Se  Se26  1  0.482807  0.192665  0.388791  1
  Se  Se27  1  0.785062  0.506691  0.614927  1
