# generated using pymatgen
data_Ho10TlSnBi4
_symmetry_space_group_name_H-M   'P 1'
_cell_length_a   9.02155700
_cell_length_b   9.02194922
_cell_length_c   6.44843000
_cell_angle_alpha   90.00000000
_cell_angle_beta   90.00000000
_cell_angle_gamma   119.78044083
_symmetry_Int_Tables_number   1
_chemical_formula_structural   Ho10TlSnBi4
_chemical_formula_sum   'Ho10 Tl1 Sn1 Bi4'
_cell_volume   455.53641054
_cell_formula_units_Z   1
loop_
 _symmetry_equiv_pos_site_id
 _symmetry_equiv_pos_as_xyz
  1  'x, y, z'
loop_
 _atom_site_type_symbol
 _atom_site_label
 _atom_site_symmetry_multiplicity
 _atom_site_fract_x
 _atom_site_fract_y
 _atom_site_fract_z
 _atom_site_occupancy
  Ho  Ho0  1  0.995312  0.759688  0.750000  1
  Ho  Ho1  1  0.992387  0.233530  0.250000  1
  Ho  Ho2  1  0.756815  0.763768  0.250000  1
  Ho  Ho3  1  0.761571  0.994904  0.750000  1
  Ho  Ho4  1  0.244664  0.243993  0.750000  1
  Ho  Ho5  1  0.240811  0.999677  0.250000  1
  Ho  Ho6  1  0.342172  0.672410  0.500139  1
  Ho  Ho7  1  0.663897  0.330589  0.000042  1
  Ho  Ho8  1  0.663897  0.330589  0.499958  1
  Ho  Ho9  1  0.342172  0.672410  0.999861  1
  Tl  Tl10  1  0.604991  0.002269  0.250000  1
  Sn  Sn11  1  0.606825  0.603234  0.750000  1
  Bi  Bi12  1  0.391393  0.999125  0.750000  1
  Bi  Bi13  1  0.390414  0.392257  0.250000  1
  Bi  Bi14  1  0.000206  0.607114  0.250000  1
  Bi  Bi15  1  0.002471  0.394438  0.750000  1
