# generated using pymatgen
data_TbCe3Y4(ReB6)4
_symmetry_space_group_name_H-M   'P 1'
_cell_length_a   3.72663100
_cell_length_b   9.22635106
_cell_length_c   11.61546010
_cell_angle_alpha   89.91217332
_cell_angle_beta   90.00000000
_cell_angle_gamma   90.00000000
_symmetry_Int_Tables_number   1
_chemical_formula_structural   TbCe3Y4(ReB6)4
_chemical_formula_sum   'Tb1 Ce3 Y4 Re4 B24'
_cell_volume   399.37628696
_cell_formula_units_Z   1
loop_
 _symmetry_equiv_pos_site_id
 _symmetry_equiv_pos_as_xyz
  1  'x, y, z'
loop_
 _atom_site_type_symbol
 _atom_site_label
 _atom_site_symmetry_multiplicity
 _atom_site_fract_x
 _atom_site_fract_y
 _atom_site_fract_z
 _atom_site_occupancy
  Tb  Tb0  1  0.000000  0.676756  0.586437  1
  Ce  Ce1  1  0.000000  0.822295  0.085807  1
  Ce  Ce2  1  0.000000  0.177413  0.913508  1
  Ce  Ce3  1  0.000000  0.324314  0.414232  1
  Y  Y4  1  0.000000  0.444676  0.127154  1
  Y  Y5  1  0.000000  0.555911  0.871894  1
  Y  Y6  1  0.000000  0.943056  0.372293  1
  Y  Y7  1  0.000000  0.055731  0.628232  1
  Re  Re8  1  0.000000  0.138526  0.178949  1
  Re  Re9  1  0.000000  0.862716  0.822188  1
  Re  Re10  1  0.000000  0.638397  0.320641  1
  Re  Re11  1  0.000000  0.360803  0.678822  1
  B  B12  1  0.500000  0.054206  0.068553  1
  B  B13  1  0.500000  0.945948  0.931539  1
  B  B14  1  0.500000  0.553809  0.432112  1
  B  B15  1  0.500000  0.446088  0.567783  1
  B  B16  1  0.500000  0.247979  0.081504  1
  B  B17  1  0.500000  0.751739  0.918027  1
  B  B18  1  0.500000  0.748008  0.419068  1
  B  B19  1  0.500000  0.252295  0.581493  1
  B  B20  1  0.500000  0.291089  0.233850  1
  B  B21  1  0.500000  0.708358  0.765865  1
  B  B22  1  0.500000  0.790956  0.266894  1
  B  B23  1  0.500000  0.209022  0.733607  1
  B  B24  1  0.500000  0.131506  0.314075  1
  B  B25  1  0.500000  0.868206  0.685801  1
  B  B26  1  0.500000  0.632005  0.186276  1
  B  B27  1  0.500000  0.368637  0.813359  1
  B  B28  1  0.500000  0.483948  0.287599  1
  B  B29  1  0.500000  0.517178  0.712488  1
  B  B30  1  0.500000  0.983646  0.212995  1
  B  B31  1  0.500000  0.016135  0.786984  1
  B  B32  1  0.500000  0.104019  0.471045  1
  B  B33  1  0.500000  0.894499  0.529548  1
  B  B34  1  0.500000  0.607748  0.029591  1
  B  B35  1  0.500000  0.392382  0.969786  1
