# generated using pymatgen
data_PrNpF7
_symmetry_space_group_name_H-M   'P 1'
_cell_length_a   6.13021100
_cell_length_b   6.45616475
_cell_length_c   8.77397734
_cell_angle_alpha   77.35969222
_cell_angle_beta   90.00000000
_cell_angle_gamma   90.00000000
_symmetry_Int_Tables_number   1
_chemical_formula_structural   PrNpF7
_chemical_formula_sum   'Pr2 Np2 F14'
_cell_volume   338.83706175
_cell_formula_units_Z   2
loop_
 _symmetry_equiv_pos_site_id
 _symmetry_equiv_pos_as_xyz
  1  'x, y, z'
loop_
 _atom_site_type_symbol
 _atom_site_label
 _atom_site_symmetry_multiplicity
 _atom_site_fract_x
 _atom_site_fract_y
 _atom_site_fract_z
 _atom_site_occupancy
  Pr  Pr0  1  0.200175  0.654987  0.314406  1
  Pr  Pr1  1  0.700175  0.345013  0.685594  1
  Np  Np2  1  0.207848  0.810180  0.774789  1
  Np  Np3  1  0.707848  0.189820  0.225211  1
  F  F4  1  0.403235  0.465346  0.521200  1
  F  F5  1  0.903235  0.534654  0.478800  1
  F  F6  1  0.930759  0.925433  0.232567  1
  F  F7  1  0.430759  0.074567  0.767433  1
  F  F8  1  0.444827  0.955264  0.241543  1
  F  F9  1  0.944827  0.044736  0.758457  1
  F  F10  1  0.486368  0.457443  0.212609  1
  F  F11  1  0.986368  0.542557  0.787391  1
  F  F12  1  0.198687  0.757590  0.026753  1
  F  F13  1  0.698687  0.242410  0.973247  1
  F  F14  1  0.206211  0.863643  0.521667  1
  F  F15  1  0.706211  0.136357  0.478333  1
  F  F16  1  0.998248  0.390721  0.214163  1
  F  F17  1  0.498248  0.609279  0.785837  1
