# generated using pymatgen
data_Tm7Lu13CoBi11
_symmetry_space_group_name_H-M   'P 1'
_cell_length_a   8.09365854
_cell_length_b   9.35492400
_cell_length_c   11.82636500
_cell_angle_alpha   90.00000000
_cell_angle_beta   89.73352066
_cell_angle_gamma   90.00000000
_symmetry_Int_Tables_number   1
_chemical_formula_structural   Tm7Lu13CoBi11
_chemical_formula_sum   'Tm7 Lu13 Co1 Bi11'
_cell_volume   895.43016997
_cell_formula_units_Z   1
loop_
 _symmetry_equiv_pos_site_id
 _symmetry_equiv_pos_as_xyz
  1  'x, y, z'
loop_
 _atom_site_type_symbol
 _atom_site_label
 _atom_site_symmetry_multiplicity
 _atom_site_fract_x
 _atom_site_fract_y
 _atom_site_fract_z
 _atom_site_occupancy
  Tm  Tm0  1  0.654675  0.750000  0.717239  1
  Tm  Tm1  1  0.147672  0.750000  0.779319  1
  Tm  Tm2  1  0.847428  0.250000  0.215800  1
  Tm  Tm3  1  0.202054  0.250000  0.776452  1
  Tm  Tm4  1  0.808985  0.750000  0.216409  1
  Tm  Tm5  1  0.315393  0.750000  0.280473  1
  Tm  Tm6  1  0.642934  0.250000  0.699638  1
  Lu  Lu7  1  0.050212  0.250000  0.507049  1
  Lu  Lu8  1  0.986477  0.750000  0.492567  1
  Lu  Lu9  1  0.478341  0.750000  0.011388  1
  Lu  Lu10  1  0.526216  0.250000  0.990583  1
  Lu  Lu11  1  0.357461  0.250000  0.309612  1
  Lu  Lu12  1  0.193215  0.067832  0.064586  1
  Lu  Lu13  1  0.807660  0.933042  0.940645  1
  Lu  Lu14  1  0.317214  0.975060  0.557722  1
  Lu  Lu15  1  0.807660  0.566958  0.940645  1
  Lu  Lu16  1  0.675607  0.076512  0.447462  1
  Lu  Lu17  1  0.193215  0.432168  0.064586  1
  Lu  Lu18  1  0.675607  0.423488  0.447462  1
  Lu  Lu19  1  0.317214  0.524940  0.557722  1
  Co  Co20  1  0.416754  0.250000  0.528182  1
  Bi  Bi21  1  0.596057  0.750000  0.458582  1
  Bi  Bi22  1  0.098199  0.750000  0.041982  1
  Bi  Bi23  1  0.908208  0.250000  0.951979  1
  Bi  Bi24  1  0.057791  0.000211  0.322863  1
  Bi  Bi25  1  0.932495  0.001912  0.674599  1
  Bi  Bi26  1  0.435008  0.992489  0.828553  1
  Bi  Bi27  1  0.932495  0.498088  0.674599  1
  Bi  Bi28  1  0.562477  0.005993  0.174945  1
  Bi  Bi29  1  0.057791  0.499789  0.322863  1
  Bi  Bi30  1  0.562477  0.494007  0.174945  1
  Bi  Bi31  1  0.435008  0.507511  0.828553  1
