# generated using pymatgen
data_Ta4ReMoOs2
_symmetry_space_group_name_H-M   'P 1'
_cell_length_a   6.39961700
_cell_length_b   4.52301300
_cell_length_c   9.07263500
_cell_angle_alpha   90.00006958
_cell_angle_beta   90.00060490
_cell_angle_gamma   89.99946539
_symmetry_Int_Tables_number   1
_chemical_formula_structural   Ta4ReMoOs2
_chemical_formula_sum   'Ta8 Re2 Mo2 Os4'
_cell_volume   262.61241805
_cell_formula_units_Z   2
loop_
 _symmetry_equiv_pos_site_id
 _symmetry_equiv_pos_as_xyz
  1  'x, y, z'
loop_
 _atom_site_type_symbol
 _atom_site_label
 _atom_site_symmetry_multiplicity
 _atom_site_fract_x
 _atom_site_fract_y
 _atom_site_fract_z
 _atom_site_occupancy
  Ta  Ta0  1  0.999282  0.749988  0.125588  1
  Ta  Ta1  1  0.500769  0.750005  0.125585  1
  Ta  Ta2  1  0.000771  0.250016  0.374416  1
  Ta  Ta3  1  0.499286  0.250006  0.374408  1
  Ta  Ta4  1  0.500229  0.750014  0.624371  1
  Ta  Ta5  1  0.999718  0.750005  0.624362  1
  Ta  Ta6  1  0.499723  0.250001  0.875635  1
  Ta  Ta7  1  0.000235  0.250007  0.875636  1
  Re  Re8  1  0.749977  0.250002  0.625722  1
  Re  Re9  1  0.249971  0.750006  0.874294  1
  Mo  Mo10  1  0.750026  0.250004  0.124222  1
  Mo  Mo11  1  0.250018  0.749983  0.375766  1
  Os  Os12  1  0.250022  0.249985  0.124078  1
  Os  Os13  1  0.750019  0.749996  0.375929  1
  Os  Os14  1  0.249983  0.249999  0.625753  1
  Os  Os15  1  0.749972  0.749992  0.874230  1
