# generated using pymatgen
data_Tb3TmLu4(ReB6)4
_symmetry_space_group_name_H-M   'P 1'
_cell_length_a   3.64677400
_cell_length_b   9.10857102
_cell_length_c   11.49618601
_cell_angle_alpha   90.00621862
_cell_angle_beta   90.00000000
_cell_angle_gamma   90.00000000
_symmetry_Int_Tables_number   1
_chemical_formula_structural   Tb3TmLu4(ReB6)4
_chemical_formula_sum   'Tb3 Tm1 Lu4 Re4 B24'
_cell_volume   381.86765849
_cell_formula_units_Z   1
loop_
 _symmetry_equiv_pos_site_id
 _symmetry_equiv_pos_as_xyz
  1  'x, y, z'
loop_
 _atom_site_type_symbol
 _atom_site_label
 _atom_site_symmetry_multiplicity
 _atom_site_fract_x
 _atom_site_fract_y
 _atom_site_fract_z
 _atom_site_occupancy
  Tb  Tb0  1  0.000000  0.677236  0.585726  1
  Tb  Tb1  1  0.000000  0.822782  0.086067  1
  Tb  Tb2  1  0.000000  0.177352  0.914134  1
  Tm  Tm3  1  0.000000  0.323188  0.414052  1
  Lu  Lu4  1  0.000000  0.943384  0.370457  1
  Lu  Lu5  1  0.000000  0.056989  0.629358  1
  Lu  Lu6  1  0.000000  0.443098  0.130001  1
  Lu  Lu7  1  0.000000  0.556533  0.869968  1
  Re  Re8  1  0.000000  0.638528  0.319999  1
  Re  Re9  1  0.000000  0.360667  0.679355  1
  Re  Re10  1  0.000000  0.139780  0.180973  1
  Re  Re11  1  0.000000  0.860825  0.819509  1
  B  B12  1  0.500000  0.552815  0.432507  1
  B  B13  1  0.500000  0.445908  0.566688  1
  B  B14  1  0.500000  0.053911  0.068126  1
  B  B15  1  0.500000  0.946439  0.932372  1
  B  B16  1  0.500000  0.750555  0.418014  1
  B  B17  1  0.500000  0.249199  0.580716  1
  B  B18  1  0.500000  0.251004  0.082578  1
  B  B19  1  0.500000  0.749006  0.917963  1
  B  B20  1  0.500000  0.792721  0.265486  1
  B  B21  1  0.500000  0.207123  0.734153  1
  B  B22  1  0.500000  0.293382  0.235837  1
  B  B23  1  0.500000  0.707026  0.765063  1
  B  B24  1  0.500000  0.629405  0.185000  1
  B  B25  1  0.500000  0.370102  0.814937  1
  B  B26  1  0.500000  0.130525  0.316230  1
  B  B27  1  0.500000  0.870314  0.684548  1
  B  B28  1  0.500000  0.982030  0.213328  1
  B  B29  1  0.500000  0.018435  0.786960  1
  B  B30  1  0.500000  0.480778  0.287802  1
  B  B31  1  0.500000  0.518028  0.712364  1
  B  B32  1  0.500000  0.597358  0.027057  1
  B  B33  1  0.500000  0.402403  0.973038  1
  B  B34  1  0.500000  0.098729  0.472651  1
  B  B35  1  0.500000  0.902441  0.526983  1
