# generated using pymatgen
data_Zr5Sc(AlIr2)2
_symmetry_space_group_name_H-M   'P 1'
_cell_length_a   8.55715758
_cell_length_b   8.55717663
_cell_length_c   8.54537200
_cell_angle_alpha   60.04562327
_cell_angle_beta   60.04574844
_cell_angle_gamma   59.90889164
_symmetry_Int_Tables_number   1
_chemical_formula_structural   Zr5Sc(AlIr2)2
_chemical_formula_sum   'Zr10 Sc2 Al4 Ir8'
_cell_volume   442.46122468
_cell_formula_units_Z   2
loop_
 _symmetry_equiv_pos_site_id
 _symmetry_equiv_pos_as_xyz
  1  'x, y, z'
loop_
 _atom_site_type_symbol
 _atom_site_label
 _atom_site_symmetry_multiplicity
 _atom_site_fract_x
 _atom_site_fract_y
 _atom_site_fract_z
 _atom_site_occupancy
  Zr  Zr0  1  0.806281  0.193720  0.806285  1
  Zr  Zr1  1  0.193713  0.806286  0.193720  1
  Zr  Zr2  1  0.193719  0.806282  0.806281  1
  Zr  Zr3  1  0.806282  0.193718  0.193718  1
  Zr  Zr4  1  0.443418  0.443420  0.056581  1
  Zr  Zr5  1  0.056581  0.056581  0.443421  1
  Zr  Zr6  1  0.445005  0.054993  0.445005  1
  Zr  Zr7  1  0.054998  0.445004  0.054993  1
  Zr  Zr8  1  0.054997  0.445002  0.445003  1
  Zr  Zr9  1  0.445003  0.054997  0.054997  1
  Sc  Sc10  1  0.805587  0.805585  0.194412  1
  Sc  Sc11  1  0.194415  0.194412  0.805584  1
  Al  Al12  1  0.125809  0.623010  0.625590  1
  Al  Al13  1  0.623010  0.125809  0.625590  1
  Al  Al14  1  0.625590  0.625590  0.125809  1
  Al  Al15  1  0.625591  0.625590  0.623010  1
  Ir  Ir16  1  0.761673  0.411914  0.413206  1
  Ir  Ir17  1  0.411912  0.761674  0.413206  1
  Ir  Ir18  1  0.413206  0.413206  0.761674  1
  Ir  Ir19  1  0.413207  0.413206  0.411913  1
  Ir  Ir20  1  0.488633  0.835894  0.837736  1
  Ir  Ir21  1  0.835896  0.488632  0.837737  1
  Ir  Ir22  1  0.837736  0.837737  0.488632  1
  Ir  Ir23  1  0.837736  0.837736  0.835895  1
