# generated using pymatgen
data_Tm3Ga3GeIr2
_symmetry_space_group_name_H-M   'P 1'
_cell_length_a   7.12474500
_cell_length_b   7.12474511
_cell_length_c   3.93702800
_cell_angle_alpha   90.00000000
_cell_angle_beta   90.00000000
_cell_angle_gamma   120.00000415
_symmetry_Int_Tables_number   1
_chemical_formula_structural   Tm3Ga3GeIr2
_chemical_formula_sum   'Tm3 Ga3 Ge1 Ir2'
_cell_volume   173.07636841
_cell_formula_units_Z   1
loop_
 _symmetry_equiv_pos_site_id
 _symmetry_equiv_pos_as_xyz
  1  'x, y, z'
loop_
 _atom_site_type_symbol
 _atom_site_label
 _atom_site_symmetry_multiplicity
 _atom_site_fract_x
 _atom_site_fract_y
 _atom_site_fract_z
 _atom_site_occupancy
  Tm  Tm0  1  0.992465  0.407664  0.500000  1
  Tm  Tm1  1  0.592336  0.584800  0.500000  1
  Tm  Tm2  1  0.415200  0.007535  0.500000  1
  Ga  Ga3  1  0.982898  0.743185  0.000000  1
  Ga  Ga4  1  0.256815  0.239714  0.000000  1
  Ga  Ga5  1  0.760286  0.017102  0.000000  1
  Ge  Ge6  1  0.333333  0.666667  0.000000  1
  Ir  Ir7  1  0.666667  0.333333  0.000000  1
  Ir  Ir8  1  0.000000  0.000000  0.500000  1
