# generated using pymatgen
data_ErTm3VB12Rh
_symmetry_space_group_name_H-M   'P 1'
_cell_length_a   3.57738400
_cell_length_b   9.11724951
_cell_length_c   11.50989206
_cell_angle_alpha   90.32564635
_cell_angle_beta   90.00000000
_cell_angle_gamma   90.00000000
_symmetry_Int_Tables_number   1
_chemical_formula_structural   ErTm3VB12Rh
_chemical_formula_sum   'Er2 Tm6 V2 B24 Rh2'
_cell_volume   375.39945413
_cell_formula_units_Z   2
loop_
 _symmetry_equiv_pos_site_id
 _symmetry_equiv_pos_as_xyz
  1  'x, y, z'
loop_
 _atom_site_type_symbol
 _atom_site_label
 _atom_site_symmetry_multiplicity
 _atom_site_fract_x
 _atom_site_fract_y
 _atom_site_fract_z
 _atom_site_occupancy
  Er  Er0  1  0.500000  0.318794  0.411633  1
  Er  Er1  1  0.500000  0.681206  0.588367  1
  Tm  Tm2  1  0.500000  0.173719  0.916752  1
  Tm  Tm3  1  0.500000  0.826281  0.083248  1
  Tm  Tm4  1  0.500000  0.442180  0.127079  1
  Tm  Tm5  1  0.500000  0.557820  0.872921  1
  Tm  Tm6  1  0.500000  0.054014  0.628637  1
  Tm  Tm7  1  0.500000  0.945986  0.371363  1
  V  V8  1  0.500000  0.139875  0.181488  1
  V  V9  1  0.500000  0.860125  0.818512  1
  B  B10  1  0.000000  0.106675  0.471600  1
  B  B11  1  0.000000  0.893325  0.528400  1
  B  B12  1  0.000000  0.393626  0.970228  1
  B  B13  1  0.000000  0.606374  0.029772  1
  B  B14  1  0.000000  0.132642  0.316327  1
  B  B15  1  0.000000  0.867358  0.683673  1
  B  B16  1  0.000000  0.367547  0.815919  1
  B  B17  1  0.000000  0.632453  0.184081  1
  B  B18  1  0.000000  0.052228  0.066546  1
  B  B19  1  0.000000  0.947772  0.933454  1
  B  B20  1  0.000000  0.446270  0.566158  1
  B  B21  1  0.000000  0.553730  0.433842  1
  B  B22  1  0.000000  0.482033  0.287620  1
  B  B23  1  0.000000  0.517967  0.712380  1
  B  B24  1  0.000000  0.019479  0.787434  1
  B  B25  1  0.000000  0.980521  0.212566  1
  B  B26  1  0.000000  0.248785  0.079679  1
  B  B27  1  0.000000  0.751215  0.920321  1
  B  B28  1  0.000000  0.249701  0.579428  1
  B  B29  1  0.000000  0.750299  0.420572  1
  B  B30  1  0.000000  0.295042  0.235547  1
  B  B31  1  0.000000  0.704958  0.764453  1
  B  B32  1  0.000000  0.206888  0.735463  1
  B  B33  1  0.000000  0.793112  0.264537  1
  Rh  Rh34  1  0.500000  0.361141  0.678683  1
  Rh  Rh35  1  0.500000  0.638859  0.321317  1
