# generated using pymatgen
data_Nd19Dy(IrPt2)4
_symmetry_space_group_name_H-M   'P 1'
_cell_length_a   11.41952600
_cell_length_b   11.41952600
_cell_length_c   6.52488300
_cell_angle_alpha   90.00000000
_cell_angle_beta   90.00000000
_cell_angle_gamma   90.00000000
_symmetry_Int_Tables_number   1
_chemical_formula_structural   Nd19Dy(IrPt2)4
_chemical_formula_sum   'Nd19 Dy1 Ir4 Pt8'
_cell_volume   850.88111332
_cell_formula_units_Z   1
loop_
 _symmetry_equiv_pos_site_id
 _symmetry_equiv_pos_as_xyz
  1  'x, y, z'
loop_
 _atom_site_type_symbol
 _atom_site_label
 _atom_site_symmetry_multiplicity
 _atom_site_fract_x
 _atom_site_fract_y
 _atom_site_fract_z
 _atom_site_occupancy
  Nd  Nd0  1  0.295505  0.089364  0.373104  1
  Nd  Nd1  1  0.295732  0.910702  0.873108  1
  Nd  Nd2  1  0.704268  0.089298  0.873108  1
  Nd  Nd3  1  0.704495  0.910636  0.373104  1
  Nd  Nd4  1  0.588881  0.793916  0.873575  1
  Nd  Nd5  1  0.588854  0.206383  0.374929  1
  Nd  Nd6  1  0.411146  0.793617  0.374929  1
  Nd  Nd7  1  0.411119  0.206084  0.873575  1
  Nd  Nd8  1  0.206383  0.411146  0.625071  1
  Nd  Nd9  1  0.206084  0.588881  0.126425  1
  Nd  Nd10  1  0.793916  0.411119  0.126425  1
  Nd  Nd11  1  0.793617  0.588854  0.625071  1
  Nd  Nd12  1  0.910702  0.704268  0.126892  1
  Nd  Nd13  1  0.910636  0.295505  0.626896  1
  Nd  Nd14  1  0.089364  0.704495  0.626896  1
  Nd  Nd15  1  0.089298  0.295732  0.126892  1
  Nd  Nd16  1  0.000000  0.000000  0.500000  1
  Nd  Nd17  1  0.000000  0.000000  0.000000  1
  Nd  Nd18  1  0.500000  0.500000  0.000000  1
  Dy  Dy19  1  0.500000  0.500000  0.500000  1
  Ir  Ir20  1  0.500000  0.000000  0.114387  1
  Ir  Ir21  1  0.500000  0.000000  0.614445  1
  Ir  Ir22  1  0.000000  0.500000  0.885613  1
  Ir  Ir23  1  0.000000  0.500000  0.385555  1
  Pt  Pt24  1  0.846068  0.154202  0.249873  1
  Pt  Pt25  1  0.845798  0.846068  0.750127  1
  Pt  Pt26  1  0.154202  0.153932  0.750127  1
  Pt  Pt27  1  0.153932  0.845798  0.249873  1
  Pt  Pt28  1  0.650617  0.350535  0.744086  1
  Pt  Pt29  1  0.649465  0.650617  0.255914  1
  Pt  Pt30  1  0.350535  0.349383  0.255914  1
  Pt  Pt31  1  0.349383  0.649465  0.744086  1
