# generated using pymatgen
data_Y2Zr(SnRh)3
_symmetry_space_group_name_H-M   'P 1'
_cell_length_a   7.50412805
_cell_length_b   7.55918582
_cell_length_c   7.57313600
_cell_angle_alpha   90.00000000
_cell_angle_beta   90.00000000
_cell_angle_gamma   119.77564922
_symmetry_Int_Tables_number   1
_chemical_formula_structural   Y2Zr(SnRh)3
_chemical_formula_sum   'Y4 Zr2 Sn6 Rh6'
_cell_volume   372.87135891
_cell_formula_units_Z   2
loop_
 _symmetry_equiv_pos_site_id
 _symmetry_equiv_pos_as_xyz
  1  'x, y, z'
loop_
 _atom_site_type_symbol
 _atom_site_label
 _atom_site_symmetry_multiplicity
 _atom_site_fract_x
 _atom_site_fract_y
 _atom_site_fract_z
 _atom_site_occupancy
  Y  Y0  1  0.595501  0.999501  0.750000  1
  Y  Y1  1  0.406137  0.410854  0.750000  1
  Y  Y2  1  0.996160  0.589652  0.750000  1
  Y  Y3  1  0.597630  0.001165  0.250000  1
  Zr  Zr4  1  0.401253  0.394520  0.250000  1
  Zr  Zr5  1  0.004322  0.604103  0.250000  1
  Sn  Sn6  1  0.264436  0.999456  0.997483  1
  Sn  Sn7  1  0.736369  0.736659  0.491167  1
  Sn  Sn8  1  0.000674  0.263794  0.491250  1
  Sn  Sn9  1  0.000674  0.263794  0.008750  1
  Sn  Sn10  1  0.736369  0.736659  0.008833  1
  Sn  Sn11  1  0.264436  0.999456  0.502517  1
  Rh  Rh12  1  0.667861  0.342223  0.023584  1
  Rh  Rh13  1  0.667861  0.342223  0.476416  1
  Rh  Rh14  1  0.325898  0.658022  0.026015  1
  Rh  Rh15  1  0.325898  0.658022  0.473985  1
  Rh  Rh16  1  0.996536  0.999924  0.750000  1
  Rh  Rh17  1  0.011985  0.999972  0.250000  1
