# generated using pymatgen
data_CsSc(RhSe2)4
_symmetry_space_group_name_H-M   'P 1'
_cell_length_a   9.69733071
_cell_length_b   9.69733100
_cell_length_c   9.19519369
_cell_angle_alpha   74.72243052
_cell_angle_beta   74.72242987
_cell_angle_gamma   22.47489703
_symmetry_Int_Tables_number   1
_chemical_formula_structural   CsSc(RhSe2)4
_chemical_formula_sum   'Cs1 Sc1 Rh4 Se8'
_cell_volume   318.40462970
_cell_formula_units_Z   1
loop_
 _symmetry_equiv_pos_site_id
 _symmetry_equiv_pos_as_xyz
  1  'x, y, z'
loop_
 _atom_site_type_symbol
 _atom_site_label
 _atom_site_symmetry_multiplicity
 _atom_site_fract_x
 _atom_site_fract_y
 _atom_site_fract_z
 _atom_site_occupancy
  Cs  Cs0  1  0.487793  0.487793  0.507273  1
  Sc  Sc1  1  0.647936  0.647936  0.017908  1
  Rh  Rh2  1  0.007515  0.007515  0.997704  1
  Rh  Rh3  1  0.341031  0.341031  0.982884  1
  Rh  Rh4  1  0.301339  0.301339  0.326013  1
  Rh  Rh5  1  0.707139  0.707139  0.677364  1
  Se  Se6  1  0.429631  0.429631  0.133543  1
  Se  Se7  1  0.914142  0.914142  0.848331  1
  Se  Se8  1  0.825789  0.825789  0.481234  1
  Se  Se9  1  0.763750  0.763750  0.159076  1
  Se  Se10  1  0.241537  0.241537  0.834890  1
  Se  Se11  1  0.180884  0.180884  0.517522  1
  Se  Se12  1  0.082051  0.082051  0.196083  1
  Se  Se13  1  0.569464  0.569464  0.820175  1
