# generated using pymatgen
data_Y2Er2BOs2C3
_symmetry_space_group_name_H-M   'P 1'
_cell_length_a   5.11798700
_cell_length_b   6.56372835
_cell_length_c   9.78869847
_cell_angle_alpha   90.32534094
_cell_angle_beta   90.00000000
_cell_angle_gamma   90.00000000
_symmetry_Int_Tables_number   1
_chemical_formula_structural   Y2Er2BOs2C3
_chemical_formula_sum   'Y4 Er4 B2 Os4 C6'
_cell_volume   328.82719434
_cell_formula_units_Z   2
loop_
 _symmetry_equiv_pos_site_id
 _symmetry_equiv_pos_as_xyz
  1  'x, y, z'
loop_
 _atom_site_type_symbol
 _atom_site_label
 _atom_site_symmetry_multiplicity
 _atom_site_fract_x
 _atom_site_fract_y
 _atom_site_fract_z
 _atom_site_occupancy
  Y  Y0  1  0.250000  0.524352  0.211248  1
  Y  Y1  1  0.750000  0.475648  0.788752  1
  Y  Y2  1  0.750000  0.972838  0.715434  1
  Y  Y3  1  0.250000  0.027162  0.284566  1
  Er  Er4  1  0.250000  0.677752  0.550895  1
  Er  Er5  1  0.750000  0.322248  0.449105  1
  Er  Er6  1  0.750000  0.827791  0.053532  1
  Er  Er7  1  0.250000  0.172209  0.946468  1
  B  B8  1  0.250000  0.452193  0.758132  1
  B  B9  1  0.750000  0.547807  0.241868  1
  Os  Os10  1  0.250000  0.727792  0.863245  1
  Os  Os11  1  0.750000  0.272208  0.136755  1
  Os  Os12  1  0.750000  0.786250  0.370526  1
  Os  Os13  1  0.250000  0.213750  0.629474  1
  C  C14  1  0.750000  0.043774  0.260803  1
  C  C15  1  0.250000  0.956226  0.739197  1
  C  C16  1  0.250000  0.825091  0.050617  1
  C  C17  1  0.750000  0.174909  0.949383  1
  C  C18  1  0.750000  0.672984  0.552298  1
  C  C19  1  0.250000  0.327016  0.447702  1
