# generated using pymatgen
data_Ba4Sc2Co2O9
_symmetry_space_group_name_H-M   'P 1'
_cell_length_a   9.01124281
_cell_length_b   8.96948876
_cell_length_c   5.96976916
_cell_angle_alpha   70.98766104
_cell_angle_beta   70.23166013
_cell_angle_gamma   38.78067680
_symmetry_Int_Tables_number   1
_chemical_formula_structural   Ba4Sc2Co2O9
_chemical_formula_sum   'Ba4 Sc2 Co2 O9'
_cell_volume   282.82430321
_cell_formula_units_Z   1
loop_
 _symmetry_equiv_pos_site_id
 _symmetry_equiv_pos_as_xyz
  1  'x, y, z'
loop_
 _atom_site_type_symbol
 _atom_site_label
 _atom_site_symmetry_multiplicity
 _atom_site_fract_x
 _atom_site_fract_y
 _atom_site_fract_z
 _atom_site_occupancy
  Ba  Ba0  1  0.881558  0.381187  0.118442  1
  Ba  Ba1  1  0.381187  0.881558  0.618813  1
  Ba  Ba2  1  0.618813  0.118442  0.381187  1
  Ba  Ba3  1  0.118442  0.618813  0.881558  1
  Sc  Sc4  1  0.500000  0.000000  0.000000  1
  Sc  Sc5  1  0.000000  0.500000  0.500000  1
  Co  Co6  1  0.726624  0.273376  0.726624  1
  Co  Co7  1  0.273376  0.726624  0.273376  1
  O  O8  1  0.894110  0.326443  0.673557  1
  O  O9  1  0.326443  0.894110  0.105890  1
  O  O10  1  0.673557  0.105890  0.894110  1
  O  O11  1  0.105890  0.673557  0.326443  1
  O  O12  1  0.738561  0.738561  0.261439  1
  O  O13  1  0.261439  0.261439  0.738561  1
  O  O14  1  0.250000  0.250000  0.250000  1
  O  O15  1  0.750000  0.750000  0.750000  1
  O  O16  1  0.500000  0.500000  0.500000  1
