# generated using pymatgen
data_CeHo(BIr)8
_symmetry_space_group_name_H-M   'P 1'
_cell_length_a   3.97247800
_cell_length_b   7.66588300
_cell_length_c   7.66588300
_cell_angle_alpha   90.00000000
_cell_angle_beta   90.00000000
_cell_angle_gamma   90.00000000
_symmetry_Int_Tables_number   1
_chemical_formula_structural   CeHo(BIr)8
_chemical_formula_sum   'Ce1 Ho1 B8 Ir8'
_cell_volume   233.44569737
_cell_formula_units_Z   1
loop_
 _symmetry_equiv_pos_site_id
 _symmetry_equiv_pos_as_xyz
  1  'x, y, z'
loop_
 _atom_site_type_symbol
 _atom_site_label
 _atom_site_symmetry_multiplicity
 _atom_site_fract_x
 _atom_site_fract_y
 _atom_site_fract_z
 _atom_site_occupancy
  Ce  Ce0  1  0.750000  0.750000  0.750000  1
  Ho  Ho1  1  0.250000  0.250000  0.250000  1
  B  B2  1  0.359032  0.908235  0.029656  1
  B  B3  1  0.359032  0.591765  0.470344  1
  B  B4  1  0.863168  0.527093  0.091788  1
  B  B5  1  0.863168  0.972907  0.408212  1
  B  B6  1  0.636832  0.091788  0.972907  1
  B  B7  1  0.636832  0.408212  0.527093  1
  B  B8  1  0.140968  0.470344  0.908235  1
  B  B9  1  0.140968  0.029656  0.591765  1
  Ir  Ir10  1  0.136585  0.409928  0.640801  1
  Ir  Ir11  1  0.136585  0.090072  0.859199  1
  Ir  Ir12  1  0.638870  0.141948  0.587298  1
  Ir  Ir13  1  0.638870  0.358052  0.912702  1
  Ir  Ir14  1  0.861130  0.587298  0.358052  1
  Ir  Ir15  1  0.861130  0.912702  0.141948  1
  Ir  Ir16  1  0.363415  0.859199  0.409928  1
  Ir  Ir17  1  0.363415  0.640801  0.090072  1
