# generated using pymatgen
data_TbTa5FeB4Ru9
_symmetry_space_group_name_H-M   'P 1'
_cell_length_a   9.44037263
_cell_length_b   9.44037138
_cell_length_c   3.06177000
_cell_angle_alpha   90.00000000
_cell_angle_beta   90.00000000
_cell_angle_gamma   90.21811125
_symmetry_Int_Tables_number   1
_chemical_formula_structural   TbTa5FeB4Ru9
_chemical_formula_sum   'Tb1 Ta5 Fe1 B4 Ru9'
_cell_volume   272.86487464
_cell_formula_units_Z   1
loop_
 _symmetry_equiv_pos_site_id
 _symmetry_equiv_pos_as_xyz
  1  'x, y, z'
loop_
 _atom_site_type_symbol
 _atom_site_label
 _atom_site_symmetry_multiplicity
 _atom_site_fract_x
 _atom_site_fract_y
 _atom_site_fract_z
 _atom_site_occupancy
  Tb  Tb0  1  0.822754  0.677246  0.000000  1
  Ta  Ta1  1  0.179632  0.320368  0.000000  1
  Ta  Ta2  1  0.329096  0.831280  0.000000  1
  Ta  Ta3  1  0.668720  0.170904  0.000000  1
  Ta  Ta4  1  0.501196  0.500457  0.000000  1
  Ta  Ta5  1  0.999543  0.998804  0.000000  1
  Fe  Fe6  1  0.495539  0.004461  0.500000  1
  B  B7  1  0.608987  0.891013  0.000000  1
  B  B8  1  0.386771  0.113229  0.000000  1
  B  B9  1  0.124903  0.620136  0.000000  1
  B  B10  1  0.879864  0.375097  0.000000  1
  Ru  Ru11  1  0.554451  0.730628  0.500000  1
  Ru  Ru12  1  0.429958  0.278070  0.500000  1
  Ru  Ru13  1  0.083766  0.783428  0.500000  1
  Ru  Ru14  1  0.931757  0.214454  0.500000  1
  Ru  Ru15  1  0.285546  0.568243  0.500000  1
  Ru  Ru16  1  0.716572  0.416234  0.500000  1
  Ru  Ru17  1  0.221930  0.070042  0.500000  1
  Ru  Ru18  1  0.769372  0.945549  0.500000  1
  Ru  Ru19  1  0.009643  0.490357  0.500000  1
