# generated using pymatgen
data_Ce3ZnCd3Pt2
_symmetry_space_group_name_H-M   'P 1'
_cell_length_a   7.74581041
_cell_length_b   7.74180889
_cell_length_c   3.97481800
_cell_angle_alpha   90.00000000
_cell_angle_beta   90.00000000
_cell_angle_gamma   119.85851077
_symmetry_Int_Tables_number   1
_chemical_formula_structural   Ce3ZnCd3Pt2
_chemical_formula_sum   'Ce3 Zn1 Cd3 Pt2'
_cell_volume   206.71624896
_cell_formula_units_Z   1
loop_
 _symmetry_equiv_pos_site_id
 _symmetry_equiv_pos_as_xyz
  1  'x, y, z'
loop_
 _atom_site_type_symbol
 _atom_site_label
 _atom_site_symmetry_multiplicity
 _atom_site_fract_x
 _atom_site_fract_y
 _atom_site_fract_z
 _atom_site_occupancy
  Ce  Ce0  1  0.418107  0.418064  0.000000  1
  Ce  Ce1  1  0.581916  0.000004  0.000000  1
  Ce  Ce2  1  0.000083  0.581781  0.000000  1
  Zn  Zn3  1  0.000185  0.000156  0.000000  1
  Cd  Cd4  1  0.750775  0.750850  0.500000  1
  Cd  Cd5  1  0.249146  0.000143  0.500000  1
  Cd  Cd6  1  0.000042  0.249101  0.500000  1
  Pt  Pt7  1  0.666469  0.333621  0.500000  1
  Pt  Pt8  1  0.333277  0.666280  0.500000  1
