# generated using pymatgen
data_Hf4Zr6AlZn(SnSb2)2
_symmetry_space_group_name_H-M   'P 1'
_cell_length_a   8.66528900
_cell_length_b   8.66957393
_cell_length_c   5.84382200
_cell_angle_alpha   90.00000000
_cell_angle_beta   90.00000000
_cell_angle_gamma   120.01636295
_symmetry_Int_Tables_number   1
_chemical_formula_structural   Hf4Zr6AlZn(SnSb2)2
_chemical_formula_sum   'Hf4 Zr6 Al1 Zn1 Sn2 Sb4'
_cell_volume   380.13406094
_cell_formula_units_Z   1
loop_
 _symmetry_equiv_pos_site_id
 _symmetry_equiv_pos_as_xyz
  1  'x, y, z'
loop_
 _atom_site_type_symbol
 _atom_site_label
 _atom_site_symmetry_multiplicity
 _atom_site_fract_x
 _atom_site_fract_y
 _atom_site_fract_z
 _atom_site_occupancy
  Hf  Hf0  1  0.333067  0.666533  0.500000  1
  Hf  Hf1  1  0.667417  0.333708  0.000000  1
  Hf  Hf2  1  0.667425  0.333712  0.500000  1
  Hf  Hf3  1  0.332973  0.666486  0.000000  1
  Zr  Zr4  1  0.730275  0.730199  0.250212  1
  Zr  Zr5  1  0.730275  0.000076  0.749788  1
  Zr  Zr6  1  0.999537  0.270765  0.250333  1
  Zr  Zr7  1  0.999537  0.728772  0.749667  1
  Zr  Zr8  1  0.270214  0.270908  0.749456  1
  Zr  Zr9  1  0.270214  0.999305  0.250544  1
  Al  Al10  1  0.001473  0.000736  0.000000  1
  Zn  Zn11  1  0.001474  0.000737  0.500000  1
  Sn  Sn12  1  0.384990  0.000407  0.750000  1
  Sn  Sn13  1  0.384990  0.384582  0.250000  1
  Sb  Sb14  1  0.000376  0.613917  0.249892  1
  Sb  Sb15  1  0.000376  0.386457  0.750108  1
  Sb  Sb16  1  0.612697  0.612692  0.749994  1
  Sb  Sb17  1  0.612697  0.000004  0.250006  1
