# generated using pymatgen
data_Dy3Er2Zr5(Si5Ir2)4
_symmetry_space_group_name_H-M   'P 1'
_cell_length_a   12.52200349
_cell_length_b   12.52227449
_cell_length_c   4.17680900
_cell_angle_alpha   90.00000000
_cell_angle_beta   90.00000000
_cell_angle_gamma   90.03194655
_symmetry_Int_Tables_number   1
_chemical_formula_structural   Dy3Er2Zr5(Si5Ir2)4
_chemical_formula_sum   'Dy3 Er2 Zr5 Si20 Ir8'
_cell_volume   654.94010953
_cell_formula_units_Z   1
loop_
 _symmetry_equiv_pos_site_id
 _symmetry_equiv_pos_as_xyz
  1  'x, y, z'
loop_
 _atom_site_type_symbol
 _atom_site_label
 _atom_site_symmetry_multiplicity
 _atom_site_fract_x
 _atom_site_fract_y
 _atom_site_fract_z
 _atom_site_occupancy
  Dy  Dy0  1  0.884269  0.384330  0.500000  1
  Dy  Dy1  1  0.115733  0.615665  0.500000  1
  Dy  Dy2  1  0.384346  0.115723  0.500000  1
  Er  Er3  1  0.999957  0.000013  0.000000  1
  Er  Er4  1  0.615755  0.884260  0.500000  1
  Zr  Zr5  1  0.499990  0.500030  0.000000  1
  Zr  Zr6  1  0.673967  0.175121  0.500000  1
  Zr  Zr7  1  0.326133  0.824780  0.500000  1
  Zr  Zr8  1  0.175221  0.326030  0.500000  1
  Zr  Zr9  1  0.824719  0.674022  0.500000  1
  Si  Si10  1  0.566217  0.067263  0.000000  1
  Si  Si11  1  0.433942  0.932584  0.000000  1
  Si  Si12  1  0.067417  0.433782  0.000000  1
  Si  Si13  1  0.932579  0.566221  0.000000  1
  Si  Si14  1  0.665466  0.700277  0.000000  1
  Si  Si15  1  0.334528  0.299857  0.000000  1
  Si  Si16  1  0.164605  0.801294  0.000000  1
  Si  Si17  1  0.835368  0.198677  0.000000  1
  Si  Si18  1  0.299897  0.665490  0.000000  1
  Si  Si19  1  0.700126  0.334529  0.000000  1
  Si  Si20  1  0.198720  0.164601  0.000000  1
  Si  Si21  1  0.801151  0.835411  0.000000  1
  Si  Si22  1  0.652862  0.507597  0.500000  1
  Si  Si23  1  0.347145  0.492423  0.500000  1
  Si  Si24  1  0.156533  0.992875  0.500000  1
  Si  Si25  1  0.843380  0.007121  0.500000  1
  Si  Si26  1  0.492415  0.652935  0.500000  1
  Si  Si27  1  0.507574  0.347131  0.500000  1
  Si  Si28  1  0.007133  0.156527  0.500000  1
  Si  Si29  1  0.992850  0.843465  0.500000  1
  Ir  Ir30  1  0.742913  0.520515  0.000000  1
  Ir  Ir31  1  0.257077  0.479523  0.000000  1
  Ir  Ir32  1  0.245692  0.979477  0.000000  1
  Ir  Ir33  1  0.753993  0.020137  0.000000  1
  Ir  Ir34  1  0.479868  0.743295  0.000000  1
  Ir  Ir35  1  0.520492  0.257013  0.000000  1
  Ir  Ir36  1  0.020502  0.245618  0.000000  1
  Ir  Ir37  1  0.979463  0.754389  0.000000  1
