# generated using pymatgen
data_Tb3Ho(ZnPb)4
_symmetry_space_group_name_H-M   'P 1'
_cell_length_a   4.63611100
_cell_length_b   4.63611084
_cell_length_c   15.90281200
_cell_angle_alpha   90.00000000
_cell_angle_beta   90.00000000
_cell_angle_gamma   119.99999404
_symmetry_Int_Tables_number   1
_chemical_formula_structural   Tb3Ho(ZnPb)4
_chemical_formula_sum   'Tb3 Ho1 Zn4 Pb4'
_cell_volume   296.01397733
_cell_formula_units_Z   1
loop_
 _symmetry_equiv_pos_site_id
 _symmetry_equiv_pos_as_xyz
  1  'x, y, z'
loop_
 _atom_site_type_symbol
 _atom_site_label
 _atom_site_symmetry_multiplicity
 _atom_site_fract_x
 _atom_site_fract_y
 _atom_site_fract_z
 _atom_site_occupancy
  Tb  Tb0  1  0.000000  0.000000  0.999651  1
  Tb  Tb1  1  0.000000  0.000000  0.250000  1
  Tb  Tb2  1  0.000000  0.000000  0.500349  1
  Ho  Ho3  1  0.000000  0.000000  0.750000  1
  Zn  Zn4  1  0.333334  0.666667  0.164829  1
  Zn  Zn5  1  0.333334  0.666667  0.335171  1
  Zn  Zn6  1  0.666666  0.333334  0.665500  1
  Zn  Zn7  1  0.666666  0.333334  0.834500  1
  Pb  Pb8  1  0.666666  0.333334  0.109748  1
  Pb  Pb9  1  0.666666  0.333334  0.390252  1
  Pb  Pb10  1  0.333334  0.666667  0.609880  1
  Pb  Pb11  1  0.333334  0.666667  0.890120  1
