# generated using pymatgen
data_TmZn7Ag5
_symmetry_space_group_name_H-M   'P 1'
_cell_length_a   7.01804509
_cell_length_b   7.01804552
_cell_length_c   7.01804497
_cell_angle_alpha   97.97665801
_cell_angle_beta   97.54490494
_cell_angle_gamma   136.88028162
_symmetry_Int_Tables_number   1
_chemical_formula_structural   TmZn7Ag5
_chemical_formula_sum   'Tm1 Zn7 Ag5'
_cell_volume   219.73425750
_cell_formula_units_Z   1
loop_
 _symmetry_equiv_pos_site_id
 _symmetry_equiv_pos_as_xyz
  1  'x, y, z'
loop_
 _atom_site_type_symbol
 _atom_site_label
 _atom_site_symmetry_multiplicity
 _atom_site_fract_x
 _atom_site_fract_y
 _atom_site_fract_z
 _atom_site_occupancy
  Tm  Tm0  1  0.000000  0.999924  0.999924  1
  Zn  Zn1  1  0.997037  0.998401  0.496431  1
  Zn  Zn2  1  0.498030  0.499394  0.496431  1
  Zn  Zn3  1  0.501970  0.998401  0.001364  1
  Zn  Zn4  1  0.002963  0.499394  0.001364  1
  Zn  Zn5  1  0.500000  0.710465  0.210465  1
  Zn  Zn6  1  0.715158  0.501345  0.216503  1
  Zn  Zn7  1  0.284842  0.501345  0.786187  1
  Ag  Ag8  1  0.000000  0.342848  0.342848  1
  Ag  Ag9  1  0.000000  0.649641  0.649641  1
  Ag  Ag10  1  0.655049  0.999837  0.654886  1
  Ag  Ag11  1  0.344951  0.999837  0.344788  1
  Ag  Ag12  1  0.500000  0.299169  0.799169  1
