# generated using pymatgen
data_Er2TmLu3MnSb2
_symmetry_space_group_name_H-M   'P 1'
_cell_length_a   8.03068600
_cell_length_b   8.03536118
_cell_length_c   4.20702300
_cell_angle_alpha   90.00000000
_cell_angle_beta   90.00000000
_cell_angle_gamma   119.98075521
_symmetry_Int_Tables_number   1
_chemical_formula_structural   Er2TmLu3MnSb2
_chemical_formula_sum   'Er2 Tm1 Lu3 Mn1 Sb2'
_cell_volume   235.15149994
_cell_formula_units_Z   1
loop_
 _symmetry_equiv_pos_site_id
 _symmetry_equiv_pos_as_xyz
  1  'x, y, z'
loop_
 _atom_site_type_symbol
 _atom_site_label
 _atom_site_symmetry_multiplicity
 _atom_site_fract_x
 _atom_site_fract_y
 _atom_site_fract_z
 _atom_site_occupancy
  Er  Er0  1  0.000102  0.605968  0.000000  1
  Er  Er1  1  0.394134  0.394032  0.000000  1
  Tm  Tm2  1  0.606436  0.000000  0.000000  1
  Lu  Lu3  1  0.234011  0.000000  0.500000  1
  Lu  Lu4  1  0.999709  0.233791  0.500000  1
  Lu  Lu5  1  0.765918  0.766209  0.500000  1
  Mn  Mn6  1  0.999432  0.000000  0.000000  1
  Sb  Sb7  1  0.333612  0.666965  0.500000  1
  Sb  Sb8  1  0.666647  0.333035  0.500000  1
