# generated using pymatgen
data_Pr4Mn5IrO19
_symmetry_space_group_name_H-M   'P 1'
_cell_length_a   7.66134849
_cell_length_b   7.69538355
_cell_length_c   7.69538500
_cell_angle_alpha   109.33426458
_cell_angle_beta   109.62721259
_cell_angle_gamma   109.63298645
_symmetry_Int_Tables_number   1
_chemical_formula_structural   Pr4Mn5IrO19
_chemical_formula_sum   'Pr4 Mn5 Ir1 O19'
_cell_volume   348.47225360
_cell_formula_units_Z   1
loop_
 _symmetry_equiv_pos_site_id
 _symmetry_equiv_pos_as_xyz
  1  'x, y, z'
loop_
 _atom_site_type_symbol
 _atom_site_label
 _atom_site_symmetry_multiplicity
 _atom_site_fract_x
 _atom_site_fract_y
 _atom_site_fract_z
 _atom_site_occupancy
  Pr  Pr0  1  0.673365  0.671667  0.676307  1
  Pr  Pr1  1  0.326635  0.002943  0.998302  1
  Pr  Pr2  1  0.981719  0.313783  0.993722  1
  Pr  Pr3  1  0.018281  0.012003  0.332064  1
  Mn  Mn4  1  0.340770  0.843687  0.503591  1
  Mn  Mn5  1  0.659230  0.162821  0.502917  1
  Mn  Mn6  1  0.842264  0.495936  0.341528  1
  Mn  Mn7  1  0.157736  0.499264  0.653673  1
  Mn  Mn8  1  0.500000  0.335641  0.835641  1
  Ir  Ir9  1  0.500000  0.659316  0.159316  1
  O  O10  1  0.652071  0.652227  0.999812  1
  O  O11  1  0.347929  0.347741  0.000156  1
  O  O12  1  0.648935  0.999381  0.647830  1
  O  O13  1  0.351065  0.998895  0.350445  1
  O  O14  1  0.000000  0.646350  0.646350  1
  O  O15  1  0.000000  0.349423  0.349423  1
  O  O16  1  0.000000  0.999825  0.999825  1
  O  O17  1  0.358943  0.614086  0.322372  1
  O  O18  1  0.641057  0.963428  0.255142  1
  O  O19  1  0.709213  0.384934  0.752083  1
  O  O20  1  0.613307  0.322419  0.363538  1
  O  O21  1  0.290787  0.042870  0.675721  1
  O  O22  1  0.960992  0.253769  0.637646  1
  O  O23  1  0.386693  0.750230  0.709113  1
  O  O24  1  0.039008  0.676654  0.292778  1
  O  O25  1  0.328872  0.369441  0.617428  1
  O  O26  1  0.745240  0.702795  0.385155  1
  O  O27  1  0.671128  0.288555  0.040567  1
  O  O28  1  0.254759  0.639916  0.957555  1
