# generated using pymatgen
data_SnP4SeO14
_symmetry_space_group_name_H-M   'P 1'
_cell_length_a   5.14481922
_cell_length_b   6.84100132
_cell_length_c   8.42189199
_cell_angle_alpha   68.48306117
_cell_angle_beta   88.55451720
_cell_angle_gamma   88.39061539
_symmetry_Int_Tables_number   1
_chemical_formula_structural   SnP4SeO14
_chemical_formula_sum   'Sn1 P4 Se1 O14'
_cell_volume   275.61285878
_cell_formula_units_Z   1
loop_
 _symmetry_equiv_pos_site_id
 _symmetry_equiv_pos_as_xyz
  1  'x, y, z'
loop_
 _atom_site_type_symbol
 _atom_site_label
 _atom_site_symmetry_multiplicity
 _atom_site_fract_x
 _atom_site_fract_y
 _atom_site_fract_z
 _atom_site_occupancy
  Sn  Sn0  1  0.756625  0.786201  0.269414  1
  P  P1  1  0.242320  0.110950  0.166477  1
  P  P2  1  0.275516  0.449165  0.312394  1
  P  P3  1  0.723949  0.547173  0.690811  1
  P  P4  1  0.755683  0.893756  0.830319  1
  Se  Se5  1  0.235536  0.211629  0.733496  1
  O  O6  1  0.170504  0.286950  0.480389  1
  O  O7  1  0.042704  0.950888  0.772646  1
  O  O8  1  0.096478  0.640499  0.234153  1
  O  O9  1  0.283395  0.338193  0.174148  1
  O  O10  1  0.307104  0.139875  0.981514  1
  O  O11  1  0.431980  0.956048  0.291199  1
  O  O12  1  0.440429  0.493917  0.678825  1
  O  O13  1  0.556383  0.511709  0.322354  1
  O  O14  1  0.562706  0.044797  0.704786  1
  O  O15  1  0.700025  0.864512  0.014217  1
  O  O16  1  0.726240  0.663529  0.825864  1
  O  O17  1  0.897844  0.350528  0.773411  1
  O  O18  1  0.958799  0.057580  0.220550  1
  O  O19  1  0.835780  0.702100  0.523033  1
