# generated using pymatgen
data_Li8Pd2Au3
_symmetry_space_group_name_H-M   'P 1'
_cell_length_a   8.07613208
_cell_length_b   8.07613342
_cell_length_c   8.07613400
_cell_angle_alpha   109.47122459
_cell_angle_beta   109.47122796
_cell_angle_gamma   109.47121703
_symmetry_Int_Tables_number   1
_chemical_formula_structural   Li8Pd2Au3
_chemical_formula_sum   'Li16 Pd4 Au6'
_cell_volume   405.49778127
_cell_formula_units_Z   2
loop_
 _symmetry_equiv_pos_site_id
 _symmetry_equiv_pos_as_xyz
  1  'x, y, z'
loop_
 _atom_site_type_symbol
 _atom_site_label
 _atom_site_symmetry_multiplicity
 _atom_site_fract_x
 _atom_site_fract_y
 _atom_site_fract_z
 _atom_site_occupancy
  Li  Li0  1  0.380434  0.653687  0.653687  1
  Li  Li1  1  0.619566  0.273253  0.273253  1
  Li  Li2  1  0.000000  0.346313  0.726747  1
  Li  Li3  1  0.653687  0.653687  0.380434  1
  Li  Li4  1  0.000000  0.726747  0.346313  1
  Li  Li5  1  0.273253  0.273253  0.619566  1
  Li  Li6  1  0.346313  0.726747  0.000000  1
  Li  Li7  1  0.726747  0.346313  0.000000  1
  Li  Li8  1  0.653687  0.380434  0.653687  1
  Li  Li9  1  0.726747  0.000000  0.346313  1
  Li  Li10  1  0.346313  0.000000  0.726747  1
  Li  Li11  1  0.273253  0.619566  0.273253  1
  Li  Li12  1  0.782493  0.782493  0.782493  1
  Li  Li13  1  0.217507  0.000000  0.000000  1
  Li  Li14  1  0.000000  0.217507  0.000000  1
  Li  Li15  1  0.000000  0.000000  0.217507  1
  Pd  Pd16  1  0.348000  0.348000  0.348000  1
  Pd  Pd17  1  0.652000  0.000000  0.000000  1
  Pd  Pd18  1  0.000000  0.652000  0.000000  1
  Pd  Pd19  1  0.000000  0.000000  0.652000  1
  Au  Au20  1  0.648799  0.648799  0.000000  1
  Au  Au21  1  0.351201  0.351201  0.000000  1
  Au  Au22  1  0.648799  0.000000  0.648799  1
  Au  Au23  1  0.351201  0.000000  0.351201  1
  Au  Au24  1  0.000000  0.648799  0.648799  1
  Au  Au25  1  0.000000  0.351201  0.351201  1
