# generated using pymatgen
data_Ce2HoTm7(Al2Ru3)2
_symmetry_space_group_name_H-M   'P 1'
_cell_length_a   8.38269900
_cell_length_b   8.30724497
_cell_length_c   8.28414631
_cell_angle_alpha   109.99038982
_cell_angle_beta   109.41913703
_cell_angle_gamma   110.16933063
_symmetry_Int_Tables_number   1
_chemical_formula_structural   Ce2HoTm7(Al2Ru3)2
_chemical_formula_sum   'Ce2 Ho1 Tm7 Al4 Ru6'
_cell_volume   437.56799091
_cell_formula_units_Z   1
loop_
 _symmetry_equiv_pos_site_id
 _symmetry_equiv_pos_as_xyz
  1  'x, y, z'
loop_
 _atom_site_type_symbol
 _atom_site_label
 _atom_site_symmetry_multiplicity
 _atom_site_fract_x
 _atom_site_fract_y
 _atom_site_fract_z
 _atom_site_occupancy
  Ce  Ce0  1  0.942935  0.253355  0.196407  1
  Ce  Ce1  1  0.197451  0.941980  0.252262  1
  Ho  Ho2  1  0.253885  0.186683  0.931029  1
  Tm  Tm3  1  0.780425  0.784073  0.778886  1
  Tm  Tm4  1  0.317760  0.568340  0.753119  1
  Tm  Tm5  1  0.750557  0.317174  0.568954  1
  Tm  Tm6  1  0.569844  0.749216  0.315753  1
  Tm  Tm7  1  0.718919  0.504587  0.998437  1
  Tm  Tm8  1  0.997375  0.718832  0.505870  1
  Tm  Tm9  1  0.503649  0.993987  0.717302  1
  Al  Al10  1  0.417109  0.413718  0.410426  1
  Al  Al11  1  0.091407  0.492510  0.996550  1
  Al  Al12  1  0.998413  0.091008  0.502089  1
  Al  Al13  1  0.500633  0.006427  0.092700  1
  Ru  Ru14  1  0.868354  0.115147  0.740963  1
  Ru  Ru15  1  0.752430  0.897010  0.120746  1
  Ru  Ru16  1  0.122890  0.758801  0.901415  1
  Ru  Ru17  1  0.227190  0.597939  0.367309  1
  Ru  Ru18  1  0.362411  0.225853  0.599053  1
  Ru  Ru19  1  0.626363  0.383362  0.250732  1
