# generated using pymatgen
data_Tm20(OsRh3)3
_symmetry_space_group_name_H-M   'P 1'
_cell_length_a   10.73817100
_cell_length_b   10.73817100
_cell_length_c   6.30885900
_cell_angle_alpha   90.00000000
_cell_angle_beta   90.00000000
_cell_angle_gamma   90.00000000
_symmetry_Int_Tables_number   1
_chemical_formula_structural   Tm20(OsRh3)3
_chemical_formula_sum   'Tm20 Os3 Rh9'
_cell_volume   727.46390985
_cell_formula_units_Z   1
loop_
 _symmetry_equiv_pos_site_id
 _symmetry_equiv_pos_as_xyz
  1  'x, y, z'
loop_
 _atom_site_type_symbol
 _atom_site_label
 _atom_site_symmetry_multiplicity
 _atom_site_fract_x
 _atom_site_fract_y
 _atom_site_fract_z
 _atom_site_occupancy
  Tm  Tm0  1  0.294630  0.086070  0.376068  1
  Tm  Tm1  1  0.294745  0.914215  0.876042  1
  Tm  Tm2  1  0.705255  0.085785  0.876042  1
  Tm  Tm3  1  0.705370  0.913930  0.376068  1
  Tm  Tm4  1  0.585785  0.794745  0.876042  1
  Tm  Tm5  1  0.586070  0.205370  0.376068  1
  Tm  Tm6  1  0.413930  0.794630  0.376068  1
  Tm  Tm7  1  0.414215  0.205255  0.876042  1
  Tm  Tm8  1  0.207762  0.413278  0.626547  1
  Tm  Tm9  1  0.207180  0.586986  0.120276  1
  Tm  Tm10  1  0.792820  0.413014  0.120276  1
  Tm  Tm11  1  0.792238  0.586722  0.626547  1
  Tm  Tm12  1  0.913014  0.707180  0.120276  1
  Tm  Tm13  1  0.913278  0.292238  0.626547  1
  Tm  Tm14  1  0.086722  0.707762  0.626547  1
  Tm  Tm15  1  0.086986  0.292820  0.120276  1
  Tm  Tm16  1  0.000000  0.000000  0.499687  1
  Tm  Tm17  1  0.000000  0.000000  0.000107  1
  Tm  Tm18  1  0.500000  0.500000  0.000107  1
  Tm  Tm19  1  0.500000  0.500000  0.499687  1
  Os  Os20  1  0.500000  0.000000  0.124143  1
  Os  Os21  1  0.500000  0.000000  0.623838  1
  Os  Os22  1  0.000000  0.500000  0.876131  1
  Rh  Rh23  1  0.848884  0.153278  0.250646  1
  Rh  Rh24  1  0.848618  0.847047  0.749897  1
  Rh  Rh25  1  0.151382  0.152953  0.749897  1
  Rh  Rh26  1  0.151116  0.846722  0.250646  1
  Rh  Rh27  1  0.652953  0.348618  0.749897  1
  Rh  Rh28  1  0.653278  0.651116  0.250646  1
  Rh  Rh29  1  0.346722  0.348884  0.250646  1
  Rh  Rh30  1  0.347047  0.651382  0.749897  1
  Rh  Rh31  1  0.000000  0.500000  0.378395  1
