# generated using pymatgen
data_Zr13Ta7Si15P
_symmetry_space_group_name_H-M   'P 1'
_cell_length_a   6.98330038
_cell_length_b   6.98669610
_cell_length_c   12.86632566
_cell_angle_alpha   90.18830081
_cell_angle_beta   90.06923423
_cell_angle_gamma   89.94288148
_symmetry_Int_Tables_number   1
_chemical_formula_structural   Zr13Ta7Si15P
_chemical_formula_sum   'Zr13 Ta7 Si15 P1'
_cell_volume   627.74641321
_cell_formula_units_Z   1
loop_
 _symmetry_equiv_pos_site_id
 _symmetry_equiv_pos_as_xyz
  1  'x, y, z'
loop_
 _atom_site_type_symbol
 _atom_site_label
 _atom_site_symmetry_multiplicity
 _atom_site_fract_x
 _atom_site_fract_y
 _atom_site_fract_z
 _atom_site_occupancy
  Zr  Zr0  1  0.000396  0.850551  0.621942  1
  Zr  Zr1  1  0.648646  0.496570  0.877259  1
  Zr  Zr2  1  0.502682  0.350214  0.622052  1
  Zr  Zr3  1  0.500053  0.647460  0.125660  1
  Zr  Zr4  1  0.146249  0.999792  0.874199  1
  Zr  Zr5  1  0.002092  0.653296  0.036862  1
  Zr  Zr6  1  0.001780  0.350235  0.528305  1
  Zr  Zr7  1  0.653825  0.999106  0.969257  1
  Zr  Zr8  1  0.151674  0.497960  0.783654  1
  Zr  Zr9  1  0.846458  0.500097  0.281964  1
  Zr  Zr10  1  0.500910  0.155059  0.220726  1
  Zr  Zr11  1  0.502634  0.846732  0.714268  1
  Zr  Zr12  1  0.343535  0.000583  0.465241  1
  Ta  Ta13  1  0.347450  0.508043  0.375290  1
  Ta  Ta14  1  0.854341  0.993147  0.374767  1
  Ta  Ta15  1  0.008235  0.148270  0.127374  1
  Ta  Ta16  1  0.672821  0.672113  0.496515  1
  Ta  Ta17  1  0.826307  0.172305  0.749583  1
  Ta  Ta18  1  0.169932  0.829455  0.252487  1
  Ta  Ta19  1  0.326391  0.325003  0.002420  1
  Si  Si20  1  0.954485  0.299054  0.938797  1
  Si  Si21  1  0.700745  0.046503  0.561011  1
  Si  Si22  1  0.201416  0.450150  0.187575  1
  Si  Si23  1  0.801102  0.546015  0.684890  1
  Si  Si24  1  0.452909  0.197324  0.814739  1
  Si  Si25  1  0.548459  0.800008  0.314796  1
  Si  Si26  1  0.299179  0.954569  0.066371  1
  Si  Si27  1  0.852559  0.796807  0.819463  1
  Si  Si28  1  0.137307  0.208087  0.322552  1
  Si  Si29  1  0.797231  0.865519  0.179497  1
  Si  Si30  1  0.300458  0.643170  0.569727  1
  Si  Si31  1  0.710012  0.353078  0.074880  1
  Si  Si32  1  0.637992  0.292817  0.423576  1
  Si  Si33  1  0.354313  0.702377  0.930454  1
  Si  Si34  1  0.200243  0.147056  0.678551  1
  P  P35  1  0.045176  0.701473  0.433296  1
