# generated using pymatgen
data_Nd8CoHg2Pt
_symmetry_space_group_name_H-M   'P 1'
_cell_length_a   9.89160858
_cell_length_b   9.89160742
_cell_length_c   9.88394500
_cell_angle_alpha   60.02561819
_cell_angle_beta   60.02562206
_cell_angle_gamma   60.23968270
_symmetry_Int_Tables_number   1
_chemical_formula_structural   Nd8CoHg2Pt
_chemical_formula_sum   'Nd16 Co2 Hg4 Pt2'
_cell_volume   685.32773891
_cell_formula_units_Z   2
loop_
 _symmetry_equiv_pos_site_id
 _symmetry_equiv_pos_as_xyz
  1  'x, y, z'
loop_
 _atom_site_type_symbol
 _atom_site_label
 _atom_site_symmetry_multiplicity
 _atom_site_fract_x
 _atom_site_fract_y
 _atom_site_fract_z
 _atom_site_occupancy
  Nd  Nd0  1  0.346548  0.346548  0.359210  1
  Nd  Nd1  1  0.346548  0.346548  0.947694  1
  Nd  Nd2  1  0.341462  0.954691  0.351923  1
  Nd  Nd3  1  0.954691  0.341462  0.351923  1
  Nd  Nd4  1  0.819079  0.190202  0.189823  1
  Nd  Nd5  1  0.190202  0.819079  0.800896  1
  Nd  Nd6  1  0.190202  0.819079  0.189823  1
  Nd  Nd7  1  0.819079  0.190202  0.800896  1
  Nd  Nd8  1  0.188779  0.188779  0.811221  1
  Nd  Nd9  1  0.808122  0.808122  0.191878  1
  Nd  Nd10  1  0.937043  0.561335  0.563319  1
  Nd  Nd11  1  0.561335  0.937043  0.938303  1
  Nd  Nd12  1  0.561335  0.937043  0.563319  1
  Nd  Nd13  1  0.937043  0.561335  0.938303  1
  Nd  Nd14  1  0.559951  0.559951  0.940049  1
  Nd  Nd15  1  0.935264  0.935264  0.564736  1
  Co  Co16  1  0.142697  0.142697  0.140848  1
  Co  Co17  1  0.142697  0.142697  0.573759  1
  Hg  Hg18  1  0.583788  0.583788  0.582701  1
  Hg  Hg19  1  0.583788  0.583788  0.249726  1
  Hg  Hg20  1  0.585539  0.246903  0.583780  1
  Hg  Hg21  1  0.246903  0.585539  0.583780  1
  Pt  Pt22  1  0.145389  0.572519  0.141046  1
  Pt  Pt23  1  0.572519  0.145389  0.141046  1
