# generated using pymatgen
data_La6CdIn8As
_symmetry_space_group_name_H-M   'P 1'
_cell_length_a   8.71869721
_cell_length_b   8.71869785
_cell_length_c   8.71869846
_cell_angle_alpha   119.80665632
_cell_angle_beta   119.80665804
_cell_angle_gamma   90.33520042
_symmetry_Int_Tables_number   1
_chemical_formula_structural   La6CdIn8As
_chemical_formula_sum   'La6 Cd1 In8 As1'
_cell_volume   470.00142992
_cell_formula_units_Z   1
loop_
 _symmetry_equiv_pos_site_id
 _symmetry_equiv_pos_as_xyz
  1  'x, y, z'
loop_
 _atom_site_type_symbol
 _atom_site_label
 _atom_site_symmetry_multiplicity
 _atom_site_fract_x
 _atom_site_fract_y
 _atom_site_fract_z
 _atom_site_occupancy
  La  La0  1  0.765082  0.765082  0.000000  1
  La  La1  1  0.234918  0.234918  0.000000  1
  La  La2  1  0.323037  0.853900  0.176936  1
  La  La3  1  0.676963  0.146100  0.823064  1
  La  La4  1  0.853900  0.676963  0.530863  1
  La  La5  1  0.146100  0.323037  0.469137  1
  Cd  Cd6  1  0.500000  0.500000  0.000000  1
  In  In7  1  0.966785  0.451316  0.787429  1
  In  In8  1  0.663888  0.179356  0.212571  1
  In  In9  1  0.451316  0.663888  0.484531  1
  In  In10  1  0.179356  0.966785  0.515469  1
  In  In11  1  0.033215  0.548684  0.212571  1
  In  In12  1  0.336112  0.820644  0.787429  1
  In  In13  1  0.548684  0.336112  0.515469  1
  In  In14  1  0.820644  0.033215  0.484531  1
  As  As15  1  0.000000  0.000000  0.000000  1
