# generated using pymatgen
data_Hf12Cu5Ir7N4
_symmetry_space_group_name_H-M   'P 1'
_cell_length_a   8.43468123
_cell_length_b   8.41260700
_cell_length_c   8.43468000
_cell_angle_alpha   59.91315950
_cell_angle_beta   59.99999699
_cell_angle_gamma   59.91315823
_symmetry_Int_Tables_number   1
_chemical_formula_structural   Hf12Cu5Ir7N4
_chemical_formula_sum   'Hf12 Cu5 Ir7 N4'
_cell_volume   422.65068113
_cell_formula_units_Z   1
loop_
 _symmetry_equiv_pos_site_id
 _symmetry_equiv_pos_as_xyz
  1  'x, y, z'
loop_
 _atom_site_type_symbol
 _atom_site_label
 _atom_site_symmetry_multiplicity
 _atom_site_fract_x
 _atom_site_fract_y
 _atom_site_fract_z
 _atom_site_occupancy
  Hf  Hf0  1  0.805684  0.189051  0.199580  1
  Hf  Hf1  1  0.194192  0.806230  0.194192  1
  Hf  Hf2  1  0.805386  0.806230  0.194192  1
  Hf  Hf3  1  0.194192  0.806230  0.805386  1
  Hf  Hf4  1  0.805684  0.189051  0.805684  1
  Hf  Hf5  1  0.199580  0.189051  0.805684  1
  Hf  Hf6  1  0.442466  0.057854  0.057214  1
  Hf  Hf7  1  0.058154  0.443941  0.058154  1
  Hf  Hf8  1  0.439752  0.443941  0.058154  1
  Hf  Hf9  1  0.058154  0.443941  0.439752  1
  Hf  Hf10  1  0.442466  0.057854  0.442466  1
  Hf  Hf11  1  0.057214  0.057854  0.442466  1
  Cu  Cu12  1  0.832161  0.503518  0.832161  1
  Cu  Cu13  1  0.630712  0.618296  0.120280  1
  Cu  Cu14  1  0.630712  0.618296  0.630712  1
  Cu  Cu15  1  0.120280  0.618296  0.630712  1
  Cu  Cu16  1  0.624774  0.125678  0.624774  1
  Ir  Ir17  1  0.414136  0.416029  0.755698  1
  Ir  Ir18  1  0.414136  0.416029  0.414136  1
  Ir  Ir19  1  0.755698  0.416029  0.414136  1
  Ir  Ir20  1  0.415072  0.754782  0.415072  1
  Ir  Ir21  1  0.836564  0.836530  0.490343  1
  Ir  Ir22  1  0.836564  0.836530  0.836564  1
  Ir  Ir23  1  0.490343  0.836530  0.836564  1
  N  N24  1  0.122944  0.128857  0.625255  1
  N  N25  1  0.122944  0.128857  0.122944  1
  N  N26  1  0.625255  0.128857  0.122944  1
  N  N27  1  0.124780  0.625660  0.124780  1
