# generated using pymatgen
data_PrEr2Cd(Ir2O7)2
_symmetry_space_group_name_H-M   'P 1'
_cell_length_a   7.21090316
_cell_length_b   7.35230273
_cell_length_c   7.31373100
_cell_angle_alpha   60.17338754
_cell_angle_beta   59.52714487
_cell_angle_gamma   59.52492767
_symmetry_Int_Tables_number   1
_chemical_formula_structural   PrEr2Cd(Ir2O7)2
_chemical_formula_sum   'Pr1 Er2 Cd1 Ir4 O14'
_cell_volume   272.54978442
_cell_formula_units_Z   1
loop_
 _symmetry_equiv_pos_site_id
 _symmetry_equiv_pos_as_xyz
  1  'x, y, z'
loop_
 _atom_site_type_symbol
 _atom_site_label
 _atom_site_symmetry_multiplicity
 _atom_site_fract_x
 _atom_site_fract_y
 _atom_site_fract_z
 _atom_site_occupancy
  Pr  Pr0  1  0.125000  0.625000  0.125000  1
  Er  Er1  1  0.125000  0.125000  0.625000  1
  Er  Er2  1  0.125000  0.125000  0.125000  1
  Cd  Cd3  1  0.625000  0.125000  0.125000  1
  Ir  Ir4  1  0.625000  0.625000  0.625000  1
  Ir  Ir5  1  0.125000  0.625000  0.625000  1
  Ir  Ir6  1  0.625000  0.125000  0.625000  1
  Ir  Ir7  1  0.625000  0.625000  0.125000  1
  O  O8  1  0.963332  0.529137  0.548487  1
  O  O9  1  0.287828  0.290946  0.710613  1
  O  O10  1  0.963332  0.529137  0.959045  1
  O  O11  1  0.713389  0.295799  0.297626  1
  O  O12  1  0.550354  0.544444  0.952601  1
  O  O13  1  0.536611  0.954201  0.556814  1
  O  O14  1  0.536611  0.954201  0.952374  1
  O  O15  1  0.250207  0.235893  0.256949  1
  O  O16  1  0.286668  0.720863  0.701513  1
  O  O17  1  0.713389  0.295799  0.693186  1
  O  O18  1  0.999793  0.014107  0.993051  1
  O  O19  1  0.962172  0.959054  0.539387  1
  O  O20  1  0.286668  0.720863  0.290955  1
  O  O21  1  0.699646  0.705556  0.297399  1
