# generated using pymatgen
data_Dy5P12Ru10Rh9
_symmetry_space_group_name_H-M   'P 1'
_cell_length_a   12.62476267
_cell_length_b   12.59403921
_cell_length_c   3.93504200
_cell_angle_alpha   90.00000000
_cell_angle_beta   90.00000000
_cell_angle_gamma   119.84913876
_symmetry_Int_Tables_number   1
_chemical_formula_structural   Dy5P12Ru10Rh9
_chemical_formula_sum   'Dy5 P12 Ru10 Rh9'
_cell_volume   542.65832144
_cell_formula_units_Z   1
loop_
 _symmetry_equiv_pos_site_id
 _symmetry_equiv_pos_as_xyz
  1  'x, y, z'
loop_
 _atom_site_type_symbol
 _atom_site_label
 _atom_site_symmetry_multiplicity
 _atom_site_fract_x
 _atom_site_fract_y
 _atom_site_fract_z
 _atom_site_occupancy
  Dy  Dy0  1  0.666808  0.332632  0.000000  1
  Dy  Dy1  1  0.333400  0.666819  0.000000  1
  Dy  Dy2  1  0.811873  0.000978  0.500000  1
  Dy  Dy3  1  0.185978  0.187564  0.500000  1
  Dy  Dy4  1  0.999873  0.812709  0.500000  1
  P  P5  1  0.630887  0.997721  0.000000  1
  P  P6  1  0.366377  0.372073  0.000000  1
  P  P7  1  0.005965  0.633313  0.000000  1
  P  P8  1  0.687016  0.519854  0.500000  1
  P  P9  1  0.831189  0.308292  0.500000  1
  P  P10  1  0.314650  0.832310  0.500000  1
  P  P11  1  0.517962  0.686019  0.500000  1
  P  P12  1  0.180341  0.001207  0.000000  1
  P  P13  1  0.819898  0.819593  0.000000  1
  P  P14  1  0.996047  0.180011  0.000000  1
  P  P15  1  0.479123  0.165517  0.500000  1
  P  P16  1  0.168091  0.482664  0.500000  1
  Ru  Ru17  1  0.126959  0.641252  0.500000  1
  Ru  Ru18  1  0.360361  0.487143  0.500000  1
  Ru  Ru19  1  0.512580  0.871736  0.500000  1
  Ru  Ru20  1  0.717102  0.715894  0.500000  1
  Ru  Ru21  1  0.001127  0.284765  0.500000  1
  Ru  Ru22  1  0.450410  0.002566  0.000000  1
  Ru  Ru23  1  0.553147  0.548155  0.000000  1
  Ru  Ru24  1  0.000301  0.449089  0.000000  1
  Ru  Ru25  1  0.817041  0.195043  0.000000  1
  Ru  Ru26  1  0.283688  0.001234  0.500000  1
  Rh  Rh27  1  0.624550  0.804051  0.000000  1
  Rh  Rh28  1  0.180853  0.375429  0.000000  1
  Rh  Rh29  1  0.375159  0.184057  0.000000  1
  Rh  Rh30  1  0.195765  0.821162  0.000000  1
  Rh  Rh31  1  0.808581  0.624108  0.000000  1
  Rh  Rh32  1  0.869989  0.507651  0.500000  1
  Rh  Rh33  1  0.490124  0.359702  0.500000  1
  Rh  Rh34  1  0.637079  0.127501  0.500000  1
  Rh  Rh35  1  0.999708  0.000184  0.000000  1
