# generated using pymatgen
data_CrGa2NiPt4
_symmetry_space_group_name_H-M   'P 1'
_cell_length_a   5.41857945
_cell_length_b   5.41857967
_cell_length_c   3.99583300
_cell_angle_alpha   90.00000000
_cell_angle_beta   90.00000000
_cell_angle_gamma   96.31679814
_symmetry_Int_Tables_number   1
_chemical_formula_structural   CrGa2NiPt4
_chemical_formula_sum   'Cr1 Ga2 Ni1 Pt4'
_cell_volume   116.60938030
_cell_formula_units_Z   1
loop_
 _symmetry_equiv_pos_site_id
 _symmetry_equiv_pos_as_xyz
  1  'x, y, z'
loop_
 _atom_site_type_symbol
 _atom_site_label
 _atom_site_symmetry_multiplicity
 _atom_site_fract_x
 _atom_site_fract_y
 _atom_site_fract_z
 _atom_site_occupancy
  Cr  Cr0  1  0.724144  0.275856  0.500000  1
  Ga  Ga1  1  0.981276  0.018724  0.000000  1
  Ga  Ga2  1  0.291950  0.708050  0.500000  1
  Ni  Ni3  1  0.507543  0.492457  0.000000  1
  Pt  Pt4  1  0.486375  0.994129  0.000000  1
  Pt  Pt5  1  0.005871  0.513625  0.000000  1
  Pt  Pt6  1  0.775068  0.772228  0.500000  1
  Pt  Pt7  1  0.227772  0.224932  0.500000  1
