# generated using pymatgen
data_Tb2LuAl3SiAu2
_symmetry_space_group_name_H-M   'P 1'
_cell_length_a   6.96809652
_cell_length_b   7.03116730
_cell_length_c   4.30482300
_cell_angle_alpha   90.00000000
_cell_angle_beta   90.00000000
_cell_angle_gamma   120.00611849
_symmetry_Int_Tables_number   1
_chemical_formula_structural   Tb2LuAl3SiAu2
_chemical_formula_sum   'Tb2 Lu1 Al3 Si1 Au2'
_cell_volume   182.64203654
_cell_formula_units_Z   1
loop_
 _symmetry_equiv_pos_site_id
 _symmetry_equiv_pos_as_xyz
  1  'x, y, z'
loop_
 _atom_site_type_symbol
 _atom_site_label
 _atom_site_symmetry_multiplicity
 _atom_site_fract_x
 _atom_site_fract_y
 _atom_site_fract_z
 _atom_site_occupancy
  Tb  Tb0  1  0.424543  0.421925  0.500000  1
  Tb  Tb1  1  0.579033  0.005339  0.500000  1
  Lu  Lu2  1  0.999356  0.578187  0.500000  1
  Al  Al3  1  0.752811  0.758494  0.000000  1
  Al  Al4  1  0.240518  0.992661  0.000000  1
  Al  Al5  1  0.004861  0.248487  0.000000  1
  Si  Si6  1  0.671541  0.335994  0.000000  1
  Au  Au7  1  0.327027  0.664603  0.000000  1
  Au  Au8  1  0.000308  0.994311  0.500000  1
