# generated using pymatgen
data_Ho4ReTc2Os5
_symmetry_space_group_name_H-M   'P 1'
_cell_length_a   5.30720501
_cell_length_b   5.21414160
_cell_length_c   8.92867800
_cell_angle_alpha   90.00000000
_cell_angle_beta   90.00000000
_cell_angle_gamma   117.73547492
_symmetry_Int_Tables_number   1
_chemical_formula_structural   Ho4ReTc2Os5
_chemical_formula_sum   'Ho4 Re1 Tc2 Os5'
_cell_volume   218.69102374
_cell_formula_units_Z   1
loop_
 _symmetry_equiv_pos_site_id
 _symmetry_equiv_pos_as_xyz
  1  'x, y, z'
loop_
 _atom_site_type_symbol
 _atom_site_label
 _atom_site_symmetry_multiplicity
 _atom_site_fract_x
 _atom_site_fract_y
 _atom_site_fract_z
 _atom_site_occupancy
  Ho  Ho0  1  0.330812  0.665973  0.436899  1
  Ho  Ho1  1  0.669954  0.332191  0.565050  1
  Ho  Ho2  1  0.669954  0.332191  0.934950  1
  Ho  Ho3  1  0.330812  0.665973  0.063101  1
  Re  Re4  1  0.168643  0.833562  0.750000  1
  Tc  Tc5  1  0.827796  0.174323  0.250000  1
  Tc  Tc6  1  0.827914  0.657753  0.250000  1
  Os  Os7  1  0.003190  0.993893  0.500372  1
  Os  Os8  1  0.003190  0.993893  0.999628  1
  Os  Os9  1  0.341757  0.171853  0.250000  1
  Os  Os10  1  0.172049  0.348948  0.750000  1
  Os  Os11  1  0.653927  0.829448  0.750000  1
