# generated using pymatgen
data_Ce2BeSi4Ni
_symmetry_space_group_name_H-M   'P 1'
_cell_length_a   8.36548664
_cell_length_b   8.36548711
_cell_length_c   4.04523600
_cell_angle_alpha   90.00000000
_cell_angle_beta   90.00000000
_cell_angle_gamma   151.50743108
_symmetry_Int_Tables_number   1
_chemical_formula_structural   Ce2BeSi4Ni
_chemical_formula_sum   'Ce2 Be1 Si4 Ni1'
_cell_volume   135.04715906
_cell_formula_units_Z   1
loop_
 _symmetry_equiv_pos_site_id
 _symmetry_equiv_pos_as_xyz
  1  'x, y, z'
loop_
 _atom_site_type_symbol
 _atom_site_label
 _atom_site_symmetry_multiplicity
 _atom_site_fract_x
 _atom_site_fract_y
 _atom_site_fract_z
 _atom_site_occupancy
  Ce  Ce0  1  0.109080  0.890920  0.250000  1
  Ce  Ce1  1  0.897269  0.102731  0.750000  1
  Be  Be2  1  0.675585  0.324415  0.750000  1
  Si  Si3  1  0.750125  0.249875  0.250000  1
  Si  Si4  1  0.249767  0.750233  0.750000  1
  Si  Si5  1  0.538393  0.461607  0.750000  1
  Si  Si6  1  0.461269  0.538731  0.250000  1
  Ni  Ni7  1  0.318513  0.681487  0.250000  1
