# generated using pymatgen
data_Li8Nd8Ga3Sb5
_symmetry_space_group_name_H-M   'P 1'
_cell_length_a   9.30039133
_cell_length_b   9.30159431
_cell_length_c   7.34118800
_cell_angle_alpha   90.00000616
_cell_angle_beta   89.90299550
_cell_angle_gamma   120.00427610
_symmetry_Int_Tables_number   1
_chemical_formula_structural   Li8Nd8Ga3Sb5
_chemical_formula_sum   'Li8 Nd8 Ga3 Sb5'
_cell_volume   549.96626344
_cell_formula_units_Z   1
loop_
 _symmetry_equiv_pos_site_id
 _symmetry_equiv_pos_as_xyz
  1  'x, y, z'
loop_
 _atom_site_type_symbol
 _atom_site_label
 _atom_site_symmetry_multiplicity
 _atom_site_fract_x
 _atom_site_fract_y
 _atom_site_fract_z
 _atom_site_occupancy
  Li  Li0  1  0.172810  0.339371  0.281099  1
  Li  Li1  1  0.172810  0.833440  0.281099  1
  Li  Li2  1  0.659116  0.829558  0.284946  1
  Li  Li3  1  0.828704  0.659712  0.783260  1
  Li  Li4  1  0.828704  0.168992  0.783260  1
  Li  Li5  1  0.341505  0.170752  0.783714  1
  Li  Li6  1  0.334066  0.667033  0.672065  1
  Li  Li7  1  0.661911  0.330955  0.173747  1
  Nd  Nd8  1  0.508781  0.029387  0.493858  1
  Nd  Nd9  1  0.508781  0.479396  0.493858  1
  Nd  Nd10  1  0.975049  0.487525  0.497653  1
  Nd  Nd11  1  0.483483  0.979022  0.001914  1
  Nd  Nd12  1  0.483483  0.504459  0.001914  1
  Nd  Nd13  1  0.025054  0.512527  0.998723  1
  Nd  Nd14  1  0.007073  0.003537  0.492674  1
  Nd  Nd15  1  0.010621  0.005311  0.002978  1
  Ga  Ga16  1  0.331742  0.165871  0.230442  1
  Ga  Ga17  1  0.331771  0.665886  0.260042  1
  Ga  Ga18  1  0.668035  0.334017  0.761504  1
  Sb  Sb19  1  0.165916  0.332280  0.733132  1
  Sb  Sb20  1  0.165916  0.833638  0.733132  1
  Sb  Sb21  1  0.667750  0.833875  0.731676  1
  Sb  Sb22  1  0.833459  0.666875  0.232645  1
  Sb  Sb23  1  0.833459  0.166583  0.232645  1
