# generated using pymatgen
data_Tb4Er4Tm4Co5Sn
_symmetry_space_group_name_H-M   'P 1'
_cell_length_a   8.22367024
_cell_length_b   8.22367152
_cell_length_c   8.22366912
_cell_angle_alpha   107.06571570
_cell_angle_beta   110.80896394
_cell_angle_gamma   110.56551593
_symmetry_Int_Tables_number   1
_chemical_formula_structural   Tb4Er4Tm4Co5Sn
_chemical_formula_sum   'Tb4 Er4 Tm4 Co5 Sn1'
_cell_volume   427.56457592
_cell_formula_units_Z   1
loop_
 _symmetry_equiv_pos_site_id
 _symmetry_equiv_pos_as_xyz
  1  'x, y, z'
loop_
 _atom_site_type_symbol
 _atom_site_label
 _atom_site_symmetry_multiplicity
 _atom_site_fract_x
 _atom_site_fract_y
 _atom_site_fract_z
 _atom_site_occupancy
  Tb  Tb0  1  0.478122  0.290949  0.187145  1
  Tb  Tb1  1  0.103805  0.290949  0.812829  1
  Tb  Tb2  1  0.896195  0.709051  0.187171  1
  Tb  Tb3  1  0.521878  0.709051  0.812855  1
  Er  Er4  1  0.192372  0.209180  0.401543  1
  Er  Er5  1  0.807628  0.790820  0.598457  1
  Er  Er6  1  0.192363  0.790820  0.983190  1
  Er  Er7  1  0.807637  0.209180  0.016810  1
  Tm  Tm8  1  0.307272  0.621677  0.314406  1
  Tm  Tm9  1  0.307247  0.992854  0.685606  1
  Tm  Tm10  1  0.692728  0.378323  0.685594  1
  Tm  Tm11  1  0.692753  0.007146  0.314394  1
  Co  Co12  1  0.500002  0.613359  0.113357  1
  Co  Co13  1  0.499998  0.386641  0.886643  1
  Co  Co14  1  0.376417  0.000000  0.376417  1
  Co  Co15  1  0.623583  0.000000  0.623583  1
  Co  Co16  1  0.000000  0.000000  0.000000  1
  Sn  Sn17  1  0.000000  0.500000  0.500000  1
