# generated using pymatgen
data_Ta3TiCrP4Rh3
_symmetry_space_group_name_H-M   'P 1'
_cell_length_a   3.66925400
_cell_length_b   6.31793120
_cell_length_c   7.26326776
_cell_angle_alpha   89.81381464
_cell_angle_beta   90.00000000
_cell_angle_gamma   90.00000000
_symmetry_Int_Tables_number   1
_chemical_formula_structural   Ta3TiCrP4Rh3
_chemical_formula_sum   'Ta3 Ti1 Cr1 P4 Rh3'
_cell_volume   168.37686915
_cell_formula_units_Z   1
loop_
 _symmetry_equiv_pos_site_id
 _symmetry_equiv_pos_as_xyz
  1  'x, y, z'
loop_
 _atom_site_type_symbol
 _atom_site_label
 _atom_site_symmetry_multiplicity
 _atom_site_fract_x
 _atom_site_fract_y
 _atom_site_fract_z
 _atom_site_occupancy
  Ta  Ta0  1  0.250000  0.034949  0.835393  1
  Ta  Ta1  1  0.250000  0.520471  0.674950  1
  Ta  Ta2  1  0.750000  0.470906  0.325045  1
  Ti  Ti3  1  0.750000  0.975084  0.167355  1
  Cr  Cr4  1  0.750000  0.360556  0.938144  1
  P  P5  1  0.250000  0.761806  0.371574  1
  P  P6  1  0.250000  0.259891  0.121015  1
  P  P7  1  0.750000  0.237280  0.635539  1
  P  P8  1  0.750000  0.732921  0.872882  1
  Rh  Rh9  1  0.250000  0.146499  0.432238  1
  Rh  Rh10  1  0.250000  0.646154  0.062036  1
  Rh  Rh11  1  0.750000  0.853483  0.563828  1
