# generated using pymatgen
data_TbDyMn2(CuO5)2
_symmetry_space_group_name_H-M   'P 1'
_cell_length_a   5.65442600
_cell_length_b   7.52913132
_cell_length_c   8.47861435
_cell_angle_alpha   89.96685499
_cell_angle_beta   90.00000000
_cell_angle_gamma   90.00000000
_symmetry_Int_Tables_number   1
_chemical_formula_structural   TbDyMn2(CuO5)2
_chemical_formula_sum   'Tb2 Dy2 Mn4 Cu4 O20'
_cell_volume   360.95927517
_cell_formula_units_Z   2
loop_
 _symmetry_equiv_pos_site_id
 _symmetry_equiv_pos_as_xyz
  1  'x, y, z'
loop_
 _atom_site_type_symbol
 _atom_site_label
 _atom_site_symmetry_multiplicity
 _atom_site_fract_x
 _atom_site_fract_y
 _atom_site_fract_z
 _atom_site_occupancy
  Tb  Tb0  1  0.000000  0.351771  0.674291  1
  Tb  Tb1  1  0.000000  0.648229  0.325709  1
  Dy  Dy2  1  0.000000  0.851589  0.825749  1
  Dy  Dy3  1  0.000000  0.148411  0.174251  1
  Mn  Mn4  1  0.259731  0.500000  0.000000  1
  Mn  Mn5  1  0.740261  0.000000  0.500000  1
  Mn  Mn6  1  0.740269  0.500000  0.000000  1
  Mn  Mn7  1  0.259739  0.000000  0.500000  1
  Cu  Cu8  1  0.500000  0.071277  0.849885  1
  Cu  Cu9  1  0.500000  0.928723  0.150115  1
  Cu  Cu10  1  0.500000  0.571551  0.650466  1
  Cu  Cu11  1  0.500000  0.428449  0.349534  1
  O  O12  1  0.242019  0.905214  0.286705  1
  O  O13  1  0.242019  0.094786  0.713295  1
  O  O14  1  0.757992  0.404247  0.213074  1
  O  O15  1  0.757992  0.595753  0.786926  1
  O  O16  1  0.757981  0.094786  0.713295  1
  O  O17  1  0.757981  0.905214  0.286705  1
  O  O18  1  0.242008  0.595753  0.786926  1
  O  O19  1  0.242008  0.404247  0.213074  1
  O  O20  1  0.500000  0.347441  0.938518  1
  O  O21  1  0.500000  0.652559  0.061482  1
  O  O22  1  0.500000  0.847391  0.561356  1
  O  O23  1  0.500000  0.152609  0.438644  1
  O  O24  1  0.272392  0.000000  0.000000  1
  O  O25  1  0.726707  0.500000  0.500000  1
  O  O26  1  0.727608  0.000000  0.000000  1
  O  O27  1  0.273293  0.500000  0.500000  1
  O  O28  1  0.000000  0.164378  0.447850  1
  O  O29  1  0.000000  0.835622  0.552150  1
  O  O30  1  0.000000  0.664743  0.051020  1
  O  O31  1  0.000000  0.335257  0.948980  1
