# generated using pymatgen
data_Ta2NbB2Os5
_symmetry_space_group_name_H-M   'P 1'
_cell_length_a   9.56878814
_cell_length_b   9.56878814
_cell_length_c   3.01815900
_cell_angle_alpha   90.00000000
_cell_angle_beta   90.00000000
_cell_angle_gamma   90.05593782
_symmetry_Int_Tables_number   1
_chemical_formula_structural   Ta2NbB2Os5
_chemical_formula_sum   'Ta4 Nb2 B4 Os10'
_cell_volume   276.34765673
_cell_formula_units_Z   2
loop_
 _symmetry_equiv_pos_site_id
 _symmetry_equiv_pos_as_xyz
  1  'x, y, z'
loop_
 _atom_site_type_symbol
 _atom_site_label
 _atom_site_symmetry_multiplicity
 _atom_site_fract_x
 _atom_site_fract_y
 _atom_site_fract_z
 _atom_site_occupancy
  Ta  Ta0  1  0.322898  0.822898  0.000000  1
  Ta  Ta1  1  0.677102  0.177102  0.000000  1
  Ta  Ta2  1  0.500000  0.500000  0.000000  1
  Ta  Ta3  1  0.000000  0.000000  0.000000  1
  Nb  Nb4  1  0.822932  0.677068  0.000000  1
  Nb  Nb5  1  0.177068  0.322932  0.000000  1
  B  B6  1  0.621073  0.878927  0.000000  1
  B  B7  1  0.378927  0.121073  0.000000  1
  B  B8  1  0.120980  0.620980  0.000000  1
  B  B9  1  0.879020  0.379020  0.000000  1
  Os  Os10  1  0.571571  0.718840  0.500000  1
  Os  Os11  1  0.428429  0.281160  0.500000  1
  Os  Os12  1  0.071946  0.781374  0.500000  1
  Os  Os13  1  0.928054  0.218626  0.500000  1
  Os  Os14  1  0.281374  0.571946  0.500000  1
  Os  Os15  1  0.718626  0.428054  0.500000  1
  Os  Os16  1  0.218840  0.071571  0.500000  1
  Os  Os17  1  0.781160  0.928429  0.500000  1
  Os  Os18  1  0.500000  0.000000  0.500000  1
  Os  Os19  1  0.000000  0.500000  0.500000  1
