# generated using pymatgen
data_Ba2YbCe(CuSe3)2
_symmetry_space_group_name_H-M   'P 1'
_cell_length_a   7.36436563
_cell_length_b   7.36436460
_cell_length_c   10.84868189
_cell_angle_alpha   87.91692953
_cell_angle_beta   92.08306998
_cell_angle_gamma   146.45867676
_symmetry_Int_Tables_number   1
_chemical_formula_structural   Ba2YbCe(CuSe3)2
_chemical_formula_sum   'Ba2 Yb1 Ce1 Cu2 Se6'
_cell_volume   324.86040343
_cell_formula_units_Z   1
loop_
 _symmetry_equiv_pos_site_id
 _symmetry_equiv_pos_as_xyz
  1  'x, y, z'
loop_
 _atom_site_type_symbol
 _atom_site_label
 _atom_site_symmetry_multiplicity
 _atom_site_fract_x
 _atom_site_fract_y
 _atom_site_fract_z
 _atom_site_occupancy
  Ba  Ba0  1  0.253906  0.746094  0.278337  1
  Ba  Ba1  1  0.746094  0.253906  0.721663  1
  Yb  Yb2  1  0.000000  0.000000  0.500000  1
  Ce  Ce3  1  0.000000  0.000000  0.000000  1
  Cu  Cu4  1  0.532319  0.467681  0.249529  1
  Cu  Cu5  1  0.467681  0.532319  0.750471  1
  Se  Se6  1  0.633976  0.366024  0.437825  1
  Se  Se7  1  0.366024  0.633976  0.562175  1
  Se  Se8  1  0.633122  0.366878  0.070340  1
  Se  Se9  1  0.366878  0.633122  0.929660  1
  Se  Se10  1  0.933075  0.066925  0.242891  1
  Se  Se11  1  0.066925  0.933075  0.757109  1
