# generated using pymatgen
data_K3Rb(SnAs)12
_symmetry_space_group_name_H-M   'P 1'
_cell_length_a   4.16569200
_cell_length_b   10.53848517
_cell_length_c   19.80700079
_cell_angle_alpha   90.35767261
_cell_angle_beta   90.00000000
_cell_angle_gamma   90.00000000
_symmetry_Int_Tables_number   1
_chemical_formula_structural   K3Rb(SnAs)12
_chemical_formula_sum   'K3 Rb1 Sn12 As12'
_cell_volume   869.51204354
_cell_formula_units_Z   1
loop_
 _symmetry_equiv_pos_site_id
 _symmetry_equiv_pos_as_xyz
  1  'x, y, z'
loop_
 _atom_site_type_symbol
 _atom_site_label
 _atom_site_symmetry_multiplicity
 _atom_site_fract_x
 _atom_site_fract_y
 _atom_site_fract_z
 _atom_site_occupancy
  K  K0  1  0.750000  0.782584  0.541033  1
  K  K1  1  0.250000  0.717982  0.041133  1
  K  K2  1  0.250000  0.217412  0.458930  1
  Rb  Rb3  1  0.750000  0.285815  0.959044  1
  Sn  Sn4  1  0.750000  0.171312  0.649494  1
  Sn  Sn5  1  0.750000  0.673541  0.848670  1
  Sn  Sn6  1  0.250000  0.828699  0.349926  1
  Sn  Sn7  1  0.250000  0.328290  0.150768  1
  Sn  Sn8  1  0.750000  0.110073  0.258735  1
  Sn  Sn9  1  0.750000  0.610445  0.242103  1
  Sn  Sn10  1  0.250000  0.889453  0.740938  1
  Sn  Sn11  1  0.250000  0.389786  0.758036  1
  Sn  Sn12  1  0.750000  0.982853  0.124063  1
  Sn  Sn13  1  0.750000  0.485813  0.377074  1
  Sn  Sn14  1  0.250000  0.012595  0.876948  1
  Sn  Sn15  1  0.250000  0.514141  0.622856  1
  As  As16  1  0.750000  0.482878  0.122747  1
  As  As17  1  0.750000  0.983634  0.377677  1
  As  As18  1  0.250000  0.520713  0.876448  1
  As  As19  1  0.250000  0.016207  0.622280  1
  As  As20  1  0.750000  0.370607  0.569712  1
  As  As21  1  0.750000  0.871295  0.930342  1
  As  As22  1  0.250000  0.629625  0.430139  1
  As  As23  1  0.250000  0.124608  0.072248  1
  As  As24  1  0.750000  0.228242  0.780528  1
  As  As25  1  0.750000  0.728142  0.717655  1
  As  As26  1  0.250000  0.771168  0.218608  1
  As  As27  1  0.250000  0.272090  0.281864  1
