# generated using pymatgen
data_Ba(OsO3)2
_symmetry_space_group_name_H-M   'P 1'
_cell_length_a   5.73444824
_cell_length_b   6.61706403
_cell_length_c   7.29449643
_cell_angle_alpha   65.75603251
_cell_angle_beta   70.08394960
_cell_angle_gamma   74.55980989
_symmetry_Int_Tables_number   1
_chemical_formula_structural   Ba(OsO3)2
_chemical_formula_sum   'Ba2 Os4 O12'
_cell_volume   234.69389373
_cell_formula_units_Z   2
loop_
 _symmetry_equiv_pos_site_id
 _symmetry_equiv_pos_as_xyz
  1  'x, y, z'
loop_
 _atom_site_type_symbol
 _atom_site_label
 _atom_site_symmetry_multiplicity
 _atom_site_fract_x
 _atom_site_fract_y
 _atom_site_fract_z
 _atom_site_occupancy
  Ba  Ba0  1  0.793160  0.286210  0.120929  1
  Ba  Ba1  1  0.206840  0.713790  0.879071  1
  Os  Os2  1  0.817368  0.642151  0.546507  1
  Os  Os3  1  0.182632  0.357849  0.453493  1
  Os  Os4  1  0.363349  0.905483  0.239078  1
  Os  Os5  1  0.636651  0.094517  0.760922  1
  O  O6  1  0.299839  0.042627  0.962016  1
  O  O7  1  0.012962  0.888392  0.372642  1
  O  O8  1  0.306150  0.227137  0.225783  1
  O  O9  1  0.903673  0.517719  0.319369  1
  O  O10  1  0.384913  0.601769  0.251255  1
  O  O11  1  0.511424  0.810894  0.462996  1
  O  O12  1  0.488576  0.189106  0.537004  1
  O  O13  1  0.615087  0.398231  0.748745  1
  O  O14  1  0.700161  0.957373  0.037984  1
  O  O15  1  0.987038  0.111608  0.627358  1
  O  O16  1  0.693850  0.772863  0.774217  1
  O  O17  1  0.096327  0.482281  0.680631  1
