# generated using pymatgen
data_PuPaCl6
_symmetry_space_group_name_H-M   'P 1'
_cell_length_a   7.51268812
_cell_length_b   7.51590731
_cell_length_c   4.24315900
_cell_angle_alpha   90.00000000
_cell_angle_beta   90.00000000
_cell_angle_gamma   119.99657362
_symmetry_Int_Tables_number   1
_chemical_formula_structural   PuPaCl6
_chemical_formula_sum   'Pu1 Pa1 Cl6'
_cell_volume   207.49694506
_cell_formula_units_Z   1
loop_
 _symmetry_equiv_pos_site_id
 _symmetry_equiv_pos_as_xyz
  1  'x, y, z'
loop_
 _atom_site_type_symbol
 _atom_site_label
 _atom_site_symmetry_multiplicity
 _atom_site_fract_x
 _atom_site_fract_y
 _atom_site_fract_z
 _atom_site_occupancy
  Pu  Pu0  1  0.667110  0.333071  0.750001  1
  Pa  Pa1  1  0.333361  0.666833  0.250000  1
  Cl  Cl2  1  0.690595  0.075932  0.250000  1
  Cl  Cl3  1  0.385506  0.310051  0.250000  1
  Cl  Cl4  1  0.923839  0.614086  0.250000  1
  Cl  Cl5  1  0.093150  0.391157  0.750001  1
  Cl  Cl6  1  0.608750  0.702214  0.750001  1
  Cl  Cl7  1  0.297685  0.906654  0.750001  1
