# generated using pymatgen
data_Sm8Gd12Si15Au
_symmetry_space_group_name_H-M   'P 1'
_cell_length_a   7.51747887
_cell_length_b   7.79222464
_cell_length_c   14.84822500
_cell_angle_alpha   89.81033050
_cell_angle_beta   89.42173371
_cell_angle_gamma   90.21712664
_symmetry_Int_Tables_number   1
_chemical_formula_structural   Sm8Gd12Si15Au
_chemical_formula_sum   'Sm8 Gd12 Si15 Au1'
_cell_volume   869.72218317
_cell_formula_units_Z   1
loop_
 _symmetry_equiv_pos_site_id
 _symmetry_equiv_pos_as_xyz
  1  'x, y, z'
loop_
 _atom_site_type_symbol
 _atom_site_label
 _atom_site_symmetry_multiplicity
 _atom_site_fract_x
 _atom_site_fract_y
 _atom_site_fract_z
 _atom_site_occupancy
  Sm  Sm0  1  0.024027  0.181723  0.099397  1
  Sm  Sm1  1  0.977116  0.818459  0.902015  1
  Sm  Sm2  1  0.476807  0.682754  0.902035  1
  Sm  Sm3  1  0.978797  0.826122  0.599099  1
  Sm  Sm4  1  0.522169  0.317065  0.098030  1
  Sm  Sm5  1  0.017109  0.176909  0.399610  1
  Sm  Sm6  1  0.519371  0.316333  0.399490  1
  Sm  Sm7  1  0.485404  0.684039  0.600410  1
  Gd  Gd8  1  0.159841  0.511396  0.749468  1
  Gd  Gd9  1  0.843674  0.488926  0.252119  1
  Gd  Gd10  1  0.343713  0.006678  0.250381  1
  Gd  Gd11  1  0.658543  0.988955  0.750344  1
  Gd  Gd12  1  0.332528  0.178702  0.622779  1
  Gd  Gd13  1  0.669544  0.821160  0.376354  1
  Gd  Gd14  1  0.172564  0.675125  0.376130  1
  Gd  Gd15  1  0.676774  0.820309  0.122544  1
  Gd  Gd16  1  0.825199  0.323957  0.622081  1
  Gd  Gd17  1  0.323160  0.180078  0.877910  1
  Gd  Gd18  1  0.824987  0.317916  0.878351  1
  Gd  Gd19  1  0.174997  0.679930  0.122607  1
  Si  Si20  1  0.034237  0.106785  0.751250  1
  Si  Si21  1  0.966632  0.895237  0.249096  1
  Si  Si22  1  0.466696  0.601389  0.247695  1
  Si  Si23  1  0.535305  0.396906  0.752114  1
  Si  Si24  1  0.270917  0.878840  0.750983  1
  Si  Si25  1  0.728550  0.122695  0.248616  1
  Si  Si26  1  0.229253  0.374635  0.247892  1
  Si  Si27  1  0.773168  0.622637  0.753101  1
  Si  Si28  1  0.837012  0.530869  0.458839  1
  Si  Si29  1  0.344570  0.968835  0.460486  1
  Si  Si30  1  0.851226  0.530253  0.038749  1
  Si  Si31  1  0.653615  0.032309  0.537245  1
  Si  Si32  1  0.146491  0.469725  0.962429  1
  Si  Si33  1  0.645737  0.028953  0.961060  1
  Si  Si34  1  0.352344  0.969904  0.039200  1
  Au  Au35  1  0.157920  0.473495  0.540092  1
