# generated using pymatgen
data_Tb8Si16(MoW3)3
_symmetry_space_group_name_H-M   'P 1'
_cell_length_a   6.80516118
_cell_length_b   6.96578847
_cell_length_c   12.94901510
_cell_angle_alpha   89.96258781
_cell_angle_beta   90.03062708
_cell_angle_gamma   90.07491030
_symmetry_Int_Tables_number   1
_chemical_formula_structural   Tb8Si16(MoW3)3
_chemical_formula_sum   'Tb8 Si16 Mo3 W9'
_cell_volume   613.82547642
_cell_formula_units_Z   1
loop_
 _symmetry_equiv_pos_site_id
 _symmetry_equiv_pos_as_xyz
  1  'x, y, z'
loop_
 _atom_site_type_symbol
 _atom_site_label
 _atom_site_symmetry_multiplicity
 _atom_site_fract_x
 _atom_site_fract_y
 _atom_site_fract_z
 _atom_site_occupancy
  Tb  Tb0  1  0.496847  0.332925  0.093624  1
  Tb  Tb1  1  0.996077  0.167253  0.406407  1
  Tb  Tb2  1  0.503477  0.667246  0.593555  1
  Tb  Tb3  1  0.003501  0.832976  0.906179  1
  Tb  Tb4  1  0.502892  0.667016  0.906257  1
  Tb  Tb5  1  0.002896  0.832592  0.593422  1
  Tb  Tb6  1  0.496389  0.332946  0.406456  1
  Tb  Tb7  1  0.997000  0.167294  0.093624  1
  Si  Si8  1  0.659823  0.042943  0.547280  1
  Si  Si9  1  0.159016  0.457045  0.952454  1
  Si  Si10  1  0.340753  0.957449  0.047643  1
  Si  Si11  1  0.839842  0.542998  0.453235  1
  Si  Si12  1  0.339010  0.956884  0.452670  1
  Si  Si13  1  0.840668  0.543441  0.047828  1
  Si  Si14  1  0.659860  0.043301  0.952065  1
  Si  Si15  1  0.160786  0.456477  0.547244  1
  Si  Si16  1  0.535187  0.368286  0.749284  1
  Si  Si17  1  0.035025  0.132005  0.750997  1
  Si  Si18  1  0.465451  0.631337  0.249226  1
  Si  Si19  1  0.964390  0.868760  0.250099  1
  Si  Si20  1  0.802821  0.630719  0.750449  1
  Si  Si21  1  0.302648  0.869143  0.749582  1
  Si  Si22  1  0.197709  0.368378  0.250250  1
  Si  Si23  1  0.697070  0.130898  0.249841  1
  Mo  Mo24  1  0.669527  0.836414  0.125259  1
  Mo  Mo25  1  0.829867  0.337353  0.875368  1
  Mo  Mo26  1  0.330474  0.162777  0.625033  1
  W  W27  1  0.832369  0.335806  0.627063  1
  W  W28  1  0.332279  0.164664  0.873339  1
  W  W29  1  0.168947  0.663477  0.125840  1
  W  W30  1  0.667583  0.835823  0.373414  1
  W  W31  1  0.169296  0.662765  0.374193  1
  W  W32  1  0.665185  0.001263  0.749726  1
  W  W33  1  0.164961  0.498778  0.749550  1
  W  W34  1  0.334482  0.998609  0.250496  1
  W  W35  1  0.835892  0.501960  0.251050  1
