# generated using pymatgen
data_Er8Ta11Si16Ru
_symmetry_space_group_name_H-M   'P 1'
_cell_length_a   7.00276128
_cell_length_b   7.00276142
_cell_length_c   12.90466622
_cell_angle_alpha   90.16073163
_cell_angle_beta   89.83927033
_cell_angle_gamma   89.64784451
_symmetry_Int_Tables_number   1
_chemical_formula_structural   Er8Ta11Si16Ru
_chemical_formula_sum   'Er8 Ta11 Si16 Ru1'
_cell_volume   632.81065971
_cell_formula_units_Z   1
loop_
 _symmetry_equiv_pos_site_id
 _symmetry_equiv_pos_as_xyz
  1  'x, y, z'
loop_
 _atom_site_type_symbol
 _atom_site_label
 _atom_site_symmetry_multiplicity
 _atom_site_fract_x
 _atom_site_fract_y
 _atom_site_fract_z
 _atom_site_occupancy
  Er  Er0  1  0.341377  0.003967  0.468511  1
  Er  Er1  1  0.495940  0.841884  0.719185  1
  Er  Er2  1  0.501201  0.158927  0.217029  1
  Er  Er3  1  0.841884  0.495940  0.280815  1
  Er  Er4  1  0.158927  0.501201  0.782971  1
  Er  Er5  1  0.657415  0.997576  0.969071  1
  Er  Er6  1  0.003967  0.341377  0.531489  1
  Er  Er7  1  0.997576  0.657415  0.030929  1
  Ta  Ta8  1  0.173970  0.829114  0.247673  1
  Ta  Ta9  1  0.829114  0.173970  0.752327  1
  Ta  Ta10  1  0.671389  0.671389  0.500000  1
  Ta  Ta11  1  0.148170  0.002200  0.874669  1
  Ta  Ta12  1  0.495082  0.657635  0.124367  1
  Ta  Ta13  1  0.504476  0.347732  0.625627  1
  Ta  Ta14  1  0.657635  0.495082  0.875633  1
  Ta  Ta15  1  0.347732  0.504476  0.374373  1
  Ta  Ta16  1  0.848318  0.993991  0.374365  1
  Ta  Ta17  1  0.002200  0.148170  0.125331  1
  Ta  Ta18  1  0.993991  0.848318  0.625635  1
  Si  Si19  1  0.203285  0.136101  0.682756  1
  Si  Si20  1  0.367504  0.700758  0.932548  1
  Si  Si21  1  0.635548  0.296465  0.432181  1
  Si  Si22  1  0.700758  0.367504  0.067452  1
  Si  Si23  1  0.296465  0.635548  0.567819  1
  Si  Si24  1  0.795399  0.864832  0.182086  1
  Si  Si25  1  0.136101  0.203285  0.317244  1
  Si  Si26  1  0.864832  0.795399  0.817914  1
  Si  Si27  1  0.292218  0.957069  0.061318  1
  Si  Si28  1  0.545286  0.795640  0.314075  1
  Si  Si29  1  0.449457  0.207603  0.818437  1
  Si  Si30  1  0.795640  0.545286  0.685925  1
  Si  Si31  1  0.207603  0.449457  0.181563  1
  Si  Si32  1  0.704854  0.045881  0.565067  1
  Si  Si33  1  0.957069  0.292218  0.938682  1
  Si  Si34  1  0.045881  0.704854  0.434933  1
  Ru  Ru35  1  0.331735  0.331735  0.000000  1
