# generated using pymatgen
data_Tb20Ir11Ru
_symmetry_space_group_name_H-M   'P 1'
_cell_length_a   10.92198700
_cell_length_b   10.92198700
_cell_length_c   6.42461800
_cell_angle_alpha   90.00000000
_cell_angle_beta   90.00000000
_cell_angle_gamma   90.00000000
_symmetry_Int_Tables_number   1
_chemical_formula_structural   Tb20Ir11Ru
_chemical_formula_sum   'Tb20 Ir11 Ru1'
_cell_volume   766.39139648
_cell_formula_units_Z   1
loop_
 _symmetry_equiv_pos_site_id
 _symmetry_equiv_pos_as_xyz
  1  'x, y, z'
loop_
 _atom_site_type_symbol
 _atom_site_label
 _atom_site_symmetry_multiplicity
 _atom_site_fract_x
 _atom_site_fract_y
 _atom_site_fract_z
 _atom_site_occupancy
  Tb  Tb0  1  0.292466  0.087459  0.377394  1
  Tb  Tb1  1  0.292694  0.912560  0.880046  1
  Tb  Tb2  1  0.707306  0.087440  0.880046  1
  Tb  Tb3  1  0.707534  0.912541  0.377394  1
  Tb  Tb4  1  0.587440  0.792694  0.880046  1
  Tb  Tb5  1  0.587459  0.207534  0.377394  1
  Tb  Tb6  1  0.412541  0.792466  0.377394  1
  Tb  Tb7  1  0.412560  0.207306  0.880046  1
  Tb  Tb8  1  0.209009  0.411636  0.621216  1
  Tb  Tb9  1  0.209001  0.588270  0.121019  1
  Tb  Tb10  1  0.790999  0.411730  0.121019  1
  Tb  Tb11  1  0.790991  0.588364  0.621216  1
  Tb  Tb12  1  0.911730  0.709001  0.121019  1
  Tb  Tb13  1  0.911636  0.290991  0.621216  1
  Tb  Tb14  1  0.088364  0.709009  0.621216  1
  Tb  Tb15  1  0.088270  0.290999  0.121019  1
  Tb  Tb16  1  0.000000  0.000000  0.499592  1
  Tb  Tb17  1  0.000000  0.000000  0.999556  1
  Tb  Tb18  1  0.500000  0.500000  0.999556  1
  Tb  Tb19  1  0.500000  0.500000  0.499592  1
  Ir  Ir20  1  0.846928  0.153811  0.250183  1
  Ir  Ir21  1  0.847082  0.846443  0.749901  1
  Ir  Ir22  1  0.152918  0.153557  0.749901  1
  Ir  Ir23  1  0.153072  0.846189  0.250183  1
  Ir  Ir24  1  0.653557  0.347082  0.749901  1
  Ir  Ir25  1  0.653811  0.653072  0.250183  1
  Ir  Ir26  1  0.346189  0.346928  0.250183  1
  Ir  Ir27  1  0.346443  0.652918  0.749901  1
  Ir  Ir28  1  0.500000  0.000000  0.622237  1
  Ir  Ir29  1  0.000000  0.500000  0.878994  1
  Ir  Ir30  1  0.000000  0.500000  0.379157  1
  Ru  Ru31  1  0.500000  0.000000  0.122278  1
