# generated using pymatgen
data_Zr2TiGaFe8
_symmetry_space_group_name_H-M   'P 1'
_cell_length_a   8.44467649
_cell_length_b   8.44467702
_cell_length_c   8.44467708
_cell_angle_alpha   33.52441165
_cell_angle_beta   33.52441756
_cell_angle_gamma   33.52440896
_symmetry_Int_Tables_number   1
_chemical_formula_structural   Zr2TiGaFe8
_chemical_formula_sum   'Zr2 Ti1 Ga1 Fe8'
_cell_volume   163.60871582
_cell_formula_units_Z   1
loop_
 _symmetry_equiv_pos_site_id
 _symmetry_equiv_pos_as_xyz
  1  'x, y, z'
loop_
 _atom_site_type_symbol
 _atom_site_label
 _atom_site_symmetry_multiplicity
 _atom_site_fract_x
 _atom_site_fract_y
 _atom_site_fract_z
 _atom_site_occupancy
  Zr  Zr0  1  0.001612  0.001612  0.001612  1
  Zr  Zr1  1  0.498548  0.498548  0.498548  1
  Ti  Ti2  1  0.624567  0.624567  0.624567  1
  Ga  Ga3  1  0.125760  0.125760  0.125760  1
  Fe  Fe4  1  0.563289  0.060086  0.563289  1
  Fe  Fe5  1  0.063505  0.561294  0.063505  1
  Fe  Fe6  1  0.060086  0.563289  0.563289  1
  Fe  Fe7  1  0.561294  0.063505  0.063505  1
  Fe  Fe8  1  0.812384  0.812384  0.812384  1
  Fe  Fe9  1  0.312158  0.312158  0.312158  1
  Fe  Fe10  1  0.563289  0.563289  0.060086  1
  Fe  Fe11  1  0.063505  0.063505  0.561294  1
