# generated using pymatgen
data_ErIn(NiPt)2
_symmetry_space_group_name_H-M   'P 1'
_cell_length_a   5.16292681
_cell_length_b   5.16292705
_cell_length_c   5.42037000
_cell_angle_alpha   58.33634250
_cell_angle_beta   58.33634083
_cell_angle_gamma   58.39890989
_symmetry_Int_Tables_number   1
_chemical_formula_structural   ErIn(NiPt)2
_chemical_formula_sum   'Er1 In1 Ni2 Pt2'
_cell_volume   98.32329372
_cell_formula_units_Z   1
loop_
 _symmetry_equiv_pos_site_id
 _symmetry_equiv_pos_as_xyz
  1  'x, y, z'
loop_
 _atom_site_type_symbol
 _atom_site_label
 _atom_site_symmetry_multiplicity
 _atom_site_fract_x
 _atom_site_fract_y
 _atom_site_fract_z
 _atom_site_occupancy
  Er  Er0  1  0.247381  0.247381  0.252619  1
  In  In1  1  0.008514  0.008514  0.991486  1
  Ni  Ni2  1  0.623050  0.122200  0.627375  1
  Ni  Ni3  1  0.122200  0.623050  0.627375  1
  Pt  Pt4  1  0.624428  0.624428  0.625902  1
  Pt  Pt5  1  0.624428  0.624428  0.125243  1
