# generated using pymatgen
data_CaTb5YRhI12
_symmetry_space_group_name_H-M   'P 1'
_cell_length_a   9.87954994
_cell_length_b   9.80824782
_cell_length_c   9.85792137
_cell_angle_alpha   107.08246682
_cell_angle_beta   106.94710152
_cell_angle_gamma   107.36519325
_symmetry_Int_Tables_number   1
_chemical_formula_structural   CaTb5YRhI12
_chemical_formula_sum   'Ca1 Tb5 Y1 Rh1 I12'
_cell_volume   792.65420923
_cell_formula_units_Z   1
loop_
 _symmetry_equiv_pos_site_id
 _symmetry_equiv_pos_as_xyz
  1  'x, y, z'
loop_
 _atom_site_type_symbol
 _atom_site_label
 _atom_site_symmetry_multiplicity
 _atom_site_fract_x
 _atom_site_fract_y
 _atom_site_fract_z
 _atom_site_occupancy
  Ca  Ca0  1  0.500044  0.500109  0.499883  1
  Tb  Tb1  1  0.978102  0.706267  0.905533  1
  Tb  Tb2  1  0.699324  0.904175  0.975852  1
  Tb  Tb3  1  0.097888  0.023622  0.302289  1
  Tb  Tb4  1  0.021767  0.293489  0.094164  1
  Tb  Tb5  1  0.300476  0.095711  0.023933  1
  Y  Y6  1  0.902256  0.976479  0.697663  1
  Rh  Rh7  1  0.000019  0.999903  0.000240  1
  I  I8  1  0.542193  0.848615  0.620371  1
  I  I9  1  0.848485  0.620650  0.542774  1
  I  I10  1  0.621056  0.542037  0.847727  1
  I  I11  1  0.458595  0.151919  0.379676  1
  I  I12  1  0.151710  0.379938  0.457250  1
  I  I13  1  0.378832  0.457887  0.152012  1
  I  I14  1  0.678196  0.224648  0.071377  1
  I  I15  1  0.223334  0.070968  0.677674  1
  I  I16  1  0.070418  0.677194  0.222471  1
  I  I17  1  0.321744  0.775223  0.928456  1
  I  I18  1  0.776250  0.929105  0.323552  1
  I  I19  1  0.929309  0.322059  0.777105  1
