# generated using pymatgen
data_TbDy3Al17GaIr6
_symmetry_space_group_name_H-M   'P 1'
_cell_length_a   7.54817438
_cell_length_b   7.54878680
_cell_length_c   9.50359400
_cell_angle_alpha   90.00000000
_cell_angle_beta   90.00000000
_cell_angle_gamma   119.40091103
_symmetry_Int_Tables_number   1
_chemical_formula_structural   TbDy3Al17GaIr6
_chemical_formula_sum   'Tb1 Dy3 Al17 Ga1 Ir6'
_cell_volume   471.76728353
_cell_formula_units_Z   1
loop_
 _symmetry_equiv_pos_site_id
 _symmetry_equiv_pos_as_xyz
  1  'x, y, z'
loop_
 _atom_site_type_symbol
 _atom_site_label
 _atom_site_symmetry_multiplicity
 _atom_site_fract_x
 _atom_site_fract_y
 _atom_site_fract_z
 _atom_site_occupancy
  Tb  Tb0  1  0.993792  0.674407  0.750000  1
  Dy  Dy1  1  0.005365  0.328024  0.250000  1
  Dy  Dy2  1  0.674383  0.993824  0.750000  1
  Dy  Dy3  1  0.328045  0.005406  0.250000  1
  Al  Al4  1  0.869526  0.869608  0.250000  1
  Al  Al5  1  0.001260  0.335565  0.573084  1
  Al  Al6  1  0.998691  0.664157  0.425566  1
  Al  Al7  1  0.998691  0.664157  0.074434  1
  Al  Al8  1  0.335875  0.001363  0.926921  1
  Al  Al9  1  0.001260  0.335565  0.926916  1
  Al  Al10  1  0.664173  0.998716  0.074204  1
  Al  Al11  1  0.664173  0.998716  0.425796  1
  Al  Al12  1  0.335875  0.001363  0.573079  1
  Al  Al13  1  0.333312  0.333321  0.052889  1
  Al  Al14  1  0.665866  0.665990  0.949907  1
  Al  Al15  1  0.665866  0.665990  0.550093  1
  Al  Al16  1  0.333312  0.333321  0.447111  1
  Al  Al17  1  0.338894  0.549296  0.750000  1
  Al  Al18  1  0.660483  0.451309  0.250000  1
  Al  Al19  1  0.549065  0.338361  0.750000  1
  Al  Al20  1  0.451331  0.660616  0.250000  1
  Ga  Ga21  1  0.134223  0.134394  0.750000  1
  Ir  Ir22  1  0.671102  0.327604  0.500247  1
  Ir  Ir23  1  0.327711  0.671144  0.500258  1
  Ir  Ir24  1  0.327711  0.671144  0.999742  1
  Ir  Ir25  1  0.671102  0.327604  0.999753  1
  Ir  Ir26  1  0.999460  0.999517  0.497195  1
  Ir  Ir27  1  0.999460  0.999517  0.002805  1
