# generated using pymatgen
data_Ta3GaOsN
_symmetry_space_group_name_H-M   'P 1'
_cell_length_a   7.01374400
_cell_length_b   7.01374400
_cell_length_c   7.01374400
_cell_angle_alpha   90.00000000
_cell_angle_beta   90.00000000
_cell_angle_gamma   90.00000000
_symmetry_Int_Tables_number   1
_chemical_formula_structural   Ta3GaOsN
_chemical_formula_sum   'Ta12 Ga4 Os4 N4'
_cell_volume   345.02433744
_cell_formula_units_Z   4
loop_
 _symmetry_equiv_pos_site_id
 _symmetry_equiv_pos_as_xyz
  1  'x, y, z'
loop_
 _atom_site_type_symbol
 _atom_site_label
 _atom_site_symmetry_multiplicity
 _atom_site_fract_x
 _atom_site_fract_y
 _atom_site_fract_z
 _atom_site_occupancy
  Ta  Ta0  1  0.800347  0.957199  0.372235  1
  Ta  Ta1  1  0.699653  0.042801  0.872235  1
  Ta  Ta2  1  0.199653  0.457199  0.127765  1
  Ta  Ta3  1  0.300347  0.542801  0.627765  1
  Ta  Ta4  1  0.957199  0.372235  0.800347  1
  Ta  Ta5  1  0.042801  0.872235  0.699653  1
  Ta  Ta6  1  0.457199  0.127765  0.199653  1
  Ta  Ta7  1  0.542801  0.627765  0.300347  1
  Ta  Ta8  1  0.372235  0.800347  0.957199  1
  Ta  Ta9  1  0.872235  0.699653  0.042801  1
  Ta  Ta10  1  0.127765  0.199653  0.457199  1
  Ta  Ta11  1  0.627765  0.300347  0.542801  1
  Ga  Ga12  1  0.565048  0.434952  0.934952  1
  Ga  Ga13  1  0.434952  0.934952  0.565048  1
  Ga  Ga14  1  0.934952  0.565048  0.434952  1
  Ga  Ga15  1  0.065048  0.065048  0.065048  1
  Os  Os16  1  0.176321  0.823679  0.323679  1
  Os  Os17  1  0.323679  0.176321  0.823679  1
  Os  Os18  1  0.823679  0.323679  0.176321  1
  Os  Os19  1  0.676321  0.676321  0.676321  1
  N  N20  1  0.874369  0.125631  0.625631  1
  N  N21  1  0.625631  0.874369  0.125631  1
  N  N22  1  0.125631  0.625631  0.874369  1
  N  N23  1  0.374369  0.374369  0.374369  1
