# generated using pymatgen
data_Dy7Er3(TlSb)3
_symmetry_space_group_name_H-M   'P 1'
_cell_length_a   8.96290902
_cell_length_b   8.94549260
_cell_length_c   6.52834900
_cell_angle_alpha   89.99100099
_cell_angle_beta   89.99617726
_cell_angle_gamma   120.10494782
_symmetry_Int_Tables_number   1
_chemical_formula_structural   Dy7Er3(TlSb)3
_chemical_formula_sum   'Dy7 Er3 Tl3 Sb3'
_cell_volume   452.82144221
_cell_formula_units_Z   1
loop_
 _symmetry_equiv_pos_site_id
 _symmetry_equiv_pos_as_xyz
  1  'x, y, z'
loop_
 _atom_site_type_symbol
 _atom_site_label
 _atom_site_symmetry_multiplicity
 _atom_site_fract_x
 _atom_site_fract_y
 _atom_site_fract_z
 _atom_site_occupancy
  Dy  Dy0  1  0.002093  0.762897  0.750234  1
  Dy  Dy1  1  0.003340  0.239124  0.249968  1
  Dy  Dy2  1  0.763822  0.760553  0.249893  1
  Dy  Dy3  1  0.761743  0.999773  0.750112  1
  Dy  Dy4  1  0.239663  0.236666  0.750197  1
  Dy  Dy5  1  0.238378  0.000561  0.249827  1
  Dy  Dy6  1  0.330511  0.665917  0.499417  1
  Er  Er7  1  0.664794  0.333632  0.000436  1
  Er  Er8  1  0.664643  0.333573  0.499485  1
  Er  Er9  1  0.330630  0.666139  0.000668  1
  Tl  Tl10  1  0.397552  0.001052  0.750707  1
  Tl  Tl11  1  0.396154  0.398010  0.249184  1
  Tl  Tl12  1  0.997067  0.601869  0.249305  1
  Sb  Sb13  1  0.996514  0.391590  0.750458  1
  Sb  Sb14  1  0.605848  0.607998  0.750575  1
  Sb  Sb15  1  0.607246  0.000647  0.249535  1
