# generated using pymatgen
data_La4DyIrPt2
_symmetry_space_group_name_H-M   'P 1'
_cell_length_a   11.54619100
_cell_length_b   11.54619100
_cell_length_c   6.53104000
_cell_angle_alpha   90.00000000
_cell_angle_beta   90.00000000
_cell_angle_gamma   90.00000000
_symmetry_Int_Tables_number   1
_chemical_formula_structural   La4DyIrPt2
_chemical_formula_sum   'La16 Dy4 Ir4 Pt8'
_cell_volume   870.68250586
_cell_formula_units_Z   4
loop_
 _symmetry_equiv_pos_site_id
 _symmetry_equiv_pos_as_xyz
  1  'x, y, z'
loop_
 _atom_site_type_symbol
 _atom_site_label
 _atom_site_symmetry_multiplicity
 _atom_site_fract_x
 _atom_site_fract_y
 _atom_site_fract_z
 _atom_site_occupancy
  La  La0  1  0.291479  0.088228  0.377874  1
  La  La1  1  0.291479  0.911772  0.877874  1
  La  La2  1  0.708521  0.088228  0.877874  1
  La  La3  1  0.708521  0.911772  0.377874  1
  La  La4  1  0.588228  0.791479  0.877874  1
  La  La5  1  0.588228  0.208521  0.377874  1
  La  La6  1  0.411772  0.791479  0.377874  1
  La  La7  1  0.411772  0.208521  0.877874  1
  La  La8  1  0.208521  0.411772  0.622126  1
  La  La9  1  0.208521  0.588228  0.122126  1
  La  La10  1  0.791479  0.411772  0.122126  1
  La  La11  1  0.791479  0.588228  0.622126  1
  La  La12  1  0.911772  0.708521  0.122126  1
  La  La13  1  0.911772  0.291479  0.622126  1
  La  La14  1  0.088228  0.708521  0.622126  1
  La  La15  1  0.088228  0.291479  0.122126  1
  Dy  Dy16  1  0.000000  0.000000  0.500000  1
  Dy  Dy17  1  0.000000  0.000000  0.000000  1
  Dy  Dy18  1  0.500000  0.500000  0.000000  1
  Dy  Dy19  1  0.500000  0.500000  0.500000  1
  Ir  Ir20  1  0.500000  0.000000  0.118051  1
  Ir  Ir21  1  0.500000  0.000000  0.618051  1
  Ir  Ir22  1  0.000000  0.500000  0.881949  1
  Ir  Ir23  1  0.000000  0.500000  0.381949  1
  Pt  Pt24  1  0.852363  0.147637  0.250000  1
  Pt  Pt25  1  0.852363  0.852363  0.750000  1
  Pt  Pt26  1  0.147637  0.147637  0.750000  1
  Pt  Pt27  1  0.147637  0.852363  0.250000  1
  Pt  Pt28  1  0.647637  0.352363  0.750000  1
  Pt  Pt29  1  0.647637  0.647637  0.250000  1
  Pt  Pt30  1  0.352363  0.352363  0.250000  1
  Pt  Pt31  1  0.352363  0.647637  0.750000  1
