# generated using pymatgen
data_La7RhAu2
_symmetry_space_group_name_H-M   'P 1'
_cell_length_a   10.52863500
_cell_length_b   10.51085179
_cell_length_c   6.60903201
_cell_angle_alpha   89.99466376
_cell_angle_beta   90.00000000
_cell_angle_gamma   120.05598623
_symmetry_Int_Tables_number   1
_chemical_formula_structural   La7RhAu2
_chemical_formula_sum   'La14 Rh2 Au4'
_cell_volume   633.04295680
_cell_formula_units_Z   2
loop_
 _symmetry_equiv_pos_site_id
 _symmetry_equiv_pos_as_xyz
  1  'x, y, z'
loop_
 _atom_site_type_symbol
 _atom_site_label
 _atom_site_symmetry_multiplicity
 _atom_site_fract_x
 _atom_site_fract_y
 _atom_site_fract_z
 _atom_site_occupancy
  La  La0  1  0.662124  0.324246  0.566968  1
  La  La1  1  0.334099  0.668198  0.101387  1
  La  La2  1  0.870769  0.741538  0.786260  1
  La  La3  1  0.260961  0.129182  0.761296  1
  La  La4  1  0.868221  0.129182  0.761296  1
  La  La5  1  0.124132  0.248264  0.285556  1
  La  La6  1  0.747437  0.885409  0.282866  1
  La  La7  1  0.137972  0.885409  0.282866  1
  La  La8  1  0.464631  0.929262  0.581551  1
  La  La9  1  0.068011  0.532473  0.583707  1
  La  La10  1  0.464461  0.532473  0.583707  1
  La  La11  1  0.544328  0.088656  0.091435  1
  La  La12  1  0.921131  0.450533  0.089736  1
  La  La13  1  0.529403  0.450533  0.089736  1
  Rh  Rh14  1  0.375737  0.190920  0.344005  1
  Rh  Rh15  1  0.815182  0.190920  0.344005  1
  Au  Au16  1  0.188995  0.377989  0.846906  1
  Au  Au17  1  0.620225  0.809385  0.844311  1
  Au  Au18  1  0.189161  0.809385  0.844311  1
  Au  Au19  1  0.813020  0.626040  0.343146  1
