# generated using pymatgen
data_Tm16MgIn3Ni4
_symmetry_space_group_name_H-M   'P 1'
_cell_length_a   9.48206732
_cell_length_b   9.48206711
_cell_length_c   9.48206729
_cell_angle_alpha   59.71716232
_cell_angle_beta   59.71716038
_cell_angle_gamma   59.71716509
_symmetry_Int_Tables_number   1
_chemical_formula_structural   Tm16MgIn3Ni4
_chemical_formula_sum   'Tm16 Mg1 In3 Ni4'
_cell_volume   598.95640300
_cell_formula_units_Z   1
loop_
 _symmetry_equiv_pos_site_id
 _symmetry_equiv_pos_as_xyz
  1  'x, y, z'
loop_
 _atom_site_type_symbol
 _atom_site_label
 _atom_site_symmetry_multiplicity
 _atom_site_fract_x
 _atom_site_fract_y
 _atom_site_fract_z
 _atom_site_occupancy
  Tm  Tm0  1  0.346087  0.346087  0.346087  1
  Tm  Tm1  1  0.347217  0.347217  0.955767  1
  Tm  Tm2  1  0.347217  0.955767  0.347217  1
  Tm  Tm3  1  0.955767  0.347217  0.347217  1
  Tm  Tm4  1  0.812282  0.188816  0.188816  1
  Tm  Tm5  1  0.190165  0.813333  0.813333  1
  Tm  Tm6  1  0.188816  0.812282  0.188816  1
  Tm  Tm7  1  0.813333  0.190165  0.813333  1
  Tm  Tm8  1  0.188816  0.188816  0.812282  1
  Tm  Tm9  1  0.813333  0.813333  0.190165  1
  Tm  Tm10  1  0.936019  0.565033  0.565033  1
  Tm  Tm11  1  0.562269  0.938673  0.938673  1
  Tm  Tm12  1  0.565033  0.936019  0.565033  1
  Tm  Tm13  1  0.938673  0.562269  0.938673  1
  Tm  Tm14  1  0.565033  0.565033  0.936019  1
  Tm  Tm15  1  0.938673  0.938673  0.562269  1
  Mg  Mg16  1  0.577629  0.577629  0.577629  1
  In  In17  1  0.582408  0.582408  0.252432  1
  In  In18  1  0.582408  0.252432  0.582408  1
  In  In19  1  0.252432  0.582408  0.582408  1
  Ni  Ni20  1  0.142725  0.142725  0.142725  1
  Ni  Ni21  1  0.140043  0.140043  0.573580  1
  Ni  Ni22  1  0.140043  0.573580  0.140043  1
  Ni  Ni23  1  0.573580  0.140043  0.140043  1
