# generated using pymatgen
data_TbErAl16Pt9
_symmetry_space_group_name_H-M   'P 1'
_cell_length_a   11.15391910
_cell_length_b   11.15391977
_cell_length_c   11.15392720
_cell_angle_alpha   158.65309382
_cell_angle_beta   115.11309528
_cell_angle_gamma   69.15746627
_symmetry_Int_Tables_number   1
_chemical_formula_structural   TbErAl16Pt9
_chemical_formula_sum   'Tb1 Er1 Al16 Pt9'
_cell_volume   454.08407240
_cell_formula_units_Z   1
loop_
 _symmetry_equiv_pos_site_id
 _symmetry_equiv_pos_as_xyz
  1  'x, y, z'
loop_
 _atom_site_type_symbol
 _atom_site_label
 _atom_site_symmetry_multiplicity
 _atom_site_fract_x
 _atom_site_fract_y
 _atom_site_fract_z
 _atom_site_occupancy
  Tb  Tb0  1  0.228372  0.228372  0.000000  1
  Er  Er1  1  0.771609  0.771609  0.000000  1
  Al  Al2  1  0.270896  0.391018  0.879878  1
  Al  Al3  1  0.091737  0.920225  0.171513  1
  Al  Al4  1  0.513177  0.204428  0.308752  1
  Al  Al5  1  0.251373  0.079772  0.171603  1
  Al  Al6  1  0.912717  0.412717  0.500000  1
  Al  Al7  1  0.729176  0.609083  0.120092  1
  Al  Al8  1  0.895676  0.204426  0.691248  1
  Al  Al9  1  0.486976  0.795579  0.691396  1
  Al  Al10  1  0.386256  0.999985  0.386269  1
  Al  Al11  1  0.613717  0.999987  0.613731  1
  Al  Al12  1  0.488991  0.609084  0.879908  1
  Al  Al13  1  0.104183  0.795579  0.308604  1
  Al  Al14  1  0.908169  0.079770  0.828397  1
  Al  Al15  1  0.748712  0.920224  0.828487  1
  Al  Al16  1  0.511140  0.391018  0.120122  1
  Al  Al17  1  0.087179  0.587179  0.500000  1
  Pt  Pt18  1  0.748038  0.499980  0.248056  1
  Pt  Pt19  1  0.021718  0.338985  0.682732  1
  Pt  Pt20  1  0.627373  0.127373  0.500000  1
  Pt  Pt21  1  0.251924  0.499983  0.751944  1
  Pt  Pt22  1  0.372950  0.872950  0.500000  1
  Pt  Pt23  1  0.000073  0.000073  0.000000  1
  Pt  Pt24  1  0.656253  0.338985  0.317268  1
  Pt  Pt25  1  0.344016  0.660804  0.683203  1
  Pt  Pt26  1  0.977602  0.660814  0.316797  1
