# generated using pymatgen
data_HfNi20(SnP3)2
_symmetry_space_group_name_H-M   'P 1'
_cell_length_a   7.91526116
_cell_length_b   7.91526161
_cell_length_c   7.91526000
_cell_angle_alpha   59.99999838
_cell_angle_beta   59.99999649
_cell_angle_gamma   59.99999955
_symmetry_Int_Tables_number   1
_chemical_formula_structural   HfNi20(SnP3)2
_chemical_formula_sum   'Hf1 Ni20 Sn2 P6'
_cell_volume   350.65552922
_cell_formula_units_Z   1
loop_
 _symmetry_equiv_pos_site_id
 _symmetry_equiv_pos_as_xyz
  1  'x, y, z'
loop_
 _atom_site_type_symbol
 _atom_site_label
 _atom_site_symmetry_multiplicity
 _atom_site_fract_x
 _atom_site_fract_y
 _atom_site_fract_z
 _atom_site_occupancy
  Hf  Hf0  1  0.000000  0.000000  0.000000  1
  Ni  Ni1  1  0.000000  0.651884  0.000000  1
  Ni  Ni2  1  0.150637  0.616454  0.616454  1
  Ni  Ni3  1  0.000000  0.000000  0.651884  1
  Ni  Ni4  1  0.000000  0.000000  0.348116  1
  Ni  Ni5  1  0.651884  0.000000  0.348116  1
  Ni  Ni6  1  0.348116  0.000000  0.000000  1
  Ni  Ni7  1  0.849363  0.383546  0.383546  1
  Ni  Ni8  1  0.000000  0.651884  0.348116  1
  Ni  Ni9  1  0.616454  0.616454  0.616454  1
  Ni  Ni10  1  0.383546  0.849363  0.383546  1
  Ni  Ni11  1  0.651884  0.348116  0.000000  1
  Ni  Ni12  1  0.000000  0.348116  0.651884  1
  Ni  Ni13  1  0.348116  0.651884  0.000000  1
  Ni  Ni14  1  0.348116  0.000000  0.651884  1
  Ni  Ni15  1  0.383546  0.383546  0.383546  1
  Ni  Ni16  1  0.651884  0.000000  0.000000  1
  Ni  Ni17  1  0.000000  0.348116  0.000000  1
  Ni  Ni18  1  0.616454  0.616454  0.150637  1
  Ni  Ni19  1  0.383546  0.383546  0.849363  1
  Ni  Ni20  1  0.616454  0.150637  0.616454  1
  Sn  Sn21  1  0.750000  0.750000  0.750000  1
  Sn  Sn22  1  0.250000  0.250000  0.250000  1
  P  P23  1  0.264386  0.735614  0.264386  1
  P  P24  1  0.735614  0.735614  0.264386  1
  P  P25  1  0.735614  0.264386  0.264386  1
  P  P26  1  0.264386  0.735614  0.735614  1
  P  P27  1  0.264386  0.264386  0.735614  1
  P  P28  1  0.735614  0.264386  0.735614  1
