# generated using pymatgen
data_Y3B6Ir7Ru
_symmetry_space_group_name_H-M   'P 1'
_cell_length_a   9.98546112
_cell_length_b   9.16403572
_cell_length_c   5.57504803
_cell_angle_alpha   81.35929733
_cell_angle_beta   65.13778396
_cell_angle_gamma   33.50292700
_symmetry_Int_Tables_number   1
_chemical_formula_structural   Y3B6Ir7Ru
_chemical_formula_sum   'Y3 B6 Ir7 Ru1'
_cell_volume   234.16384853
_cell_formula_units_Z   1
loop_
 _symmetry_equiv_pos_site_id
 _symmetry_equiv_pos_as_xyz
  1  'x, y, z'
loop_
 _atom_site_type_symbol
 _atom_site_label
 _atom_site_symmetry_multiplicity
 _atom_site_fract_x
 _atom_site_fract_y
 _atom_site_fract_z
 _atom_site_occupancy
  Y  Y0  1  0.000000  0.000000  0.000000  1
  Y  Y1  1  0.179503  0.179503  0.820497  1
  Y  Y2  1  0.820497  0.820497  0.179503  1
  B  B3  1  0.824300  0.525709  0.482436  1
  B  B4  1  0.167555  0.482436  0.525709  1
  B  B5  1  0.482436  0.167555  0.824300  1
  B  B6  1  0.670610  0.329390  0.670610  1
  B  B7  1  0.525709  0.824300  0.167555  1
  B  B8  1  0.329390  0.670610  0.329390  1
  Ir  Ir9  1  0.413999  0.413999  0.586001  1
  Ir  Ir10  1  0.586314  0.586314  0.913686  1
  Ir  Ir11  1  0.086226  0.086226  0.413774  1
  Ir  Ir12  1  0.913686  0.913686  0.586314  1
  Ir  Ir13  1  0.586001  0.586001  0.413999  1
  Ir  Ir14  1  0.250000  0.250000  0.250000  1
  Ir  Ir15  1  0.413774  0.413774  0.086226  1
  Ru  Ru16  1  0.750000  0.750000  0.750000  1
