# generated using pymatgen
data_SmY3SiI6
_symmetry_space_group_name_H-M   'P 1'
_cell_length_a   4.23734900
_cell_length_b   14.11237534
_cell_length_c   14.87008088
_cell_angle_alpha   89.77430339
_cell_angle_beta   90.00000000
_cell_angle_gamma   90.00000000
_symmetry_Int_Tables_number   1
_chemical_formula_structural   SmY3SiI6
_chemical_formula_sum   'Sm2 Y6 Si2 I12'
_cell_volume   889.20995268
_cell_formula_units_Z   2
loop_
 _symmetry_equiv_pos_site_id
 _symmetry_equiv_pos_as_xyz
  1  'x, y, z'
loop_
 _atom_site_type_symbol
 _atom_site_label
 _atom_site_symmetry_multiplicity
 _atom_site_fract_x
 _atom_site_fract_y
 _atom_site_fract_z
 _atom_site_occupancy
  Sm  Sm0  1  0.000000  0.113616  0.576431  1
  Sm  Sm1  1  0.000000  0.886384  0.423569  1
  Y  Y2  1  0.500000  0.114405  0.347556  1
  Y  Y3  1  0.500000  0.885595  0.652444  1
  Y  Y4  1  0.500000  0.613563  0.151436  1
  Y  Y5  1  0.500000  0.386437  0.848564  1
  Y  Y6  1  0.000000  0.610647  0.925570  1
  Y  Y7  1  0.000000  0.389353  0.074430  1
  Si  Si8  1  0.500000  0.000000  0.500000  1
  Si  Si9  1  0.500000  0.500000  0.000000  1
  I  I10  1  0.500000  0.246192  0.161602  1
  I  I11  1  0.500000  0.753808  0.838398  1
  I  I12  1  0.500000  0.741517  0.335591  1
  I  I13  1  0.500000  0.258483  0.664409  1
  I  I14  1  0.000000  0.258823  0.411807  1
  I  I15  1  0.000000  0.741177  0.588193  1
  I  I16  1  0.000000  0.757113  0.085162  1
  I  I17  1  0.000000  0.242887  0.914838  1
  I  I18  1  0.000000  0.002046  0.239223  1
  I  I19  1  0.000000  0.997954  0.760777  1
  I  I20  1  0.000000  0.499471  0.258133  1
  I  I21  1  0.000000  0.500529  0.741867  1
