# generated using pymatgen
data_Th2Al20Tc3Rh
_symmetry_space_group_name_H-M   'P 1'
_cell_length_a   6.92129375
_cell_length_b   6.92271650
_cell_length_c   9.24427972
_cell_angle_alpha   90.37962478
_cell_angle_beta   90.24053712
_cell_angle_gamma   97.07624535
_symmetry_Int_Tables_number   1
_chemical_formula_structural   Th2Al20Tc3Rh
_chemical_formula_sum   'Th2 Al20 Tc3 Rh1'
_cell_volume   439.54281835
_cell_formula_units_Z   1
loop_
 _symmetry_equiv_pos_site_id
 _symmetry_equiv_pos_as_xyz
  1  'x, y, z'
loop_
 _atom_site_type_symbol
 _atom_site_label
 _atom_site_symmetry_multiplicity
 _atom_site_fract_x
 _atom_site_fract_y
 _atom_site_fract_z
 _atom_site_occupancy
  Th  Th0  1  0.869771  0.123343  0.751933  1
  Th  Th1  1  0.130229  0.876657  0.248067  1
  Al  Al2  1  0.518296  0.778052  0.749122  1
  Al  Al3  1  0.481704  0.221948  0.250878  1
  Al  Al4  1  0.593389  0.862117  0.249923  1
  Al  Al5  1  0.772511  0.772917  0.999333  1
  Al  Al6  1  0.160302  0.840830  0.602019  1
  Al  Al7  1  0.227489  0.227083  0.000667  1
  Al  Al8  1  0.138682  0.407465  0.249635  1
  Al  Al9  1  0.621722  0.378166  0.952063  1
  Al  Al10  1  0.840986  0.160987  0.101598  1
  Al  Al11  1  0.380721  0.622607  0.449463  1
  Al  Al12  1  0.159014  0.839013  0.898402  1
  Al  Al13  1  0.221706  0.479925  0.753659  1
  Al  Al14  1  0.378278  0.621834  0.047937  1
  Al  Al15  1  0.839698  0.159170  0.397981  1
  Al  Al16  1  0.619279  0.377393  0.550537  1
  Al  Al17  1  0.406611  0.137883  0.750077  1
  Al  Al18  1  0.778294  0.520075  0.246341  1
  Al  Al19  1  0.771747  0.772934  0.501168  1
  Al  Al20  1  0.228253  0.227066  0.498832  1
  Al  Al21  1  0.861318  0.592535  0.750365  1
  Tc  Tc22  1  0.000000  0.500000  0.000000  1
  Tc  Tc23  1  0.500000  0.000000  0.000000  1
  Tc  Tc24  1  0.500000  0.000000  0.500000  1
  Rh  Rh25  1  0.000000  0.500000  0.500000  1
