# generated using pymatgen
data_Zr4Ta5NbN12
_symmetry_space_group_name_H-M   'P 1'
_cell_length_a   5.33526427
_cell_length_b   5.33526352
_cell_length_c   10.66530500
_cell_angle_alpha   90.00000000
_cell_angle_beta   90.00000000
_cell_angle_gamma   120.10582867
_symmetry_Int_Tables_number   1
_chemical_formula_structural   Zr4Ta5NbN12
_chemical_formula_sum   'Zr4 Ta5 Nb1 N12'
_cell_volume   262.63439580
_cell_formula_units_Z   1
loop_
 _symmetry_equiv_pos_site_id
 _symmetry_equiv_pos_as_xyz
  1  'x, y, z'
loop_
 _atom_site_type_symbol
 _atom_site_label
 _atom_site_symmetry_multiplicity
 _atom_site_fract_x
 _atom_site_fract_y
 _atom_site_fract_z
 _atom_site_occupancy
  Zr  Zr0  1  0.666741  0.334373  0.999940  1
  Zr  Zr1  1  0.334373  0.666741  0.999940  1
  Zr  Zr2  1  0.334373  0.666741  0.500060  1
  Zr  Zr3  1  0.666741  0.334373  0.500060  1
  Ta  Ta4  1  0.319912  0.999731  0.750000  1
  Ta  Ta5  1  0.999731  0.319912  0.750000  1
  Ta  Ta6  1  0.319513  0.319513  0.250000  1
  Ta  Ta7  1  0.680241  0.000140  0.250000  1
  Ta  Ta8  1  0.000140  0.680241  0.250000  1
  Nb  Nb9  1  0.679087  0.679087  0.750000  1
  N  N10  1  0.657979  0.657979  0.370753  1
  N  N11  1  0.342997  0.000108  0.370757  1
  N  N12  1  0.000108  0.342997  0.370757  1
  N  N13  1  0.338129  0.338129  0.628178  1
  N  N14  1  0.656538  0.003824  0.628862  1
  N  N15  1  0.003824  0.656538  0.628862  1
  N  N16  1  0.338129  0.338129  0.871822  1
  N  N17  1  0.656538  0.003824  0.871138  1
  N  N18  1  0.003824  0.656538  0.871138  1
  N  N19  1  0.657979  0.657979  0.129247  1
  N  N20  1  0.342997  0.000108  0.129243  1
  N  N21  1  0.000108  0.342997  0.129243  1
