# generated using pymatgen
data_Er16Ag3HgRh4
_symmetry_space_group_name_H-M   'P 1'
_cell_length_a   9.42985594
_cell_length_b   9.42985567
_cell_length_c   9.42985610
_cell_angle_alpha   60.50790666
_cell_angle_beta   60.50789780
_cell_angle_gamma   60.50790518
_symmetry_Int_Tables_number   1
_chemical_formula_structural   Er16Ag3HgRh4
_chemical_formula_sum   'Er16 Ag3 Hg1 Rh4'
_cell_volume   599.73113695
_cell_formula_units_Z   1
loop_
 _symmetry_equiv_pos_site_id
 _symmetry_equiv_pos_as_xyz
  1  'x, y, z'
loop_
 _atom_site_type_symbol
 _atom_site_label
 _atom_site_symmetry_multiplicity
 _atom_site_fract_x
 _atom_site_fract_y
 _atom_site_fract_z
 _atom_site_occupancy
  Er  Er0  1  0.188938  0.188938  0.811636  1
  Er  Er1  1  0.435553  0.063679  0.063679  1
  Er  Er2  1  0.435249  0.063021  0.435249  1
  Er  Er3  1  0.063679  0.435553  0.063679  1
  Er  Er4  1  0.646881  0.058556  0.646881  1
  Er  Er5  1  0.188489  0.812713  0.812713  1
  Er  Er6  1  0.063679  0.063679  0.435553  1
  Er  Er7  1  0.811636  0.188938  0.188938  1
  Er  Er8  1  0.812713  0.812713  0.188489  1
  Er  Er9  1  0.646881  0.646881  0.058556  1
  Er  Er10  1  0.646904  0.646904  0.646904  1
  Er  Er11  1  0.063021  0.435249  0.435249  1
  Er  Er12  1  0.058556  0.646881  0.646881  1
  Er  Er13  1  0.812713  0.188489  0.812713  1
  Er  Er14  1  0.435249  0.435249  0.063021  1
  Er  Er15  1  0.188938  0.811636  0.188938  1
  Ag  Ag16  1  0.417056  0.748721  0.417056  1
  Ag  Ag17  1  0.417056  0.417056  0.748721  1
  Ag  Ag18  1  0.748721  0.417056  0.417056  1
  Hg  Hg19  1  0.417463  0.417463  0.417463  1
  Rh  Rh20  1  0.856289  0.431078  0.856289  1
  Rh  Rh21  1  0.856289  0.856289  0.431078  1
  Rh  Rh22  1  0.431078  0.856289  0.856289  1
  Rh  Rh23  1  0.856969  0.856969  0.856969  1
