# generated using pymatgen
data_Pr16In4Ir3Os
_symmetry_space_group_name_H-M   'P 1'
_cell_length_a   10.06932951
_cell_length_b   10.06932973
_cell_length_c   10.06932904
_cell_angle_alpha   60.02249046
_cell_angle_beta   60.02249329
_cell_angle_gamma   60.02249225
_symmetry_Int_Tables_number   1
_chemical_formula_structural   Pr16In4Ir3Os
_chemical_formula_sum   'Pr16 In4 Ir3 Os1'
_cell_volume   722.28406050
_cell_formula_units_Z   1
loop_
 _symmetry_equiv_pos_site_id
 _symmetry_equiv_pos_as_xyz
  1  'x, y, z'
loop_
 _atom_site_type_symbol
 _atom_site_label
 _atom_site_symmetry_multiplicity
 _atom_site_fract_x
 _atom_site_fract_y
 _atom_site_fract_z
 _atom_site_occupancy
  Pr  Pr0  1  0.347835  0.347835  0.347835  1
  Pr  Pr1  1  0.347895  0.347895  0.957287  1
  Pr  Pr2  1  0.347895  0.957287  0.347895  1
  Pr  Pr3  1  0.957287  0.347895  0.347895  1
  Pr  Pr4  1  0.810241  0.190781  0.190781  1
  Pr  Pr5  1  0.190097  0.807444  0.807444  1
  Pr  Pr6  1  0.190781  0.810241  0.190781  1
  Pr  Pr7  1  0.807444  0.190097  0.807444  1
  Pr  Pr8  1  0.190781  0.190781  0.810241  1
  Pr  Pr9  1  0.807444  0.807444  0.190097  1
  Pr  Pr10  1  0.939868  0.560258  0.560258  1
  Pr  Pr11  1  0.555243  0.941880  0.941880  1
  Pr  Pr12  1  0.560258  0.939868  0.560258  1
  Pr  Pr13  1  0.941880  0.555243  0.941880  1
  Pr  Pr14  1  0.560258  0.560258  0.939868  1
  Pr  Pr15  1  0.941880  0.941880  0.555243  1
  In  In16  1  0.580225  0.580225  0.580225  1
  In  In17  1  0.580711  0.580711  0.257738  1
  In  In18  1  0.580711  0.257738  0.580711  1
  In  In19  1  0.257738  0.580711  0.580711  1
  Ir  Ir20  1  0.142340  0.142340  0.578320  1
  Ir  Ir21  1  0.142340  0.578320  0.142340  1
  Ir  Ir22  1  0.578320  0.142340  0.142340  1
  Os  Os23  1  0.140526  0.140526  0.140526  1
