# generated using pymatgen
data_Sc22Ir6OsRh
_symmetry_space_group_name_H-M   'P 1'
_cell_length_a   9.47809137
_cell_length_b   9.47809200
_cell_length_c   9.51576800
_cell_angle_alpha   59.86841868
_cell_angle_beta   59.86841646
_cell_angle_gamma   59.84699079
_symmetry_Int_Tables_number   1
_chemical_formula_structural   Sc22Ir6OsRh
_chemical_formula_sum   'Sc22 Ir6 Os1 Rh1'
_cell_volume   602.56141136
_cell_formula_units_Z   1
loop_
 _symmetry_equiv_pos_site_id
 _symmetry_equiv_pos_as_xyz
  1  'x, y, z'
loop_
 _atom_site_type_symbol
 _atom_site_label
 _atom_site_symmetry_multiplicity
 _atom_site_fract_x
 _atom_site_fract_y
 _atom_site_fract_z
 _atom_site_occupancy
  Sc  Sc0  1  0.842296  0.842296  0.843835  1
  Sc  Sc1  1  0.529912  0.157319  0.156384  1
  Sc  Sc2  1  0.157704  0.157704  0.528425  1
  Sc  Sc3  1  0.157319  0.529912  0.156384  1
  Sc  Sc4  1  0.842296  0.842296  0.471575  1
  Sc  Sc5  1  0.842681  0.470088  0.843616  1
  Sc  Sc6  1  0.470088  0.842681  0.843616  1
  Sc  Sc7  1  0.157704  0.157704  0.156165  1
  Sc  Sc8  1  0.197028  0.802972  0.199559  1
  Sc  Sc9  1  0.197028  0.802972  0.800441  1
  Sc  Sc10  1  0.802972  0.197028  0.199559  1
  Sc  Sc11  1  0.801555  0.801555  0.198445  1
  Sc  Sc12  1  0.198445  0.198445  0.801555  1
  Sc  Sc13  1  0.802972  0.197028  0.800441  1
  Sc  Sc14  1  0.382451  0.382451  0.385536  1
  Sc  Sc15  1  0.148632  0.617370  0.616999  1
  Sc  Sc16  1  0.617370  0.148632  0.616999  1
  Sc  Sc17  1  0.617549  0.617549  0.150439  1
  Sc  Sc18  1  0.382630  0.851368  0.383001  1
  Sc  Sc19  1  0.382451  0.382451  0.849561  1
  Sc  Sc20  1  0.851368  0.382630  0.383001  1
  Sc  Sc21  1  0.617549  0.617549  0.614464  1
  Ir  Ir22  1  0.000000  0.000000  0.500000  1
  Ir  Ir23  1  0.500000  0.000000  0.500000  1
  Ir  Ir24  1  0.000000  0.500000  0.500000  1
  Ir  Ir25  1  0.500000  0.000000  0.000000  1
  Ir  Ir26  1  0.000000  0.500000  0.000000  1
  Ir  Ir27  1  0.000000  0.000000  0.000000  1
  Os  Os28  1  0.500000  0.500000  0.500000  1
  Rh  Rh29  1  0.500000  0.500000  0.000000  1
