# generated using pymatgen
data_Sr2Ir2RhO8
_symmetry_space_group_name_H-M   'P 1'
_cell_length_a   6.58610967
_cell_length_b   6.58610960
_cell_length_c   5.39231732
_cell_angle_alpha   72.06979409
_cell_angle_beta   72.06979326
_cell_angle_gamma   58.67000433
_symmetry_Int_Tables_number   1
_chemical_formula_structural   Sr2Ir2RhO8
_chemical_formula_sum   'Sr2 Ir2 Rh1 O8'
_cell_volume   186.92286027
_cell_formula_units_Z   1
loop_
 _symmetry_equiv_pos_site_id
 _symmetry_equiv_pos_as_xyz
  1  'x, y, z'
loop_
 _atom_site_type_symbol
 _atom_site_label
 _atom_site_symmetry_multiplicity
 _atom_site_fract_x
 _atom_site_fract_y
 _atom_site_fract_z
 _atom_site_occupancy
  Sr  Sr0  1  0.719017  0.719017  0.337165  1
  Sr  Sr1  1  0.280983  0.280983  0.662835  1
  Ir  Ir2  1  0.745409  0.254591  0.000000  1
  Ir  Ir3  1  0.254591  0.745409  0.000000  1
  Rh  Rh4  1  0.000000  0.000000  0.500000  1
  O  O5  1  0.403820  0.403820  0.955730  1
  O  O6  1  0.596180  0.596180  0.044270  1
  O  O7  1  0.908298  0.908298  0.911076  1
  O  O8  1  0.091702  0.091702  0.088924  1
  O  O9  1  0.317745  0.881547  0.616283  1
  O  O10  1  0.881547  0.317745  0.616283  1
  O  O11  1  0.118453  0.682255  0.383717  1
  O  O12  1  0.682255  0.118453  0.383717  1
