# generated using pymatgen
data_NaFe(Sb4Rh)3
_symmetry_space_group_name_H-M   'P 1'
_cell_length_a   8.08421167
_cell_length_b   8.08421153
_cell_length_c   8.08421190
_cell_angle_alpha   109.39100145
_cell_angle_beta   109.39100221
_cell_angle_gamma   109.39099457
_symmetry_Int_Tables_number   1
_chemical_formula_structural   NaFe(Sb4Rh)3
_chemical_formula_sum   'Na1 Fe1 Sb12 Rh3'
_cell_volume   407.91941274
_cell_formula_units_Z   1
loop_
 _symmetry_equiv_pos_site_id
 _symmetry_equiv_pos_as_xyz
  1  'x, y, z'
loop_
 _atom_site_type_symbol
 _atom_site_label
 _atom_site_symmetry_multiplicity
 _atom_site_fract_x
 _atom_site_fract_y
 _atom_site_fract_z
 _atom_site_occupancy
  Na  Na0  1  0.000000  0.000000  0.000000  1
  Fe  Fe1  1  0.500000  0.500000  0.500000  1
  Sb  Sb2  1  0.658584  0.813762  0.155434  1
  Sb  Sb3  1  0.844566  0.341416  0.186238  1
  Sb  Sb4  1  0.504358  0.834041  0.656297  1
  Sb  Sb5  1  0.834041  0.656297  0.504358  1
  Sb  Sb6  1  0.495642  0.165959  0.343703  1
  Sb  Sb7  1  0.155434  0.658584  0.813762  1
  Sb  Sb8  1  0.813762  0.155434  0.658584  1
  Sb  Sb9  1  0.186238  0.844566  0.341416  1
  Sb  Sb10  1  0.165959  0.343703  0.495642  1
  Sb  Sb11  1  0.656297  0.504358  0.834041  1
  Sb  Sb12  1  0.343703  0.495642  0.165959  1
  Sb  Sb13  1  0.341416  0.186238  0.844566  1
  Rh  Rh14  1  0.000000  0.000000  0.500000  1
  Rh  Rh15  1  0.000000  0.500000  0.000000  1
  Rh  Rh16  1  0.500000  0.000000  0.000000  1
