# generated using pymatgen
data_CeNb8CuSe16
_symmetry_space_group_name_H-M   'P 1'
_cell_length_a   7.00631400
_cell_length_b   7.00631408
_cell_length_c   13.88251900
_cell_angle_alpha   90.00000000
_cell_angle_beta   90.00000000
_cell_angle_gamma   119.99999964
_symmetry_Int_Tables_number   1
_chemical_formula_structural   CeNb8CuSe16
_chemical_formula_sum   'Ce1 Nb8 Cu1 Se16'
_cell_volume   590.17133097
_cell_formula_units_Z   1
loop_
 _symmetry_equiv_pos_site_id
 _symmetry_equiv_pos_as_xyz
  1  'x, y, z'
loop_
 _atom_site_type_symbol
 _atom_site_label
 _atom_site_symmetry_multiplicity
 _atom_site_fract_x
 _atom_site_fract_y
 _atom_site_fract_z
 _atom_site_occupancy
  Ce  Ce0  1  0.000000  0.000000  0.500000  1
  Nb  Nb1  1  0.982341  0.491171  0.231467  1
  Nb  Nb2  1  0.017659  0.508829  0.768533  1
  Nb  Nb3  1  0.491171  0.508829  0.768533  1
  Nb  Nb4  1  0.508829  0.017659  0.231467  1
  Nb  Nb5  1  0.000000  0.000000  0.768641  1
  Nb  Nb6  1  0.000000  0.000000  0.231359  1
  Nb  Nb7  1  0.508829  0.491171  0.231467  1
  Nb  Nb8  1  0.491171  0.982341  0.768533  1
  Cu  Cu9  1  0.000000  0.000000  0.000000  1
  Se  Se10  1  0.333333  0.666667  0.640363  1
  Se  Se11  1  0.666667  0.333333  0.106937  1
  Se  Se12  1  0.666667  0.333333  0.359637  1
  Se  Se13  1  0.333333  0.666667  0.893063  1
  Se  Se14  1  0.169111  0.338222  0.350949  1
  Se  Se15  1  0.830027  0.169973  0.887244  1
  Se  Se16  1  0.339946  0.169973  0.887244  1
  Se  Se17  1  0.661778  0.830889  0.350949  1
  Se  Se18  1  0.169111  0.830889  0.350949  1
  Se  Se19  1  0.830027  0.660054  0.887244  1
  Se  Se20  1  0.169973  0.339946  0.112756  1
  Se  Se21  1  0.830889  0.169111  0.649051  1
  Se  Se22  1  0.338222  0.169111  0.649051  1
  Se  Se23  1  0.660054  0.830027  0.112756  1
  Se  Se24  1  0.169973  0.830027  0.112756  1
  Se  Se25  1  0.830889  0.661778  0.649051  1
