# generated using pymatgen
data_Y14Er2MgHg3Pd4
_symmetry_space_group_name_H-M   'P 1'
_cell_length_a   9.70344813
_cell_length_b   9.71700367
_cell_length_c   9.72074300
_cell_angle_alpha   59.98727272
_cell_angle_beta   59.94102647
_cell_angle_gamma   59.90579395
_symmetry_Int_Tables_number   1
_chemical_formula_structural   Y14Er2MgHg3Pd4
_chemical_formula_sum   'Y14 Er2 Mg1 Hg3 Pd4'
_cell_volume   647.28778133
_cell_formula_units_Z   1
loop_
 _symmetry_equiv_pos_site_id
 _symmetry_equiv_pos_as_xyz
  1  'x, y, z'
loop_
 _atom_site_type_symbol
 _atom_site_label
 _atom_site_symmetry_multiplicity
 _atom_site_fract_x
 _atom_site_fract_y
 _atom_site_fract_z
 _atom_site_occupancy
  Y  Y0  1  0.356141  0.938802  0.352529  1
  Y  Y1  1  0.923333  0.358207  0.359230  1
  Y  Y2  1  0.809037  0.190502  0.190453  1
  Y  Y3  1  0.187199  0.811232  0.812009  1
  Y  Y4  1  0.187199  0.811232  0.189560  1
  Y  Y5  1  0.809037  0.190502  0.810008  1
  Y  Y6  1  0.187117  0.189729  0.811577  1
  Y  Y7  1  0.809673  0.809793  0.190267  1
  Y  Y8  1  0.934473  0.565083  0.565085  1
  Y  Y9  1  0.564354  0.935201  0.934872  1
  Y  Y10  1  0.564354  0.935201  0.565573  1
  Y  Y11  1  0.934473  0.565083  0.935360  1
  Y  Y12  1  0.563721  0.565225  0.935527  1
  Y  Y13  1  0.933760  0.934997  0.565622  1
  Er  Er14  1  0.356214  0.351896  0.352619  1
  Er  Er15  1  0.356214  0.351896  0.939271  1
  Mg  Mg16  1  0.280692  0.572903  0.573202  1
  Hg  Hg17  1  0.582241  0.589133  0.589528  1
  Hg  Hg18  1  0.582241  0.589133  0.239098  1
  Hg  Hg19  1  0.582197  0.239336  0.589233  1
  Pd  Pd20  1  0.143558  0.148335  0.145218  1
  Pd  Pd21  1  0.143558  0.148335  0.562888  1
  Pd  Pd22  1  0.145207  0.560919  0.146937  1
  Pd  Pd23  1  0.564002  0.147324  0.144337  1
