# generated using pymatgen
data_Tb4Er4B24Ru3W
_symmetry_space_group_name_H-M   'P 1'
_cell_length_a   3.64551300
_cell_length_b   9.16533541
_cell_length_c   11.56814101
_cell_angle_alpha   89.85253424
_cell_angle_beta   90.00000000
_cell_angle_gamma   90.00000000
_symmetry_Int_Tables_number   1
_chemical_formula_structural   Tb4Er4B24Ru3W
_chemical_formula_sum   'Tb4 Er4 B24 Ru3 W1'
_cell_volume   386.51748879
_cell_formula_units_Z   1
loop_
 _symmetry_equiv_pos_site_id
 _symmetry_equiv_pos_as_xyz
  1  'x, y, z'
loop_
 _atom_site_type_symbol
 _atom_site_label
 _atom_site_symmetry_multiplicity
 _atom_site_fract_x
 _atom_site_fract_y
 _atom_site_fract_z
 _atom_site_occupancy
  Tb  Tb0  1  0.000000  0.321421  0.413623  1
  Tb  Tb1  1  0.000000  0.677706  0.585500  1
  Tb  Tb2  1  0.000000  0.820753  0.086672  1
  Tb  Tb3  1  0.000000  0.176459  0.914597  1
  Er  Er4  1  0.000000  0.946217  0.373149  1
  Er  Er5  1  0.000000  0.057778  0.629106  1
  Er  Er6  1  0.000000  0.442500  0.125960  1
  Er  Er7  1  0.000000  0.556776  0.870691  1
  B  B8  1  0.500000  0.550433  0.436053  1
  B  B9  1  0.500000  0.445443  0.569052  1
  B  B10  1  0.500000  0.054345  0.067344  1
  B  B11  1  0.500000  0.945655  0.932569  1
  B  B12  1  0.500000  0.752497  0.421865  1
  B  B13  1  0.500000  0.251429  0.581998  1
  B  B14  1  0.500000  0.248482  0.080323  1
  B  B15  1  0.500000  0.751071  0.918428  1
  B  B16  1  0.500000  0.795748  0.264340  1
  B  B17  1  0.500000  0.208761  0.734282  1
  B  B18  1  0.500000  0.290473  0.232160  1
  B  B19  1  0.500000  0.709606  0.766063  1
  B  B20  1  0.500000  0.631609  0.182012  1
  B  B21  1  0.500000  0.368281  0.815097  1
  B  B22  1  0.500000  0.131536  0.314063  1
  B  B23  1  0.500000  0.869813  0.685577  1
  B  B24  1  0.500000  0.984331  0.212953  1
  B  B25  1  0.500000  0.016527  0.787966  1
  B  B26  1  0.500000  0.477493  0.285811  1
  B  B27  1  0.500000  0.515778  0.713413  1
  B  B28  1  0.500000  0.604996  0.027039  1
  B  B29  1  0.500000  0.393745  0.969707  1
  B  B30  1  0.500000  0.106435  0.471732  1
  B  B31  1  0.500000  0.897524  0.530429  1
  Ru  Ru32  1  0.000000  0.360838  0.680736  1
  Ru  Ru33  1  0.000000  0.137971  0.178420  1
  Ru  Ru34  1  0.000000  0.861733  0.820277  1
  W  W35  1  0.000000  0.637838  0.320995  1
