# generated using pymatgen
data_CeTh2InSn2Rh3
_symmetry_space_group_name_H-M   'P 1'
_cell_length_a   7.56925880
_cell_length_b   7.56925944
_cell_length_c   4.11330000
_cell_angle_alpha   90.00000000
_cell_angle_beta   90.00000000
_cell_angle_gamma   120.25110318
_symmetry_Int_Tables_number   1
_chemical_formula_structural   CeTh2InSn2Rh3
_chemical_formula_sum   'Ce1 Th2 In1 Sn2 Rh3'
_cell_volume   203.57446629
_cell_formula_units_Z   1
loop_
 _symmetry_equiv_pos_site_id
 _symmetry_equiv_pos_as_xyz
  1  'x, y, z'
loop_
 _atom_site_type_symbol
 _atom_site_label
 _atom_site_symmetry_multiplicity
 _atom_site_fract_x
 _atom_site_fract_y
 _atom_site_fract_z
 _atom_site_occupancy
  Ce  Ce0  1  0.412476  0.412476  0.500000  1
  Th  Th1  1  0.586581  0.998773  0.500000  1
  Th  Th2  1  0.998773  0.586581  0.500000  1
  In  In3  1  0.745887  0.745887  0.000000  1
  Sn  Sn4  1  0.249261  0.002078  0.000000  1
  Sn  Sn5  1  0.002078  0.249261  0.000000  1
  Rh  Rh6  1  0.669101  0.329684  0.000000  1
  Rh  Rh7  1  0.329684  0.669101  0.000000  1
  Rh  Rh8  1  0.006160  0.006160  0.500000  1
