# generated using pymatgen
data_Be2Nb4(CrFe)3
_symmetry_space_group_name_H-M   'P 1'
_cell_length_a   4.78011500
_cell_length_b   4.78011473
_cell_length_c   7.91916600
_cell_angle_alpha   90.00000000
_cell_angle_beta   90.00000000
_cell_angle_gamma   119.99999495
_symmetry_Int_Tables_number   1
_chemical_formula_structural   Be2Nb4(CrFe)3
_chemical_formula_sum   'Be2 Nb4 Cr3 Fe3'
_cell_volume   156.70641162
_cell_formula_units_Z   1
loop_
 _symmetry_equiv_pos_site_id
 _symmetry_equiv_pos_as_xyz
  1  'x, y, z'
loop_
 _atom_site_type_symbol
 _atom_site_label
 _atom_site_symmetry_multiplicity
 _atom_site_fract_x
 _atom_site_fract_y
 _atom_site_fract_z
 _atom_site_occupancy
  Be  Be0  1  0.000000  0.000000  0.494429  1
  Be  Be1  1  0.000000  0.000000  0.005571  1
  Nb  Nb2  1  0.333333  0.666667  0.434140  1
  Nb  Nb3  1  0.666667  0.333333  0.557532  1
  Nb  Nb4  1  0.666667  0.333333  0.942468  1
  Nb  Nb5  1  0.333333  0.666667  0.065860  1
  Cr  Cr6  1  0.167784  0.832216  0.750000  1
  Cr  Cr7  1  0.167784  0.335568  0.750000  1
  Cr  Cr8  1  0.664432  0.832216  0.750000  1
  Fe  Fe9  1  0.832942  0.167058  0.250000  1
  Fe  Fe10  1  0.832942  0.665884  0.250000  1
  Fe  Fe11  1  0.334116  0.167058  0.250000  1
