# generated using pymatgen
data_Tb3Pr(ZnIr)4
_symmetry_space_group_name_H-M   'P 1'
_cell_length_a   4.12236000
_cell_length_b   7.00828066
_cell_length_c   7.99436700
_cell_angle_alpha   89.74637249
_cell_angle_beta   90.00000000
_cell_angle_gamma   90.00000000
_symmetry_Int_Tables_number   1
_chemical_formula_structural   Tb3Pr(ZnIr)4
_chemical_formula_sum   'Tb3 Pr1 Zn4 Ir4'
_cell_volume   230.96024309
_cell_formula_units_Z   1
loop_
 _symmetry_equiv_pos_site_id
 _symmetry_equiv_pos_as_xyz
  1  'x, y, z'
loop_
 _atom_site_type_symbol
 _atom_site_label
 _atom_site_symmetry_multiplicity
 _atom_site_fract_x
 _atom_site_fract_y
 _atom_site_fract_z
 _atom_site_occupancy
  Tb  Tb0  1  0.250000  0.531418  0.183121  1
  Tb  Tb1  1  0.750000  0.470136  0.815125  1
  Tb  Tb2  1  0.750000  0.969804  0.687834  1
  Pr  Pr3  1  0.250000  0.028723  0.314283  1
  Zn  Zn4  1  0.250000  0.640986  0.568527  1
  Zn  Zn5  1  0.750000  0.357746  0.435320  1
  Zn  Zn6  1  0.750000  0.855507  0.063912  1
  Zn  Zn7  1  0.250000  0.143191  0.932005  1
  Ir  Ir8  1  0.250000  0.762789  0.879396  1
  Ir  Ir9  1  0.750000  0.244354  0.115564  1
  Ir  Ir10  1  0.750000  0.731476  0.381555  1
  Ir  Ir11  1  0.250000  0.263871  0.623358  1
