# generated using pymatgen
data_CsSbPt2Pb
_symmetry_space_group_name_H-M   'P 1'
_cell_length_a   4.82559560
_cell_length_b   4.82559566
_cell_length_c   7.32003400
_cell_angle_alpha   103.01308976
_cell_angle_beta   103.01307775
_cell_angle_gamma   98.48371982
_symmetry_Int_Tables_number   1
_chemical_formula_structural   CsSbPt2Pb
_chemical_formula_sum   'Cs1 Sb1 Pt2 Pb1'
_cell_volume   158.24701816
_cell_formula_units_Z   1
loop_
 _symmetry_equiv_pos_site_id
 _symmetry_equiv_pos_as_xyz
  1  'x, y, z'
loop_
 _atom_site_type_symbol
 _atom_site_label
 _atom_site_symmetry_multiplicity
 _atom_site_fract_x
 _atom_site_fract_y
 _atom_site_fract_z
 _atom_site_occupancy
  Cs  Cs0  1  0.995281  0.995281  0.994128  1
  Sb  Sb1  1  0.375860  0.375860  0.658038  1
  Pt  Pt2  1  0.805655  0.205637  0.513646  1
  Pt  Pt3  1  0.205637  0.805655  0.513646  1
  Pb  Pb4  1  0.617564  0.617564  0.320543  1
