# generated using pymatgen
data_Dy3Lu13(CdPt)4
_symmetry_space_group_name_H-M   'P 1'
_cell_length_a   9.52462746
_cell_length_b   9.53171650
_cell_length_c   9.51364913
_cell_angle_alpha   60.01342046
_cell_angle_beta   59.93243864
_cell_angle_gamma   59.89917437
_symmetry_Int_Tables_number   1
_chemical_formula_structural   Dy3Lu13(CdPt)4
_chemical_formula_sum   'Dy3 Lu13 Cd4 Pt4'
_cell_volume   610.01601985
_cell_formula_units_Z   1
loop_
 _symmetry_equiv_pos_site_id
 _symmetry_equiv_pos_as_xyz
  1  'x, y, z'
loop_
 _atom_site_type_symbol
 _atom_site_label
 _atom_site_symmetry_multiplicity
 _atom_site_fract_x
 _atom_site_fract_y
 _atom_site_fract_z
 _atom_site_occupancy
  Dy  Dy0  1  0.936040  0.563959  0.936040  1
  Dy  Dy1  1  0.564469  0.565863  0.934268  1
  Dy  Dy2  1  0.934268  0.935400  0.564468  1
  Lu  Lu3  1  0.352185  0.351013  0.352723  1
  Lu  Lu4  1  0.353979  0.351947  0.941777  1
  Lu  Lu5  1  0.352723  0.944080  0.352185  1
  Lu  Lu6  1  0.941777  0.352298  0.353979  1
  Lu  Lu7  1  0.810474  0.188788  0.189922  1
  Lu  Lu8  1  0.189922  0.810816  0.810474  1
  Lu  Lu9  1  0.189720  0.810280  0.189720  1
  Lu  Lu10  1  0.811052  0.188948  0.811052  1
  Lu  Lu11  1  0.189961  0.188743  0.810417  1
  Lu  Lu12  1  0.810417  0.810879  0.189961  1
  Lu  Lu13  1  0.935605  0.564288  0.563186  1
  Lu  Lu14  1  0.563186  0.936921  0.935605  1
  Lu  Lu15  1  0.564565  0.935435  0.564565  1
  Cd  Cd16  1  0.581962  0.582333  0.581299  1
  Cd  Cd17  1  0.581329  0.582281  0.254731  1
  Cd  Cd18  1  0.581299  0.254405  0.581962  1
  Cd  Cd19  1  0.254731  0.581658  0.581329  1
  Pt  Pt20  1  0.143834  0.142854  0.142367  1
  Pt  Pt21  1  0.143363  0.143501  0.570773  1
  Pt  Pt22  1  0.142367  0.570946  0.143834  1
  Pt  Pt23  1  0.570773  0.142365  0.143363  1
