# generated using pymatgen
data_Yb4Ga18(PtRh)3
_symmetry_space_group_name_H-M   'P 1'
_cell_length_a   7.59863828
_cell_length_b   7.59863734
_cell_length_c   9.60002937
_cell_angle_alpha   89.89435546
_cell_angle_beta   89.89435354
_cell_angle_gamma   119.63914458
_symmetry_Int_Tables_number   1
_chemical_formula_structural   Yb4Ga18(PtRh)3
_chemical_formula_sum   'Yb4 Ga18 Pt3 Rh3'
_cell_volume   481.76971239
_cell_formula_units_Z   1
loop_
 _symmetry_equiv_pos_site_id
 _symmetry_equiv_pos_as_xyz
  1  'x, y, z'
loop_
 _atom_site_type_symbol
 _atom_site_label
 _atom_site_symmetry_multiplicity
 _atom_site_fract_x
 _atom_site_fract_y
 _atom_site_fract_z
 _atom_site_occupancy
  Yb  Yb0  1  0.000458  0.668599  0.249996  1
  Yb  Yb1  1  0.003078  0.334040  0.750534  1
  Yb  Yb2  1  0.665960  0.996922  0.249466  1
  Yb  Yb3  1  0.331401  0.999542  0.750004  1
  Ga  Ga4  1  0.121648  0.121830  0.250186  1
  Ga  Ga5  1  0.878170  0.878352  0.749814  1
  Ga  Ga6  1  0.998851  0.330286  0.080645  1
  Ga  Ga7  1  0.999433  0.670224  0.919607  1
  Ga  Ga8  1  0.996867  0.666230  0.578492  1
  Ga  Ga9  1  0.333770  0.003133  0.421508  1
  Ga  Ga10  1  0.993908  0.329656  0.420450  1
  Ga  Ga11  1  0.670344  0.006092  0.579550  1
  Ga  Ga12  1  0.669714  0.001149  0.919355  1
  Ga  Ga13  1  0.329776  0.000567  0.080393  1
  Ga  Ga14  1  0.330477  0.326913  0.564174  1
  Ga  Ga15  1  0.673087  0.669523  0.435826  1
  Ga  Ga16  1  0.672617  0.672848  0.067181  1
  Ga  Ga17  1  0.327152  0.327383  0.932819  1
  Ga  Ga18  1  0.338700  0.540985  0.249948  1
  Ga  Ga19  1  0.660671  0.452650  0.747341  1
  Ga  Ga20  1  0.547350  0.339329  0.252659  1
  Ga  Ga21  1  0.459015  0.661300  0.750052  1
  Pt  Pt22  1  0.670098  0.329902  0.000000  1
  Pt  Pt23  1  0.328807  0.671193  0.000000  1
  Pt  Pt24  1  0.329367  0.670633  0.500000  1
  Rh  Rh25  1  0.670294  0.329706  0.500000  1
  Rh  Rh26  1  0.999385  0.000615  0.000000  1
  Rh  Rh27  1  0.999603  0.000397  0.500000  1
