# generated using pymatgen
data_Er9Lu(Tl3Cl)2
_symmetry_space_group_name_H-M   'P 1'
_cell_length_a   9.12729800
_cell_length_b   9.12729819
_cell_length_c   6.54581800
_cell_angle_alpha   90.00000000
_cell_angle_beta   90.00000000
_cell_angle_gamma   120.00001381
_symmetry_Int_Tables_number   1
_chemical_formula_structural   Er9Lu(Tl3Cl)2
_chemical_formula_sum   'Er9 Lu1 Tl6 Cl2'
_cell_volume   472.25761188
_cell_formula_units_Z   1
loop_
 _symmetry_equiv_pos_site_id
 _symmetry_equiv_pos_as_xyz
  1  'x, y, z'
loop_
 _atom_site_type_symbol
 _atom_site_label
 _atom_site_symmetry_multiplicity
 _atom_site_fract_x
 _atom_site_fract_y
 _atom_site_fract_z
 _atom_site_occupancy
  Er  Er0  1  0.260307  0.999867  0.249870  1
  Er  Er1  1  0.739559  0.999867  0.750130  1
  Er  Er2  1  0.000133  0.260441  0.249870  1
  Er  Er3  1  0.000133  0.739693  0.750130  1
  Er  Er4  1  0.739559  0.739693  0.249870  1
  Er  Er5  1  0.260307  0.260441  0.750130  1
  Er  Er6  1  0.666667  0.333333  0.000000  1
  Er  Er7  1  0.666667  0.333333  0.500000  1
  Er  Er8  1  0.333333  0.666667  0.500000  1
  Lu  Lu9  1  0.333333  0.666667  0.000000  1
  Tl  Tl10  1  0.607834  0.999379  0.249279  1
  Tl  Tl11  1  0.391545  0.999379  0.750721  1
  Tl  Tl12  1  0.000621  0.608455  0.249279  1
  Tl  Tl13  1  0.000621  0.392166  0.750721  1
  Tl  Tl14  1  0.391545  0.392166  0.249279  1
  Tl  Tl15  1  0.607834  0.608455  0.750721  1
  Cl  Cl16  1  0.000000  0.000000  0.000000  1
  Cl  Cl17  1  0.000000  0.000000  0.500000  1
