# generated using pymatgen
data_Ho8Al(CuPd11)2
_symmetry_space_group_name_H-M   'P 1'
_cell_length_a   8.20550600
_cell_length_b   8.31525000
_cell_length_c   8.37197900
_cell_angle_alpha   90.00000000
_cell_angle_beta   90.00000000
_cell_angle_gamma   90.00000000
_symmetry_Int_Tables_number   1
_chemical_formula_structural   Ho8Al(CuPd11)2
_chemical_formula_sum   'Ho8 Al1 Cu2 Pd22'
_cell_volume   571.22710745
_cell_formula_units_Z   1
loop_
 _symmetry_equiv_pos_site_id
 _symmetry_equiv_pos_as_xyz
  1  'x, y, z'
loop_
 _atom_site_type_symbol
 _atom_site_label
 _atom_site_symmetry_multiplicity
 _atom_site_fract_x
 _atom_site_fract_y
 _atom_site_fract_z
 _atom_site_occupancy
  Ho  Ho0  1  0.252234  0.250336  0.255134  1
  Ho  Ho1  1  0.747766  0.749664  0.744866  1
  Ho  Ho2  1  0.747766  0.749664  0.255134  1
  Ho  Ho3  1  0.747766  0.250336  0.744866  1
  Ho  Ho4  1  0.252234  0.250336  0.744866  1
  Ho  Ho5  1  0.252234  0.749664  0.255134  1
  Ho  Ho6  1  0.252234  0.749664  0.744866  1
  Ho  Ho7  1  0.747766  0.250336  0.255134  1
  Al  Al8  1  0.000000  0.000000  0.000000  1
  Cu  Cu9  1  0.262339  0.500000  0.000000  1
  Cu  Cu10  1  0.737661  0.500000  0.000000  1
  Pd  Pd11  1  0.000000  0.259281  0.500000  1
  Pd  Pd12  1  0.500000  0.266989  0.000000  1
  Pd  Pd13  1  0.000000  0.740719  0.500000  1
  Pd  Pd14  1  0.500000  0.733011  0.000000  1
  Pd  Pd15  1  0.500000  0.000000  0.259086  1
  Pd  Pd16  1  0.259145  0.000000  0.500000  1
  Pd  Pd17  1  0.500000  0.000000  0.740914  1
  Pd  Pd18  1  0.740855  0.000000  0.500000  1
  Pd  Pd19  1  0.000000  0.500000  0.258570  1
  Pd  Pd20  1  0.000000  0.500000  0.741430  1
  Pd  Pd21  1  0.253262  0.500000  0.500000  1
  Pd  Pd22  1  0.746738  0.500000  0.500000  1
  Pd  Pd23  1  0.500000  0.253787  0.500000  1
  Pd  Pd24  1  0.500000  0.746213  0.500000  1
  Pd  Pd25  1  0.500000  0.500000  0.248452  1
  Pd  Pd26  1  0.500000  0.500000  0.751548  1
  Pd  Pd27  1  0.289957  0.000000  0.000000  1
  Pd  Pd28  1  0.710043  0.000000  0.000000  1
  Pd  Pd29  1  0.000000  0.295246  0.000000  1
  Pd  Pd30  1  0.000000  0.704754  0.000000  1
  Pd  Pd31  1  0.000000  0.000000  0.286431  1
  Pd  Pd32  1  0.000000  0.000000  0.713569  1
