# generated using pymatgen
data_Sm2Er6Be3Si12Rh
_symmetry_space_group_name_H-M   'P 1'
_cell_length_a   7.93430600
_cell_length_b   7.93430775
_cell_length_c   8.06174100
_cell_angle_alpha   90.00000000
_cell_angle_beta   90.00000000
_cell_angle_gamma   120.00000105
_symmetry_Int_Tables_number   1
_chemical_formula_structural   Sm2Er6Be3Si12Rh
_chemical_formula_sum   'Sm2 Er6 Be3 Si12 Rh1'
_cell_volume   439.51879950
_cell_formula_units_Z   1
loop_
 _symmetry_equiv_pos_site_id
 _symmetry_equiv_pos_as_xyz
  1  'x, y, z'
loop_
 _atom_site_type_symbol
 _atom_site_label
 _atom_site_symmetry_multiplicity
 _atom_site_fract_x
 _atom_site_fract_y
 _atom_site_fract_z
 _atom_site_occupancy
  Sm  Sm0  1  0.000000  0.000000  0.248500  1
  Sm  Sm1  1  0.000000  0.000000  0.752108  1
  Er  Er2  1  0.499021  0.500979  0.249001  1
  Er  Er3  1  0.499021  0.998042  0.249001  1
  Er  Er4  1  0.001958  0.500979  0.249001  1
  Er  Er5  1  0.501679  0.498321  0.751116  1
  Er  Er6  1  0.996642  0.498321  0.751116  1
  Er  Er7  1  0.501679  0.003358  0.751116  1
  Be  Be8  1  0.666667  0.333333  0.497534  1
  Be  Be9  1  0.666667  0.333333  0.002569  1
  Be  Be10  1  0.333333  0.666667  0.994085  1
  Si  Si11  1  0.828401  0.171599  0.498481  1
  Si  Si12  1  0.828401  0.656802  0.498481  1
  Si  Si13  1  0.343198  0.171599  0.498481  1
  Si  Si14  1  0.825979  0.174021  0.000902  1
  Si  Si15  1  0.825979  0.651961  0.000902  1
  Si  Si16  1  0.348039  0.174021  0.000902  1
  Si  Si17  1  0.173684  0.826316  0.999874  1
  Si  Si18  1  0.652632  0.826316  0.999874  1
  Si  Si19  1  0.173684  0.347368  0.999874  1
  Si  Si20  1  0.168714  0.831286  0.500633  1
  Si  Si21  1  0.662573  0.831286  0.500633  1
  Si  Si22  1  0.168714  0.337427  0.500633  1
  Rh  Rh23  1  0.333333  0.666667  0.505180  1
