# generated using pymatgen
data_Nd4TmPb4
_symmetry_space_group_name_H-M   'P 1'
_cell_length_a   8.33520000
_cell_length_b   8.45986500
_cell_length_c   16.06033400
_cell_angle_alpha   90.00000000
_cell_angle_beta   90.00000000
_cell_angle_gamma   90.00000000
_symmetry_Int_Tables_number   1
_chemical_formula_structural   Nd4TmPb4
_chemical_formula_sum   'Nd16 Tm4 Pb16'
_cell_volume   1132.48909987
_cell_formula_units_Z   4
loop_
 _symmetry_equiv_pos_site_id
 _symmetry_equiv_pos_as_xyz
  1  'x, y, z'
loop_
 _atom_site_type_symbol
 _atom_site_label
 _atom_site_symmetry_multiplicity
 _atom_site_fract_x
 _atom_site_fract_y
 _atom_site_fract_z
 _atom_site_occupancy
  Nd  Nd0  1  0.625043  0.159750  0.619816  1
  Nd  Nd1  1  0.125043  0.340250  0.880184  1
  Nd  Nd2  1  0.374957  0.840250  0.119816  1
  Nd  Nd3  1  0.874957  0.659750  0.380184  1
  Nd  Nd4  1  0.374957  0.840250  0.380184  1
  Nd  Nd5  1  0.874957  0.659750  0.119816  1
  Nd  Nd6  1  0.625043  0.159750  0.880184  1
  Nd  Nd7  1  0.125043  0.340250  0.619816  1
  Nd  Nd8  1  0.470513  0.678678  0.599920  1
  Nd  Nd9  1  0.970513  0.821322  0.900080  1
  Nd  Nd10  1  0.529487  0.321322  0.099920  1
  Nd  Nd11  1  0.029487  0.178678  0.400080  1
  Nd  Nd12  1  0.529487  0.321322  0.400080  1
  Nd  Nd13  1  0.029487  0.178678  0.099920  1
  Nd  Nd14  1  0.470513  0.678678  0.900080  1
  Nd  Nd15  1  0.970513  0.821322  0.599920  1
  Tm  Tm16  1  0.793040  0.496819  0.750000  1
  Tm  Tm17  1  0.293040  0.003181  0.750000  1
  Tm  Tm18  1  0.206960  0.503181  0.250000  1
  Tm  Tm19  1  0.706960  0.996819  0.250000  1
  Pb  Pb20  1  0.716894  0.968101  0.454854  1
  Pb  Pb21  1  0.216894  0.531899  0.045146  1
  Pb  Pb22  1  0.283106  0.031899  0.954854  1
  Pb  Pb23  1  0.783106  0.468101  0.545146  1
  Pb  Pb24  1  0.283106  0.031899  0.545146  1
  Pb  Pb25  1  0.783106  0.468101  0.954854  1
  Pb  Pb26  1  0.716894  0.968101  0.045146  1
  Pb  Pb27  1  0.216894  0.531899  0.454854  1
  Pb  Pb28  1  0.430824  0.376215  0.750000  1
  Pb  Pb29  1  0.930824  0.123785  0.750000  1
  Pb  Pb30  1  0.569176  0.623785  0.250000  1
  Pb  Pb31  1  0.069176  0.876215  0.250000  1
  Pb  Pb32  1  0.661000  0.848105  0.750000  1
  Pb  Pb33  1  0.161000  0.651895  0.750000  1
  Pb  Pb34  1  0.339000  0.151895  0.250000  1
  Pb  Pb35  1  0.839000  0.348105  0.250000  1
