# generated using pymatgen
data_Tb16Hg4Pd3Ru
_symmetry_space_group_name_H-M   'P 1'
_cell_length_a   9.70021515
_cell_length_b   9.70007791
_cell_length_c   9.70037332
_cell_angle_alpha   59.64259266
_cell_angle_beta   59.64152599
_cell_angle_gamma   59.62752641
_symmetry_Int_Tables_number   1
_chemical_formula_structural   Tb16Hg4Pd3Ru
_chemical_formula_sum   'Tb16 Hg4 Pd3 Ru1'
_cell_volume   640.08101193
_cell_formula_units_Z   1
loop_
 _symmetry_equiv_pos_site_id
 _symmetry_equiv_pos_as_xyz
  1  'x, y, z'
loop_
 _atom_site_type_symbol
 _atom_site_label
 _atom_site_symmetry_multiplicity
 _atom_site_fract_x
 _atom_site_fract_y
 _atom_site_fract_z
 _atom_site_occupancy
  Tb  Tb0  1  0.354708  0.354641  0.354595  1
  Tb  Tb1  1  0.353319  0.353308  0.937175  1
  Tb  Tb2  1  0.353265  0.937200  0.353284  1
  Tb  Tb3  1  0.937318  0.353305  0.353328  1
  Tb  Tb4  1  0.817697  0.188439  0.188495  1
  Tb  Tb5  1  0.188586  0.810734  0.810798  1
  Tb  Tb6  1  0.188370  0.817855  0.188393  1
  Tb  Tb7  1  0.810899  0.188615  0.810895  1
  Tb  Tb8  1  0.188418  0.188382  0.817799  1
  Tb  Tb9  1  0.810850  0.810774  0.188677  1
  Tb  Tb10  1  0.935655  0.565043  0.564985  1
  Tb  Tb11  1  0.560196  0.936726  0.936671  1
  Tb  Tb12  1  0.564941  0.935597  0.565024  1
  Tb  Tb13  1  0.936600  0.560109  0.936734  1
  Tb  Tb14  1  0.564951  0.565094  0.935560  1
  Tb  Tb15  1  0.936584  0.936780  0.560135  1
  Hg  Hg16  1  0.584742  0.584554  0.584680  1
  Hg  Hg17  1  0.585392  0.585373  0.240611  1
  Hg  Hg18  1  0.585332  0.240755  0.585377  1
  Hg  Hg19  1  0.240554  0.585400  0.585447  1
  Pd  Pd20  1  0.145034  0.144806  0.566779  1
  Pd  Pd21  1  0.145030  0.566752  0.144838  1
  Pd  Pd22  1  0.566771  0.144806  0.144876  1
  Ru  Ru23  1  0.144788  0.144953  0.144848  1
