# generated using pymatgen
data_La4Al2Ga2IrPt3
_symmetry_space_group_name_H-M   'P 1'
_cell_length_a   4.54299800
_cell_length_b   7.20303328
_cell_length_c   7.98900294
_cell_angle_alpha   89.43709352
_cell_angle_beta   90.00000000
_cell_angle_gamma   90.00000000
_symmetry_Int_Tables_number   1
_chemical_formula_structural   La4Al2Ga2IrPt3
_chemical_formula_sum   'La4 Al2 Ga2 Ir1 Pt3'
_cell_volume   261.41444891
_cell_formula_units_Z   1
loop_
 _symmetry_equiv_pos_site_id
 _symmetry_equiv_pos_as_xyz
  1  'x, y, z'
loop_
 _atom_site_type_symbol
 _atom_site_label
 _atom_site_symmetry_multiplicity
 _atom_site_fract_x
 _atom_site_fract_y
 _atom_site_fract_z
 _atom_site_occupancy
  La  La0  1  0.250000  0.038900  0.683115  1
  La  La1  1  0.250000  0.535381  0.820397  1
  La  La2  1  0.750000  0.970298  0.313948  1
  La  La3  1  0.750000  0.462543  0.182905  1
  Al  Al4  1  0.250000  0.636532  0.434990  1
  Al  Al5  1  0.750000  0.356900  0.562655  1
  Ga  Ga6  1  0.250000  0.151952  0.069560  1
  Ga  Ga7  1  0.750000  0.850531  0.933949  1
  Ir  Ir8  1  0.250000  0.278861  0.390146  1
  Pt  Pt9  1  0.250000  0.778383  0.119758  1
  Pt  Pt10  1  0.750000  0.717275  0.609549  1
  Pt  Pt11  1  0.750000  0.222442  0.879029  1
