# generated using pymatgen
data_Sr8TbY11Sn16
_symmetry_space_group_name_H-M   'P 1'
_cell_length_a   7.97047760
_cell_length_b   8.50578994
_cell_length_c   16.06526100
_cell_angle_alpha   90.04245759
_cell_angle_beta   90.04623644
_cell_angle_gamma   89.94031766
_symmetry_Int_Tables_number   1
_chemical_formula_structural   Sr8TbY11Sn16
_chemical_formula_sum   'Sr8 Tb1 Y11 Sn16'
_cell_volume   1089.14647014
_cell_formula_units_Z   1
loop_
 _symmetry_equiv_pos_site_id
 _symmetry_equiv_pos_as_xyz
  1  'x, y, z'
loop_
 _atom_site_type_symbol
 _atom_site_label
 _atom_site_symmetry_multiplicity
 _atom_site_fract_x
 _atom_site_fract_y
 _atom_site_fract_z
 _atom_site_occupancy
  Sr  Sr0  1  0.499579  0.323503  0.908001  1
  Sr  Sr1  1  0.999640  0.176645  0.592166  1
  Sr  Sr2  1  0.500336  0.676674  0.407846  1
  Sr  Sr3  1  0.000449  0.823472  0.092140  1
  Sr  Sr4  1  0.500298  0.676716  0.092092  1
  Sr  Sr5  1  0.000559  0.823325  0.407861  1
  Sr  Sr6  1  0.499529  0.323214  0.592047  1
  Sr  Sr7  1  0.999570  0.176444  0.907776  1
  Tb  Tb8  1  0.326489  0.835467  0.876404  1
  Y  Y9  1  0.826668  0.664375  0.623485  1
  Y  Y10  1  0.673531  0.164258  0.376296  1
  Y  Y11  1  0.173430  0.335548  0.123894  1
  Y  Y12  1  0.673524  0.164317  0.123879  1
  Y  Y13  1  0.173485  0.335857  0.376275  1
  Y  Y14  1  0.326533  0.835729  0.623599  1
  Y  Y15  1  0.826476  0.664409  0.876300  1
  Y  Y16  1  0.164637  0.492471  0.750008  1
  Y  Y17  1  0.663966  0.007515  0.750030  1
  Y  Y18  1  0.835543  0.507398  0.249920  1
  Y  Y19  1  0.335672  0.992487  0.249919  1
  Sn  Sn20  1  0.335787  0.040486  0.042911  1
  Sn  Sn21  1  0.835695  0.459360  0.457177  1
  Sn  Sn22  1  0.664137  0.959488  0.542749  1
  Sn  Sn23  1  0.163819  0.540644  0.957355  1
  Sn  Sn24  1  0.664945  0.959702  0.957326  1
  Sn  Sn25  1  0.164307  0.540614  0.542763  1
  Sn  Sn26  1  0.335649  0.040489  0.457142  1
  Sn  Sn27  1  0.835285  0.459348  0.042936  1
  Sn  Sn28  1  0.527370  0.632401  0.749834  1
  Sn  Sn29  1  0.027126  0.866699  0.749830  1
  Sn  Sn30  1  0.472782  0.367233  0.250093  1
  Sn  Sn31  1  0.972693  0.133166  0.249993  1
  Sn  Sn32  1  0.291177  0.133244  0.749999  1
  Sn  Sn33  1  0.791178  0.367617  0.749930  1
  Sn  Sn34  1  0.709125  0.867034  0.250029  1
  Sn  Sn35  1  0.209013  0.632652  0.249997  1
