# generated using pymatgen
data_CeTm11Tc3Pt
_symmetry_space_group_name_H-M   'P 1'
_cell_length_a   6.25698013
_cell_length_b   7.30103402
_cell_length_c   9.08313300
_cell_angle_alpha   90.00000000
_cell_angle_beta   90.00000000
_cell_angle_gamma   91.02617455
_symmetry_Int_Tables_number   1
_chemical_formula_structural   CeTm11Tc3Pt
_chemical_formula_sum   'Ce1 Tm11 Tc3 Pt1'
_cell_volume   414.87299088
_cell_formula_units_Z   1
loop_
 _symmetry_equiv_pos_site_id
 _symmetry_equiv_pos_as_xyz
  1  'x, y, z'
loop_
 _atom_site_type_symbol
 _atom_site_label
 _atom_site_symmetry_multiplicity
 _atom_site_fract_x
 _atom_site_fract_y
 _atom_site_fract_z
 _atom_site_occupancy
  Ce  Ce0  1  0.859555  0.558928  0.250000  1
  Tm  Tm1  1  0.331063  0.675068  0.065208  1
  Tm  Tm2  1  0.163587  0.179480  0.437868  1
  Tm  Tm3  1  0.668439  0.316437  0.561787  1
  Tm  Tm4  1  0.835518  0.828628  0.936721  1
  Tm  Tm5  1  0.668439  0.316437  0.938213  1
  Tm  Tm6  1  0.835518  0.828628  0.563279  1
  Tm  Tm7  1  0.331063  0.675068  0.434792  1
  Tm  Tm8  1  0.163587  0.179480  0.062132  1
  Tm  Tm9  1  0.621552  0.037954  0.250000  1
  Tm  Tm10  1  0.129016  0.458736  0.750000  1
  Tm  Tm11  1  0.371604  0.965310  0.750000  1
  Tc  Tc12  1  0.019277  0.861904  0.250000  1
  Tc  Tc13  1  0.496220  0.389378  0.250000  1
  Tc  Tc14  1  0.960733  0.114179  0.750000  1
  Pt  Pt15  1  0.544826  0.614386  0.750000  1
