# generated using pymatgen
data_La2DyCoSn6
_symmetry_space_group_name_H-M   'P 1'
_cell_length_a   8.58242294
_cell_length_b   8.58242375
_cell_length_c   13.51939400
_cell_angle_alpha   90.00000000
_cell_angle_beta   90.00000000
_cell_angle_gamma   148.40576019
_symmetry_Int_Tables_number   1
_chemical_formula_structural   La2DyCoSn6
_chemical_formula_sum   'La4 Dy2 Co2 Sn12'
_cell_volume   521.70586400
_cell_formula_units_Z   2
loop_
 _symmetry_equiv_pos_site_id
 _symmetry_equiv_pos_as_xyz
  1  'x, y, z'
loop_
 _atom_site_type_symbol
 _atom_site_label
 _atom_site_symmetry_multiplicity
 _atom_site_fract_x
 _atom_site_fract_y
 _atom_site_fract_z
 _atom_site_occupancy
  La  La0  1  0.900503  0.099497  0.093189  1
  La  La1  1  0.099497  0.900503  0.593189  1
  La  La2  1  0.099497  0.900503  0.906811  1
  La  La3  1  0.900503  0.099497  0.406811  1
  Dy  Dy4  1  0.898458  0.101542  0.750000  1
  Dy  Dy5  1  0.101542  0.898458  0.250000  1
  Co  Co6  1  0.296299  0.703701  0.250000  1
  Co  Co7  1  0.703701  0.296299  0.750000  1
  Sn  Sn8  1  0.754943  0.245057  0.572189  1
  Sn  Sn9  1  0.427221  0.572779  0.580611  1
  Sn  Sn10  1  0.572779  0.427221  0.419389  1
  Sn  Sn11  1  0.732139  0.267861  0.250000  1
  Sn  Sn12  1  0.267861  0.732139  0.750000  1
  Sn  Sn13  1  0.245057  0.754943  0.072189  1
  Sn  Sn14  1  0.245057  0.754943  0.427811  1
  Sn  Sn15  1  0.572779  0.427221  0.080611  1
  Sn  Sn16  1  0.454208  0.545792  0.250000  1
  Sn  Sn17  1  0.545792  0.454208  0.750000  1
  Sn  Sn18  1  0.754943  0.245057  0.927811  1
  Sn  Sn19  1  0.427221  0.572779  0.919389  1
