# generated using pymatgen
data_Th2Sc2C3
_symmetry_space_group_name_H-M   'P 1'
_cell_length_a   6.44321275
_cell_length_b   6.44321152
_cell_length_c   6.03543947
_cell_angle_alpha   72.30828248
_cell_angle_beta   72.30828759
_cell_angle_gamma   33.12685695
_symmetry_Int_Tables_number   1
_chemical_formula_structural   Th2Sc2C3
_chemical_formula_sum   'Th2 Sc2 C3'
_cell_volume   129.86585530
_cell_formula_units_Z   1
loop_
 _symmetry_equiv_pos_site_id
 _symmetry_equiv_pos_as_xyz
  1  'x, y, z'
loop_
 _atom_site_type_symbol
 _atom_site_label
 _atom_site_symmetry_multiplicity
 _atom_site_fract_x
 _atom_site_fract_y
 _atom_site_fract_z
 _atom_site_occupancy
  Th  Th0  1  0.387059  0.387059  0.850339  1
  Th  Th1  1  0.612941  0.612941  0.149661  1
  Sc  Sc2  1  0.154464  0.154464  0.658183  1
  Sc  Sc3  1  0.845536  0.845536  0.341817  1
  C  C4  1  0.000000  0.000000  0.000000  1
  C  C5  1  0.250179  0.250179  0.253447  1
  C  C6  1  0.749821  0.749821  0.746553  1
