# generated using pymatgen
data_Sm8SiPt24
_symmetry_space_group_name_H-M   'P 1'
_cell_length_a   8.42300500
_cell_length_b   8.40995400
_cell_length_c   8.45147900
_cell_angle_alpha   90.00000000
_cell_angle_beta   90.00000000
_cell_angle_gamma   90.00000000
_symmetry_Int_Tables_number   1
_chemical_formula_structural   Sm8SiPt24
_chemical_formula_sum   'Sm8 Si1 Pt24'
_cell_volume   598.67813285
_cell_formula_units_Z   1
loop_
 _symmetry_equiv_pos_site_id
 _symmetry_equiv_pos_as_xyz
  1  'x, y, z'
loop_
 _atom_site_type_symbol
 _atom_site_label
 _atom_site_symmetry_multiplicity
 _atom_site_fract_x
 _atom_site_fract_y
 _atom_site_fract_z
 _atom_site_occupancy
  Sm  Sm0  1  0.252583  0.252757  0.252634  1
  Sm  Sm1  1  0.747420  0.747237  0.747335  1
  Sm  Sm2  1  0.747420  0.747237  0.252665  1
  Sm  Sm3  1  0.747417  0.252757  0.747366  1
  Sm  Sm4  1  0.252583  0.252757  0.747366  1
  Sm  Sm5  1  0.252580  0.747237  0.252665  1
  Sm  Sm6  1  0.252580  0.747237  0.747335  1
  Sm  Sm7  1  0.747417  0.252757  0.252634  1
  Si  Si8  1  0.000000  0.000098  0.000000  1
  Pt  Pt9  1  0.500000  0.000001  0.258258  1
  Pt  Pt10  1  0.258208  0.000017  0.500000  1
  Pt  Pt11  1  0.500000  0.000001  0.741742  1
  Pt  Pt12  1  0.741792  0.000017  0.500000  1
  Pt  Pt13  1  0.000000  0.500004  0.258066  1
  Pt  Pt14  1  0.000000  0.500004  0.741934  1
  Pt  Pt15  1  0.500000  0.747524  0.500000  1
  Pt  Pt16  1  0.500000  0.500006  0.252205  1
  Pt  Pt17  1  0.500000  0.500006  0.747795  1
  Pt  Pt18  1  0.258178  0.500014  0.000000  1
  Pt  Pt19  1  0.741822  0.500014  0.000000  1
  Pt  Pt20  1  0.000000  0.258084  0.500000  1
  Pt  Pt21  1  0.500000  0.258349  0.000000  1
  Pt  Pt22  1  0.000000  0.741843  0.500000  1
  Pt  Pt23  1  0.500000  0.741626  0.000000  1
  Pt  Pt24  1  0.252059  0.499973  0.500000  1
  Pt  Pt25  1  0.747941  0.499973  0.500000  1
  Pt  Pt26  1  0.500000  0.252441  0.500000  1
  Pt  Pt27  1  0.282777  0.999969  0.000000  1
  Pt  Pt28  1  0.717223  0.999969  0.000000  1
  Pt  Pt29  1  0.000000  0.282833  0.000000  1
  Pt  Pt30  1  0.000000  0.717315  0.000000  1
  Pt  Pt31  1  0.000000  0.999974  0.282484  1
  Pt  Pt32  1  0.000000  0.999974  0.717516  1
