# generated using pymatgen
data_YNpTcB6
_symmetry_space_group_name_H-M   'P 1'
_cell_length_a   3.62587500
_cell_length_b   9.26354500
_cell_length_c   11.33777600
_cell_angle_alpha   90.00000000
_cell_angle_beta   90.00000000
_cell_angle_gamma   90.00000000
_symmetry_Int_Tables_number   1
_chemical_formula_structural   YNpTcB6
_chemical_formula_sum   'Y4 Np4 Tc4 B24'
_cell_volume   380.81839289
_cell_formula_units_Z   4
loop_
 _symmetry_equiv_pos_site_id
 _symmetry_equiv_pos_as_xyz
  1  'x, y, z'
loop_
 _atom_site_type_symbol
 _atom_site_label
 _atom_site_symmetry_multiplicity
 _atom_site_fract_x
 _atom_site_fract_y
 _atom_site_fract_z
 _atom_site_occupancy
  Y  Y0  1  0.000000  0.337975  0.406804  1
  Y  Y1  1  0.000000  0.662025  0.593196  1
  Y  Y2  1  0.000000  0.837975  0.093196  1
  Y  Y3  1  0.000000  0.162025  0.906804  1
  Np  Np4  1  0.000000  0.959085  0.400875  1
  Np  Np5  1  0.000000  0.040915  0.599125  1
  Np  Np6  1  0.000000  0.459085  0.099125  1
  Np  Np7  1  0.000000  0.540915  0.900875  1
  Tc  Tc8  1  0.000000  0.647081  0.318298  1
  Tc  Tc9  1  0.000000  0.352919  0.681702  1
  Tc  Tc10  1  0.000000  0.147081  0.181702  1
  Tc  Tc11  1  0.000000  0.852919  0.818298  1
  B  B12  1  0.500000  0.552826  0.430879  1
  B  B13  1  0.500000  0.447174  0.569121  1
  B  B14  1  0.500000  0.052826  0.069121  1
  B  B15  1  0.500000  0.947174  0.930879  1
  B  B16  1  0.500000  0.744843  0.422564  1
  B  B17  1  0.500000  0.255157  0.577436  1
  B  B18  1  0.500000  0.244843  0.077436  1
  B  B19  1  0.500000  0.755157  0.922564  1
  B  B20  1  0.500000  0.804589  0.274894  1
  B  B21  1  0.500000  0.195411  0.725106  1
  B  B22  1  0.500000  0.304589  0.225106  1
  B  B23  1  0.500000  0.695411  0.774894  1
  B  B24  1  0.500000  0.644385  0.188243  1
  B  B25  1  0.500000  0.355615  0.811757  1
  B  B26  1  0.500000  0.144385  0.311757  1
  B  B27  1  0.500000  0.855615  0.688243  1
  B  B28  1  0.500000  0.989472  0.220694  1
  B  B29  1  0.500000  0.010528  0.779306  1
  B  B30  1  0.500000  0.489472  0.279306  1
  B  B31  1  0.500000  0.510528  0.720694  1
  B  B32  1  0.500000  0.639335  0.038554  1
  B  B33  1  0.500000  0.360665  0.961446  1
  B  B34  1  0.500000  0.139335  0.461446  1
  B  B35  1  0.500000  0.860665  0.538554  1
