# generated using pymatgen
data_MgCd3P7N12
_symmetry_space_group_name_H-M   'P 1'
_cell_length_a   7.38138335
_cell_length_b   7.37611290
_cell_length_c   7.37611424
_cell_angle_alpha   109.45673726
_cell_angle_beta   109.48569099
_cell_angle_gamma   109.48570017
_symmetry_Int_Tables_number   1
_chemical_formula_structural   MgCd3P7N12
_chemical_formula_sum   'Mg1 Cd3 P7 N12'
_cell_volume   309.09606064
_cell_formula_units_Z   1
loop_
 _symmetry_equiv_pos_site_id
 _symmetry_equiv_pos_as_xyz
  1  'x, y, z'
loop_
 _atom_site_type_symbol
 _atom_site_label
 _atom_site_symmetry_multiplicity
 _atom_site_fract_x
 _atom_site_fract_y
 _atom_site_fract_z
 _atom_site_occupancy
  Mg  Mg0  1  0.629673  0.000000  0.000000  1
  Cd  Cd1  1  0.003197  0.000000  0.677374  1
  Cd  Cd2  1  0.003197  0.677374  0.000000  1
  Cd  Cd3  1  0.325823  0.322626  0.322626  1
  P  P4  1  0.254695  0.750957  0.501774  1
  P  P5  1  0.752921  0.249182  0.498226  1
  P  P6  1  0.752921  0.498226  0.249182  1
  P  P7  1  0.254695  0.501774  0.750957  1
  P  P8  1  0.503738  0.750818  0.249043  1
  P  P9  1  0.503738  0.249043  0.750818  1
  P  P10  1  0.967896  0.000000  0.000000  1
  N  N11  1  0.708783  0.278666  0.278666  1
  N  N12  1  0.290017  0.715789  0.286927  1
  N  N13  1  0.299628  0.577530  0.577530  1
  N  N14  1  0.574227  0.571138  0.284211  1
  N  N15  1  0.430117  0.721334  0.000000  1
  N  N16  1  0.003090  0.713073  0.428862  1
  N  N17  1  0.574227  0.284211  0.571138  1
  N  N18  1  0.722097  0.000000  0.422470  1
  N  N19  1  0.430117  0.000000  0.721334  1
  N  N20  1  0.722097  0.422470  0.000000  1
  N  N21  1  0.290017  0.286927  0.715789  1
  N  N22  1  0.003090  0.428862  0.713073  1
