# generated using pymatgen
data_Sm3Th(SiTc2)8
_symmetry_space_group_name_H-M   'P 1'
_cell_length_a   4.16961100
_cell_length_b   7.19131882
_cell_length_c   15.52406931
_cell_angle_alpha   90.21135858
_cell_angle_beta   90.00000000
_cell_angle_gamma   90.00000000
_symmetry_Int_Tables_number   1
_chemical_formula_structural   Sm3Th(SiTc2)8
_chemical_formula_sum   'Sm3 Th1 Si8 Tc16'
_cell_volume   465.48608305
_cell_formula_units_Z   1
loop_
 _symmetry_equiv_pos_site_id
 _symmetry_equiv_pos_as_xyz
  1  'x, y, z'
loop_
 _atom_site_type_symbol
 _atom_site_label
 _atom_site_symmetry_multiplicity
 _atom_site_fract_x
 _atom_site_fract_y
 _atom_site_fract_z
 _atom_site_occupancy
  Sm  Sm0  1  0.000000  0.586935  0.117408  1
  Sm  Sm1  1  0.000000  0.412048  0.884071  1
  Sm  Sm2  1  0.500000  0.087473  0.381287  1
  Th  Th3  1  0.500000  0.911264  0.617066  1
  Si  Si4  1  0.000000  0.829959  0.472811  1
  Si  Si5  1  0.000000  0.173503  0.524206  1
  Si  Si6  1  0.500000  0.328448  0.025699  1
  Si  Si7  1  0.500000  0.671276  0.975332  1
  Si  Si8  1  0.000000  0.303462  0.273263  1
  Si  Si9  1  0.000000  0.690450  0.729119  1
  Si  Si10  1  0.500000  0.803375  0.226188  1
  Si  Si11  1  0.500000  0.197852  0.774989  1
  Tc  Tc12  1  0.000000  0.140366  0.051756  1
  Tc  Tc13  1  0.000000  0.859049  0.948378  1
  Tc  Tc14  1  0.500000  0.642530  0.448210  1
  Tc  Tc15  1  0.500000  0.361078  0.551129  1
  Tc  Tc16  1  0.000000  0.735641  0.319455  1
  Tc  Tc17  1  0.000000  0.263140  0.679547  1
  Tc  Tc18  1  0.500000  0.236313  0.179684  1
  Tc  Tc19  1  0.500000  0.763993  0.821108  1
  Tc  Tc20  1  0.000000  0.436919  0.419422  1
  Tc  Tc21  1  0.000000  0.568254  0.579656  1
  Tc  Tc22  1  0.500000  0.936030  0.080261  1
  Tc  Tc23  1  0.500000  0.063558  0.919967  1
  Tc  Tc24  1  0.000000  0.997961  0.205435  1
  Tc  Tc25  1  0.000000  0.001204  0.794704  1
  Tc  Tc26  1  0.500000  0.498137  0.293757  1
  Tc  Tc27  1  0.500000  0.499781  0.706091  1
