# generated using pymatgen
data_Tb9Ce3(Si3Ir)4
_symmetry_space_group_name_H-M   'P 1'
_cell_length_a   4.30111700
_cell_length_b   10.59199501
_cell_length_c   12.52603558
_cell_angle_alpha   90.00149422
_cell_angle_beta   90.00000000
_cell_angle_gamma   90.00000000
_symmetry_Int_Tables_number   1
_chemical_formula_structural   Tb9Ce3(Si3Ir)4
_chemical_formula_sum   'Tb9 Ce3 Si12 Ir4'
_cell_volume   570.65373560
_cell_formula_units_Z   1
loop_
 _symmetry_equiv_pos_site_id
 _symmetry_equiv_pos_as_xyz
  1  'x, y, z'
loop_
 _atom_site_type_symbol
 _atom_site_label
 _atom_site_symmetry_multiplicity
 _atom_site_fract_x
 _atom_site_fract_y
 _atom_site_fract_z
 _atom_site_occupancy
  Tb  Tb0  1  0.250000  0.881131  0.022507  1
  Tb  Tb1  1  0.250000  0.617790  0.524416  1
  Tb  Tb2  1  0.750000  0.117365  0.977530  1
  Tb  Tb3  1  0.750000  0.381976  0.477582  1
  Tb  Tb4  1  0.250000  0.920093  0.602322  1
  Tb  Tb5  1  0.250000  0.579639  0.100487  1
  Tb  Tb6  1  0.750000  0.079962  0.398478  1
  Tb  Tb7  1  0.750000  0.419838  0.897683  1
  Tb  Tb8  1  0.250000  0.663932  0.801673  1
  Ce  Ce9  1  0.250000  0.834452  0.302591  1
  Ce  Ce10  1  0.750000  0.337268  0.197578  1
  Ce  Ce11  1  0.750000  0.164963  0.697533  1
  Si  Si12  1  0.250000  0.006262  0.819249  1
  Si  Si13  1  0.250000  0.493863  0.318888  1
  Si  Si14  1  0.750000  0.992868  0.181130  1
  Si  Si15  1  0.750000  0.506917  0.679562  1
  Si  Si16  1  0.250000  0.245622  0.841735  1
  Si  Si17  1  0.250000  0.253865  0.341000  1
  Si  Si18  1  0.750000  0.752911  0.157809  1
  Si  Si19  1  0.750000  0.747269  0.661147  1
  Si  Si20  1  0.250000  0.202597  0.540794  1
  Si  Si21  1  0.250000  0.297081  0.040192  1
  Si  Si22  1  0.750000  0.798030  0.460644  1
  Si  Si23  1  0.750000  0.702086  0.955815  1
  Ir  Ir24  1  0.250000  0.388623  0.682728  1
  Ir  Ir25  1  0.250000  0.111281  0.180514  1
  Ir  Ir26  1  0.750000  0.611296  0.318715  1
  Ir  Ir27  1  0.750000  0.891021  0.819699  1
