# generated using pymatgen
data_Ce2Ni17H3
_symmetry_space_group_name_H-M   'P 1'
_cell_length_a   6.24461893
_cell_length_b   6.24461891
_cell_length_c   6.24461895
_cell_angle_alpha   83.52542394
_cell_angle_beta   83.52542555
_cell_angle_gamma   83.52541988
_symmetry_Int_Tables_number   1
_chemical_formula_structural   Ce2Ni17H3
_chemical_formula_sum   'Ce2 Ni17 H3'
_cell_volume   239.17667422
_cell_formula_units_Z   1
loop_
 _symmetry_equiv_pos_site_id
 _symmetry_equiv_pos_as_xyz
  1  'x, y, z'
loop_
 _atom_site_type_symbol
 _atom_site_label
 _atom_site_symmetry_multiplicity
 _atom_site_fract_x
 _atom_site_fract_y
 _atom_site_fract_z
 _atom_site_occupancy
  Ce  Ce0  1  0.661971  0.661971  0.661971  1
  Ce  Ce1  1  0.338029  0.338029  0.338029  1
  Ni  Ni2  1  0.000000  0.000000  0.500000  1
  Ni  Ni3  1  0.500000  0.000000  0.000000  1
  Ni  Ni4  1  0.000000  0.500000  0.000000  1
  Ni  Ni5  1  0.709772  0.290228  0.000000  1
  Ni  Ni6  1  0.000000  0.709772  0.290228  1
  Ni  Ni7  1  0.290228  0.000000  0.709772  1
  Ni  Ni8  1  0.000000  0.290228  0.709772  1
  Ni  Ni9  1  0.709772  0.000000  0.290228  1
  Ni  Ni10  1  0.290228  0.709772  0.000000  1
  Ni  Ni11  1  0.347355  0.347355  0.848410  1
  Ni  Ni12  1  0.848410  0.347355  0.347355  1
  Ni  Ni13  1  0.347355  0.848410  0.347355  1
  Ni  Ni14  1  0.652645  0.652645  0.151590  1
  Ni  Ni15  1  0.151590  0.652645  0.652645  1
  Ni  Ni16  1  0.652645  0.151590  0.652645  1
  Ni  Ni17  1  0.899654  0.899654  0.899654  1
  Ni  Ni18  1  0.100346  0.100346  0.100346  1
  H  H19  1  0.500000  0.500000  0.000000  1
  H  H20  1  0.000000  0.500000  0.500000  1
  H  H21  1  0.500000  0.000000  0.500000  1
