# generated using pymatgen
data_Ac2As7Pd12
_symmetry_space_group_name_H-M   'P 1'
_cell_length_a   10.15706800
_cell_length_b   10.15706857
_cell_length_c   4.29550700
_cell_angle_alpha   90.00000000
_cell_angle_beta   90.00000000
_cell_angle_gamma   120.00000465
_symmetry_Int_Tables_number   1
_chemical_formula_structural   Ac2As7Pd12
_chemical_formula_sum   'Ac2 As7 Pd12'
_cell_volume   383.77951258
_cell_formula_units_Z   1
loop_
 _symmetry_equiv_pos_site_id
 _symmetry_equiv_pos_as_xyz
  1  'x, y, z'
loop_
 _atom_site_type_symbol
 _atom_site_label
 _atom_site_symmetry_multiplicity
 _atom_site_fract_x
 _atom_site_fract_y
 _atom_site_fract_z
 _atom_site_occupancy
  Ac  Ac0  1  0.666667  0.333333  0.246282  1
  Ac  Ac1  1  0.000000  0.000000  0.750916  1
  As  As2  1  0.333333  0.666667  0.483910  1
  As  As3  1  0.735035  0.774751  0.252188  1
  As  As4  1  0.039716  0.264965  0.252188  1
  As  As5  1  0.225249  0.960284  0.252188  1
  As  As6  1  0.931105  0.559440  0.744132  1
  As  As7  1  0.628336  0.068895  0.744132  1
  As  As8  1  0.440560  0.371664  0.744132  1
  Pd  Pd9  1  0.768156  0.044970  0.250528  1
  Pd  Pd10  1  0.276814  0.231844  0.250528  1
  Pd  Pd11  1  0.955030  0.723186  0.250528  1
  Pd  Pd12  1  0.900228  0.288786  0.745742  1
  Pd  Pd13  1  0.388557  0.099772  0.745742  1
  Pd  Pd14  1  0.711214  0.611443  0.745742  1
  Pd  Pd15  1  0.471732  0.552385  0.223052  1
  Pd  Pd16  1  0.080652  0.528268  0.223052  1
  Pd  Pd17  1  0.447615  0.919348  0.223052  1
  Pd  Pd18  1  0.197746  0.777541  0.774494  1
  Pd  Pd19  1  0.579795  0.802254  0.774494  1
  Pd  Pd20  1  0.222459  0.420205  0.774494  1
