# generated using pymatgen
data_YEr5C3Cl5
_symmetry_space_group_name_H-M   'P 1'
_cell_length_a   3.62829190
_cell_length_b   8.25532867
_cell_length_c   10.19551962
_cell_angle_alpha   85.49285698
_cell_angle_beta   79.67569536
_cell_angle_gamma   77.36422543
_symmetry_Int_Tables_number   1
_chemical_formula_structural   YEr5C3Cl5
_chemical_formula_sum   'Y1 Er5 C3 Cl5'
_cell_volume   292.91605233
_cell_formula_units_Z   1
loop_
 _symmetry_equiv_pos_site_id
 _symmetry_equiv_pos_as_xyz
  1  'x, y, z'
loop_
 _atom_site_type_symbol
 _atom_site_label
 _atom_site_symmetry_multiplicity
 _atom_site_fract_x
 _atom_site_fract_y
 _atom_site_fract_z
 _atom_site_occupancy
  Y  Y0  1  0.431370  0.923546  0.218815  1
  Er  Er1  1  0.574231  0.074833  0.778172  1
  Er  Er2  1  0.959545  0.428377  0.655754  1
  Er  Er3  1  0.683684  0.179181  0.456327  1
  Er  Er4  1  0.045507  0.569747  0.342941  1
  Er  Er5  1  0.320974  0.818624  0.542882  1
  C  C6  1  0.127537  0.122710  0.625331  1
  C  C7  1  0.876417  0.875044  0.375417  1
  C  C8  1  0.502770  0.498751  0.499527  1
  Cl  Cl9  1  0.752940  0.745504  0.754147  1
  Cl  Cl10  1  0.379792  0.379141  0.866319  1
  Cl  Cl11  1  0.250569  0.254529  0.244809  1
  Cl  Cl12  1  0.627988  0.615286  0.131859  1
  Cl  Cl13  1  0.003898  0.998317  0.997012  1
