# generated using pymatgen
data_NaNbTe2O7
_symmetry_space_group_name_H-M   'P 1'
_cell_length_a   6.78084740
_cell_length_b   6.78084799
_cell_length_c   7.59951500
_cell_angle_alpha   90.00000000
_cell_angle_beta   90.00000000
_cell_angle_gamma   107.55756417
_symmetry_Int_Tables_number   1
_chemical_formula_structural   NaNbTe2O7
_chemical_formula_sum   'Na2 Nb2 Te4 O14'
_cell_volume   333.14672056
_cell_formula_units_Z   2
loop_
 _symmetry_equiv_pos_site_id
 _symmetry_equiv_pos_as_xyz
  1  'x, y, z'
loop_
 _atom_site_type_symbol
 _atom_site_label
 _atom_site_symmetry_multiplicity
 _atom_site_fract_x
 _atom_site_fract_y
 _atom_site_fract_z
 _atom_site_occupancy
  Na  Na0  1  0.981598  0.981598  0.369456  1
  Na  Na1  1  0.018402  0.018402  0.869456  1
  Nb  Nb2  1  0.508197  0.508197  0.895845  1
  Nb  Nb3  1  0.491803  0.491803  0.395845  1
  Te  Te4  1  0.537197  0.991859  0.626146  1
  Te  Te5  1  0.991859  0.537197  0.626146  1
  Te  Te6  1  0.462803  0.008141  0.126146  1
  Te  Te7  1  0.008141  0.462803  0.126146  1
  O  O8  1  0.539584  0.801217  0.818938  1
  O  O9  1  0.801217  0.539584  0.818938  1
  O  O10  1  0.460416  0.198783  0.318938  1
  O  O11  1  0.198783  0.460416  0.318938  1
  O  O12  1  0.541009  0.800037  0.434412  1
  O  O13  1  0.800037  0.541009  0.434412  1
  O  O14  1  0.458991  0.199963  0.934412  1
  O  O15  1  0.199963  0.458991  0.934412  1
  O  O16  1  0.823681  0.117743  0.624745  1
  O  O17  1  0.117743  0.823681  0.624745  1
  O  O18  1  0.176319  0.882257  0.124745  1
  O  O19  1  0.882257  0.176319  0.124745  1
  O  O20  1  0.422233  0.422233  0.629158  1
  O  O21  1  0.577767  0.577767  0.129158  1
