# generated using pymatgen
data_Ho2ErMg3HgPb2
_symmetry_space_group_name_H-M   'P 1'
_cell_length_a   7.57331106
_cell_length_b   7.58028198
_cell_length_c   4.58297500
_cell_angle_alpha   90.00000000
_cell_angle_beta   90.00000000
_cell_angle_gamma   120.03046309
_symmetry_Int_Tables_number   1
_chemical_formula_structural   Ho2ErMg3HgPb2
_chemical_formula_sum   'Ho2 Er1 Mg3 Hg1 Pb2'
_cell_volume   227.78015321
_cell_formula_units_Z   1
loop_
 _symmetry_equiv_pos_site_id
 _symmetry_equiv_pos_as_xyz
  1  'x, y, z'
loop_
 _atom_site_type_symbol
 _atom_site_label
 _atom_site_symmetry_multiplicity
 _atom_site_fract_x
 _atom_site_fract_y
 _atom_site_fract_z
 _atom_site_occupancy
  Ho  Ho0  1  0.412071  0.412225  0.500000  1
  Ho  Ho1  1  0.587929  0.000155  0.500000  1
  Er  Er2  1  0.000000  0.588481  0.500000  1
  Mg  Mg3  1  0.763825  0.763964  0.000000  1
  Mg  Mg4  1  0.236175  0.000138  0.000000  1
  Mg  Mg5  1  0.000000  0.235744  0.000000  1
  Hg  Hg6  1  0.000000  0.999254  0.500000  1
  Pb  Pb7  1  0.668397  0.334218  0.000000  1
  Pb  Pb8  1  0.331603  0.665822  0.000000  1
