# generated using pymatgen
data_Np(FeSb3)4
_symmetry_space_group_name_H-M   'P 1'
_cell_length_a   7.92923623
_cell_length_b   7.92908399
_cell_length_c   7.92887404
_cell_angle_alpha   109.46583104
_cell_angle_beta   109.47896464
_cell_angle_gamma   109.47819425
_symmetry_Int_Tables_number   1
_chemical_formula_structural   Np(FeSb3)4
_chemical_formula_sum   'Np1 Fe4 Sb12'
_cell_volume   383.70193650
_cell_formula_units_Z   1
loop_
 _symmetry_equiv_pos_site_id
 _symmetry_equiv_pos_as_xyz
  1  'x, y, z'
loop_
 _atom_site_type_symbol
 _atom_site_label
 _atom_site_symmetry_multiplicity
 _atom_site_fract_x
 _atom_site_fract_y
 _atom_site_fract_z
 _atom_site_occupancy
  Np  Np0  1  0.000000  0.000000  0.000000  1
  Fe  Fe1  1  0.500000  0.500000  0.500000  1
  Fe  Fe2  1  0.500000  0.000000  0.000000  1
  Fe  Fe3  1  0.000000  0.500000  0.000000  1
  Fe  Fe4  1  0.000000  0.000000  0.500000  1
  Sb  Sb5  1  0.837466  0.667114  0.504796  1
  Sb  Sb6  1  0.162534  0.332886  0.495204  1
  Sb  Sb7  1  0.162539  0.667279  0.829932  1
  Sb  Sb8  1  0.837461  0.332721  0.170068  1
  Sb  Sb9  1  0.667331  0.504695  0.837402  1
  Sb  Sb10  1  0.332669  0.495305  0.162598  1
  Sb  Sb11  1  0.667322  0.829546  0.162421  1
  Sb  Sb12  1  0.332678  0.170454  0.837579  1
  Sb  Sb13  1  0.504842  0.837675  0.667221  1
  Sb  Sb14  1  0.495158  0.162325  0.332779  1
  Sb  Sb15  1  0.170080  0.837423  0.332672  1
  Sb  Sb16  1  0.829920  0.162577  0.667328  1
