# generated using pymatgen
data_Tb3Tm3Mg2(Co4P3)4
_symmetry_space_group_name_H-M   'P 1'
_cell_length_a   3.72072600
_cell_length_b   10.60993100
_cell_length_c   12.25688800
_cell_angle_alpha   90.00017055
_cell_angle_beta   90.00000000
_cell_angle_gamma   90.00000000
_symmetry_Int_Tables_number   1
_chemical_formula_structural   Tb3Tm3Mg2(Co4P3)4
_chemical_formula_sum   'Tb3 Tm3 Mg2 Co16 P12'
_cell_volume   483.86083023
_cell_formula_units_Z   1
loop_
 _symmetry_equiv_pos_site_id
 _symmetry_equiv_pos_as_xyz
  1  'x, y, z'
loop_
 _atom_site_type_symbol
 _atom_site_label
 _atom_site_symmetry_multiplicity
 _atom_site_fract_x
 _atom_site_fract_y
 _atom_site_fract_z
 _atom_site_occupancy
  Tb  Tb0  1  0.000000  0.499865  0.526378  1
  Tb  Tb1  1  0.500000  0.000275  0.473959  1
  Tb  Tb2  1  0.500000  0.822127  0.206051  1
  Tm  Tm3  1  0.500000  0.178232  0.206038  1
  Tm  Tm4  1  0.000000  0.677651  0.794111  1
  Tm  Tm5  1  0.000000  0.322249  0.793780  1
  Mg  Mg6  1  0.500000  0.499708  0.156115  1
  Mg  Mg7  1  0.000000  0.000058  0.843876  1
  Co  Co8  1  0.500000  0.499844  0.706385  1
  Co  Co9  1  0.000000  0.001740  0.294097  1
  Co  Co10  1  0.000000  0.499341  0.987898  1
  Co  Co11  1  0.500000  0.000713  0.010917  1
  Co  Co12  1  0.500000  0.332486  0.996402  1
  Co  Co13  1  0.500000  0.666866  0.995677  1
  Co  Co14  1  0.000000  0.168130  0.003077  1
  Co  Co15  1  0.000000  0.832479  0.002696  1
  Co  Co16  1  0.500000  0.295912  0.431658  1
  Co  Co17  1  0.500000  0.703750  0.432577  1
  Co  Co18  1  0.000000  0.204331  0.568483  1
  Co  Co19  1  0.000000  0.795787  0.569137  1
  Co  Co20  1  0.500000  0.877290  0.706559  1
  Co  Co21  1  0.500000  0.122801  0.706466  1
  Co  Co22  1  0.000000  0.621408  0.294507  1
  Co  Co23  1  0.000000  0.376997  0.293482  1
  P  P24  1  0.500000  0.499679  0.884422  1
  P  P25  1  0.000000  0.001350  0.114586  1
  P  P26  1  0.500000  0.500084  0.355020  1
  P  P27  1  0.000000  0.000069  0.645164  1
  P  P28  1  0.500000  0.309499  0.616446  1
  P  P29  1  0.500000  0.690251  0.616903  1
  P  P30  1  0.000000  0.190891  0.383680  1
  P  P31  1  0.000000  0.809061  0.385188  1
  P  P32  1  0.500000  0.838276  0.892338  1
  P  P33  1  0.500000  0.162000  0.892059  1
  P  P34  1  0.000000  0.660490  0.106224  1
  P  P35  1  0.000000  0.338313  0.107645  1
