# generated using pymatgen
data_Ac3HgP6N13
_symmetry_space_group_name_H-M   'P 1'
_cell_length_a   7.65658088
_cell_length_b   7.65658006
_cell_length_c   7.65658100
_cell_angle_alpha   109.18844084
_cell_angle_beta   109.18843871
_cell_angle_gamma   109.18843907
_symmetry_Int_Tables_number   1
_chemical_formula_structural   Ac3HgP6N13
_chemical_formula_sum   'Ac3 Hg1 P6 N13'
_cell_volume   349.09826118
_cell_formula_units_Z   1
loop_
 _symmetry_equiv_pos_site_id
 _symmetry_equiv_pos_as_xyz
  1  'x, y, z'
loop_
 _atom_site_type_symbol
 _atom_site_label
 _atom_site_symmetry_multiplicity
 _atom_site_fract_x
 _atom_site_fract_y
 _atom_site_fract_z
 _atom_site_occupancy
  Ac  Ac0  1  0.673160  0.000103  0.000103  1
  Ac  Ac1  1  0.000103  0.000103  0.673160  1
  Ac  Ac2  1  0.000103  0.673160  0.000103  1
  Hg  Hg3  1  0.266090  0.266090  0.266090  1
  P  P4  1  0.257610  0.758268  0.507734  1
  P  P5  1  0.758268  0.257610  0.507734  1
  P  P6  1  0.758268  0.507734  0.257610  1
  P  P7  1  0.257610  0.507734  0.758268  1
  P  P8  1  0.507734  0.758268  0.257610  1
  P  P9  1  0.507734  0.257610  0.758268  1
  N  N10  1  0.875145  0.875145  0.875145  1
  N  N11  1  0.731977  0.328945  0.328945  1
  N  N12  1  0.328945  0.731977  0.328945  1
  N  N13  1  0.304396  0.629888  0.629888  1
  N  N14  1  0.629888  0.629888  0.304396  1
  N  N15  1  0.383441  0.701027  0.007600  1
  N  N16  1  0.007600  0.701027  0.383441  1
  N  N17  1  0.629888  0.304396  0.629888  1
  N  N18  1  0.701027  0.007600  0.383441  1
  N  N19  1  0.383441  0.007600  0.701027  1
  N  N20  1  0.701027  0.383441  0.007600  1
  N  N21  1  0.328945  0.328945  0.731977  1
  N  N22  1  0.007600  0.383441  0.701027  1
