# generated using pymatgen
data_SmEuNi2(SnH)2
_symmetry_space_group_name_H-M   'P 1'
_cell_length_a   4.37910600
_cell_length_b   7.25751063
_cell_length_c   8.47375343
_cell_angle_alpha   90.32188127
_cell_angle_beta   90.00000000
_cell_angle_gamma   90.00000000
_symmetry_Int_Tables_number   1
_chemical_formula_structural   SmEuNi2(SnH)2
_chemical_formula_sum   'Sm2 Eu2 Ni4 Sn4 H4'
_cell_volume   269.30356826
_cell_formula_units_Z   2
loop_
 _symmetry_equiv_pos_site_id
 _symmetry_equiv_pos_as_xyz
  1  'x, y, z'
loop_
 _atom_site_type_symbol
 _atom_site_label
 _atom_site_symmetry_multiplicity
 _atom_site_fract_x
 _atom_site_fract_y
 _atom_site_fract_z
 _atom_site_occupancy
  Sm  Sm0  1  0.250000  0.487466  0.186736  1
  Sm  Sm1  1  0.750000  0.512534  0.813264  1
  Eu  Eu2  1  0.750000  0.012535  0.685252  1
  Eu  Eu3  1  0.250000  0.987465  0.314748  1
  Ni  Ni4  1  0.750000  0.774334  0.098166  1
  Ni  Ni5  1  0.250000  0.225666  0.901834  1
  Ni  Ni6  1  0.250000  0.716644  0.605938  1
  Ni  Ni7  1  0.750000  0.283356  0.394062  1
  Sn  Sn8  1  0.750000  0.651573  0.432246  1
  Sn  Sn9  1  0.250000  0.348427  0.567754  1
  Sn  Sn10  1  0.250000  0.846647  0.932006  1
  Sn  Sn11  1  0.750000  0.153353  0.067994  1
  H  H12  1  0.250000  0.443886  0.920775  1
  H  H13  1  0.750000  0.556114  0.079225  1
  H  H14  1  0.750000  0.066611  0.417698  1
  H  H15  1  0.250000  0.933389  0.582302  1
