# generated using pymatgen
data_Tm2Mg(PRh2)6
_symmetry_space_group_name_H-M   'P 1'
_cell_length_a   9.69396300
_cell_length_b   9.69396306
_cell_length_c   3.88295900
_cell_angle_alpha   90.00000000
_cell_angle_beta   90.00000000
_cell_angle_gamma   120.00000321
_symmetry_Int_Tables_number   1
_chemical_formula_structural   Tm2Mg(PRh2)6
_chemical_formula_sum   'Tm2 Mg1 P6 Rh12'
_cell_volume   316.00659085
_cell_formula_units_Z   1
loop_
 _symmetry_equiv_pos_site_id
 _symmetry_equiv_pos_as_xyz
  1  'x, y, z'
loop_
 _atom_site_type_symbol
 _atom_site_label
 _atom_site_symmetry_multiplicity
 _atom_site_fract_x
 _atom_site_fract_y
 _atom_site_fract_z
 _atom_site_occupancy
  Tm  Tm0  1  0.333333  0.666667  0.752853  1
  Tm  Tm1  1  0.666667  0.333333  0.247147  1
  Mg  Mg2  1  0.000000  0.000000  0.500000  1
  P  P3  1  0.402745  0.285297  0.746656  1
  P  P4  1  0.714703  0.117447  0.746656  1
  P  P5  1  0.882553  0.597255  0.746656  1
  P  P6  1  0.597255  0.714703  0.253344  1
  P  P7  1  0.285297  0.882553  0.253344  1
  P  P8  1  0.117447  0.402745  0.253344  1
  Rh  Rh9  1  0.454229  0.067174  0.748503  1
  Rh  Rh10  1  0.932826  0.387056  0.748503  1
  Rh  Rh11  1  0.612944  0.545771  0.748503  1
  Rh  Rh12  1  0.545771  0.932826  0.251497  1
  Rh  Rh13  1  0.067174  0.612944  0.251497  1
  Rh  Rh14  1  0.387056  0.454229  0.251497  1
  Rh  Rh15  1  0.161123  0.289284  0.754333  1
  Rh  Rh16  1  0.710716  0.871838  0.754333  1
  Rh  Rh17  1  0.128162  0.838877  0.754333  1
  Rh  Rh18  1  0.838877  0.710716  0.245667  1
  Rh  Rh19  1  0.289284  0.128162  0.245667  1
  Rh  Rh20  1  0.871838  0.161123  0.245667  1
