# generated using pymatgen
data_Dy5Y3Ti11Si16Ir
_symmetry_space_group_name_H-M   'P 1'
_cell_length_a   7.04542592
_cell_length_b   7.04602060
_cell_length_c   12.88601118
_cell_angle_alpha   89.87670421
_cell_angle_beta   90.14133459
_cell_angle_gamma   89.81531035
_symmetry_Int_Tables_number   1
_chemical_formula_structural   Dy5Y3Ti11Si16Ir
_chemical_formula_sum   'Dy5 Y3 Ti11 Si16 Ir1'
_cell_volume   639.68339082
_cell_formula_units_Z   1
loop_
 _symmetry_equiv_pos_site_id
 _symmetry_equiv_pos_as_xyz
  1  'x, y, z'
loop_
 _atom_site_type_symbol
 _atom_site_label
 _atom_site_symmetry_multiplicity
 _atom_site_fract_x
 _atom_site_fract_y
 _atom_site_fract_z
 _atom_site_occupancy
  Dy  Dy0  1  0.158928  0.502565  0.781668  1
  Dy  Dy1  1  0.841831  0.499215  0.285080  1
  Dy  Dy2  1  0.502590  0.158844  0.218391  1
  Dy  Dy3  1  0.499235  0.841898  0.714942  1
  Dy  Dy4  1  0.342788  0.001775  0.468325  1
  Y  Y5  1  0.996605  0.659182  0.032487  1
  Y  Y6  1  0.002059  0.342574  0.531624  1
  Y  Y7  1  0.659153  0.996591  0.967540  1
  Ti  Ti8  1  0.343580  0.506741  0.374188  1
  Ti  Ti9  1  0.848648  0.997852  0.375867  1
  Ti  Ti10  1  0.005777  0.150798  0.124506  1
  Ti  Ti11  1  0.997983  0.848767  0.624022  1
  Ti  Ti12  1  0.506690  0.343432  0.625704  1
  Ti  Ti13  1  0.150833  0.005781  0.875543  1
  Ti  Ti14  1  0.824955  0.172935  0.747340  1
  Ti  Ti15  1  0.172912  0.825234  0.252733  1
  Ti  Ti16  1  0.327123  0.327149  0.999988  1
  Ti  Ti17  1  0.492726  0.649720  0.128591  1
  Ti  Ti18  1  0.649765  0.492739  0.871406  1
  Si  Si19  1  0.048310  0.713912  0.436454  1
  Si  Si20  1  0.951446  0.290672  0.934470  1
  Si  Si21  1  0.713614  0.048054  0.563393  1
  Si  Si22  1  0.208955  0.452299  0.184979  1
  Si  Si23  1  0.789759  0.551125  0.681163  1
  Si  Si24  1  0.452274  0.208982  0.815061  1
  Si  Si25  1  0.550927  0.789976  0.318843  1
  Si  Si26  1  0.290634  0.951442  0.065613  1
  Si  Si27  1  0.798235  0.867828  0.186327  1
  Si  Si28  1  0.298991  0.628231  0.565470  1
  Si  Si29  1  0.703659  0.369014  0.065645  1
  Si  Si30  1  0.627900  0.298451  0.434435  1
  Si  Si31  1  0.369039  0.703598  0.934396  1
  Si  Si32  1  0.132224  0.202645  0.315472  1
  Si  Si33  1  0.203070  0.131967  0.684568  1
  Si  Si34  1  0.867835  0.798167  0.813700  1
  Ir  Ir35  1  0.668944  0.669845  0.500069  1
