# generated using pymatgen
data_Tm3HfMg2Ir3
_symmetry_space_group_name_H-M   'P 1'
_cell_length_a   7.25585107
_cell_length_b   7.13771178
_cell_length_c   4.15173700
_cell_angle_alpha   90.00000000
_cell_angle_beta   90.00000000
_cell_angle_gamma   119.46284775
_symmetry_Int_Tables_number   1
_chemical_formula_structural   Tm3HfMg2Ir3
_chemical_formula_sum   'Tm3 Hf1 Mg2 Ir3'
_cell_volume   187.21178506
_cell_formula_units_Z   1
loop_
 _symmetry_equiv_pos_site_id
 _symmetry_equiv_pos_as_xyz
  1  'x, y, z'
loop_
 _atom_site_type_symbol
 _atom_site_label
 _atom_site_symmetry_multiplicity
 _atom_site_fract_x
 _atom_site_fract_y
 _atom_site_fract_z
 _atom_site_occupancy
  Tm  Tm0  1  0.000000  0.398286  0.500000  1
  Tm  Tm1  1  0.582241  0.586107  0.500000  1
  Tm  Tm2  1  0.417759  0.003868  0.500000  1
  Hf  Hf3  1  0.000000  0.753063  0.000000  1
  Mg  Mg4  1  0.251813  0.251095  0.000000  1
  Mg  Mg5  1  0.748187  0.999282  0.000000  1
  Ir  Ir6  1  0.321193  0.673286  0.000000  1
  Ir  Ir7  1  0.678807  0.352092  0.000000  1
  Ir  Ir8  1  0.000000  0.982922  0.500000  1
