# generated using pymatgen
data_Sm7Dy(Si4Mo3)4
_symmetry_space_group_name_H-M   'P 1'
_cell_length_a   6.86318521
_cell_length_b   7.02753295
_cell_length_c   13.03279438
_cell_angle_alpha   89.94392739
_cell_angle_beta   89.99025830
_cell_angle_gamma   89.91768891
_symmetry_Int_Tables_number   1
_chemical_formula_structural   Sm7Dy(Si4Mo3)4
_chemical_formula_sum   'Sm7 Dy1 Si16 Mo12'
_cell_volume   628.58713873
_cell_formula_units_Z   1
loop_
 _symmetry_equiv_pos_site_id
 _symmetry_equiv_pos_as_xyz
  1  'x, y, z'
loop_
 _atom_site_type_symbol
 _atom_site_label
 _atom_site_symmetry_multiplicity
 _atom_site_fract_x
 _atom_site_fract_y
 _atom_site_fract_z
 _atom_site_occupancy
  Sm  Sm0  1  0.497218  0.334621  0.094158  1
  Sm  Sm1  1  0.997491  0.165243  0.405939  1
  Sm  Sm2  1  0.502910  0.665237  0.594255  1
  Sm  Sm3  1  0.002003  0.834127  0.906426  1
  Sm  Sm4  1  0.502409  0.665839  0.906474  1
  Sm  Sm5  1  0.002424  0.834675  0.594267  1
  Sm  Sm6  1  0.497105  0.334613  0.404959  1
  Dy  Dy7  1  0.996711  0.166338  0.094737  1
  Si  Si8  1  0.655789  0.045284  0.548719  1
  Si  Si9  1  0.156082  0.454188  0.952326  1
  Si  Si10  1  0.341288  0.956839  0.048895  1
  Si  Si11  1  0.843798  0.544818  0.451051  1
  Si  Si12  1  0.344431  0.954614  0.450715  1
  Si  Si13  1  0.844499  0.542188  0.048944  1
  Si  Si14  1  0.656819  0.044923  0.952397  1
  Si  Si15  1  0.156220  0.455532  0.548590  1
  Si  Si16  1  0.535897  0.360800  0.750601  1
  Si  Si17  1  0.036101  0.138443  0.750252  1
  Si  Si18  1  0.464589  0.639783  0.249384  1
  Si  Si19  1  0.964617  0.863059  0.248892  1
  Si  Si20  1  0.805167  0.622180  0.750545  1
  Si  Si21  1  0.304879  0.876495  0.750347  1
  Si  Si22  1  0.193492  0.375592  0.249006  1
  Si  Si23  1  0.696791  0.124014  0.249021  1
  Mo  Mo24  1  0.831934  0.334519  0.626450  1
  Mo  Mo25  1  0.330453  0.164338  0.874521  1
  Mo  Mo26  1  0.168150  0.665436  0.125965  1
  Mo  Mo27  1  0.669813  0.835764  0.373198  1
  Mo  Mo28  1  0.167882  0.665397  0.372923  1
  Mo  Mo29  1  0.669867  0.836333  0.125478  1
  Mo  Mo30  1  0.832388  0.333515  0.874650  1
  Mo  Mo31  1  0.331058  0.164568  0.626245  1
  Mo  Mo32  1  0.664928  0.002927  0.750511  1
  Mo  Mo33  1  0.165076  0.496865  0.750403  1
  Mo  Mo34  1  0.334558  0.998412  0.249260  1
  Mo  Mo35  1  0.835164  0.502477  0.249498  1
