# generated using pymatgen
data_La5Pr7(PtBr3)4
_symmetry_space_group_name_H-M   'P 1'
_cell_length_a   10.67924324
_cell_length_b   10.69906017
_cell_length_c   10.68151150
_cell_angle_alpha   109.26665755
_cell_angle_beta   109.29762860
_cell_angle_gamma   109.90660633
_symmetry_Int_Tables_number   1
_chemical_formula_structural   La5Pr7(PtBr3)4
_chemical_formula_sum   'La5 Pr7 Pt4 Br12'
_cell_volume   938.80818497
_cell_formula_units_Z   1
loop_
 _symmetry_equiv_pos_site_id
 _symmetry_equiv_pos_as_xyz
  1  'x, y, z'
loop_
 _atom_site_type_symbol
 _atom_site_label
 _atom_site_symmetry_multiplicity
 _atom_site_fract_x
 _atom_site_fract_y
 _atom_site_fract_z
 _atom_site_occupancy
  La  La0  1  0.468610  0.484662  0.233485  1
  La  La1  1  0.747527  0.234172  0.263042  1
  La  La2  1  0.754683  0.017354  0.488533  1
  La  La3  1  0.233138  0.467961  0.486082  1
  La  La4  1  0.265668  0.752064  0.234441  1
  Pr  Pr5  1  0.028096  0.263104  0.014368  1
  Pr  Pr6  1  0.014810  0.027746  0.263323  1
  Pr  Pr7  1  0.486375  0.750688  0.014066  1
  Pr  Pr8  1  0.483613  0.234414  0.468669  1
  Pr  Pr9  1  0.017650  0.486522  0.753151  1
  Pr  Pr10  1  0.263840  0.015469  0.029563  1
  Pr  Pr11  1  0.235308  0.265409  0.751135  1
  Pt  Pt12  1  0.248786  0.249631  0.249202  1
  Pt  Pt13  1  0.501216  0.999958  0.249787  1
  Pt  Pt14  1  0.999077  0.248789  0.499036  1
  Pt  Pt15  1  0.250465  0.500302  0.000673  1
  Br  Br16  1  0.250850  0.754057  0.747981  1
  Br  Br17  1  0.506556  0.502885  0.753090  1
  Br  Br18  1  0.993221  0.746582  0.996384  1
  Br  Br19  1  0.747007  0.250575  0.753232  1
  Br  Br20  1  0.997195  0.993841  0.748151  1
  Br  Br21  1  0.249619  0.997344  0.503388  1
  Br  Br22  1  0.753628  0.506087  0.503579  1
  Br  Br23  1  0.502762  0.250652  0.996301  1
  Br  Br24  1  0.753800  0.747689  0.250016  1
  Br  Br25  1  0.746758  0.996296  0.993565  1
  Br  Br26  1  0.996579  0.502516  0.249596  1
  Br  Br27  1  0.503165  0.753235  0.506162  1
