# generated using pymatgen
data_Ba4TbGd7O16
_symmetry_space_group_name_H-M   'P 1'
_cell_length_a   3.53476400
_cell_length_b   10.60250916
_cell_length_c   12.34571219
_cell_angle_alpha   90.01991672
_cell_angle_beta   90.00000000
_cell_angle_gamma   90.00000000
_symmetry_Int_Tables_number   1
_chemical_formula_structural   Ba4TbGd7O16
_chemical_formula_sum   'Ba4 Tb1 Gd7 O16'
_cell_volume   462.68476704
_cell_formula_units_Z   1
loop_
 _symmetry_equiv_pos_site_id
 _symmetry_equiv_pos_as_xyz
  1  'x, y, z'
loop_
 _atom_site_type_symbol
 _atom_site_label
 _atom_site_symmetry_multiplicity
 _atom_site_fract_x
 _atom_site_fract_y
 _atom_site_fract_z
 _atom_site_occupancy
  Ba  Ba0  1  0.750000  0.746640  0.851544  1
  Ba  Ba1  1  0.250000  0.253313  0.148090  1
  Ba  Ba2  1  0.750000  0.247107  0.648954  1
  Ba  Ba3  1  0.250000  0.752997  0.351453  1
  Tb  Tb4  1  0.250000  0.422607  0.890238  1
  Gd  Gd5  1  0.250000  0.425275  0.388910  1
  Gd  Gd6  1  0.750000  0.574580  0.611805  1
  Gd  Gd7  1  0.250000  0.925231  0.111177  1
  Gd  Gd8  1  0.750000  0.075381  0.888633  1
  Gd  Gd9  1  0.750000  0.077629  0.390329  1
  Gd  Gd10  1  0.250000  0.922249  0.609892  1
  Gd  Gd11  1  0.750000  0.577278  0.109169  1
  O  O12  1  0.250000  0.428626  0.574754  1
  O  O13  1  0.750000  0.571409  0.425812  1
  O  O14  1  0.250000  0.928874  0.925357  1
  O  O15  1  0.750000  0.071523  0.074506  1
  O  O16  1  0.250000  0.518375  0.216921  1
  O  O17  1  0.750000  0.480532  0.784041  1
  O  O18  1  0.250000  0.018531  0.282844  1
  O  O19  1  0.750000  0.981702  0.717185  1
  O  O20  1  0.250000  0.116887  0.519306  1
  O  O21  1  0.750000  0.883057  0.480851  1
  O  O22  1  0.250000  0.615626  0.980065  1
  O  O23  1  0.750000  0.383196  0.017660  1
  O  O24  1  0.750000  0.290484  0.337931  1
  O  O25  1  0.250000  0.709430  0.662213  1
  O  O26  1  0.750000  0.790306  0.161751  1
  O  O27  1  0.250000  0.211155  0.838610  1
