# generated using pymatgen
data_Er6InNiOs
_symmetry_space_group_name_H-M   'P 1'
_cell_length_a   8.38544392
_cell_length_b   8.38544427
_cell_length_c   8.38544398
_cell_angle_alpha   113.35983514
_cell_angle_beta   110.21548866
_cell_angle_gamma   104.94807998
_symmetry_Int_Tables_number   1
_chemical_formula_structural   Er6InNiOs
_chemical_formula_sum   'Er12 In2 Ni2 Os2'
_cell_volume   451.42571170
_cell_formula_units_Z   2
loop_
 _symmetry_equiv_pos_site_id
 _symmetry_equiv_pos_as_xyz
  1  'x, y, z'
loop_
 _atom_site_type_symbol
 _atom_site_label
 _atom_site_symmetry_multiplicity
 _atom_site_fract_x
 _atom_site_fract_y
 _atom_site_fract_z
 _atom_site_occupancy
  Er  Er0  1  0.440436  0.241086  0.199351  1
  Er  Er1  1  0.559564  0.758914  0.800649  1
  Er  Er2  1  0.041734  0.241086  0.800649  1
  Er  Er3  1  0.958266  0.758914  0.199351  1
  Er  Er4  1  0.184857  0.282159  0.467017  1
  Er  Er5  1  0.815143  0.717841  0.532983  1
  Er  Er6  1  0.184857  0.717841  0.902699  1
  Er  Er7  1  0.815143  0.282159  0.097301  1
  Er  Er8  1  0.327990  0.642029  0.314039  1
  Er  Er9  1  0.672010  0.357971  0.685961  1
  Er  Er10  1  0.327990  0.013951  0.685961  1
  Er  Er11  1  0.672010  0.986049  0.314039  1
  In  In12  1  0.500000  0.500000  0.000000  1
  In  In13  1  0.000000  0.000000  0.000000  1
  Ni  Ni14  1  0.115942  0.615942  0.500000  1
  Ni  Ni15  1  0.884058  0.384058  0.500000  1
  Os  Os16  1  0.331328  0.000000  0.331328  1
  Os  Os17  1  0.668672  0.000000  0.668672  1
