# generated using pymatgen
data_Tb4Co3GeF28
_symmetry_space_group_name_H-M   'P 1'
_cell_length_a   5.43420853
_cell_length_b   8.74419092
_cell_length_c   11.73672600
_cell_angle_alpha   62.29295880
_cell_angle_beta   90.02528340
_cell_angle_gamma   89.99704531
_symmetry_Int_Tables_number   1
_chemical_formula_structural   Tb4Co3GeF28
_chemical_formula_sum   'Tb4 Co3 Ge1 F28'
_cell_volume   493.75465439
_cell_formula_units_Z   1
loop_
 _symmetry_equiv_pos_site_id
 _symmetry_equiv_pos_as_xyz
  1  'x, y, z'
loop_
 _atom_site_type_symbol
 _atom_site_label
 _atom_site_symmetry_multiplicity
 _atom_site_fract_x
 _atom_site_fract_y
 _atom_site_fract_z
 _atom_site_occupancy
  Tb  Tb0  1  0.263414  0.808364  0.267004  1
  Tb  Tb1  1  0.736095  0.190809  0.736337  1
  Tb  Tb2  1  0.763864  0.190922  0.235382  1
  Tb  Tb3  1  0.237993  0.808489  0.764207  1
  Co  Co4  1  0.239924  0.273931  0.956555  1
  Co  Co5  1  0.259755  0.273288  0.457074  1
  Co  Co6  1  0.740843  0.726006  0.543366  1
  Ge  Ge7  1  0.758375  0.726694  0.042409  1
  F  F8  1  0.925856  0.705338  0.423333  1
  F  F9  1  0.073678  0.293753  0.576935  1
  F  F10  1  0.425041  0.294371  0.076744  1
  F  F11  1  0.565597  0.705673  0.923335  1
  F  F12  1  0.485405  0.730101  0.132985  1
  F  F13  1  0.514867  0.272906  0.868702  1
  F  F14  1  0.985081  0.270999  0.369162  1
  F  F15  1  0.016042  0.729588  0.630099  1
  F  F16  1  0.949974  0.742553  0.166624  1
  F  F17  1  0.056117  0.259386  0.831287  1
  F  F18  1  0.446169  0.258181  0.332133  1
  F  F19  1  0.555424  0.741151  0.667767  1
  F  F20  1  0.770303  0.491549  0.136655  1
  F  F21  1  0.226328  0.506545  0.863119  1
  F  F22  1  0.271067  0.506224  0.364161  1
  F  F23  1  0.729030  0.493165  0.636874  1
  F  F24  1  0.960017  0.281624  0.040180  1
  F  F25  1  0.041045  0.717616  0.959475  1
  F  F26  1  0.460307  0.716441  0.461346  1
  F  F27  1  0.538629  0.282059  0.540282  1
  F  F28  1  0.741497  0.957153  0.455954  1
  F  F29  1  0.259408  0.042333  0.543640  1
  F  F30  1  0.241506  0.043022  0.043935  1
  F  F31  1  0.760659  0.961242  0.952578  1
  F  F32  1  0.593717  0.970443  0.227283  1
  F  F33  1  0.406057  0.028809  0.772194  1
  F  F34  1  0.093763  0.028683  0.273453  1
  F  F35  1  0.907154  0.970586  0.727432  1
