# generated using pymatgen
data_Sc4Ta2Si7Ni16
_symmetry_space_group_name_H-M   'P 1'
_cell_length_a   8.05288829
_cell_length_b   8.01758927
_cell_length_c   8.01759035
_cell_angle_alpha   60.05095035
_cell_angle_beta   59.85425518
_cell_angle_gamma   59.85425057
_symmetry_Int_Tables_number   1
_chemical_formula_structural   Sc4Ta2Si7Ni16
_chemical_formula_sum   'Sc4 Ta2 Si7 Ni16'
_cell_volume   365.36781945
_cell_formula_units_Z   1
loop_
 _symmetry_equiv_pos_site_id
 _symmetry_equiv_pos_as_xyz
  1  'x, y, z'
loop_
 _atom_site_type_symbol
 _atom_site_label
 _atom_site_symmetry_multiplicity
 _atom_site_fract_x
 _atom_site_fract_y
 _atom_site_fract_z
 _atom_site_occupancy
  Sc  Sc0  1  0.199729  0.798430  0.798430  1
  Sc  Sc1  1  0.204491  0.207339  0.792661  1
  Sc  Sc2  1  0.796588  0.201570  0.201570  1
  Sc  Sc3  1  0.204491  0.792661  0.207339  1
  Ta  Ta4  1  0.794329  0.200252  0.799748  1
  Ta  Ta5  1  0.794329  0.799748  0.200252  1
  Si  Si6  1  0.998859  0.501082  0.002224  1
  Si  Si7  1  0.493642  0.500000  0.500000  1
  Si  Si8  1  0.502165  0.498918  0.997776  1
  Si  Si9  1  0.502165  0.997776  0.498918  1
  Si  Si10  1  0.995760  0.500000  0.500000  1
  Si  Si11  1  0.998859  0.002224  0.501082  1
  Si  Si12  1  0.500555  0.000000  0.000000  1
  Ni  Ni13  1  0.168811  0.169265  0.169265  1
  Ni  Ni14  1  0.621034  0.620272  0.146058  1
  Ni  Ni15  1  0.381612  0.379910  0.379910  1
  Ni  Ni16  1  0.167165  0.496659  0.168351  1
  Ni  Ni17  1  0.167165  0.168351  0.496659  1
  Ni  Ni18  1  0.141434  0.620090  0.620090  1
  Ni  Ni19  1  0.621034  0.146058  0.620272  1
  Ni  Ni20  1  0.831961  0.832335  0.832335  1
  Ni  Ni21  1  0.850212  0.385179  0.385179  1
  Ni  Ni22  1  0.387363  0.379728  0.853942  1
  Ni  Ni23  1  0.387363  0.853942  0.379728  1
  Ni  Ni24  1  0.507339  0.830735  0.830735  1
  Ni  Ni25  1  0.620571  0.614821  0.614821  1
  Ni  Ni26  1  0.832173  0.831649  0.503341  1
  Ni  Ni27  1  0.496632  0.167665  0.167665  1
  Ni  Ni28  1  0.832173  0.503341  0.831649  1
