# generated using pymatgen
data_SnHgPt2O7
_symmetry_space_group_name_H-M   'P 1'
_cell_length_a   7.24989226
_cell_length_b   7.28047671
_cell_length_c   7.24989131
_cell_angle_alpha   59.86034760
_cell_angle_beta   58.42401225
_cell_angle_gamma   59.86035391
_symmetry_Int_Tables_number   1
_chemical_formula_structural   SnHgPt2O7
_chemical_formula_sum   'Sn2 Hg2 Pt4 O14'
_cell_volume   266.66632469
_cell_formula_units_Z   2
loop_
 _symmetry_equiv_pos_site_id
 _symmetry_equiv_pos_as_xyz
  1  'x, y, z'
loop_
 _atom_site_type_symbol
 _atom_site_label
 _atom_site_symmetry_multiplicity
 _atom_site_fract_x
 _atom_site_fract_y
 _atom_site_fract_z
 _atom_site_occupancy
  Sn  Sn0  1  0.125000  0.125000  0.125000  1
  Sn  Sn1  1  0.125000  0.625000  0.125000  1
  Hg  Hg2  1  0.625000  0.125000  0.125000  1
  Hg  Hg3  1  0.125000  0.125000  0.625000  1
  Pt  Pt4  1  0.625000  0.625000  0.125000  1
  Pt  Pt5  1  0.625000  0.625000  0.625000  1
  Pt  Pt6  1  0.625000  0.125000  0.625000  1
  Pt  Pt7  1  0.125000  0.625000  0.625000  1
  O  O8  1  0.729741  0.287911  0.282437  1
  O  O9  1  0.711397  0.288603  0.711397  1
  O  O10  1  0.029272  0.970728  0.029272  1
  O  O11  1  0.287679  0.712321  0.287679  1
  O  O12  1  0.729741  0.699910  0.282437  1
  O  O13  1  0.967563  0.550090  0.520259  1
  O  O14  1  0.282437  0.699910  0.729741  1
  O  O15  1  0.220728  0.279272  0.220728  1
  O  O16  1  0.962321  0.537679  0.962321  1
  O  O17  1  0.538603  0.961397  0.538603  1
  O  O18  1  0.520259  0.550090  0.967563  1
  O  O19  1  0.967563  0.962089  0.520259  1
  O  O20  1  0.520259  0.962089  0.967563  1
  O  O21  1  0.282437  0.287911  0.729741  1
