# generated using pymatgen
data_TbNd2Y(CuPt)2
_symmetry_space_group_name_H-M   'P 1'
_cell_length_a   4.50833300
_cell_length_b   5.61183509
_cell_length_c   7.32079750
_cell_angle_alpha   90.32755562
_cell_angle_beta   90.00000000
_cell_angle_gamma   90.00000000
_symmetry_Int_Tables_number   1
_chemical_formula_structural   TbNd2Y(CuPt)2
_chemical_formula_sum   'Tb1 Nd2 Y1 Cu2 Pt2'
_cell_volume   185.21330611
_cell_formula_units_Z   1
loop_
 _symmetry_equiv_pos_site_id
 _symmetry_equiv_pos_as_xyz
  1  'x, y, z'
loop_
 _atom_site_type_symbol
 _atom_site_label
 _atom_site_symmetry_multiplicity
 _atom_site_fract_x
 _atom_site_fract_y
 _atom_site_fract_z
 _atom_site_occupancy
  Tb  Tb0  1  0.500000  0.608327  0.815587  1
  Nd  Nd1  1  0.000000  0.880795  0.182136  1
  Nd  Nd2  1  0.500000  0.389523  0.318037  1
  Y  Y3  1  0.000000  0.116991  0.682758  1
  Cu  Cu4  1  0.500000  0.887274  0.473813  1
  Cu  Cu5  1  0.500000  0.115350  0.954330  1
  Pt  Pt6  1  0.000000  0.618994  0.547918  1
  Pt  Pt7  1  0.000000  0.382745  0.025423  1
