# generated using pymatgen
data_Ho8Ti8VSi16Tc3
_symmetry_space_group_name_H-M   'P 1'
_cell_length_a   6.94926465
_cell_length_b   6.94926441
_cell_length_c   12.75857833
_cell_angle_alpha   90.00617030
_cell_angle_beta   89.99383004
_cell_angle_gamma   90.04762408
_symmetry_Int_Tables_number   1
_chemical_formula_structural   Ho8Ti8VSi16Tc3
_chemical_formula_sum   'Ho8 Ti8 V1 Si16 Tc3'
_cell_volume   616.14058521
_cell_formula_units_Z   1
loop_
 _symmetry_equiv_pos_site_id
 _symmetry_equiv_pos_as_xyz
  1  'x, y, z'
loop_
 _atom_site_type_symbol
 _atom_site_label
 _atom_site_symmetry_multiplicity
 _atom_site_fract_x
 _atom_site_fract_y
 _atom_site_fract_z
 _atom_site_occupancy
  Ho  Ho0  1  0.341289  0.000818  0.467781  1
  Ho  Ho1  1  0.498842  0.841305  0.718810  1
  Ho  Ho2  1  0.500421  0.158550  0.218662  1
  Ho  Ho3  1  0.841305  0.498842  0.281190  1
  Ho  Ho4  1  0.158550  0.500421  0.781338  1
  Ho  Ho5  1  0.658889  0.999244  0.968743  1
  Ho  Ho6  1  0.000818  0.341289  0.532219  1
  Ho  Ho7  1  0.999244  0.658889  0.031257  1
  Ti  Ti8  1  0.152142  0.005270  0.876699  1
  Ti  Ti9  1  0.494576  0.652986  0.125430  1
  Ti  Ti10  1  0.505523  0.349520  0.626648  1
  Ti  Ti11  1  0.652986  0.494576  0.874570  1
  Ti  Ti12  1  0.349520  0.505523  0.373352  1
  Ti  Ti13  1  0.846153  0.991744  0.376972  1
  Ti  Ti14  1  0.005270  0.152142  0.123301  1
  Ti  Ti15  1  0.991744  0.846153  0.623028  1
  V  V16  1  0.673663  0.673663  0.500000  1
  Si  Si17  1  0.199814  0.129341  0.683835  1
  Si  Si18  1  0.370093  0.700543  0.933012  1
  Si  Si19  1  0.631705  0.299505  0.434885  1
  Si  Si20  1  0.700543  0.370093  0.066988  1
  Si  Si21  1  0.299505  0.631705  0.565115  1
  Si  Si22  1  0.799146  0.870015  0.183557  1
  Si  Si23  1  0.129341  0.199814  0.316165  1
  Si  Si24  1  0.870015  0.799146  0.816443  1
  Si  Si25  1  0.290852  0.952172  0.066672  1
  Si  Si26  1  0.548657  0.790020  0.317370  1
  Si  Si27  1  0.452037  0.210143  0.816645  1
  Si  Si28  1  0.790020  0.548657  0.682630  1
  Si  Si29  1  0.210143  0.452037  0.183355  1
  Si  Si30  1  0.707519  0.047499  0.566739  1
  Si  Si31  1  0.952172  0.290852  0.933328  1
  Si  Si32  1  0.047499  0.707519  0.433261  1
  Tc  Tc33  1  0.328315  0.328315  0.000000  1
  Tc  Tc34  1  0.173633  0.828056  0.248986  1
  Tc  Tc35  1  0.828056  0.173633  0.751014  1
