# generated using pymatgen
data_Sr6ZnCu(RhO6)2
_symmetry_space_group_name_H-M   'P 1'
_cell_length_a   6.76274681
_cell_length_b   6.76274736
_cell_length_c   6.74683581
_cell_angle_alpha   91.68115932
_cell_angle_beta   91.68116272
_cell_angle_gamma   92.19566443
_symmetry_Int_Tables_number   1
_chemical_formula_structural   Sr6ZnCu(RhO6)2
_chemical_formula_sum   'Sr6 Zn1 Cu1 Rh2 O12'
_cell_volume   308.06221275
_cell_formula_units_Z   1
loop_
 _symmetry_equiv_pos_site_id
 _symmetry_equiv_pos_as_xyz
  1  'x, y, z'
loop_
 _atom_site_type_symbol
 _atom_site_label
 _atom_site_symmetry_multiplicity
 _atom_site_fract_x
 _atom_site_fract_y
 _atom_site_fract_z
 _atom_site_occupancy
  Sr  Sr0  1  0.387636  0.248770  0.123077  1
  Sr  Sr1  1  0.892675  0.107324  0.250000  1
  Sr  Sr2  1  0.751229  0.612364  0.376923  1
  Sr  Sr3  1  0.241437  0.386158  0.618134  1
  Sr  Sr4  1  0.110102  0.889899  0.750000  1
  Sr  Sr5  1  0.613841  0.758563  0.881866  1
  Zn  Zn6  1  0.257773  0.742226  0.250000  1
  Cu  Cu7  1  0.691998  0.308003  0.750000  1
  Rh  Rh8  1  0.003463  0.492846  0.999566  1
  Rh  Rh9  1  0.507153  0.996537  0.500434  1
  O  O10  1  0.716415  0.398072  0.034236  1
  O  O11  1  0.953407  0.779104  0.084896  1
  O  O12  1  0.537816  0.903092  0.212767  1
  O  O13  1  0.096907  0.462183  0.287233  1
  O  O14  1  0.220896  0.046592  0.415104  1
  O  O15  1  0.601927  0.283585  0.465764  1
  O  O16  1  0.405090  0.712928  0.540645  1
  O  O17  1  0.786637  0.931064  0.575544  1
  O  O18  1  0.892636  0.525050  0.715304  1
  O  O19  1  0.474951  0.107365  0.784697  1
  O  O20  1  0.068936  0.213362  0.924456  1
  O  O21  1  0.287072  0.594911  0.959355  1
