# generated using pymatgen
data_Tb5SmCd23Si
_symmetry_space_group_name_H-M   'P 1'
_cell_length_a   9.98342281
_cell_length_b   9.98114565
_cell_length_c   9.98114626
_cell_angle_alpha   60.01509692
_cell_angle_beta   59.99245462
_cell_angle_gamma   59.99245234
_symmetry_Int_Tables_number   1
_chemical_formula_structural   Tb5SmCd23Si
_chemical_formula_sum   'Tb5 Sm1 Cd23 Si1'
_cell_volume   703.27510875
_cell_formula_units_Z   1
loop_
 _symmetry_equiv_pos_site_id
 _symmetry_equiv_pos_as_xyz
  1  'x, y, z'
loop_
 _atom_site_type_symbol
 _atom_site_label
 _atom_site_symmetry_multiplicity
 _atom_site_fract_x
 _atom_site_fract_y
 _atom_site_fract_z
 _atom_site_occupancy
  Tb  Tb0  1  0.796990  0.797339  0.203010  1
  Tb  Tb1  1  0.202661  0.797339  0.203010  1
  Tb  Tb2  1  0.796964  0.203036  0.203036  1
  Tb  Tb3  1  0.202661  0.203010  0.797339  1
  Tb  Tb4  1  0.796990  0.203010  0.797339  1
  Sm  Sm5  1  0.204190  0.795810  0.795810  1
  Cd  Cd6  1  0.837271  0.837252  0.488206  1
  Cd  Cd7  1  0.837271  0.488206  0.837252  1
  Cd  Cd8  1  0.489101  0.837265  0.837265  1
  Cd  Cd9  1  0.836369  0.837265  0.837265  1
  Cd  Cd10  1  0.162735  0.163631  0.510899  1
  Cd  Cd11  1  0.162735  0.510899  0.163631  1
  Cd  Cd12  1  0.511794  0.162729  0.162729  1
  Cd  Cd13  1  0.162748  0.162729  0.162729  1
  Cd  Cd14  1  0.622036  0.621886  0.134042  1
  Cd  Cd15  1  0.622036  0.134042  0.621886  1
  Cd  Cd16  1  0.133690  0.621739  0.621739  1
  Cd  Cd17  1  0.622833  0.621739  0.621739  1
  Cd  Cd18  1  0.378261  0.377167  0.866310  1
  Cd  Cd19  1  0.378261  0.866310  0.377167  1
  Cd  Cd20  1  0.865958  0.377964  0.377964  1
  Cd  Cd21  1  0.378114  0.377964  0.377964  1
  Cd  Cd22  1  0.999820  0.000180  0.499831  1
  Cd  Cd23  1  0.500169  0.000180  0.499831  1
  Cd  Cd24  1  0.999841  0.500159  0.500159  1
  Cd  Cd25  1  0.500169  0.499831  0.000180  1
  Cd  Cd26  1  0.999820  0.499831  0.000180  1
  Cd  Cd27  1  0.499841  0.000159  0.000159  1
  Cd  Cd28  1  0.499951  0.500049  0.500049  1
  Si  Si29  1  0.998718  0.001282  0.001282  1
