# generated using pymatgen
data_Ho5Lu5(RuRh)2
_symmetry_space_group_name_H-M   'P 1'
_cell_length_a   6.31354007
_cell_length_b   7.21324879
_cell_length_c   8.38039456
_cell_angle_alpha   96.81575952
_cell_angle_beta   112.42067390
_cell_angle_gamma   90.01765632
_symmetry_Int_Tables_number   1
_chemical_formula_structural   Ho5Lu5(RuRh)2
_chemical_formula_sum   'Ho5 Lu5 Ru2 Rh2'
_cell_volume   349.87764378
_cell_formula_units_Z   1
loop_
 _symmetry_equiv_pos_site_id
 _symmetry_equiv_pos_as_xyz
  1  'x, y, z'
loop_
 _atom_site_type_symbol
 _atom_site_label
 _atom_site_symmetry_multiplicity
 _atom_site_fract_x
 _atom_site_fract_y
 _atom_site_fract_z
 _atom_site_occupancy
  Ho  Ho0  1  0.524850  0.080861  0.815094  1
  Ho  Ho1  1  0.476064  0.918434  0.185187  1
  Ho  Ho2  1  0.711938  0.416350  0.188613  1
  Ho  Ho3  1  0.287481  0.584371  0.811473  1
  Ho  Ho4  1  0.290478  0.312263  0.435563  1
  Lu  Lu5  1  0.710056  0.687879  0.565398  1
  Lu  Lu6  1  0.858762  0.182009  0.563252  1
  Lu  Lu7  1  0.141015  0.817509  0.436964  1
  Lu  Lu8  1  0.077998  0.247472  0.998361  1
  Lu  Lu9  1  0.921320  0.752017  0.000518  1
  Ru  Ru10  1  0.103017  0.923754  0.781650  1
  Ru  Ru11  1  0.895681  0.075466  0.217463  1
  Rh  Rh12  1  0.321780  0.575717  0.222912  1
  Rh  Rh13  1  0.679560  0.425897  0.777551  1
