# generated using pymatgen
data_Eu6TaO12
_symmetry_space_group_name_H-M   'P 1'
_cell_length_a   6.60656196
_cell_length_b   6.60656063
_cell_length_c   6.60656050
_cell_angle_alpha   98.52503052
_cell_angle_beta   98.52501982
_cell_angle_gamma   98.52502417
_symmetry_Int_Tables_number   1
_chemical_formula_structural   Eu6TaO12
_chemical_formula_sum   'Eu6 Ta1 O12'
_cell_volume   277.71345621
_cell_formula_units_Z   1
loop_
 _symmetry_equiv_pos_site_id
 _symmetry_equiv_pos_as_xyz
  1  'x, y, z'
loop_
 _atom_site_type_symbol
 _atom_site_label
 _atom_site_symmetry_multiplicity
 _atom_site_fract_x
 _atom_site_fract_y
 _atom_site_fract_z
 _atom_site_occupancy
  Eu  Eu0  1  0.863537  0.395365  0.702810  1
  Eu  Eu1  1  0.604635  0.297190  0.136463  1
  Eu  Eu2  1  0.297190  0.136463  0.604635  1
  Eu  Eu3  1  0.702810  0.863537  0.395365  1
  Eu  Eu4  1  0.395365  0.702810  0.863537  1
  Eu  Eu5  1  0.136463  0.604635  0.297190  1
  Ta  Ta6  1  0.000000  0.000000  0.000000  1
  O  O7  1  0.930691  0.039006  0.701829  1
  O  O8  1  0.960994  0.298171  0.069309  1
  O  O9  1  0.592618  0.176760  0.434728  1
  O  O10  1  0.823240  0.565272  0.407382  1
  O  O11  1  0.298171  0.069309  0.960994  1
  O  O12  1  0.565272  0.407382  0.823240  1
  O  O13  1  0.434728  0.592618  0.176760  1
  O  O14  1  0.701829  0.930691  0.039006  1
  O  O15  1  0.176760  0.434728  0.592618  1
  O  O16  1  0.407382  0.823240  0.565272  1
  O  O17  1  0.039006  0.701829  0.930691  1
  O  O18  1  0.069309  0.960994  0.298171  1
