# generated using pymatgen
data_TbAl10OsRh
_symmetry_space_group_name_H-M   'P 1'
_cell_length_a   6.86007479
_cell_length_b   6.86746018
_cell_length_c   9.15989700
_cell_angle_alpha   90.00000000
_cell_angle_beta   90.00000000
_cell_angle_gamma   96.97910681
_symmetry_Int_Tables_number   1
_chemical_formula_structural   TbAl10OsRh
_chemical_formula_sum   'Tb2 Al20 Os2 Rh2'
_cell_volume   428.33712408
_cell_formula_units_Z   2
loop_
 _symmetry_equiv_pos_site_id
 _symmetry_equiv_pos_as_xyz
  1  'x, y, z'
loop_
 _atom_site_type_symbol
 _atom_site_label
 _atom_site_symmetry_multiplicity
 _atom_site_fract_x
 _atom_site_fract_y
 _atom_site_fract_z
 _atom_site_occupancy
  Tb  Tb0  1  0.868318  0.125644  0.750000  1
  Tb  Tb1  1  0.131682  0.874356  0.250000  1
  Al  Al2  1  0.620800  0.375509  0.550025  1
  Al  Al3  1  0.379200  0.624491  0.449975  1
  Al  Al4  1  0.379200  0.624491  0.050025  1
  Al  Al5  1  0.620800  0.375509  0.949975  1
  Al  Al6  1  0.223452  0.222849  0.498907  1
  Al  Al7  1  0.776548  0.777151  0.501093  1
  Al  Al8  1  0.776548  0.777151  0.998907  1
  Al  Al9  1  0.223452  0.222849  0.001093  1
  Al  Al10  1  0.844239  0.155225  0.101962  1
  Al  Al11  1  0.155761  0.844775  0.898038  1
  Al  Al12  1  0.155761  0.844775  0.601962  1
  Al  Al13  1  0.844239  0.155225  0.398038  1
  Al  Al14  1  0.856126  0.587635  0.750000  1
  Al  Al15  1  0.143874  0.412365  0.250000  1
  Al  Al16  1  0.411245  0.142533  0.750000  1
  Al  Al17  1  0.588755  0.857467  0.250000  1
  Al  Al18  1  0.224381  0.480864  0.750000  1
  Al  Al19  1  0.775619  0.519136  0.250000  1
  Al  Al20  1  0.517815  0.779462  0.750000  1
  Al  Al21  1  0.482185  0.220538  0.250000  1
  Os  Os22  1  0.500000  0.000000  0.000000  1
  Os  Os23  1  0.500000  0.000000  0.500000  1
  Rh  Rh24  1  0.000000  0.500000  0.500000  1
  Rh  Rh25  1  0.000000  0.500000  0.000000  1
