# generated using pymatgen
data_ErPa3Ni4SnPb
_symmetry_space_group_name_H-M   'P 1'
_cell_length_a   7.46542783
_cell_length_b   7.43392695
_cell_length_c   3.59338500
_cell_angle_alpha   90.00000000
_cell_angle_beta   90.00000000
_cell_angle_gamma   91.23514999
_symmetry_Int_Tables_number   1
_chemical_formula_structural   ErPa3Ni4SnPb
_chemical_formula_sum   'Er1 Pa3 Ni4 Sn1 Pb1'
_cell_volume   199.37735044
_cell_formula_units_Z   1
loop_
 _symmetry_equiv_pos_site_id
 _symmetry_equiv_pos_as_xyz
  1  'x, y, z'
loop_
 _atom_site_type_symbol
 _atom_site_label
 _atom_site_symmetry_multiplicity
 _atom_site_fract_x
 _atom_site_fract_y
 _atom_site_fract_z
 _atom_site_occupancy
  Er  Er0  1  0.831258  0.673808  0.500000  1
  Pa  Pa1  1  0.676541  0.170115  0.500000  1
  Pa  Pa2  1  0.322816  0.829541  0.500000  1
  Pa  Pa3  1  0.168757  0.326776  0.500000  1
  Ni  Ni4  1  0.886208  0.360977  0.000000  1
  Ni  Ni5  1  0.132984  0.622517  0.000000  1
  Ni  Ni6  1  0.364257  0.124776  0.000000  1
  Ni  Ni7  1  0.613874  0.894647  0.000000  1
  Sn  Sn8  1  0.994311  0.991144  0.000000  1
  Pb  Pb9  1  0.508993  0.505699  0.000000  1
