# generated using pymatgen
data_Pr2Mn12Si5C2
_symmetry_space_group_name_H-M   'P 1'
_cell_length_a   6.58119280
_cell_length_b   6.58119406
_cell_length_c   6.50161209
_cell_angle_alpha   83.15990147
_cell_angle_beta   83.15989954
_cell_angle_gamma   84.41340304
_symmetry_Int_Tables_number   1
_chemical_formula_structural   Pr2Mn12Si5C2
_chemical_formula_sum   'Pr2 Mn12 Si5 C2'
_cell_volume   276.61455643
_cell_formula_units_Z   1
loop_
 _symmetry_equiv_pos_site_id
 _symmetry_equiv_pos_as_xyz
  1  'x, y, z'
loop_
 _atom_site_type_symbol
 _atom_site_label
 _atom_site_symmetry_multiplicity
 _atom_site_fract_x
 _atom_site_fract_y
 _atom_site_fract_z
 _atom_site_occupancy
  Pr  Pr0  1  0.645521  0.645521  0.675080  1
  Pr  Pr1  1  0.354479  0.354479  0.324920  1
  Mn  Mn2  1  0.998130  0.720518  0.292168  1
  Mn  Mn3  1  0.279482  0.001870  0.707832  1
  Mn  Mn4  1  0.001870  0.279482  0.707832  1
  Mn  Mn5  1  0.720518  0.998130  0.292168  1
  Mn  Mn6  1  0.500000  0.000000  0.000000  1
  Mn  Mn7  1  0.000000  0.500000  0.000000  1
  Mn  Mn8  1  0.344951  0.856390  0.338273  1
  Mn  Mn9  1  0.856390  0.344951  0.338273  1
  Mn  Mn10  1  0.655048  0.143610  0.661727  1
  Mn  Mn11  1  0.143610  0.655048  0.661727  1
  Mn  Mn12  1  0.895828  0.895828  0.901910  1
  Mn  Mn13  1  0.104172  0.104172  0.098090  1
  Si  Si14  1  0.760745  0.239255  0.000000  1
  Si  Si15  1  0.239255  0.760745  0.000000  1
  Si  Si16  1  0.000000  0.000000  0.500000  1
  Si  Si17  1  0.322793  0.322793  0.837262  1
  Si  Si18  1  0.677207  0.677207  0.162738  1
  C  C19  1  0.000000  0.500000  0.500000  1
  C  C20  1  0.500000  0.000000  0.500000  1
