# generated using pymatgen
data_TbDy3(Ga8Pt3)3
_symmetry_space_group_name_H-M   'P 1'
_cell_length_a   7.51266124
_cell_length_b   7.58508662
_cell_length_c   13.36131618
_cell_angle_alpha   84.75323453
_cell_angle_beta   79.51755693
_cell_angle_gamma   60.17644836
_symmetry_Int_Tables_number   1
_chemical_formula_structural   TbDy3(Ga8Pt3)3
_chemical_formula_sum   'Tb1 Dy3 Ga24 Pt9'
_cell_volume   649.52242561
_cell_formula_units_Z   1
loop_
 _symmetry_equiv_pos_site_id
 _symmetry_equiv_pos_as_xyz
  1  'x, y, z'
loop_
 _atom_site_type_symbol
 _atom_site_label
 _atom_site_symmetry_multiplicity
 _atom_site_fract_x
 _atom_site_fract_y
 _atom_site_fract_z
 _atom_site_occupancy
  Tb  Tb0  1  0.267657  0.502583  0.188199  1
  Dy  Dy1  1  0.392933  0.168966  0.811441  1
  Dy  Dy2  1  0.607070  0.831037  0.188561  1
  Dy  Dy3  1  0.732370  0.497419  0.811781  1
  Ga  Ga4  1  0.685451  0.833822  0.938586  1
  Ga  Ga5  1  0.314560  0.166074  0.061385  1
  Ga  Ga6  1  0.146042  0.832725  0.558950  1
  Ga  Ga7  1  0.853965  0.167268  0.441046  1
  Ga  Ga8  1  0.478277  0.166826  0.556124  1
  Ga  Ga9  1  0.521726  0.833173  0.443861  1
  Ga  Ga10  1  0.220899  0.165379  0.323699  1
  Ga  Ga11  1  0.779094  0.834542  0.676333  1
  Ga  Ga12  1  0.437654  0.503547  0.675261  1
  Ga  Ga13  1  0.562414  0.496461  0.324773  1
  Ga  Ga14  1  0.106575  0.163919  0.674854  1
  Ga  Ga15  1  0.893330  0.836161  0.325182  1
  Ga  Ga16  1  0.357214  0.498224  0.938796  1
  Ga  Ga17  1  0.642909  0.501782  0.061140  1
  Ga  Ga18  1  0.019629  0.169421  0.943676  1
  Ga  Ga19  1  0.980285  0.830669  0.056288  1
  Ga  Ga20  1  0.186958  0.499149  0.442989  1
  Ga  Ga21  1  0.813036  0.500860  0.557016  1
  Ga  Ga22  1  0.734486  0.163704  0.182175  1
  Ga  Ga23  1  0.265598  0.836239  0.817823  1
  Ga  Ga24  1  0.061140  0.631314  0.817154  1
  Ga  Ga25  1  0.938795  0.368655  0.182844  1
  Ga  Ga26  1  0.856285  0.039869  0.817047  1
  Ga  Ga27  1  0.143687  0.960217  0.182954  1
  Pt  Pt28  1  0.117786  0.495981  0.638852  1
  Pt  Pt29  1  0.882141  0.504006  0.361187  1
  Pt  Pt30  1  0.659967  0.169863  0.999359  1
  Pt  Pt31  1  0.340046  0.830140  0.000612  1
  Pt  Pt32  1  0.540783  0.166688  0.360369  1
  Pt  Pt33  1  0.459272  0.833250  0.639673  1
  Pt  Pt34  1  0.779678  0.171770  0.637204  1
  Pt  Pt35  1  0.220300  0.828300  0.362828  1
  Pt  Pt36  1  0.999988  0.499994  0.999982  1
