# generated using pymatgen
data_Rb6TaNbSe8
_symmetry_space_group_name_H-M   'P 1'
_cell_length_a   10.36432000
_cell_length_b   10.40608200
_cell_length_c   12.17636600
_cell_angle_alpha   90.00000000
_cell_angle_beta   90.00000000
_cell_angle_gamma   90.00000000
_symmetry_Int_Tables_number   1
_chemical_formula_structural   Rb6TaNbSe8
_chemical_formula_sum   'Rb12 Ta2 Nb2 Se16'
_cell_volume   1313.24498498
_cell_formula_units_Z   2
loop_
 _symmetry_equiv_pos_site_id
 _symmetry_equiv_pos_as_xyz
  1  'x, y, z'
loop_
 _atom_site_type_symbol
 _atom_site_label
 _atom_site_symmetry_multiplicity
 _atom_site_fract_x
 _atom_site_fract_y
 _atom_site_fract_z
 _atom_site_occupancy
  Rb  Rb0  1  0.550974  0.210989  0.049700  1
  Rb  Rb1  1  0.050974  0.289011  0.450300  1
  Rb  Rb2  1  0.449205  0.789560  0.550435  1
  Rb  Rb3  1  0.949205  0.710440  0.949565  1
  Rb  Rb4  1  0.449205  0.789560  0.949565  1
  Rb  Rb5  1  0.949205  0.710440  0.550435  1
  Rb  Rb6  1  0.550974  0.210989  0.450300  1
  Rb  Rb7  1  0.050974  0.289011  0.049700  1
  Rb  Rb8  1  0.636390  0.416669  0.750000  1
  Rb  Rb9  1  0.136390  0.083331  0.750000  1
  Rb  Rb10  1  0.363941  0.581852  0.250000  1
  Rb  Rb11  1  0.863941  0.918148  0.250000  1
  Ta  Ta12  1  0.279546  0.014682  0.250000  1
  Ta  Ta13  1  0.779546  0.485318  0.250000  1
  Nb  Nb14  1  0.720606  0.985081  0.750000  1
  Nb  Nb15  1  0.220606  0.514919  0.750000  1
  Se  Se16  1  0.835234  0.050965  0.585449  1
  Se  Se17  1  0.335234  0.449035  0.914551  1
  Se  Se18  1  0.164949  0.948673  0.086144  1
  Se  Se19  1  0.664949  0.551327  0.413856  1
  Se  Se20  1  0.164949  0.948673  0.413856  1
  Se  Se21  1  0.664949  0.551327  0.086144  1
  Se  Se22  1  0.835234  0.050965  0.914551  1
  Se  Se23  1  0.335234  0.449035  0.585449  1
  Se  Se24  1  0.504631  0.076237  0.750000  1
  Se  Se25  1  0.004631  0.423763  0.750000  1
  Se  Se26  1  0.494606  0.922849  0.250000  1
  Se  Se27  1  0.994606  0.577151  0.250000  1
  Se  Se28  1  0.702898  0.751486  0.750000  1
  Se  Se29  1  0.202898  0.748514  0.750000  1
  Se  Se30  1  0.296660  0.247692  0.250000  1
  Se  Se31  1  0.796660  0.252308  0.250000  1
