# generated using pymatgen
data_SrLa5NpO12
_symmetry_space_group_name_H-M   'P 1'
_cell_length_a   6.86744226
_cell_length_b   6.87660566
_cell_length_c   6.87704600
_cell_angle_alpha   98.80571416
_cell_angle_beta   98.59795517
_cell_angle_gamma   98.60006796
_symmetry_Int_Tables_number   1
_chemical_formula_structural   SrLa5NpO12
_chemical_formula_sum   'Sr1 La5 Np1 O12'
_cell_volume   312.35184193
_cell_formula_units_Z   1
loop_
 _symmetry_equiv_pos_site_id
 _symmetry_equiv_pos_as_xyz
  1  'x, y, z'
loop_
 _atom_site_type_symbol
 _atom_site_label
 _atom_site_symmetry_multiplicity
 _atom_site_fract_x
 _atom_site_fract_y
 _atom_site_fract_z
 _atom_site_occupancy
  Sr  Sr0  1  0.145545  0.312106  0.605759  1
  La  La1  1  0.313246  0.606268  0.142434  1
  La  La2  1  0.607441  0.147280  0.317078  1
  La  La3  1  0.390414  0.853467  0.684199  1
  La  La4  1  0.685930  0.392525  0.850731  1
  La  La5  1  0.854150  0.684154  0.392573  1
  Np  Np6  1  0.998560  0.998839  0.001856  1
  O  O7  1  0.447113  0.172316  0.596851  1
  O  O8  1  0.936333  0.706916  0.035303  1
  O  O9  1  0.176809  0.607913  0.431654  1
  O  O10  1  0.815670  0.410889  0.559308  1
  O  O11  1  0.562576  0.821895  0.402015  1
  O  O12  1  0.592136  0.434732  0.174951  1
  O  O13  1  0.419344  0.573068  0.828377  1
  O  O14  1  0.960263  0.058906  0.289379  1
  O  O15  1  0.031087  0.929403  0.712293  1
  O  O16  1  0.708230  0.035776  0.936040  1
  O  O17  1  0.063814  0.289164  0.973019  1
  O  O18  1  0.291339  0.964381  0.066181  1
