# generated using pymatgen
data_Pr4Cd2RhAu3
_symmetry_space_group_name_H-M   'P 1'
_cell_length_a   8.09887489
_cell_length_b   8.09887489
_cell_length_c   3.92932300
_cell_angle_alpha   90.00000000
_cell_angle_beta   90.00000000
_cell_angle_gamma   89.76600249
_symmetry_Int_Tables_number   1
_chemical_formula_structural   Pr4Cd2RhAu3
_chemical_formula_sum   'Pr4 Cd2 Rh1 Au3'
_cell_volume   257.72911842
_cell_formula_units_Z   1
loop_
 _symmetry_equiv_pos_site_id
 _symmetry_equiv_pos_as_xyz
  1  'x, y, z'
loop_
 _atom_site_type_symbol
 _atom_site_label
 _atom_site_symmetry_multiplicity
 _atom_site_fract_x
 _atom_site_fract_y
 _atom_site_fract_z
 _atom_site_occupancy
  Pr  Pr0  1  0.654092  0.177760  0.500000  1
  Pr  Pr1  1  0.322240  0.845908  0.500000  1
  Pr  Pr2  1  0.186434  0.313566  0.500000  1
  Pr  Pr3  1  0.829244  0.670756  0.500000  1
  Cd  Cd4  1  0.004095  0.002458  0.000000  1
  Cd  Cd5  1  0.497542  0.495905  0.000000  1
  Rh  Rh6  1  0.373609  0.126391  0.000000  1
  Au  Au7  1  0.131236  0.624529  0.000000  1
  Au  Au8  1  0.875471  0.368764  0.000000  1
  Au  Au9  1  0.626038  0.873962  0.000000  1
