# generated using pymatgen
data_Nb8Co7Si14Rh
_symmetry_space_group_name_H-M   'P 1'
_cell_length_a   9.27773929
_cell_length_b   9.28613556
_cell_length_c   9.26468471
_cell_angle_alpha   94.27673778
_cell_angle_beta   94.22851577
_cell_angle_gamma   148.42629237
_symmetry_Int_Tables_number   1
_chemical_formula_structural   Nb8Co7Si14Rh
_chemical_formula_sum   'Nb8 Co7 Si14 Rh1'
_cell_volume   402.10568407
_cell_formula_units_Z   1
loop_
 _symmetry_equiv_pos_site_id
 _symmetry_equiv_pos_as_xyz
  1  'x, y, z'
loop_
 _atom_site_type_symbol
 _atom_site_label
 _atom_site_symmetry_multiplicity
 _atom_site_fract_x
 _atom_site_fract_y
 _atom_site_fract_z
 _atom_site_occupancy
  Nb  Nb0  1  0.309844  0.499216  0.809316  1
  Nb  Nb1  1  0.691377  0.501623  0.191913  1
  Nb  Nb2  1  0.500536  0.690290  0.191913  1
  Nb  Nb3  1  0.499472  0.310100  0.809316  1
  Nb  Nb4  1  0.133748  0.133748  0.267494  1
  Nb  Nb5  1  0.866228  0.866228  0.732458  1
  Nb  Nb6  1  0.133967  0.868070  0.001454  1
  Nb  Nb7  1  0.867487  0.133384  0.001454  1
  Co  Co8  1  0.103589  0.603589  0.207179  1
  Co  Co9  1  0.898797  0.098375  0.497364  1
  Co  Co10  1  0.598567  0.398988  0.497364  1
  Co  Co11  1  0.599904  0.099904  0.199808  1
  Co  Co12  1  0.899277  0.399277  0.798553  1
  Co  Co13  1  0.102155  0.899028  0.500397  1
  Co  Co14  1  0.398243  0.601369  0.500397  1
  Si  Si15  1  0.291612  0.291612  0.583224  1
  Si  Si16  1  0.708118  0.708118  0.416236  1
  Si  Si17  1  0.283697  0.697223  0.005036  1
  Si  Si18  1  0.721339  0.307813  0.005036  1
  Si  Si19  1  0.073693  0.477176  0.588266  1
  Si  Si20  1  0.902952  0.497794  0.406239  1
  Si  Si21  1  0.503288  0.908446  0.406239  1
  Si  Si22  1  0.514574  0.111090  0.588266  1
  Si  Si23  1  0.249660  0.249399  0.000419  1
  Si  Si24  1  0.750759  0.751019  0.000419  1
  Si  Si25  1  0.298327  0.001667  0.296406  1
  Si  Si26  1  0.715896  0.006510  0.702548  1
  Si  Si27  1  0.986652  0.696038  0.702548  1
  Si  Si28  1  0.998080  0.294739  0.296406  1
  Rh  Rh29  1  0.398165  0.898165  0.796329  1
