# generated using pymatgen
data_YEr(Al3Ni)6
_symmetry_space_group_name_H-M   'P 1'
_cell_length_a   10.06729837
_cell_length_b   10.06729863
_cell_length_c   10.06729929
_cell_angle_alpha   42.37452781
_cell_angle_beta   42.37452795
_cell_angle_gamma   42.37452702
_symmetry_Int_Tables_number   1
_chemical_formula_structural   YEr(Al3Ni)6
_chemical_formula_sum   'Y1 Er1 Al18 Ni6'
_cell_volume   419.56040583
_cell_formula_units_Z   1
loop_
 _symmetry_equiv_pos_site_id
 _symmetry_equiv_pos_as_xyz
  1  'x, y, z'
loop_
 _atom_site_type_symbol
 _atom_site_label
 _atom_site_symmetry_multiplicity
 _atom_site_fract_x
 _atom_site_fract_y
 _atom_site_fract_z
 _atom_site_occupancy
  Y  Y0  1  0.166897  0.166897  0.166897  1
  Er  Er1  1  0.833085  0.833085  0.833085  1
  Al  Al2  1  0.102644  0.432620  0.761710  1
  Al  Al3  1  0.432620  0.761710  0.102644  1
  Al  Al4  1  0.568377  0.896872  0.237756  1
  Al  Al5  1  0.947896  0.947896  0.947896  1
  Al  Al6  1  0.051938  0.051938  0.051938  1
  Al  Al7  1  0.291041  0.707825  0.501126  1
  Al  Al8  1  0.896872  0.237756  0.568377  1
  Al  Al9  1  0.387077  0.387077  0.387077  1
  Al  Al10  1  0.501126  0.291041  0.707825  1
  Al  Al11  1  0.237756  0.568377  0.896872  1
  Al  Al12  1  0.718347  0.718347  0.718347  1
  Al  Al13  1  0.612936  0.612936  0.612936  1
  Al  Al14  1  0.334334  0.999890  0.665783  1
  Al  Al15  1  0.707825  0.501126  0.291041  1
  Al  Al16  1  0.665783  0.334334  0.999890  1
  Al  Al17  1  0.281784  0.281784  0.281784  1
  Al  Al18  1  0.999890  0.665783  0.334334  1
  Al  Al19  1  0.761710  0.102644  0.432620  1
  Ni  Ni20  1  0.418314  0.078505  0.758637  1
  Ni  Ni21  1  0.581789  0.241319  0.921496  1
  Ni  Ni22  1  0.078505  0.758637  0.418314  1
  Ni  Ni23  1  0.758637  0.418314  0.078505  1
  Ni  Ni24  1  0.921496  0.581789  0.241319  1
  Ni  Ni25  1  0.241319  0.921496  0.581789  1
