# generated using pymatgen
data_Ho12TlZnInFe2
_symmetry_space_group_name_H-M   'P 1'
_cell_length_a   8.36773847
_cell_length_b   8.36751286
_cell_length_c   8.36773863
_cell_angle_alpha   109.92780562
_cell_angle_beta   109.72066386
_cell_angle_gamma   108.76863194
_symmetry_Int_Tables_number   1
_chemical_formula_structural   Ho12TlZnInFe2
_chemical_formula_sum   'Ho12 Tl1 Zn1 In1 Fe2'
_cell_volume   450.95628454
_cell_formula_units_Z   1
loop_
 _symmetry_equiv_pos_site_id
 _symmetry_equiv_pos_as_xyz
  1  'x, y, z'
loop_
 _atom_site_type_symbol
 _atom_site_label
 _atom_site_symmetry_multiplicity
 _atom_site_fract_x
 _atom_site_fract_y
 _atom_site_fract_z
 _atom_site_occupancy
  Ho  Ho0  1  0.444977  0.201985  0.242989  1
  Ho  Ho1  1  0.555023  0.798015  0.757011  1
  Ho  Ho2  1  0.958996  0.201985  0.757008  1
  Ho  Ho3  1  0.202525  0.959129  0.756604  1
  Ho  Ho4  1  0.041004  0.798015  0.242992  1
  Ho  Ho5  1  0.797475  0.040871  0.243396  1
  Ho  Ho6  1  0.202530  0.445935  0.243405  1
  Ho  Ho7  1  0.797470  0.554065  0.756595  1
  Ho  Ho8  1  0.305879  0.305135  0.611023  1
  Ho  Ho9  1  0.694121  0.694865  0.388977  1
  Ho  Ho10  1  0.305887  0.694865  0.000744  1
  Ho  Ho11  1  0.694113  0.305135  0.999256  1
  Tl  Tl12  1  0.000000  0.500000  0.500000  1
  Zn  Zn13  1  0.000000  0.000000  0.000000  1
  In  In14  1  0.500000  0.000000  0.500000  1
  Fe  Fe15  1  0.387470  0.387470  0.000000  1
  Fe  Fe16  1  0.612530  0.612530  0.000000  1
