# generated using pymatgen
data_Pm2URu3
_symmetry_space_group_name_H-M   'P 1'
_cell_length_a   5.26377344
_cell_length_b   5.26377279
_cell_length_c   5.26377333
_cell_angle_alpha   68.67600737
_cell_angle_beta   68.67601618
_cell_angle_gamma   68.67600519
_symmetry_Int_Tables_number   1
_chemical_formula_structural   Pm2URu3
_chemical_formula_sum   'Pm2 U1 Ru3'
_cell_volume   121.97622375
_cell_formula_units_Z   1
loop_
 _symmetry_equiv_pos_site_id
 _symmetry_equiv_pos_as_xyz
  1  'x, y, z'
loop_
 _atom_site_type_symbol
 _atom_site_label
 _atom_site_symmetry_multiplicity
 _atom_site_fract_x
 _atom_site_fract_y
 _atom_site_fract_z
 _atom_site_occupancy
  Pm  Pm0  1  0.750033  0.750033  0.750033  1
  Pm  Pm1  1  0.499967  0.499967  0.499967  1
  U  U2  1  0.125000  0.125000  0.125000  1
  Ru  Ru3  1  0.625000  0.125000  0.125000  1
  Ru  Ru4  1  0.125000  0.625000  0.125000  1
  Ru  Ru5  1  0.125000  0.125000  0.625000  1
