# generated using pymatgen
data_Tm4Ga4Ir3Pt
_symmetry_space_group_name_H-M   'P 1'
_cell_length_a   4.33377100
_cell_length_b   6.74781035
_cell_length_c   7.74764652
_cell_angle_alpha   89.72114441
_cell_angle_beta   90.00000000
_cell_angle_gamma   90.00000000
_symmetry_Int_Tables_number   1
_chemical_formula_structural   Tm4Ga4Ir3Pt
_chemical_formula_sum   'Tm4 Ga4 Ir3 Pt1'
_cell_volume   226.56534494
_cell_formula_units_Z   1
loop_
 _symmetry_equiv_pos_site_id
 _symmetry_equiv_pos_as_xyz
  1  'x, y, z'
loop_
 _atom_site_type_symbol
 _atom_site_label
 _atom_site_symmetry_multiplicity
 _atom_site_fract_x
 _atom_site_fract_y
 _atom_site_fract_z
 _atom_site_occupancy
  Tm  Tm0  1  0.250000  0.973159  0.310437  1
  Tm  Tm1  1  0.250000  0.478713  0.186040  1
  Tm  Tm2  1  0.750000  0.020703  0.692352  1
  Tm  Tm3  1  0.750000  0.521837  0.811833  1
  Ga  Ga4  1  0.250000  0.345283  0.570439  1
  Ga  Ga5  1  0.250000  0.842970  0.930425  1
  Ga  Ga6  1  0.750000  0.661172  0.431252  1
  Ga  Ga7  1  0.750000  0.154875  0.067009  1
  Ir  Ir8  1  0.250000  0.234398  0.889725  1
  Ir  Ir9  1  0.250000  0.734933  0.610352  1
  Ir  Ir10  1  0.750000  0.765102  0.110657  1
  Pt  Pt11  1  0.750000  0.266855  0.389479  1
