# generated using pymatgen
data_LiCa2InAu2
_symmetry_space_group_name_H-M   'P 1'
_cell_length_a   4.39034200
_cell_length_b   7.51410700
_cell_length_c   17.29149500
_cell_angle_alpha   90.00000000
_cell_angle_beta   90.00000000
_cell_angle_gamma   90.00000000
_symmetry_Int_Tables_number   1
_chemical_formula_structural   LiCa2InAu2
_chemical_formula_sum   'Li4 Ca8 In4 Au8'
_cell_volume   570.43776660
_cell_formula_units_Z   4
loop_
 _symmetry_equiv_pos_site_id
 _symmetry_equiv_pos_as_xyz
  1  'x, y, z'
loop_
 _atom_site_type_symbol
 _atom_site_label
 _atom_site_symmetry_multiplicity
 _atom_site_fract_x
 _atom_site_fract_y
 _atom_site_fract_z
 _atom_site_occupancy
  Li  Li0  1  0.250000  0.000621  0.062966  1
  Li  Li1  1  0.750000  0.499379  0.562966  1
  Li  Li2  1  0.250000  0.500621  0.437034  1
  Li  Li3  1  0.750000  0.999379  0.937034  1
  Ca  Ca4  1  0.750000  0.158187  0.439656  1
  Ca  Ca5  1  0.250000  0.962347  0.781598  1
  Ca  Ca6  1  0.250000  0.341813  0.939656  1
  Ca  Ca7  1  0.750000  0.658187  0.060344  1
  Ca  Ca8  1  0.250000  0.841813  0.560344  1
  Ca  Ca9  1  0.750000  0.037653  0.218402  1
  Ca  Ca10  1  0.750000  0.537653  0.281598  1
  Ca  Ca11  1  0.250000  0.462347  0.718402  1
  In  In12  1  0.250000  0.361412  0.151193  1
  In  In13  1  0.750000  0.138588  0.651193  1
  In  In14  1  0.250000  0.861412  0.348807  1
  In  In15  1  0.750000  0.638588  0.848807  1
  Au  Au16  1  0.250000  0.247771  0.314604  1
  Au  Au17  1  0.250000  0.271129  0.560408  1
  Au  Au18  1  0.750000  0.728871  0.439592  1
  Au  Au19  1  0.750000  0.252229  0.814604  1
  Au  Au20  1  0.750000  0.752229  0.685396  1
  Au  Au21  1  0.750000  0.228871  0.060408  1
  Au  Au22  1  0.250000  0.771129  0.939592  1
  Au  Au23  1  0.250000  0.747771  0.185396  1
