# generated using pymatgen
data_Er6Sc3Al13Os7
_symmetry_space_group_name_H-M   'P 1'
_cell_length_a   9.04592405
_cell_length_b   9.04592478
_cell_length_c   9.04592400
_cell_angle_alpha   59.95654247
_cell_angle_beta   59.95653978
_cell_angle_gamma   59.95654044
_symmetry_Int_Tables_number   1
_chemical_formula_structural   Er6Sc3Al13Os7
_chemical_formula_sum   'Er6 Sc3 Al13 Os7'
_cell_volume   522.89633334
_cell_formula_units_Z   1
loop_
 _symmetry_equiv_pos_site_id
 _symmetry_equiv_pos_as_xyz
  1  'x, y, z'
loop_
 _atom_site_type_symbol
 _atom_site_label
 _atom_site_symmetry_multiplicity
 _atom_site_fract_x
 _atom_site_fract_y
 _atom_site_fract_z
 _atom_site_occupancy
  Er  Er0  1  0.709161  0.709161  0.287299  1
  Er  Er1  1  0.298154  0.703480  0.298154  1
  Er  Er2  1  0.703480  0.298154  0.298154  1
  Er  Er3  1  0.298154  0.298154  0.703480  1
  Er  Er4  1  0.709161  0.287299  0.709161  1
  Er  Er5  1  0.287299  0.709161  0.709161  1
  Sc  Sc6  1  0.883414  0.883414  0.355673  1
  Sc  Sc7  1  0.883414  0.355673  0.883414  1
  Sc  Sc8  1  0.355673  0.883414  0.883414  1
  Al  Al9  1  0.875317  0.875317  0.875317  1
  Al  Al10  1  0.123829  0.123829  0.633963  1
  Al  Al11  1  0.123829  0.633963  0.123829  1
  Al  Al12  1  0.633963  0.123829  0.123829  1
  Al  Al13  1  0.120478  0.120478  0.120478  1
  Al  Al14  1  0.668432  0.668432  0.995089  1
  Al  Al15  1  0.668432  0.995089  0.668432  1
  Al  Al16  1  0.995089  0.668432  0.668432  1
  Al  Al17  1  0.668542  0.668542  0.668542  1
  Al  Al18  1  0.331727  0.331727  0.003635  1
  Al  Al19  1  0.331727  0.003635  0.331727  1
  Al  Al20  1  0.003635  0.331727  0.331727  1
  Al  Al21  1  0.332449  0.332449  0.332449  1
  Os  Os22  1  0.992425  0.992425  0.992425  1
  Os  Os23  1  0.001928  0.001928  0.502252  1
  Os  Os24  1  0.496611  0.002882  0.496611  1
  Os  Os25  1  0.002882  0.496611  0.496611  1
  Os  Os26  1  0.496611  0.496611  0.002882  1
  Os  Os27  1  0.001928  0.502252  0.001928  1
  Os  Os28  1  0.502252  0.001928  0.001928  1
