# generated using pymatgen
data_InBiCl8
_symmetry_space_group_name_H-M   'P 1'
_cell_length_a   6.92726060
_cell_length_b   6.92726004
_cell_length_c   9.40048782
_cell_angle_alpha   92.11088127
_cell_angle_beta   92.11088300
_cell_angle_gamma   119.87159785
_symmetry_Int_Tables_number   1
_chemical_formula_structural   InBiCl8
_chemical_formula_sum   'In1 Bi1 Cl8'
_cell_volume   390.11033740
_cell_formula_units_Z   1
loop_
 _symmetry_equiv_pos_site_id
 _symmetry_equiv_pos_as_xyz
  1  'x, y, z'
loop_
 _atom_site_type_symbol
 _atom_site_label
 _atom_site_symmetry_multiplicity
 _atom_site_fract_x
 _atom_site_fract_y
 _atom_site_fract_z
 _atom_site_occupancy
  In  In0  1  0.167785  0.832216  0.000000  1
  Bi  Bi1  1  0.831827  0.168174  0.000000  1
  Cl  Cl2  1  0.898692  0.877658  0.160348  1
  Cl  Cl3  1  0.494536  0.135711  0.159946  1
  Cl  Cl4  1  0.156594  0.536386  0.159996  1
  Cl  Cl5  1  0.613914  0.613592  0.440750  1
  Cl  Cl6  1  0.386407  0.386085  0.559250  1
  Cl  Cl7  1  0.864288  0.505463  0.840054  1
  Cl  Cl8  1  0.463613  0.843405  0.840004  1
  Cl  Cl9  1  0.122342  0.101308  0.839652  1
