# generated using pymatgen
data_TmSc5Tc4
_symmetry_space_group_name_H-M   'P 1'
_cell_length_a   8.21151573
_cell_length_b   8.20599888
_cell_length_c   5.81327497
_cell_angle_alpha   134.90327249
_cell_angle_beta   45.06754607
_cell_angle_gamma   120.02223427
_symmetry_Int_Tables_number   1
_chemical_formula_structural   TmSc5Tc4
_chemical_formula_sum   'Tm1 Sc5 Tc4'
_cell_volume   196.42025950
_cell_formula_units_Z   1
loop_
 _symmetry_equiv_pos_site_id
 _symmetry_equiv_pos_as_xyz
  1  'x, y, z'
loop_
 _atom_site_type_symbol
 _atom_site_label
 _atom_site_symmetry_multiplicity
 _atom_site_fract_x
 _atom_site_fract_y
 _atom_site_fract_z
 _atom_site_occupancy
  Tm  Tm0  1  0.420023  0.250000  0.750000  1
  Sc  Sc1  1  0.580605  0.750001  0.250001  1
  Sc  Sc2  1  0.920950  0.424226  0.250709  1
  Sc  Sc3  1  0.247434  0.075775  0.249293  1
  Sc  Sc4  1  0.752251  0.919987  0.744424  1
  Sc  Sc5  1  0.076689  0.580014  0.755576  1
  Tc  Tc6  1  0.626437  0.376327  0.129764  1
  Tc  Tc7  1  0.879871  0.123674  0.370238  1
  Tc  Tc8  1  0.118027  0.868479  0.628165  1
  Tc  Tc9  1  0.377713  0.631521  0.871834  1
