# generated using pymatgen
data_NdHo7Sc12(SiGe)8
_symmetry_space_group_name_H-M   'P 1'
_cell_length_a   7.17128209
_cell_length_b   7.41681778
_cell_length_c   14.09371924
_cell_angle_alpha   90.01287226
_cell_angle_beta   89.88465558
_cell_angle_gamma   90.14194015
_symmetry_Int_Tables_number   1
_chemical_formula_structural   NdHo7Sc12(SiGe)8
_chemical_formula_sum   'Nd1 Ho7 Sc12 Si8 Ge8'
_cell_volume   749.61420476
_cell_formula_units_Z   1
loop_
 _symmetry_equiv_pos_site_id
 _symmetry_equiv_pos_as_xyz
  1  'x, y, z'
loop_
 _atom_site_type_symbol
 _atom_site_label
 _atom_site_symmetry_multiplicity
 _atom_site_fract_x
 _atom_site_fract_y
 _atom_site_fract_z
 _atom_site_occupancy
  Nd  Nd0  1  0.005367  0.175746  0.097205  1
  Ho  Ho1  1  0.995265  0.821969  0.899579  1
  Ho  Ho2  1  0.497843  0.676671  0.899615  1
  Ho  Ho3  1  0.996766  0.822718  0.598966  1
  Ho  Ho4  1  0.503929  0.324613  0.099083  1
  Ho  Ho5  1  0.002890  0.177388  0.400950  1
  Ho  Ho6  1  0.503649  0.322699  0.402878  1
  Ho  Ho7  1  0.496336  0.677660  0.598707  1
  Sc  Sc8  1  0.171035  0.501619  0.749250  1
  Sc  Sc9  1  0.828726  0.498888  0.251111  1
  Sc  Sc10  1  0.329058  0.000221  0.251654  1
  Sc  Sc11  1  0.670685  0.999173  0.749107  1
  Sc  Sc12  1  0.340383  0.171542  0.626665  1
  Sc  Sc13  1  0.658764  0.827706  0.374775  1
  Sc  Sc14  1  0.159514  0.672114  0.375022  1
  Sc  Sc15  1  0.659824  0.826218  0.127673  1
  Sc  Sc16  1  0.840871  0.327517  0.626379  1
  Sc  Sc17  1  0.340183  0.173580  0.872108  1
  Sc  Sc18  1  0.838925  0.329340  0.873232  1
  Sc  Sc19  1  0.160603  0.671416  0.125992  1
  Si  Si20  1  0.041400  0.116907  0.750340  1
  Si  Si21  1  0.957607  0.879107  0.251020  1
  Si  Si22  1  0.457386  0.616699  0.250998  1
  Si  Si23  1  0.542413  0.383975  0.749142  1
  Si  Si24  1  0.293648  0.871284  0.749539  1
  Si  Si25  1  0.703105  0.127749  0.252057  1
  Si  Si26  1  0.208157  0.373915  0.251790  1
  Si  Si27  1  0.794436  0.628689  0.749415  1
  Ge  Ge28  1  0.175099  0.459796  0.541068  1
  Ge  Ge29  1  0.825119  0.539432  0.459948  1
  Ge  Ge30  1  0.323081  0.960936  0.459918  1
  Ge  Ge31  1  0.823132  0.543717  0.039216  1
  Ge  Ge32  1  0.675383  0.039357  0.541309  1
  Ge  Ge33  1  0.176302  0.463576  0.957198  1
  Ge  Ge34  1  0.668868  0.037782  0.958189  1
  Ge  Ge35  1  0.334248  0.958282  0.038901  1
