# generated using pymatgen
data_Tb3DyAl18Rh5Au
_symmetry_space_group_name_H-M   'P 1'
_cell_length_a   7.60196955
_cell_length_b   7.60154817
_cell_length_c   9.47513552
_cell_angle_alpha   89.94121577
_cell_angle_beta   89.91457452
_cell_angle_gamma   119.44912060
_symmetry_Int_Tables_number   1
_chemical_formula_structural   Tb3DyAl18Rh5Au
_chemical_formula_sum   'Tb3 Dy1 Al18 Rh5 Au1'
_cell_volume   476.78983158
_cell_formula_units_Z   1
loop_
 _symmetry_equiv_pos_site_id
 _symmetry_equiv_pos_as_xyz
  1  'x, y, z'
loop_
 _atom_site_type_symbol
 _atom_site_label
 _atom_site_symmetry_multiplicity
 _atom_site_fract_x
 _atom_site_fract_y
 _atom_site_fract_z
 _atom_site_occupancy
  Tb  Tb0  1  0.004315  0.325406  0.749629  1
  Tb  Tb1  1  0.674682  0.995580  0.250404  1
  Tb  Tb2  1  0.325386  0.004294  0.749633  1
  Dy  Dy3  1  0.995669  0.674628  0.250564  1
  Al  Al4  1  0.136212  0.135922  0.257172  1
  Al  Al5  1  0.863711  0.863657  0.742849  1
  Al  Al6  1  0.001697  0.345128  0.079360  1
  Al  Al7  1  0.998313  0.655358  0.921110  1
  Al  Al8  1  0.000139  0.663682  0.573833  1
  Al  Al9  1  0.335856  0.999438  0.425622  1
  Al  Al10  1  0.999860  0.336724  0.425640  1
  Al  Al11  1  0.663680  0.000132  0.574218  1
  Al  Al12  1  0.655305  0.998304  0.920790  1
  Al  Al13  1  0.344246  0.001309  0.079311  1
  Al  Al14  1  0.333256  0.333238  0.550373  1
  Al  Al15  1  0.667141  0.666765  0.449399  1
  Al  Al16  1  0.658297  0.657948  0.056187  1
  Al  Al17  1  0.342080  0.342072  0.944023  1
  Al  Al18  1  0.339609  0.551564  0.251293  1
  Al  Al19  1  0.660119  0.448563  0.748706  1
  Al  Al20  1  0.551950  0.340255  0.251305  1
  Al  Al21  1  0.448566  0.660095  0.748702  1
  Rh  Rh22  1  0.672135  0.328191  0.000226  1
  Rh  Rh23  1  0.327808  0.671964  0.000221  1
  Rh  Rh24  1  0.327848  0.671990  0.499801  1
  Rh  Rh25  1  0.672159  0.328212  0.499777  1
  Rh  Rh26  1  0.999969  0.999746  0.499707  1
  Au  Au27  1  0.999991  0.999836  0.000144  1
