# generated using pymatgen
data_Ba(Nb3S4)4
_symmetry_space_group_name_H-M   'P 1'
_cell_length_a   10.26250161
_cell_length_b   10.26250167
_cell_length_c   9.65657184
_cell_angle_alpha   61.94402376
_cell_angle_beta   61.94402419
_cell_angle_gamma   39.13267129
_symmetry_Int_Tables_number   1
_chemical_formula_structural   Ba(Nb3S4)4
_chemical_formula_sum   'Ba1 Nb12 S16'
_cell_volume   556.17851522
_cell_formula_units_Z   1
loop_
 _symmetry_equiv_pos_site_id
 _symmetry_equiv_pos_as_xyz
  1  'x, y, z'
loop_
 _atom_site_type_symbol
 _atom_site_label
 _atom_site_symmetry_multiplicity
 _atom_site_fract_x
 _atom_site_fract_y
 _atom_site_fract_z
 _atom_site_occupancy
  Ba  Ba0  1  0.374515  0.374515  0.998614  1
  Nb  Nb1  1  0.931947  0.931947  0.512747  1
  Nb  Nb2  1  0.431715  0.431715  0.516890  1
  Nb  Nb3  1  0.132546  0.132546  0.372125  1
  Nb  Nb4  1  0.632867  0.632867  0.369512  1
  Nb  Nb5  1  0.059796  0.059796  0.114809  1
  Nb  Nb6  1  0.561271  0.561271  0.114671  1
  Nb  Nb7  1  0.063048  0.575049  0.489259  1
  Nb  Nb8  1  0.575049  0.063048  0.489259  1
  Nb  Nb9  1  0.884279  0.354922  0.623416  1
  Nb  Nb10  1  0.354922  0.884279  0.623416  1
  Nb  Nb11  1  0.924597  0.448740  0.886815  1
  Nb  Nb12  1  0.448740  0.924597  0.886815  1
  S  S13  1  0.523742  0.523742  0.650795  1
  S  S14  1  0.018264  0.018264  0.652907  1
  S  S15  1  0.701614  0.701614  0.059068  1
  S  S16  1  0.200679  0.200679  0.052460  1
  S  S17  1  0.402259  0.402259  0.294085  1
  S  S18  1  0.903528  0.903528  0.288759  1
  S  S19  1  0.483322  0.982012  0.341207  1
  S  S20  1  0.982012  0.483322  0.341207  1
  S  S21  1  0.293564  0.797221  0.944563  1
  S  S22  1  0.797221  0.293564  0.944563  1
  S  S23  1  0.599551  0.094679  0.715649  1
  S  S24  1  0.094679  0.599551  0.715649  1
  S  S25  1  0.706103  0.706103  0.664577  1
  S  S26  1  0.210123  0.210123  0.669237  1
  S  S27  1  0.290794  0.792254  0.333463  1
  S  S28  1  0.792254  0.290794  0.333463  1
