# generated using pymatgen
data_Nd5Lu2FeBr12
_symmetry_space_group_name_H-M   'P 1'
_cell_length_a   9.31633383
_cell_length_b   9.49532304
_cell_length_c   9.43033938
_cell_angle_alpha   106.88937877
_cell_angle_beta   106.85563458
_cell_angle_gamma   107.52466123
_symmetry_Int_Tables_number   1
_chemical_formula_structural   Nd5Lu2FeBr12
_chemical_formula_sum   'Nd5 Lu2 Fe1 Br12'
_cell_volume   693.01491933
_cell_formula_units_Z   1
loop_
 _symmetry_equiv_pos_site_id
 _symmetry_equiv_pos_as_xyz
  1  'x, y, z'
loop_
 _atom_site_type_symbol
 _atom_site_label
 _atom_site_symmetry_multiplicity
 _atom_site_fract_x
 _atom_site_fract_y
 _atom_site_fract_z
 _atom_site_occupancy
  Nd  Nd0  1  0.701616  0.975649  0.906716  1
  Nd  Nd1  1  0.976651  0.898857  0.685239  1
  Nd  Nd2  1  0.102735  0.311513  0.021175  1
  Nd  Nd3  1  0.301137  0.026751  0.100519  1
  Nd  Nd4  1  0.898239  0.689412  0.977735  1
  Lu  Lu5  1  0.497433  0.499369  0.501790  1
  Lu  Lu6  1  0.023386  0.096671  0.297101  1
  Fe  Fe7  1  0.001409  0.000445  0.999631  1
  Br  Br8  1  0.068450  0.220603  0.670237  1
  Br  Br9  1  0.381265  0.180560  0.467189  1
  Br  Br10  1  0.603258  0.815723  0.533352  1
  Br  Br11  1  0.228850  0.685999  0.073608  1
  Br  Br12  1  0.772259  0.314452  0.927736  1
  Br  Br13  1  0.698245  0.075285  0.236323  1
  Br  Br14  1  0.528292  0.606083  0.818971  1
  Br  Br15  1  0.820127  0.532240  0.608192  1
  Br  Br16  1  0.933663  0.792134  0.320668  1
  Br  Br17  1  0.320478  0.929101  0.777643  1
  Br  Br18  1  0.472136  0.394805  0.185442  1
  Br  Br19  1  0.170370  0.454348  0.390732  1
