# generated using pymatgen
data_Dy20TcRh11
_symmetry_space_group_name_H-M   'P 1'
_cell_length_a   10.89432162
_cell_length_b   10.89432099
_cell_length_c   6.36626458
_cell_angle_alpha   90.23350414
_cell_angle_beta   90.23350838
_cell_angle_gamma   90.46661173
_symmetry_Int_Tables_number   1
_chemical_formula_structural   Dy20TcRh11
_chemical_formula_sum   'Dy20 Tc1 Rh11'
_cell_volume   755.55027647
_cell_formula_units_Z   1
loop_
 _symmetry_equiv_pos_site_id
 _symmetry_equiv_pos_as_xyz
  1  'x, y, z'
loop_
 _atom_site_type_symbol
 _atom_site_label
 _atom_site_symmetry_multiplicity
 _atom_site_fract_x
 _atom_site_fract_y
 _atom_site_fract_z
 _atom_site_occupancy
  Dy  Dy0  1  0.291051  0.088725  0.378493  1
  Dy  Dy1  1  0.290355  0.908836  0.879414  1
  Dy  Dy2  1  0.708945  0.088133  0.879370  1
  Dy  Dy3  1  0.708776  0.911925  0.379453  1
  Dy  Dy4  1  0.585448  0.789784  0.877614  1
  Dy  Dy5  1  0.588765  0.209284  0.381133  1
  Dy  Dy6  1  0.410527  0.789172  0.379535  1
  Dy  Dy7  1  0.411222  0.208022  0.878966  1
  Dy  Dy8  1  0.210216  0.414552  0.622386  1
  Dy  Dy9  1  0.210828  0.589473  0.120465  1
  Dy  Dy10  1  0.790716  0.411235  0.118867  1
  Dy  Dy11  1  0.791978  0.588778  0.621034  1
  Dy  Dy12  1  0.911275  0.708949  0.121507  1
  Dy  Dy13  1  0.911867  0.291055  0.620630  1
  Dy  Dy14  1  0.091164  0.709645  0.620586  1
  Dy  Dy15  1  0.088075  0.291224  0.120547  1
  Dy  Dy16  1  0.999817  0.999854  0.500202  1
  Dy  Dy17  1  0.000146  0.000183  0.999798  1
  Dy  Dy18  1  0.498901  0.499742  0.999803  1
  Dy  Dy19  1  0.500258  0.501099  0.500197  1
  Tc  Tc20  1  0.347280  0.652720  0.750000  1
  Rh  Rh21  1  0.846336  0.153664  0.250000  1
  Rh  Rh22  1  0.845912  0.845846  0.749437  1
  Rh  Rh23  1  0.154154  0.154088  0.750563  1
  Rh  Rh24  1  0.151294  0.848706  0.250000  1
  Rh  Rh25  1  0.654342  0.345658  0.750000  1
  Rh  Rh26  1  0.656786  0.654265  0.249929  1
  Rh  Rh27  1  0.345735  0.343214  0.250071  1
  Rh  Rh28  1  0.500324  0.001934  0.125005  1
  Rh  Rh29  1  0.500377  0.000935  0.623164  1
  Rh  Rh30  1  0.999065  0.499623  0.876836  1
  Rh  Rh31  1  0.998066  0.499676  0.374995  1
