# generated using pymatgen
data_Ba4LuAuO8
_symmetry_space_group_name_H-M   'P 1'
_cell_length_a   7.43904149
_cell_length_b   7.43904142
_cell_length_c   5.94624100
_cell_angle_alpha   90.00000000
_cell_angle_beta   90.00000000
_cell_angle_gamma   132.93277736
_symmetry_Int_Tables_number   1
_chemical_formula_structural   Ba4LuAuO8
_chemical_formula_sum   'Ba4 Lu1 Au1 O8'
_cell_volume   240.92314451
_cell_formula_units_Z   1
loop_
 _symmetry_equiv_pos_site_id
 _symmetry_equiv_pos_as_xyz
  1  'x, y, z'
loop_
 _atom_site_type_symbol
 _atom_site_label
 _atom_site_symmetry_multiplicity
 _atom_site_fract_x
 _atom_site_fract_y
 _atom_site_fract_z
 _atom_site_occupancy
  Ba  Ba0  1  0.353297  0.646703  0.000000  1
  Ba  Ba1  1  0.854407  0.145593  0.500000  1
  Ba  Ba2  1  0.145593  0.854407  0.500000  1
  Ba  Ba3  1  0.646703  0.353297  0.000000  1
  Lu  Lu4  1  0.000000  0.000000  0.000000  1
  Au  Au5  1  0.500000  0.500000  0.500000  1
  O  O6  1  0.255311  0.255311  0.738001  1
  O  O7  1  0.744689  0.744689  0.261999  1
  O  O8  1  0.744689  0.744689  0.738001  1
  O  O9  1  0.255311  0.255311  0.261999  1
  O  O10  1  0.161973  0.838027  0.000000  1
  O  O11  1  0.654034  0.345966  0.500000  1
  O  O12  1  0.345966  0.654034  0.500000  1
  O  O13  1  0.838027  0.161973  0.000000  1
