# generated using pymatgen
data_La4Cd2HgRh3
_symmetry_space_group_name_H-M   'P 1'
_cell_length_a   7.94941571
_cell_length_b   7.94941571
_cell_length_c   3.98818200
_cell_angle_alpha   90.00000000
_cell_angle_beta   90.00000000
_cell_angle_gamma   89.14803138
_symmetry_Int_Tables_number   1
_chemical_formula_structural   La4Cd2HgRh3
_chemical_formula_sum   'La4 Cd2 Hg1 Rh3'
_cell_volume   251.99816120
_cell_formula_units_Z   1
loop_
 _symmetry_equiv_pos_site_id
 _symmetry_equiv_pos_as_xyz
  1  'x, y, z'
loop_
 _atom_site_type_symbol
 _atom_site_label
 _atom_site_symmetry_multiplicity
 _atom_site_fract_x
 _atom_site_fract_y
 _atom_site_fract_z
 _atom_site_occupancy
  La  La0  1  0.834452  0.696471  0.500000  1
  La  La1  1  0.324134  0.824134  0.500000  1
  La  La2  1  0.643768  0.143768  0.500000  1
  La  La3  1  0.196471  0.334452  0.500000  1
  Cd  Cd4  1  0.005045  0.997975  0.000000  1
  Cd  Cd5  1  0.497975  0.505045  0.000000  1
  Hg  Hg6  1  0.869485  0.369485  0.000000  1
  Rh  Rh7  1  0.361247  0.136158  0.000000  1
  Rh  Rh8  1  0.636158  0.861247  0.000000  1
  Rh  Rh9  1  0.131265  0.631265  0.000000  1
