# generated using pymatgen
data_SmDy7Mg2(SiB4)4
_symmetry_space_group_name_H-M   'P 1'
_cell_length_a   7.18307807
_cell_length_b   7.18307807
_cell_length_c   7.88473214
_cell_angle_alpha   90.01542341
_cell_angle_beta   90.01542341
_cell_angle_gamma   89.99703171
_symmetry_Int_Tables_number   1
_chemical_formula_structural   SmDy7Mg2(SiB4)4
_chemical_formula_sum   'Sm1 Dy7 Mg2 Si4 B16'
_cell_volume   406.82542343
_cell_formula_units_Z   1
loop_
 _symmetry_equiv_pos_site_id
 _symmetry_equiv_pos_as_xyz
  1  'x, y, z'
loop_
 _atom_site_type_symbol
 _atom_site_label
 _atom_site_symmetry_multiplicity
 _atom_site_fract_x
 _atom_site_fract_y
 _atom_site_fract_z
 _atom_site_occupancy
  Sm  Sm0  1  0.683212  0.183212  0.237063  1
  Dy  Dy1  1  0.316702  0.816702  0.766882  1
  Dy  Dy2  1  0.316516  0.816516  0.233083  1
  Dy  Dy3  1  0.817066  0.683138  0.233018  1
  Dy  Dy4  1  0.816955  0.683196  0.767050  1
  Dy  Dy5  1  0.683086  0.183086  0.766844  1
  Dy  Dy6  1  0.183196  0.316955  0.767050  1
  Dy  Dy7  1  0.183138  0.317066  0.233018  1
  Mg  Mg8  1  0.000883  0.999495  0.500767  1
  Mg  Mg9  1  0.499495  0.500883  0.500767  1
  Si  Si10  1  0.115858  0.615858  0.500258  1
  Si  Si11  1  0.886091  0.386091  0.502021  1
  Si  Si12  1  0.383170  0.114366  0.501567  1
  Si  Si13  1  0.614366  0.883170  0.501567  1
  B  B14  1  0.173854  0.039662  0.999405  1
  B  B15  1  0.826830  0.959275  0.999190  1
  B  B16  1  0.960760  0.173257  0.999322  1
  B  B17  1  0.326092  0.540276  0.999523  1
  B  B18  1  0.040276  0.826092  0.999523  1
  B  B19  1  0.673257  0.460760  0.999322  1
  B  B20  1  0.539662  0.673854  0.999405  1
  B  B21  1  0.459275  0.326830  0.999190  1
  B  B22  1  0.089678  0.589678  0.999669  1
  B  B23  1  0.910533  0.410533  0.999636  1
  B  B24  1  0.409976  0.089636  0.998799  1
  B  B25  1  0.589636  0.909976  0.998799  1
  B  B26  1  0.001277  0.999291  0.160667  1
  B  B27  1  0.000119  0.999750  0.837965  1
  B  B28  1  0.499750  0.500119  0.837965  1
  B  B29  1  0.499291  0.501277  0.160667  1
