# generated using pymatgen
data_DyErZn4(InPt2)2
_symmetry_space_group_name_H-M   'P 1'
_cell_length_a   4.18389400
_cell_length_b   6.64720660
_cell_length_c   8.17005282
_cell_angle_alpha   86.77650379
_cell_angle_beta   90.00000000
_cell_angle_gamma   90.00000000
_symmetry_Int_Tables_number   1
_chemical_formula_structural   DyErZn4(InPt2)2
_chemical_formula_sum   'Dy1 Er1 Zn4 In2 Pt4'
_cell_volume   226.85952831
_cell_formula_units_Z   1
loop_
 _symmetry_equiv_pos_site_id
 _symmetry_equiv_pos_as_xyz
  1  'x, y, z'
loop_
 _atom_site_type_symbol
 _atom_site_label
 _atom_site_symmetry_multiplicity
 _atom_site_fract_x
 _atom_site_fract_y
 _atom_site_fract_z
 _atom_site_occupancy
  Dy  Dy0  1  0.250000  0.538924  0.184546  1
  Er  Er1  1  0.750000  0.460946  0.815323  1
  Zn  Zn2  1  0.250000  0.638500  0.560333  1
  Zn  Zn3  1  0.250000  0.140639  0.942098  1
  Zn  Zn4  1  0.750000  0.361584  0.440195  1
  Zn  Zn5  1  0.750000  0.858861  0.057220  1
  In  In6  1  0.250000  0.040312  0.321618  1
  In  In7  1  0.750000  0.960042  0.678979  1
  Pt  Pt8  1  0.250000  0.244293  0.623282  1
  Pt  Pt9  1  0.250000  0.757776  0.869494  1
  Pt  Pt10  1  0.750000  0.757404  0.378145  1
  Pt  Pt11  1  0.750000  0.240718  0.128767  1
