# generated using pymatgen
data_Dy3Tm2Lu3(InIr)2
_symmetry_space_group_name_H-M   'P 1'
_cell_length_a   9.56151485
_cell_length_b   9.56151461
_cell_length_c   9.56151500
_cell_angle_alpha   60.00000210
_cell_angle_beta   60.00000293
_cell_angle_gamma   59.99999913
_symmetry_Int_Tables_number   1
_chemical_formula_structural   Dy3Tm2Lu3(InIr)2
_chemical_formula_sum   'Dy6 Tm4 Lu6 In4 Ir4'
_cell_volume   618.10907949
_cell_formula_units_Z   2
loop_
 _symmetry_equiv_pos_site_id
 _symmetry_equiv_pos_as_xyz
  1  'x, y, z'
loop_
 _atom_site_type_symbol
 _atom_site_label
 _atom_site_symmetry_multiplicity
 _atom_site_fract_x
 _atom_site_fract_y
 _atom_site_fract_z
 _atom_site_occupancy
  Dy  Dy0  1  0.190423  0.809577  0.809577  1
  Dy  Dy1  1  0.809577  0.190423  0.190423  1
  Dy  Dy2  1  0.809577  0.190423  0.809577  1
  Dy  Dy3  1  0.190423  0.809577  0.190423  1
  Dy  Dy4  1  0.809577  0.809577  0.190423  1
  Dy  Dy5  1  0.190423  0.190423  0.809577  1
  Tm  Tm6  1  0.598591  0.598591  0.598591  1
  Tm  Tm7  1  0.598591  0.598591  0.204227  1
  Tm  Tm8  1  0.598591  0.204227  0.598591  1
  Tm  Tm9  1  0.204227  0.598591  0.598591  1
  Lu  Lu10  1  0.060459  0.439541  0.439541  1
  Lu  Lu11  1  0.439541  0.060459  0.060459  1
  Lu  Lu12  1  0.439541  0.060459  0.439541  1
  Lu  Lu13  1  0.060459  0.439541  0.060459  1
  Lu  Lu14  1  0.439541  0.439541  0.060459  1
  Lu  Lu15  1  0.060459  0.060459  0.439541  1
  In  In16  1  0.832662  0.832662  0.832662  1
  In  In17  1  0.832662  0.832662  0.502015  1
  In  In18  1  0.832662  0.502015  0.832662  1
  In  In19  1  0.502015  0.832662  0.832662  1
  Ir  Ir20  1  0.390614  0.390614  0.390614  1
  Ir  Ir21  1  0.390614  0.390614  0.828159  1
  Ir  Ir22  1  0.390614  0.828159  0.390614  1
  Ir  Ir23  1  0.828159  0.390614  0.390614  1
