# generated using pymatgen
data_Tl2Fe2(MoO4)3
_symmetry_space_group_name_H-M   'P 1'
_cell_length_a   9.37723000
_cell_length_b   7.19193704
_cell_length_c   20.95777800
_cell_angle_alpha   70.89464239
_cell_angle_beta   90.00000000
_cell_angle_gamma   90.00000000
_symmetry_Int_Tables_number   1
_chemical_formula_structural   Tl2Fe2(MoO4)3
_chemical_formula_sum   'Tl8 Fe8 Mo12 O48'
_cell_volume   1335.54936676
_cell_formula_units_Z   4
loop_
 _symmetry_equiv_pos_site_id
 _symmetry_equiv_pos_as_xyz
  1  'x, y, z'
loop_
 _atom_site_type_symbol
 _atom_site_label
 _atom_site_symmetry_multiplicity
 _atom_site_fract_x
 _atom_site_fract_y
 _atom_site_fract_z
 _atom_site_occupancy
  Tl  Tl0  1  0.026175  0.802447  0.904648  1
  Tl  Tl1  1  0.973825  0.197553  0.095352  1
  Tl  Tl2  1  0.526175  0.197553  0.595352  1
  Tl  Tl3  1  0.473825  0.802447  0.404648  1
  Tl  Tl4  1  0.116550  0.404768  0.788705  1
  Tl  Tl5  1  0.883450  0.595232  0.211295  1
  Tl  Tl6  1  0.616550  0.595232  0.711295  1
  Tl  Tl7  1  0.383450  0.404768  0.288705  1
  Fe  Fe8  1  0.414562  0.935089  0.938898  1
  Fe  Fe9  1  0.585438  0.064911  0.061102  1
  Fe  Fe10  1  0.914562  0.064911  0.561102  1
  Fe  Fe11  1  0.085438  0.935089  0.438898  1
  Fe  Fe12  1  0.139717  0.271027  0.634928  1
  Fe  Fe13  1  0.860283  0.728973  0.365072  1
  Fe  Fe14  1  0.639717  0.728973  0.865072  1
  Fe  Fe15  1  0.360283  0.271027  0.134928  1
  Mo  Mo16  1  0.226166  0.799525  0.600288  1
  Mo  Mo17  1  0.773834  0.200475  0.399712  1
  Mo  Mo18  1  0.726166  0.200475  0.899712  1
  Mo  Mo19  1  0.273834  0.799525  0.100288  1
  Mo  Mo20  1  0.326331  0.950681  0.774788  1
  Mo  Mo21  1  0.673669  0.049319  0.225212  1
  Mo  Mo22  1  0.826331  0.049319  0.725212  1
  Mo  Mo23  1  0.173669  0.950681  0.274788  1
  Mo  Mo24  1  0.342779  0.414428  0.964977  1
  Mo  Mo25  1  0.657221  0.585572  0.035023  1
  Mo  Mo26  1  0.842779  0.585572  0.535023  1
  Mo  Mo27  1  0.157221  0.414428  0.464977  1
  O  O28  1  0.794825  0.978439  0.649740  1
  O  O29  1  0.205175  0.021561  0.350260  1
  O  O30  1  0.294825  0.021561  0.850260  1
  O  O31  1  0.705175  0.978439  0.149740  1
  O  O32  1  0.496429  0.829735  0.782326  1
  O  O33  1  0.503571  0.170265  0.217674  1
  O  O34  1  0.996429  0.170265  0.717674  1
  O  O35  1  0.003571  0.829735  0.282326  1
  O  O36  1  0.818490  0.837216  0.801902  1
  O  O37  1  0.181510  0.162784  0.198098  1
  O  O38  1  0.318490  0.162784  0.698098  1
  O  O39  1  0.681510  0.837216  0.301902  1
  O  O40  1  0.190516  0.785462  0.771411  1
  O  O41  1  0.809484  0.214538  0.228589  1
  O  O42  1  0.690516  0.214538  0.728589  1
  O  O43  1  0.309484  0.785462  0.271411  1
  O  O44  1  0.156419  0.555203  0.641999  1
  O  O45  1  0.843581  0.444797  0.358001  1
  O  O46  1  0.656419  0.444797  0.858001  1
  O  O47  1  0.343581  0.555203  0.141999  1
  O  O48  1  0.256897  0.374746  0.541535  1
  O  O49  1  0.743103  0.625254  0.458465  1
  O  O50  1  0.756897  0.625254  0.958465  1
  O  O51  1  0.243103  0.374746  0.041535  1
  O  O52  1  0.209698  0.455144  0.903349  1
  O  O53  1  0.790302  0.544856  0.096651  1
  O  O54  1  0.709698  0.544856  0.596651  1
  O  O55  1  0.290302  0.455144  0.403349  1
  O  O56  1  0.397745  0.820069  0.632422  1
  O  O57  1  0.602255  0.179931  0.367578  1
  O  O58  1  0.897745  0.179931  0.867578  1
  O  O59  1  0.102255  0.820069  0.132422  1
  O  O60  1  0.940537  0.806591  0.534024  1
  O  O61  1  0.059463  0.193409  0.465976  1
  O  O62  1  0.440537  0.193409  0.965976  1
  O  O63  1  0.559463  0.806591  0.034024  1
  O  O64  1  0.114589  0.993858  0.613931  1
  O  O65  1  0.885411  0.006142  0.386069  1
  O  O66  1  0.614589  0.006142  0.886069  1
  O  O67  1  0.385411  0.993858  0.113931  1
  O  O68  1  0.249311  0.842944  0.511335  1
  O  O69  1  0.750689  0.157056  0.488665  1
  O  O70  1  0.749311  0.157056  0.988665  1
  O  O71  1  0.250689  0.842944  0.011335  1
  O  O72  1  0.456272  0.638836  0.938625  1
  O  O73  1  0.543728  0.361164  0.061375  1
  O  O74  1  0.956272  0.361164  0.561375  1
  O  O75  1  0.043728  0.638836  0.438625  1
