# generated using pymatgen
data_Zr18Ta7PtO6
_symmetry_space_group_name_H-M   'P 1'
_cell_length_a   8.80011236
_cell_length_b   8.74425545
_cell_length_c   8.69276500
_cell_angle_alpha   90.00000000
_cell_angle_beta   90.00000000
_cell_angle_gamma   120.24431890
_symmetry_Int_Tables_number   1
_chemical_formula_structural   Zr18Ta7PtO6
_chemical_formula_sum   'Zr18 Ta7 Pt1 O6'
_cell_volume   577.86335301
_cell_formula_units_Z   1
loop_
 _symmetry_equiv_pos_site_id
 _symmetry_equiv_pos_as_xyz
  1  'x, y, z'
loop_
 _atom_site_type_symbol
 _atom_site_label
 _atom_site_symmetry_multiplicity
 _atom_site_fract_x
 _atom_site_fract_y
 _atom_site_fract_z
 _atom_site_occupancy
  Zr  Zr0  1  0.453943  0.907668  0.250000  1
  Zr  Zr1  1  0.546567  0.092836  0.750000  1
  Zr  Zr2  1  0.093788  0.550142  0.250000  1
  Zr  Zr3  1  0.907565  0.454044  0.750000  1
  Zr  Zr4  1  0.456192  0.550089  0.250000  1
  Zr  Zr5  1  0.546359  0.454017  0.750000  1
  Zr  Zr6  1  0.207235  0.414602  0.566920  1
  Zr  Zr7  1  0.792678  0.585384  0.437335  1
  Zr  Zr8  1  0.587425  0.791915  0.561735  1
  Zr  Zr9  1  0.792678  0.585384  0.062665  1
  Zr  Zr10  1  0.412054  0.205976  0.439243  1
  Zr  Zr11  1  0.207235  0.414602  0.933080  1
  Zr  Zr12  1  0.204363  0.791863  0.561800  1
  Zr  Zr13  1  0.412054  0.205976  0.060757  1
  Zr  Zr14  1  0.794033  0.206120  0.439051  1
  Zr  Zr15  1  0.587425  0.791915  0.938265  1
  Zr  Zr16  1  0.794033  0.206120  0.060949  1
  Zr  Zr17  1  0.204363  0.791863  0.938200  1
  Ta  Ta18  1  0.887539  0.775119  0.750000  1
  Ta  Ta19  1  0.777892  0.891953  0.250000  1
  Ta  Ta20  1  0.221723  0.110137  0.750000  1
  Ta  Ta21  1  0.114106  0.891826  0.250000  1
  Ta  Ta22  1  0.888176  0.109685  0.750000  1
  Ta  Ta23  1  0.001071  0.002302  0.002603  1
  Ta  Ta24  1  0.001071  0.002302  0.497397  1
  Pt  Pt25  1  0.114983  0.229401  0.250000  1
  O  O26  1  0.501146  0.002274  0.000589  1
  O  O27  1  0.000699  0.495562  0.002341  1
  O  O28  1  0.501146  0.002274  0.499411  1
  O  O29  1  0.494881  0.495544  0.002275  1
  O  O30  1  0.000699  0.495562  0.497659  1
  O  O31  1  0.494881  0.495544  0.497725  1
