# generated using pymatgen
data_Nb6CrRe(B3Ru2)2
_symmetry_space_group_name_H-M   'P 1'
_cell_length_a   3.14578100
_cell_length_b   6.44846000
_cell_length_c   10.91789700
_cell_angle_alpha   90.00000000
_cell_angle_beta   90.00000000
_cell_angle_gamma   90.00000000
_symmetry_Int_Tables_number   1
_chemical_formula_structural   Nb6CrRe(B3Ru2)2
_chemical_formula_sum   'Nb6 Cr1 Re1 B6 Ru4'
_cell_volume   221.47437670
_cell_formula_units_Z   1
loop_
 _symmetry_equiv_pos_site_id
 _symmetry_equiv_pos_as_xyz
  1  'x, y, z'
loop_
 _atom_site_type_symbol
 _atom_site_label
 _atom_site_symmetry_multiplicity
 _atom_site_fract_x
 _atom_site_fract_y
 _atom_site_fract_z
 _atom_site_occupancy
  Nb  Nb0  1  0.000000  0.277748  0.957320  1
  Nb  Nb1  1  0.000000  0.724345  0.051366  1
  Nb  Nb2  1  0.000000  0.277748  0.542680  1
  Nb  Nb3  1  0.000000  0.724345  0.448634  1
  Nb  Nb4  1  0.000000  0.361275  0.250000  1
  Nb  Nb5  1  0.000000  0.645867  0.750000  1
  Cr  Cr6  1  0.500000  0.699231  0.250000  1
  Re  Re7  1  0.500000  0.298779  0.750000  1
  B  B8  1  0.000000  0.939012  0.250000  1
  B  B9  1  0.000000  0.048216  0.750000  1
  B  B10  1  0.500000  0.454733  0.087914  1
  B  B11  1  0.500000  0.549992  0.916854  1
  B  B12  1  0.500000  0.454733  0.412086  1
  B  B13  1  0.500000  0.549992  0.583146  1
  Ru  Ru14  1  0.500000  0.071982  0.124548  1
  Ru  Ru15  1  0.500000  0.925010  0.877781  1
  Ru  Ru16  1  0.500000  0.071982  0.375452  1
  Ru  Ru17  1  0.500000  0.925010  0.622219  1
