# generated using pymatgen
data_Sc5SiGeSb2
_symmetry_space_group_name_H-M   'P 1'
_cell_length_a   7.37762400
_cell_length_b   7.40534900
_cell_length_c   14.30473200
_cell_angle_alpha   90.00000000
_cell_angle_beta   90.00000000
_cell_angle_gamma   90.00000000
_symmetry_Int_Tables_number   1
_chemical_formula_structural   Sc5SiGeSb2
_chemical_formula_sum   'Sc20 Si4 Ge4 Sb8'
_cell_volume   781.52301883
_cell_formula_units_Z   4
loop_
 _symmetry_equiv_pos_site_id
 _symmetry_equiv_pos_as_xyz
  1  'x, y, z'
loop_
 _atom_site_type_symbol
 _atom_site_label
 _atom_site_symmetry_multiplicity
 _atom_site_fract_x
 _atom_site_fract_y
 _atom_site_fract_z
 _atom_site_occupancy
  Sc  Sc0  1  0.610227  0.167007  0.630129  1
  Sc  Sc1  1  0.110227  0.332993  0.869871  1
  Sc  Sc2  1  0.389773  0.832993  0.130129  1
  Sc  Sc3  1  0.889773  0.667007  0.369871  1
  Sc  Sc4  1  0.389773  0.832993  0.369871  1
  Sc  Sc5  1  0.889773  0.667007  0.130129  1
  Sc  Sc6  1  0.610227  0.167007  0.869871  1
  Sc  Sc7  1  0.110227  0.332993  0.630129  1
  Sc  Sc8  1  0.444346  0.670321  0.617237  1
  Sc  Sc9  1  0.944346  0.829679  0.882763  1
  Sc  Sc10  1  0.555654  0.329679  0.117237  1
  Sc  Sc11  1  0.055654  0.170321  0.382763  1
  Sc  Sc12  1  0.555654  0.329679  0.382763  1
  Sc  Sc13  1  0.055654  0.170321  0.117237  1
  Sc  Sc14  1  0.444346  0.670321  0.882763  1
  Sc  Sc15  1  0.944346  0.829679  0.617237  1
  Sc  Sc16  1  0.778813  0.500045  0.750000  1
  Sc  Sc17  1  0.278813  0.999955  0.750000  1
  Sc  Sc18  1  0.221187  0.499955  0.250000  1
  Sc  Sc19  1  0.721187  0.000045  0.250000  1
  Si  Si20  1  0.411087  0.377047  0.750000  1
  Si  Si21  1  0.911087  0.122953  0.750000  1
  Si  Si22  1  0.588913  0.622953  0.250000  1
  Si  Si23  1  0.088913  0.877047  0.250000  1
  Ge  Ge24  1  0.645101  0.860571  0.750000  1
  Ge  Ge25  1  0.145101  0.639429  0.750000  1
  Ge  Ge26  1  0.354899  0.139429  0.250000  1
  Ge  Ge27  1  0.854899  0.360571  0.250000  1
  Sb  Sb28  1  0.728941  0.982288  0.458064  1
  Sb  Sb29  1  0.228941  0.517712  0.041936  1
  Sb  Sb30  1  0.271059  0.017712  0.958064  1
  Sb  Sb31  1  0.771059  0.482288  0.541936  1
  Sb  Sb32  1  0.271059  0.017712  0.541936  1
  Sb  Sb33  1  0.771059  0.482288  0.958064  1
  Sb  Sb34  1  0.728941  0.982288  0.041936  1
  Sb  Sb35  1  0.228941  0.517712  0.458064  1
