# generated using pymatgen
data_GeMo(As2O7)2
_symmetry_space_group_name_H-M   'P 1'
_cell_length_a   4.99655822
_cell_length_b   7.34753014
_cell_length_c   8.29188473
_cell_angle_alpha   91.26620117
_cell_angle_beta   91.81320257
_cell_angle_gamma   104.87061087
_symmetry_Int_Tables_number   1
_chemical_formula_structural   GeMo(As2O7)2
_chemical_formula_sum   'Ge1 Mo1 As4 O14'
_cell_volume   293.92794796
_cell_formula_units_Z   1
loop_
 _symmetry_equiv_pos_site_id
 _symmetry_equiv_pos_as_xyz
  1  'x, y, z'
loop_
 _atom_site_type_symbol
 _atom_site_label
 _atom_site_symmetry_multiplicity
 _atom_site_fract_x
 _atom_site_fract_y
 _atom_site_fract_z
 _atom_site_occupancy
  Ge  Ge0  1  0.999999  0.000002  0.000001  1
  Mo  Mo1  1  0.500002  0.500000  0.500001  1
  As  As2  1  0.463068  0.865685  0.230581  1
  As  As3  1  0.892688  0.252178  0.302310  1
  As  As4  1  0.107310  0.747821  0.697691  1
  As  As5  1  0.536929  0.134314  0.769418  1
  O  O6  1  0.649314  0.842791  0.065520  1
  O  O7  1  0.948489  0.225133  0.101568  1
  O  O8  1  0.174442  0.946309  0.192641  1
  O  O9  1  0.718149  0.423236  0.318303  1
  O  O10  1  0.351489  0.668464  0.336506  1
  O  O11  1  0.678834  0.036185  0.368793  1
  O  O12  1  0.171622  0.282923  0.433997  1
  O  O13  1  0.828384  0.717076  0.566002  1
  O  O14  1  0.321167  0.963814  0.631206  1
  O  O15  1  0.648513  0.331535  0.663494  1
  O  O16  1  0.281854  0.576765  0.681697  1
  O  O17  1  0.825555  0.053689  0.807356  1
  O  O18  1  0.051508  0.774878  0.898436  1
  O  O19  1  0.350685  0.157208  0.934479  1
