# generated using pymatgen
data_Y2GaP6Ir11Rh
_symmetry_space_group_name_H-M   'P 1'
_cell_length_a   9.66685480
_cell_length_b   9.66425739
_cell_length_c   3.95680444
_cell_angle_alpha   90.33795686
_cell_angle_beta   89.72141569
_cell_angle_gamma   119.77704848
_symmetry_Int_Tables_number   1
_chemical_formula_structural   Y2GaP6Ir11Rh
_chemical_formula_sum   'Y2 Ga1 P6 Ir11 Rh1'
_cell_volume   320.84227094
_cell_formula_units_Z   1
loop_
 _symmetry_equiv_pos_site_id
 _symmetry_equiv_pos_as_xyz
  1  'x, y, z'
loop_
 _atom_site_type_symbol
 _atom_site_label
 _atom_site_symmetry_multiplicity
 _atom_site_fract_x
 _atom_site_fract_y
 _atom_site_fract_z
 _atom_site_occupancy
  Y  Y0  1  0.331998  0.665758  0.752592  1
  Y  Y1  1  0.667127  0.333182  0.246926  1
  Ga  Ga2  1  0.000233  0.001494  0.514450  1
  P  P3  1  0.406943  0.282448  0.749506  1
  P  P4  1  0.717689  0.122044  0.743737  1
  P  P5  1  0.876656  0.594419  0.747965  1
  P  P6  1  0.594234  0.719268  0.249044  1
  P  P7  1  0.281014  0.877599  0.253016  1
  P  P8  1  0.121652  0.402510  0.252800  1
  Ir  Ir9  1  0.455987  0.069055  0.748399  1
  Ir  Ir10  1  0.930508  0.386560  0.746022  1
  Ir  Ir11  1  0.612919  0.542557  0.748365  1
  Ir  Ir12  1  0.542908  0.932003  0.249744  1
  Ir  Ir13  1  0.068912  0.611378  0.251796  1
  Ir  Ir14  1  0.389605  0.459216  0.252439  1
  Ir  Ir15  1  0.165103  0.283572  0.756226  1
  Ir  Ir16  1  0.716016  0.876029  0.753090  1
  Ir  Ir17  1  0.119919  0.836540  0.759734  1
  Ir  Ir18  1  0.839167  0.721008  0.244385  1
  Ir  Ir19  1  0.281864  0.122855  0.244842  1
  Rh  Rh20  1  0.879545  0.160504  0.234924  1
