# generated using pymatgen
data_Yb5YSi24Ir3Ru5
_symmetry_space_group_name_H-M   'P 1'
_cell_length_a   10.13576921
_cell_length_b   10.13576910
_cell_length_c   8.17624655
_cell_angle_alpha   90.00655231
_cell_angle_beta   90.00655277
_cell_angle_gamma   132.45652330
_symmetry_Int_Tables_number   1
_chemical_formula_structural   Yb5YSi24Ir3Ru5
_chemical_formula_sum   'Yb5 Y1 Si24 Ir3 Ru5'
_cell_volume   619.72642116
_cell_formula_units_Z   1
loop_
 _symmetry_equiv_pos_site_id
 _symmetry_equiv_pos_as_xyz
  1  'x, y, z'
loop_
 _atom_site_type_symbol
 _atom_site_label
 _atom_site_symmetry_multiplicity
 _atom_site_fract_x
 _atom_site_fract_y
 _atom_site_fract_z
 _atom_site_occupancy
  Yb  Yb0  1  0.999716  0.000284  0.000000  1
  Yb  Yb1  1  0.002554  0.501816  0.250050  1
  Yb  Yb2  1  0.498184  0.997446  0.749950  1
  Yb  Yb3  1  0.998558  0.497815  0.749326  1
  Yb  Yb4  1  0.502185  0.001442  0.250674  1
  Y  Y5  1  0.499299  0.500701  0.500000  1
  Si  Si6  1  0.295703  0.704297  0.000000  1
  Si  Si7  1  0.795436  0.204564  0.500000  1
  Si  Si8  1  0.705491  0.294509  0.000000  1
  Si  Si9  1  0.206465  0.793535  0.500000  1
  Si  Si10  1  0.832697  0.835664  0.331416  1
  Si  Si11  1  0.164336  0.167303  0.668584  1
  Si  Si12  1  0.668267  0.669085  0.834000  1
  Si  Si13  1  0.330915  0.331733  0.166000  1
  Si  Si14  1  0.620272  0.386553  0.224507  1
  Si  Si15  1  0.613447  0.379728  0.775493  1
  Si  Si16  1  0.110855  0.878879  0.726131  1
  Si  Si17  1  0.121121  0.889145  0.273869  1
  Si  Si18  1  0.376382  0.610068  0.771230  1
  Si  Si19  1  0.389932  0.623618  0.228770  1
  Si  Si20  1  0.887140  0.120042  0.274743  1
  Si  Si21  1  0.879958  0.112860  0.725257  1
  Si  Si22  1  0.842348  0.610364  0.001700  1
  Si  Si23  1  0.389636  0.157652  0.998300  1
  Si  Si24  1  0.892162  0.659508  0.503617  1
  Si  Si25  1  0.340492  0.107838  0.496383  1
  Si  Si26  1  0.158589  0.390174  0.996184  1
  Si  Si27  1  0.609826  0.841411  0.003816  1
  Si  Si28  1  0.111421  0.345168  0.497273  1
  Si  Si29  1  0.654832  0.888579  0.502727  1
  Ir  Ir30  1  0.169135  0.830865  0.000000  1
  Ir  Ir31  1  0.668070  0.331930  0.500000  1
  Ir  Ir32  1  0.831561  0.168439  0.000000  1
  Ru  Ru33  1  0.331129  0.668871  0.500000  1
  Ru  Ru34  1  0.625839  0.624061  0.127149  1
  Ru  Ru35  1  0.375939  0.374161  0.872851  1
  Ru  Ru36  1  0.872995  0.872885  0.625020  1
  Ru  Ru37  1  0.127115  0.127005  0.374980  1
