# generated using pymatgen
data_VZn15Rh16
_symmetry_space_group_name_H-M   'P 1'
_cell_length_a   9.06630293
_cell_length_b   9.06627624
_cell_length_c   9.06629100
_cell_angle_alpha   140.77102061
_cell_angle_beta   96.46720247
_cell_angle_gamma   96.47401953
_symmetry_Int_Tables_number   1
_chemical_formula_structural   VZn15Rh16
_chemical_formula_sum   'V1 Zn15 Rh16'
_cell_volume   443.94646185
_cell_formula_units_Z   1
loop_
 _symmetry_equiv_pos_site_id
 _symmetry_equiv_pos_as_xyz
  1  'x, y, z'
loop_
 _atom_site_type_symbol
 _atom_site_label
 _atom_site_symmetry_multiplicity
 _atom_site_fract_x
 _atom_site_fract_y
 _atom_site_fract_z
 _atom_site_occupancy
  V  V0  1  0.124859  0.749895  0.374968  1
  Zn  Zn1  1  0.124992  0.249928  0.874936  1
  Zn  Zn2  1  0.375899  0.250069  0.125808  1
  Zn  Zn3  1  0.874256  0.250033  0.624182  1
  Zn  Zn4  1  0.625016  0.250002  0.374963  1
  Zn  Zn5  1  0.375885  0.500847  0.875011  1
  Zn  Zn6  1  0.625110  0.500035  0.125060  1
  Zn  Zn7  1  0.124974  0.500073  0.624860  1
  Zn  Zn8  1  0.873619  0.498617  0.375013  1
  Zn  Zn9  1  0.874326  0.999260  0.875016  1
  Zn  Zn10  1  0.124961  0.999835  0.125111  1
  Zn  Zn11  1  0.624617  0.999796  0.624784  1
  Zn  Zn12  1  0.376403  0.001393  0.375033  1
  Zn  Zn13  1  0.624916  0.749875  0.874990  1
  Zn  Zn14  1  0.873620  0.750016  0.123609  1
  Zn  Zn15  1  0.376410  0.750023  0.626401  1
  Rh  Rh16  1  0.125200  0.381873  0.251589  1
  Rh  Rh17  1  0.125211  0.873625  0.743489  1
  Rh  Rh18  1  0.880011  0.381670  0.006590  1
  Rh  Rh19  1  0.373245  0.874084  0.999047  1
  Rh  Rh20  1  0.879933  0.873405  0.498330  1
  Rh  Rh21  1  0.373226  0.374159  0.499082  1
  Rh  Rh22  1  0.625089  0.874120  0.250836  1
  Rh  Rh23  1  0.625139  0.374254  0.750966  1
  Rh  Rh24  1  0.876560  0.125838  0.250761  1
  Rh  Rh25  1  0.876580  0.625736  0.750715  1
  Rh  Rh26  1  0.625141  0.125907  0.999309  1
  Rh  Rh27  1  0.125192  0.626506  0.006895  1
  Rh  Rh28  1  0.625092  0.625768  0.499180  1
  Rh  Rh29  1  0.125183  0.118459  0.498759  1
  Rh  Rh30  1  0.369603  0.626509  0.251405  1
  Rh  Rh31  1  0.369731  0.118389  0.743295  1
