# generated using pymatgen
data_Ce3Mg2SiIr3
_symmetry_space_group_name_H-M   'P 1'
_cell_length_a   7.26916000
_cell_length_b   7.34602845
_cell_length_c   4.00956300
_cell_angle_alpha   90.00000000
_cell_angle_beta   90.00000000
_cell_angle_gamma   119.65445493
_symmetry_Int_Tables_number   1
_chemical_formula_structural   Ce3Mg2SiIr3
_chemical_formula_sum   'Ce3 Mg2 Si1 Ir3'
_cell_volume   186.06564327
_cell_formula_units_Z   1
loop_
 _symmetry_equiv_pos_site_id
 _symmetry_equiv_pos_as_xyz
  1  'x, y, z'
loop_
 _atom_site_type_symbol
 _atom_site_label
 _atom_site_symmetry_multiplicity
 _atom_site_fract_x
 _atom_site_fract_y
 _atom_site_fract_z
 _atom_site_occupancy
  Ce  Ce0  1  0.437617  0.000000  0.000000  1
  Ce  Ce1  1  0.996681  0.409147  0.000000  1
  Ce  Ce2  1  0.587535  0.590853  0.000000  1
  Mg  Mg3  1  0.239921  0.235896  0.499999  1
  Mg  Mg4  1  0.004024  0.764104  0.499999  1
  Si  Si5  1  0.756599  0.000000  0.499999  1
  Ir  Ir6  1  0.951513  0.000000  0.000000  1
  Ir  Ir7  1  0.671728  0.317345  0.499999  1
  Ir  Ir8  1  0.354382  0.682655  0.499999  1
