# generated using pymatgen
data_Nd8Pd22Au3
_symmetry_space_group_name_H-M   'P 1'
_cell_length_a   8.57092200
_cell_length_b   8.58862000
_cell_length_c   8.58862000
_cell_angle_alpha   90.00000000
_cell_angle_beta   90.00000000
_cell_angle_gamma   90.00000000
_symmetry_Int_Tables_number   1
_chemical_formula_structural   Nd8Pd22Au3
_chemical_formula_sum   'Nd8 Pd22 Au3'
_cell_volume   632.22886310
_cell_formula_units_Z   1
loop_
 _symmetry_equiv_pos_site_id
 _symmetry_equiv_pos_as_xyz
  1  'x, y, z'
loop_
 _atom_site_type_symbol
 _atom_site_label
 _atom_site_symmetry_multiplicity
 _atom_site_fract_x
 _atom_site_fract_y
 _atom_site_fract_z
 _atom_site_occupancy
  Nd  Nd0  1  0.245710  0.246730  0.246730  1
  Nd  Nd1  1  0.751443  0.751260  0.751260  1
  Nd  Nd2  1  0.751443  0.751260  0.248740  1
  Nd  Nd3  1  0.751443  0.248740  0.751260  1
  Nd  Nd4  1  0.245710  0.246730  0.753270  1
  Nd  Nd5  1  0.245710  0.753270  0.246730  1
  Nd  Nd6  1  0.245710  0.753270  0.753270  1
  Nd  Nd7  1  0.751443  0.248740  0.248740  1
  Pd  Pd8  1  0.265877  0.500000  0.000000  1
  Pd  Pd9  1  0.732636  0.500000  0.000000  1
  Pd  Pd10  1  0.000790  0.267431  0.500000  1
  Pd  Pd11  1  0.501072  0.271691  0.000000  1
  Pd  Pd12  1  0.000790  0.732569  0.500000  1
  Pd  Pd13  1  0.501072  0.728309  0.000000  1
  Pd  Pd14  1  0.501072  0.000000  0.271691  1
  Pd  Pd15  1  0.265877  0.000000  0.500000  1
  Pd  Pd16  1  0.501072  0.000000  0.728309  1
  Pd  Pd17  1  0.732636  0.000000  0.500000  1
  Pd  Pd18  1  0.000790  0.500000  0.267431  1
  Pd  Pd19  1  0.000790  0.500000  0.732569  1
  Pd  Pd20  1  0.744287  0.500000  0.500000  1
  Pd  Pd21  1  0.498590  0.254365  0.500000  1
  Pd  Pd22  1  0.498590  0.745635  0.500000  1
  Pd  Pd23  1  0.498590  0.500000  0.254365  1
  Pd  Pd24  1  0.498590  0.500000  0.745635  1
  Pd  Pd25  1  0.685041  0.000000  0.000000  1
  Pd  Pd26  1  0.998543  0.316618  0.000000  1
  Pd  Pd27  1  0.998543  0.683382  0.000000  1
  Pd  Pd28  1  0.998543  0.000000  0.316618  1
  Pd  Pd29  1  0.998543  0.000000  0.683382  1
  Au  Au30  1  0.001912  0.000000  0.000000  1
  Au  Au31  1  0.259109  0.500000  0.500000  1
  Au  Au32  1  0.328031  0.000000  0.000000  1
