# generated using pymatgen
data_K2Sn3Bi7Te12
_symmetry_space_group_name_H-M   'P 1'
_cell_length_a   23.85318379
_cell_length_b   23.85318260
_cell_length_c   6.67259468
_cell_angle_alpha   110.84603785
_cell_angle_beta   110.84603824
_cell_angle_gamma   14.23238888
_symmetry_Int_Tables_number   1
_chemical_formula_structural   K2Sn3Bi7Te12
_chemical_formula_sum   'K2 Sn3 Bi7 Te12'
_cell_volume   871.31211197
_cell_formula_units_Z   1
loop_
 _symmetry_equiv_pos_site_id
 _symmetry_equiv_pos_as_xyz
  1  'x, y, z'
loop_
 _atom_site_type_symbol
 _atom_site_label
 _atom_site_symmetry_multiplicity
 _atom_site_fract_x
 _atom_site_fract_y
 _atom_site_fract_z
 _atom_site_occupancy
  K  K0  1  0.062663  0.062663  0.957962  1
  K  K1  1  0.713374  0.713374  0.883398  1
  Sn  Sn2  1  0.962520  0.962520  0.166433  1
  Sn  Sn3  1  0.459627  0.459627  0.660793  1
  Sn  Sn4  1  0.533390  0.533390  0.391122  1
  Bi  Bi5  1  0.246572  0.246572  0.468399  1
  Bi  Bi6  1  0.312884  0.312884  0.174045  1
  Bi  Bi7  1  0.750217  0.750217  0.478492  1
  Bi  Bi8  1  0.820379  0.820379  0.682036  1
  Bi  Bi9  1  0.384027  0.384027  0.372847  1
  Bi  Bi10  1  0.174969  0.174969  0.252743  1
  Bi  Bi11  1  0.606197  0.606197  0.605191  1
  Te  Te12  1  0.108667  0.108667  0.591796  1
  Te  Te13  1  0.605805  0.605805  0.054886  1
  Te  Te14  1  0.886554  0.886554  0.407241  1
  Te  Te15  1  0.393847  0.393847  0.946068  1
  Te  Te16  1  0.460807  0.460807  0.160543  1
  Te  Te17  1  0.953138  0.953138  0.638962  1
  Te  Te18  1  0.524984  0.524984  0.822244  1
  Te  Te19  1  0.030276  0.030276  0.364329  1
  Te  Te20  1  0.323831  0.323831  0.688674  1
  Te  Te21  1  0.807609  0.807609  0.168523  1
  Te  Te22  1  0.174745  0.174745  0.800326  1
  Te  Te23  1  0.671005  0.671005  0.262947  1
