# generated using pymatgen
data_La4Dy12Cd4FeNi3
_symmetry_space_group_name_H-M   'P 1'
_cell_length_a   9.69485718
_cell_length_b   9.69485620
_cell_length_c   9.69485630
_cell_angle_alpha   59.63955451
_cell_angle_beta   59.63955915
_cell_angle_gamma   59.63955741
_symmetry_Int_Tables_number   1
_chemical_formula_structural   La4Dy12Cd4FeNi3
_chemical_formula_sum   'La4 Dy12 Cd4 Fe1 Ni3'
_cell_volume   639.05383357
_cell_formula_units_Z   1
loop_
 _symmetry_equiv_pos_site_id
 _symmetry_equiv_pos_as_xyz
  1  'x, y, z'
loop_
 _atom_site_type_symbol
 _atom_site_label
 _atom_site_symmetry_multiplicity
 _atom_site_fract_x
 _atom_site_fract_y
 _atom_site_fract_z
 _atom_site_occupancy
  La  La0  1  0.600163  0.600163  0.600163  1
  La  La1  1  0.596553  0.596553  0.204517  1
  La  La2  1  0.596553  0.204517  0.596553  1
  La  La3  1  0.204517  0.596553  0.596553  1
  Dy  Dy4  1  0.068606  0.435514  0.435514  1
  Dy  Dy5  1  0.435431  0.063277  0.063277  1
  Dy  Dy6  1  0.435514  0.068606  0.435514  1
  Dy  Dy7  1  0.063277  0.435431  0.063277  1
  Dy  Dy8  1  0.435514  0.435514  0.068606  1
  Dy  Dy9  1  0.063277  0.063277  0.435431  1
  Dy  Dy10  1  0.184103  0.815757  0.815757  1
  Dy  Dy11  1  0.812627  0.184430  0.184430  1
  Dy  Dy12  1  0.815757  0.184103  0.815757  1
  Dy  Dy13  1  0.184430  0.812627  0.184430  1
  Dy  Dy14  1  0.815757  0.815757  0.184103  1
  Dy  Dy15  1  0.184430  0.184430  0.812627  1
  Cd  Cd16  1  0.830628  0.830628  0.830628  1
  Cd  Cd17  1  0.831808  0.831808  0.502872  1
  Cd  Cd18  1  0.831808  0.502872  0.831808  1
  Cd  Cd19  1  0.502872  0.831808  0.831808  1
  Fe  Fe20  1  0.393316  0.393316  0.393316  1
  Ni  Ni21  1  0.390929  0.390929  0.831199  1
  Ni  Ni22  1  0.390929  0.831199  0.390929  1
  Ni  Ni23  1  0.831199  0.390929  0.390929  1
