# generated using pymatgen
data_Tb3Lu12Th(CdNi)4
_symmetry_space_group_name_H-M   'P 1'
_cell_length_a   9.42235357
_cell_length_b   9.42235509
_cell_length_c   9.42235458
_cell_angle_alpha   59.99572311
_cell_angle_beta   59.99571953
_cell_angle_gamma   59.99572314
_symmetry_Int_Tables_number   1
_chemical_formula_structural   Tb3Lu12Th(CdNi)4
_chemical_formula_sum   'Tb3 Lu12 Th1 Cd4 Ni4'
_cell_volume   591.45428461
_cell_formula_units_Z   1
loop_
 _symmetry_equiv_pos_site_id
 _symmetry_equiv_pos_as_xyz
  1  'x, y, z'
loop_
 _atom_site_type_symbol
 _atom_site_label
 _atom_site_symmetry_multiplicity
 _atom_site_fract_x
 _atom_site_fract_y
 _atom_site_fract_z
 _atom_site_occupancy
  Tb  Tb0  1  0.350804  0.350804  0.946275  1
  Tb  Tb1  1  0.350804  0.946275  0.350804  1
  Tb  Tb2  1  0.946275  0.350804  0.350804  1
  Lu  Lu3  1  0.813388  0.186535  0.186535  1
  Lu  Lu4  1  0.188324  0.812453  0.812453  1
  Lu  Lu5  1  0.186535  0.813388  0.186535  1
  Lu  Lu6  1  0.812453  0.188324  0.812453  1
  Lu  Lu7  1  0.186535  0.186535  0.813388  1
  Lu  Lu8  1  0.812453  0.812453  0.188324  1
  Lu  Lu9  1  0.935009  0.565622  0.565622  1
  Lu  Lu10  1  0.565466  0.935146  0.935146  1
  Lu  Lu11  1  0.565622  0.935009  0.565622  1
  Lu  Lu12  1  0.935146  0.565466  0.935146  1
  Lu  Lu13  1  0.565622  0.565622  0.935009  1
  Lu  Lu14  1  0.935146  0.935146  0.565466  1
  Th  Th15  1  0.348079  0.348079  0.348079  1
  Cd  Cd16  1  0.582664  0.582664  0.582664  1
  Cd  Cd17  1  0.583641  0.583641  0.250983  1
  Cd  Cd18  1  0.583641  0.250983  0.583641  1
  Cd  Cd19  1  0.250983  0.583641  0.583641  1
  Ni  Ni20  1  0.141396  0.141396  0.141396  1
  Ni  Ni21  1  0.142450  0.142450  0.575115  1
  Ni  Ni22  1  0.142450  0.575115  0.142450  1
  Ni  Ni23  1  0.575115  0.142450  0.142450  1
