# generated using pymatgen
data_Ta2Ti4NbRe9
_symmetry_space_group_name_H-M   'P 1'
_cell_length_a   6.30244500
_cell_length_b   6.30087400
_cell_length_c   6.30642300
_cell_angle_alpha   90.00000000
_cell_angle_beta   90.00000000
_cell_angle_gamma   90.00000000
_symmetry_Int_Tables_number   1
_chemical_formula_structural   Ta2Ti4NbRe9
_chemical_formula_sum   'Ta2 Ti4 Nb1 Re9'
_cell_volume   250.43380776
_cell_formula_units_Z   1
loop_
 _symmetry_equiv_pos_site_id
 _symmetry_equiv_pos_as_xyz
  1  'x, y, z'
loop_
 _atom_site_type_symbol
 _atom_site_label
 _atom_site_symmetry_multiplicity
 _atom_site_fract_x
 _atom_site_fract_y
 _atom_site_fract_z
 _atom_site_occupancy
  Ta  Ta0  1  0.000000  0.000000  0.500000  1
  Ta  Ta1  1  0.000000  0.500000  0.000000  1
  Ti  Ti2  1  0.500000  0.500000  0.000000  1
  Ti  Ti3  1  0.000000  0.000000  0.000000  1
  Ti  Ti4  1  0.000000  0.500000  0.500000  1
  Ti  Ti5  1  0.500000  0.000000  0.500000  1
  Nb  Nb6  1  0.500000  0.000000  0.000000  1
  Re  Re7  1  0.500000  0.500000  0.500000  1
  Re  Re8  1  0.252208  0.252287  0.252361  1
  Re  Re9  1  0.747792  0.747713  0.747639  1
  Re  Re10  1  0.747792  0.747713  0.252361  1
  Re  Re11  1  0.747792  0.252287  0.252361  1
  Re  Re12  1  0.747792  0.252287  0.747639  1
  Re  Re13  1  0.252208  0.252287  0.747639  1
  Re  Re14  1  0.252208  0.747713  0.747639  1
  Re  Re15  1  0.252208  0.747713  0.252361  1
