# generated using pymatgen
data_CeNp2F12
_symmetry_space_group_name_H-M   'P 1'
_cell_length_a   8.37459094
_cell_length_b   8.37459107
_cell_length_c   8.39002780
_cell_angle_alpha   63.20809012
_cell_angle_beta   63.20808741
_cell_angle_gamma   80.43476918
_symmetry_Int_Tables_number   1
_chemical_formula_structural   CeNp2F12
_chemical_formula_sum   'Ce2 Np4 F24'
_cell_volume   468.36413705
_cell_formula_units_Z   2
loop_
 _symmetry_equiv_pos_site_id
 _symmetry_equiv_pos_as_xyz
  1  'x, y, z'
loop_
 _atom_site_type_symbol
 _atom_site_label
 _atom_site_symmetry_multiplicity
 _atom_site_fract_x
 _atom_site_fract_y
 _atom_site_fract_z
 _atom_site_occupancy
  Ce  Ce0  1  0.214011  0.785989  0.250000  1
  Ce  Ce1  1  0.785989  0.214011  0.750000  1
  Np  Np2  1  0.366740  0.223150  0.330238  1
  Np  Np3  1  0.776850  0.633260  0.169762  1
  Np  Np4  1  0.633260  0.776850  0.669762  1
  Np  Np5  1  0.223150  0.366740  0.830238  1
  F  F6  1  0.602055  0.397945  0.250000  1
  F  F7  1  0.397945  0.602055  0.750000  1
  F  F8  1  0.498693  0.738306  0.216406  1
  F  F9  1  0.261694  0.501307  0.283594  1
  F  F10  1  0.501307  0.261694  0.783594  1
  F  F11  1  0.738306  0.498693  0.716406  1
  F  F12  1  0.277197  0.976037  0.348135  1
  F  F13  1  0.023963  0.722803  0.151865  1
  F  F14  1  0.722803  0.023963  0.651865  1
  F  F15  1  0.976037  0.277197  0.848135  1
  F  F16  1  0.500000  0.000000  0.500000  1
  F  F17  1  0.000000  0.500000  0.000000  1
  F  F18  1  0.180101  0.069517  0.038175  1
  F  F19  1  0.930483  0.819899  0.461825  1
  F  F20  1  0.819899  0.930483  0.961825  1
  F  F21  1  0.069517  0.180101  0.538175  1
  F  F22  1  0.593937  0.188135  0.079031  1
  F  F23  1  0.811865  0.406063  0.420969  1
  F  F24  1  0.406063  0.811865  0.920969  1
  F  F25  1  0.188135  0.593937  0.579031  1
  F  F26  1  0.260011  0.320682  0.104134  1
  F  F27  1  0.679318  0.739989  0.395866  1
  F  F28  1  0.739989  0.679318  0.895866  1
  F  F29  1  0.320682  0.260011  0.604134  1
