# generated using pymatgen
data_K3ScBi2
_symmetry_space_group_name_H-M   'P 1'
_cell_length_a   9.83822890
_cell_length_b   9.83822825
_cell_length_c   9.83822873
_cell_angle_alpha   127.89707393
_cell_angle_beta   71.08616278
_cell_angle_gamma   135.22686695
_symmetry_Int_Tables_number   1
_chemical_formula_structural   K3ScBi2
_chemical_formula_sum   'K6 Sc2 Bi4'
_cell_volume   518.39708105
_cell_formula_units_Z   2
loop_
 _symmetry_equiv_pos_site_id
 _symmetry_equiv_pos_as_xyz
  1  'x, y, z'
loop_
 _atom_site_type_symbol
 _atom_site_label
 _atom_site_symmetry_multiplicity
 _atom_site_fract_x
 _atom_site_fract_y
 _atom_site_fract_z
 _atom_site_occupancy
  K  K0  1  0.250000  0.250000  0.000000  1
  K  K1  1  0.750000  0.750000  0.000000  1
  K  K2  1  0.315155  0.805750  0.120904  1
  K  K3  1  0.184845  0.305749  0.490596  1
  K  K4  1  0.815155  0.694251  0.509405  1
  K  K5  1  0.684845  0.194250  0.879095  1
  Sc  Sc6  1  0.750000  0.250000  0.500000  1
  Sc  Sc7  1  0.250000  0.749999  0.499999  1
  Bi  Bi8  1  0.901670  0.304133  0.205803  1
  Bi  Bi9  1  0.598330  0.804133  0.402463  1
  Bi  Bi10  1  0.401670  0.195867  0.597537  1
  Bi  Bi11  1  0.098330  0.695867  0.794196  1
