# generated using pymatgen
data_Tb4Dy8TcOs3
_symmetry_space_group_name_H-M   'P 1'
_cell_length_a   6.30846119
_cell_length_b   7.42022181
_cell_length_c   9.11035300
_cell_angle_alpha   90.00000000
_cell_angle_beta   90.00000000
_cell_angle_gamma   90.05113738
_symmetry_Int_Tables_number   1
_chemical_formula_structural   Tb4Dy8TcOs3
_chemical_formula_sum   'Tb4 Dy8 Tc1 Os3'
_cell_volume   426.45710580
_cell_formula_units_Z   1
loop_
 _symmetry_equiv_pos_site_id
 _symmetry_equiv_pos_as_xyz
  1  'x, y, z'
loop_
 _atom_site_type_symbol
 _atom_site_label
 _atom_site_symmetry_multiplicity
 _atom_site_fract_x
 _atom_site_fract_y
 _atom_site_fract_z
 _atom_site_occupancy
  Tb  Tb0  1  0.870865  0.540037  0.250000  1
  Tb  Tb1  1  0.627484  0.040230  0.250000  1
  Tb  Tb2  1  0.130953  0.459411  0.750000  1
  Tb  Tb3  1  0.368747  0.960373  0.750000  1
  Dy  Dy4  1  0.333956  0.674549  0.063215  1
  Dy  Dy5  1  0.167011  0.175202  0.436460  1
  Dy  Dy6  1  0.668645  0.324684  0.563258  1
  Dy  Dy7  1  0.832852  0.825015  0.936311  1
  Dy  Dy8  1  0.668645  0.324684  0.936742  1
  Dy  Dy9  1  0.832852  0.825015  0.563689  1
  Dy  Dy10  1  0.333956  0.674549  0.436785  1
  Dy  Dy11  1  0.167011  0.175202  0.063540  1
  Tc  Tc12  1  0.038852  0.884316  0.250000  1
  Os  Os13  1  0.459282  0.383601  0.250000  1
  Os  Os14  1  0.958591  0.117117  0.750000  1
  Os  Os15  1  0.540297  0.616014  0.750000  1
