# generated using pymatgen
data_Sr6DyTl(CoO6)2
_symmetry_space_group_name_H-M   'P 1'
_cell_length_a   6.78221512
_cell_length_b   6.78119737
_cell_length_c   6.78134908
_cell_angle_alpha   91.75324354
_cell_angle_beta   91.76406764
_cell_angle_gamma   91.76170830
_symmetry_Int_Tables_number   1
_chemical_formula_structural   Sr6DyTl(CoO6)2
_chemical_formula_sum   'Sr6 Dy1 Tl1 Co2 O12'
_cell_volume   311.43419277
_cell_formula_units_Z   1
loop_
 _symmetry_equiv_pos_site_id
 _symmetry_equiv_pos_as_xyz
  1  'x, y, z'
loop_
 _atom_site_type_symbol
 _atom_site_label
 _atom_site_symmetry_multiplicity
 _atom_site_fract_x
 _atom_site_fract_y
 _atom_site_fract_z
 _atom_site_occupancy
  Sr  Sr0  1  0.879977  0.249829  0.620038  1
  Sr  Sr1  1  0.249928  0.620236  0.879771  1
  Sr  Sr2  1  0.620082  0.879899  0.250217  1
  Sr  Sr3  1  0.750076  0.382876  0.117143  1
  Sr  Sr4  1  0.382897  0.116952  0.749789  1
  Sr  Sr5  1  0.117047  0.750184  0.383041  1
  Dy  Dy6  1  0.250098  0.250282  0.249613  1
  Tl  Tl7  1  0.749880  0.749650  0.750464  1
  Co  Co8  1  0.003549  0.003694  0.003609  1
  Co  Co9  1  0.496455  0.496321  0.496378  1
  O  O10  1  0.216166  0.412248  0.543930  1
  O  O11  1  0.412550  0.544570  0.216003  1
  O  O12  1  0.544258  0.216081  0.411988  1
  O  O13  1  0.919989  0.725228  0.051173  1
  O  O14  1  0.725021  0.050509  0.920052  1
  O  O15  1  0.050501  0.919721  0.725194  1
  O  O16  1  0.774918  0.580116  0.449579  1
  O  O17  1  0.580047  0.448796  0.774842  1
  O  O18  1  0.449194  0.774655  0.580412  1
  O  O19  1  0.087457  0.284097  0.955438  1
  O  O20  1  0.283933  0.956049  0.087460  1
  O  O21  1  0.955978  0.088006  0.283868  1
