# generated using pymatgen
data_LiLu3In4Rh
_symmetry_space_group_name_H-M   'P 1'
_cell_length_a   8.05383600
_cell_length_b   8.05383500
_cell_length_c   3.55978800
_cell_angle_alpha   90.00000000
_cell_angle_beta   90.00000000
_cell_angle_gamma   119.99999588
_symmetry_Int_Tables_number   1
_chemical_formula_structural   LiLu3In4Rh
_chemical_formula_sum   'Li1 Lu3 In4 Rh1'
_cell_volume   199.96790394
_cell_formula_units_Z   1
loop_
 _symmetry_equiv_pos_site_id
 _symmetry_equiv_pos_as_xyz
  1  'x, y, z'
loop_
 _atom_site_type_symbol
 _atom_site_label
 _atom_site_symmetry_multiplicity
 _atom_site_fract_x
 _atom_site_fract_y
 _atom_site_fract_z
 _atom_site_occupancy
  Li  Li0  1  0.000000  0.000000  0.000000  1
  Lu  Lu1  1  0.377583  0.419759  0.000000  1
  Lu  Lu2  1  0.042176  0.622416  0.000000  1
  Lu  Lu3  1  0.580241  0.957825  0.000000  1
  In  In4  1  0.996061  0.263348  0.500000  1
  In  In5  1  0.666666  0.333334  0.500000  1
  In  In6  1  0.736653  0.732714  0.500000  1
  In  In7  1  0.267286  0.003940  0.500000  1
  Rh  Rh8  1  0.333333  0.666666  0.500000  1
