# generated using pymatgen
data_Tm3Th2(SiGe)2
_symmetry_space_group_name_H-M   'P 1'
_cell_length_a   7.66745100
_cell_length_b   7.51780023
_cell_length_c   7.72043500
_cell_angle_alpha   70.51995508
_cell_angle_beta   90.00000000
_cell_angle_gamma   90.00000000
_symmetry_Int_Tables_number   1
_chemical_formula_structural   Tm3Th2(SiGe)2
_chemical_formula_sum   'Tm6 Th4 Si4 Ge4'
_cell_volume   419.54992336
_cell_formula_units_Z   2
loop_
 _symmetry_equiv_pos_site_id
 _symmetry_equiv_pos_as_xyz
  1  'x, y, z'
loop_
 _atom_site_type_symbol
 _atom_site_label
 _atom_site_symmetry_multiplicity
 _atom_site_fract_x
 _atom_site_fract_y
 _atom_site_fract_z
 _atom_site_occupancy
  Tm  Tm0  1  0.671512  0.739435  0.253678  1
  Tm  Tm1  1  0.328488  0.260565  0.746322  1
  Tm  Tm2  1  0.171512  0.760565  0.746322  1
  Tm  Tm3  1  0.828488  0.239435  0.253678  1
  Tm  Tm4  1  0.000000  0.000000  0.000000  1
  Tm  Tm5  1  0.500000  0.500000  0.000000  1
  Th  Th6  1  0.677319  0.930820  0.698041  1
  Th  Th7  1  0.322681  0.069180  0.301959  1
  Th  Th8  1  0.177319  0.569180  0.301959  1
  Th  Th9  1  0.822681  0.430820  0.698041  1
  Si  Si10  1  0.878273  0.624990  0.994249  1
  Si  Si11  1  0.121727  0.375010  0.005751  1
  Si  Si12  1  0.378273  0.875010  0.005751  1
  Si  Si13  1  0.621727  0.124990  0.994249  1
  Ge  Ge14  1  0.962211  0.843575  0.417825  1
  Ge  Ge15  1  0.037789  0.156425  0.582175  1
  Ge  Ge16  1  0.462211  0.656425  0.582175  1
  Ge  Ge17  1  0.537789  0.343575  0.417825  1
