# generated using pymatgen
data_K5(TcO3)2
_symmetry_space_group_name_H-M   'P 1'
_cell_length_a   6.64161803
_cell_length_b   7.38458839
_cell_length_c   13.06387114
_cell_angle_alpha   90.00000073
_cell_angle_beta   103.04229201
_cell_angle_gamma   123.77500317
_symmetry_Int_Tables_number   1
_chemical_formula_structural   K5(TcO3)2
_chemical_formula_sum   'K10 Tc4 O12'
_cell_volume   512.58505522
_cell_formula_units_Z   2
loop_
 _symmetry_equiv_pos_site_id
 _symmetry_equiv_pos_as_xyz
  1  'x, y, z'
loop_
 _atom_site_type_symbol
 _atom_site_label
 _atom_site_symmetry_multiplicity
 _atom_site_fract_x
 _atom_site_fract_y
 _atom_site_fract_z
 _atom_site_occupancy
  K  K0  1  0.130566  0.815290  0.001336  1
  K  K1  1  0.869434  0.684723  0.498664  1
  K  K2  1  0.869434  0.184710  0.998664  1
  K  K3  1  0.130566  0.315277  0.501336  1
  K  K4  1  0.316509  0.066733  0.721976  1
  K  K5  1  0.683491  0.750224  0.778024  1
  K  K6  1  0.683491  0.933267  0.278024  1
  K  K7  1  0.316509  0.249776  0.221976  1
  K  K8  1  0.000000  0.402920  0.750000  1
  K  K9  1  0.000000  0.597080  0.250000  1
  Tc  Tc10  1  0.513722  0.862448  0.533291  1
  Tc  Tc11  1  0.486278  0.348726  0.966709  1
  Tc  Tc12  1  0.486278  0.137552  0.466709  1
  Tc  Tc13  1  0.513722  0.651274  0.033291  1
  O  O14  1  0.848527  0.002309  0.614799  1
  O  O15  1  0.151473  0.153784  0.885201  1
  O  O16  1  0.151473  0.997691  0.385201  1
  O  O17  1  0.848527  0.846216  0.114799  1
  O  O18  1  0.297719  0.714220  0.620523  1
  O  O19  1  0.702281  0.416501  0.879477  1
  O  O20  1  0.702281  0.285780  0.379477  1
  O  O21  1  0.297719  0.583499  0.120523  1
  O  O22  1  0.578275  0.326406  0.589297  1
  O  O23  1  0.421725  0.748131  0.910703  1
  O  O24  1  0.421725  0.673594  0.410703  1
  O  O25  1  0.578275  0.251869  0.089297  1
