# generated using pymatgen
data_Ho16MgCd3FePt3
_symmetry_space_group_name_H-M   'P 1'
_cell_length_a   9.64968255
_cell_length_b   9.64968326
_cell_length_c   9.64968216
_cell_angle_alpha   59.60424352
_cell_angle_beta   59.60423761
_cell_angle_gamma   59.60423812
_symmetry_Int_Tables_number   1
_chemical_formula_structural   Ho16MgCd3FePt3
_chemical_formula_sum   'Ho16 Mg1 Cd3 Fe1 Pt3'
_cell_volume   629.65110446
_cell_formula_units_Z   1
loop_
 _symmetry_equiv_pos_site_id
 _symmetry_equiv_pos_as_xyz
  1  'x, y, z'
loop_
 _atom_site_type_symbol
 _atom_site_label
 _atom_site_symmetry_multiplicity
 _atom_site_fract_x
 _atom_site_fract_y
 _atom_site_fract_z
 _atom_site_occupancy
  Ho  Ho0  1  0.602655  0.602655  0.602655  1
  Ho  Ho1  1  0.595087  0.595087  0.203834  1
  Ho  Ho2  1  0.595087  0.203834  0.595087  1
  Ho  Ho3  1  0.203834  0.595087  0.595087  1
  Ho  Ho4  1  0.068810  0.439169  0.439169  1
  Ho  Ho5  1  0.437496  0.061077  0.061077  1
  Ho  Ho6  1  0.439169  0.068810  0.439169  1
  Ho  Ho7  1  0.061077  0.437496  0.061077  1
  Ho  Ho8  1  0.439169  0.439169  0.068810  1
  Ho  Ho9  1  0.061077  0.061077  0.437496  1
  Ho  Ho10  1  0.186670  0.815061  0.815061  1
  Ho  Ho11  1  0.810612  0.186846  0.186846  1
  Ho  Ho12  1  0.815061  0.186670  0.815061  1
  Ho  Ho13  1  0.186846  0.810612  0.186846  1
  Ho  Ho14  1  0.815061  0.815061  0.186670  1
  Ho  Ho15  1  0.186846  0.186846  0.810612  1
  Mg  Mg16  1  0.825088  0.825088  0.825088  1
  Cd  Cd17  1  0.831871  0.831871  0.503424  1
  Cd  Cd18  1  0.831871  0.503424  0.831871  1
  Cd  Cd19  1  0.503424  0.831871  0.831871  1
  Fe  Fe20  1  0.392760  0.392760  0.392760  1
  Pt  Pt21  1  0.393882  0.393882  0.822666  1
  Pt  Pt22  1  0.393882  0.822666  0.393882  1
  Pt  Pt23  1  0.822666  0.393882  0.393882  1
