# generated using pymatgen
data_Dy2Er4VB14W
_symmetry_space_group_name_H-M   'P 1'
_cell_length_a   8.09375136
_cell_length_b   8.09375115
_cell_length_c   9.43760900
_cell_angle_alpha   90.00000000
_cell_angle_beta   90.00000000
_cell_angle_gamma   155.52149394
_symmetry_Int_Tables_number   1
_chemical_formula_structural   Dy2Er4VB14W
_chemical_formula_sum   'Dy2 Er4 V1 B14 W1'
_cell_volume   256.17159335
_cell_formula_units_Z   1
loop_
 _symmetry_equiv_pos_site_id
 _symmetry_equiv_pos_as_xyz
  1  'x, y, z'
loop_
 _atom_site_type_symbol
 _atom_site_label
 _atom_site_symmetry_multiplicity
 _atom_site_fract_x
 _atom_site_fract_y
 _atom_site_fract_z
 _atom_site_occupancy
  Dy  Dy0  1  0.242881  0.757119  0.250000  1
  Dy  Dy1  1  0.754004  0.245996  0.750000  1
  Er  Er2  1  0.893900  0.106100  0.438242  1
  Er  Er3  1  0.106727  0.893273  0.557040  1
  Er  Er4  1  0.893900  0.106100  0.061758  1
  Er  Er5  1  0.106727  0.893273  0.942960  1
  V  V6  1  0.052409  0.947591  0.250000  1
  B  B7  1  0.727093  0.272907  0.467261  1
  B  B8  1  0.272755  0.727245  0.530936  1
  B  B9  1  0.727093  0.272907  0.032739  1
  B  B10  1  0.272755  0.727245  0.969064  1
  B  B11  1  0.632500  0.367500  0.149507  1
  B  B12  1  0.365282  0.634718  0.854830  1
  B  B13  1  0.632500  0.367500  0.350493  1
  B  B14  1  0.365282  0.634718  0.645170  1
  B  B15  1  0.520879  0.479121  0.095094  1
  B  B16  1  0.480795  0.519205  0.909549  1
  B  B17  1  0.520879  0.479121  0.404906  1
  B  B18  1  0.480795  0.519205  0.590451  1
  B  B19  1  0.457666  0.542334  0.250000  1
  B  B20  1  0.546088  0.453912  0.750000  1
  W  W21  1  0.947088  0.052912  0.750000  1
