# generated using pymatgen
data_Ce2HoSn3IrRh2
_symmetry_space_group_name_H-M   'P 1'
_cell_length_a   7.50621403
_cell_length_b   7.47325601
_cell_length_c   4.01681900
_cell_angle_alpha   90.00000000
_cell_angle_beta   90.00000000
_cell_angle_gamma   119.83255920
_symmetry_Int_Tables_number   1
_chemical_formula_structural   Ce2HoSn3IrRh2
_chemical_formula_sum   'Ce2 Ho1 Sn3 Ir1 Rh2'
_cell_volume   195.46724384
_cell_formula_units_Z   1
loop_
 _symmetry_equiv_pos_site_id
 _symmetry_equiv_pos_as_xyz
  1  'x, y, z'
loop_
 _atom_site_type_symbol
 _atom_site_label
 _atom_site_symmetry_multiplicity
 _atom_site_fract_x
 _atom_site_fract_y
 _atom_site_fract_z
 _atom_site_occupancy
  Ce  Ce0  1  0.587074  0.584823  0.000000  1
  Ce  Ce1  1  0.415218  0.001525  0.000000  1
  Ho  Ho2  1  0.995901  0.406454  0.000000  1
  Sn  Sn3  1  0.247119  0.256012  0.500000  1
  Sn  Sn4  1  0.002755  0.740932  0.500000  1
  Sn  Sn5  1  0.750670  0.004811  0.500000  1
  Ir  Ir6  1  0.657022  0.332222  0.500000  1
  Rh  Rh7  1  0.343886  0.675466  0.500000  1
  Rh  Rh8  1  0.000354  0.997755  0.000000  1
