# generated using pymatgen
data_PrNd(AlAu2)3
_symmetry_space_group_name_H-M   'P 1'
_cell_length_a   8.80161194
_cell_length_b   8.80161001
_cell_length_c   8.80161136
_cell_angle_alpha   57.03892728
_cell_angle_beta   57.03893630
_cell_angle_gamma   57.03893863
_symmetry_Int_Tables_number   1
_chemical_formula_structural   PrNd(AlAu2)3
_chemical_formula_sum   'Pr2 Nd2 Al6 Au12'
_cell_volume   449.22636825
_cell_formula_units_Z   2
loop_
 _symmetry_equiv_pos_site_id
 _symmetry_equiv_pos_as_xyz
  1  'x, y, z'
loop_
 _atom_site_type_symbol
 _atom_site_label
 _atom_site_symmetry_multiplicity
 _atom_site_fract_x
 _atom_site_fract_y
 _atom_site_fract_z
 _atom_site_occupancy
  Pr  Pr0  1  0.408606  0.408606  0.408606  1
  Pr  Pr1  1  0.908606  0.908606  0.908606  1
  Nd  Nd2  1  0.591423  0.591423  0.591423  1
  Nd  Nd3  1  0.091423  0.091423  0.091423  1
  Al  Al4  1  0.053936  0.250064  0.445994  1
  Al  Al5  1  0.445994  0.053936  0.250064  1
  Al  Al6  1  0.250064  0.445994  0.053936  1
  Al  Al7  1  0.945994  0.750064  0.553936  1
  Al  Al8  1  0.553936  0.945994  0.750064  1
  Al  Al9  1  0.750064  0.553936  0.945994  1
  Au  Au10  1  0.981675  0.365297  0.702533  1
  Au  Au11  1  0.702533  0.981675  0.365297  1
  Au  Au12  1  0.365297  0.702533  0.981675  1
  Au  Au13  1  0.202533  0.865297  0.481675  1
  Au  Au14  1  0.481675  0.202533  0.865297  1
  Au  Au15  1  0.865297  0.481675  0.202533  1
  Au  Au16  1  0.018217  0.634668  0.297588  1
  Au  Au17  1  0.297588  0.018217  0.634668  1
  Au  Au18  1  0.634668  0.297588  0.018217  1
  Au  Au19  1  0.797588  0.134668  0.518217  1
  Au  Au20  1  0.518217  0.797588  0.134668  1
  Au  Au21  1  0.134668  0.518217  0.797588  1
