# generated using pymatgen
data_Er(TaRe6)4
_symmetry_space_group_name_H-M   'P 1'
_cell_length_a   8.44201261
_cell_length_b   8.44188493
_cell_length_c   8.44237017
_cell_angle_alpha   109.45932616
_cell_angle_beta   109.49057711
_cell_angle_gamma   109.46938422
_symmetry_Int_Tables_number   1
_chemical_formula_structural   Er(TaRe6)4
_chemical_formula_sum   'Er1 Ta4 Re24'
_cell_volume   463.12448619
_cell_formula_units_Z   1
loop_
 _symmetry_equiv_pos_site_id
 _symmetry_equiv_pos_as_xyz
  1  'x, y, z'
loop_
 _atom_site_type_symbol
 _atom_site_label
 _atom_site_symmetry_multiplicity
 _atom_site_fract_x
 _atom_site_fract_y
 _atom_site_fract_z
 _atom_site_occupancy
  Er  Er0  1  0.000067  0.000078  0.000165  1
  Ta  Ta1  1  0.629438  0.999968  0.000025  1
  Ta  Ta2  1  0.000053  0.629412  0.000115  1
  Ta  Ta3  1  0.000173  0.000113  0.629547  1
  Ta  Ta4  1  0.370821  0.370579  0.370643  1
  Re  Re5  1  0.399609  0.681892  0.999819  1
  Re  Re6  1  0.717592  0.318081  0.318111  1
  Re  Re7  1  0.399358  0.999838  0.681802  1
  Re  Re8  1  0.681834  0.399424  0.999597  1
  Re  Re9  1  0.999624  0.399330  0.681846  1
  Re  Re10  1  0.318129  0.717802  0.318106  1
  Re  Re11  1  0.318133  0.318106  0.717667  1
  Re  Re12  1  0.999834  0.681908  0.399525  1
  Re  Re13  1  0.681835  0.999796  0.399396  1
  Re  Re14  1  0.600382  0.600582  0.282516  1
  Re  Re15  1  0.282537  0.600535  0.600407  1
  Re  Re16  1  0.600173  0.282190  0.600276  1
  Re  Re17  1  0.377664  0.195487  0.000105  1
  Re  Re18  1  0.182059  0.804542  0.804560  1
  Re  Re19  1  0.377485  0.000034  0.195384  1
  Re  Re20  1  0.195481  0.377606  0.999977  1
  Re  Re21  1  0.000018  0.377588  0.195623  1
  Re  Re22  1  0.804702  0.182171  0.804615  1
  Re  Re23  1  0.804719  0.804637  0.182245  1
  Re  Re24  1  0.999996  0.195598  0.377587  1
  Re  Re25  1  0.195373  0.999923  0.377459  1
  Re  Re26  1  0.622418  0.622443  0.817875  1
  Re  Re27  1  0.818042  0.622435  0.622490  1
  Re  Re28  1  0.622451  0.817902  0.622519  1
