# generated using pymatgen
data_KAc7(SiN3)4
_symmetry_space_group_name_H-M   'P 1'
_cell_length_a   6.34482119
_cell_length_b   6.34482138
_cell_length_c   12.33489871
_cell_angle_alpha   90.83945276
_cell_angle_beta   89.16054707
_cell_angle_gamma   127.61045759
_symmetry_Int_Tables_number   1
_chemical_formula_structural   KAc7(SiN3)4
_chemical_formula_sum   'K1 Ac7 Si4 N12'
_cell_volume   393.31399674
_cell_formula_units_Z   1
loop_
 _symmetry_equiv_pos_site_id
 _symmetry_equiv_pos_as_xyz
  1  'x, y, z'
loop_
 _atom_site_type_symbol
 _atom_site_label
 _atom_site_symmetry_multiplicity
 _atom_site_fract_x
 _atom_site_fract_y
 _atom_site_fract_z
 _atom_site_occupancy
  K  K0  1  0.048934  0.951066  0.854867  1
  Ac  Ac1  1  0.941137  0.058863  0.139396  1
  Ac  Ac2  1  0.443991  0.556009  0.358897  1
  Ac  Ac3  1  0.556744  0.443256  0.647142  1
  Ac  Ac4  1  0.638909  0.361091  0.074485  1
  Ac  Ac5  1  0.352294  0.647706  0.918732  1
  Ac  Ac6  1  0.861820  0.138180  0.575279  1
  Ac  Ac7  1  0.143450  0.856550  0.426114  1
  Si  Si8  1  0.734334  0.265666  0.832949  1
  Si  Si9  1  0.261289  0.738711  0.168638  1
  Si  Si10  1  0.764272  0.235728  0.333767  1
  Si  Si11  1  0.238964  0.761036  0.669575  1
  N  N12  1  0.581111  0.418889  0.862366  1
  N  N13  1  0.415060  0.584940  0.131926  1
  N  N14  1  0.918710  0.081290  0.359852  1
  N  N15  1  0.089793  0.910207  0.630383  1
  N  N16  1  0.525652  0.980679  0.748578  1
  N  N17  1  0.985230  0.510480  0.250804  1
  N  N18  1  0.489520  0.014770  0.250804  1
  N  N19  1  0.019321  0.474348  0.748578  1
  N  N20  1  0.820755  0.179245  0.950434  1
  N  N21  1  0.162641  0.837359  0.062578  1
  N  N22  1  0.666273  0.333727  0.447166  1
  N  N23  1  0.339797  0.660203  0.556691  1
