# generated using pymatgen
data_Nd2HoEr5(Si3Rh)4
_symmetry_space_group_name_H-M   'P 1'
_cell_length_a   8.18098305
_cell_length_b   8.18098397
_cell_length_c   7.96756400
_cell_angle_alpha   90.00000000
_cell_angle_beta   90.00000000
_cell_angle_gamma   120.01294117
_symmetry_Int_Tables_number   1
_chemical_formula_structural   Nd2HoEr5(Si3Rh)4
_chemical_formula_sum   'Nd2 Ho1 Er5 Si12 Rh4'
_cell_volume   461.75390695
_cell_formula_units_Z   1
loop_
 _symmetry_equiv_pos_site_id
 _symmetry_equiv_pos_as_xyz
  1  'x, y, z'
loop_
 _atom_site_type_symbol
 _atom_site_label
 _atom_site_symmetry_multiplicity
 _atom_site_fract_x
 _atom_site_fract_y
 _atom_site_fract_z
 _atom_site_occupancy
  Nd  Nd0  1  0.000045  0.999955  0.250000  1
  Nd  Nd1  1  0.999973  0.000027  0.750000  1
  Ho  Ho2  1  0.491735  0.508265  0.250000  1
  Er  Er3  1  0.491843  0.983897  0.250000  1
  Er  Er4  1  0.016103  0.508157  0.250000  1
  Er  Er5  1  0.508152  0.491848  0.750000  1
  Er  Er6  1  0.983657  0.491796  0.750000  1
  Er  Er7  1  0.508204  0.016343  0.750000  1
  Si  Si8  1  0.831444  0.168556  0.502459  1
  Si  Si9  1  0.831522  0.662833  0.502529  1
  Si  Si10  1  0.337167  0.168478  0.502529  1
  Si  Si11  1  0.831444  0.168556  0.997541  1
  Si  Si12  1  0.831522  0.662833  0.997471  1
  Si  Si13  1  0.337167  0.168478  0.997471  1
  Si  Si14  1  0.168619  0.831381  0.002397  1
  Si  Si15  1  0.662874  0.831604  0.002135  1
  Si  Si16  1  0.168396  0.337126  0.002135  1
  Si  Si17  1  0.168619  0.831381  0.497603  1
  Si  Si18  1  0.662874  0.831604  0.497865  1
  Si  Si19  1  0.168396  0.337126  0.497865  1
  Rh  Rh20  1  0.666887  0.333113  0.465107  1
  Rh  Rh21  1  0.666887  0.333113  0.034893  1
  Rh  Rh22  1  0.333235  0.666765  0.964328  1
  Rh  Rh23  1  0.333235  0.666765  0.535672  1
