# generated using pymatgen
data_Sr2YbNpO6
_symmetry_space_group_name_H-M   'P 1'
_cell_length_a   5.94545298
_cell_length_b   6.06775800
_cell_length_c   8.45745596
_cell_angle_alpha   90.00000000
_cell_angle_beta   90.07850357
_cell_angle_gamma   90.00000000
_symmetry_Int_Tables_number   1
_chemical_formula_structural   Sr2YbNpO6
_chemical_formula_sum   'Sr4 Yb2 Np2 O12'
_cell_volume   305.10725708
_cell_formula_units_Z   2
loop_
 _symmetry_equiv_pos_site_id
 _symmetry_equiv_pos_as_xyz
  1  'x, y, z'
loop_
 _atom_site_type_symbol
 _atom_site_label
 _atom_site_symmetry_multiplicity
 _atom_site_fract_x
 _atom_site_fract_y
 _atom_site_fract_z
 _atom_site_occupancy
  Sr  Sr0  1  0.011147  0.046468  0.251444  1
  Sr  Sr1  1  0.488853  0.546467  0.248555  1
  Sr  Sr2  1  0.988853  0.953532  0.748556  1
  Sr  Sr3  1  0.511147  0.453532  0.751444  1
  Yb  Yb4  1  0.500000  0.000000  0.000000  1
  Yb  Yb5  1  0.999999  0.500000  0.500000  1
  Np  Np6  1  0.000000  0.500000  0.000000  1
  Np  Np7  1  0.500000  0.000000  0.500000  1
  O  O8  1  0.404112  0.035964  0.735532  1
  O  O9  1  0.095888  0.535964  0.764469  1
  O  O10  1  0.595888  0.964036  0.264468  1
  O  O11  1  0.904113  0.464036  0.235531  1
  O  O12  1  0.282985  0.309873  0.046799  1
  O  O13  1  0.217015  0.809873  0.453201  1
  O  O14  1  0.717015  0.690128  0.953201  1
  O  O15  1  0.782986  0.190127  0.546799  1
  O  O16  1  0.187558  0.781060  0.054719  1
  O  O17  1  0.312442  0.281060  0.445281  1
  O  O18  1  0.812442  0.218940  0.945281  1
  O  O19  1  0.687558  0.718940  0.554718  1
