# generated using pymatgen
data_Li4InHg3Pd8
_symmetry_space_group_name_H-M   'P 1'
_cell_length_a   5.87937703
_cell_length_b   5.87930103
_cell_length_c   7.50364700
_cell_angle_alpha   90.00046514
_cell_angle_beta   89.99860136
_cell_angle_gamma   90.01138248
_symmetry_Int_Tables_number   1
_chemical_formula_structural   Li4InHg3Pd8
_chemical_formula_sum   'Li4 In1 Hg3 Pd8'
_cell_volume   259.37576495
_cell_formula_units_Z   1
loop_
 _symmetry_equiv_pos_site_id
 _symmetry_equiv_pos_as_xyz
  1  'x, y, z'
loop_
 _atom_site_type_symbol
 _atom_site_label
 _atom_site_symmetry_multiplicity
 _atom_site_fract_x
 _atom_site_fract_y
 _atom_site_fract_z
 _atom_site_occupancy
  Li  Li0  1  0.749970  0.250042  0.999967  1
  Li  Li1  1  0.250040  0.749969  0.999971  1
  Li  Li2  1  0.749977  0.250031  0.499968  1
  Li  Li3  1  0.250036  0.749969  0.500078  1
  In  In4  1  0.749959  0.749987  0.500031  1
  Hg  Hg5  1  0.249986  0.249984  0.999992  1
  Hg  Hg6  1  0.750021  0.750023  0.999992  1
  Hg  Hg7  1  0.249999  0.249993  0.500019  1
  Pd  Pd8  1  0.998903  0.998888  0.254586  1
  Pd  Pd9  1  0.998913  0.501118  0.254583  1
  Pd  Pd10  1  0.501113  0.998887  0.254594  1
  Pd  Pd11  1  0.501112  0.501108  0.254584  1
  Pd  Pd12  1  0.501090  0.998921  0.745401  1
  Pd  Pd13  1  0.501081  0.501081  0.745408  1
  Pd  Pd14  1  0.998904  0.998922  0.745417  1
  Pd  Pd15  1  0.998894  0.501079  0.745414  1
