# generated using pymatgen
data_Y9Ho(InSb)4
_symmetry_space_group_name_H-M   'P 1'
_cell_length_a   8.84590891
_cell_length_b   8.84590838
_cell_length_c   8.12237400
_cell_angle_alpha   90.00076447
_cell_angle_beta   90.00076913
_cell_angle_gamma   125.22117117
_symmetry_Int_Tables_number   1
_chemical_formula_structural   Y9Ho(InSb)4
_chemical_formula_sum   'Y9 Ho1 In4 Sb4'
_cell_volume   519.22274586
_cell_formula_units_Z   1
loop_
 _symmetry_equiv_pos_site_id
 _symmetry_equiv_pos_as_xyz
  1  'x, y, z'
loop_
 _atom_site_type_symbol
 _atom_site_label
 _atom_site_symmetry_multiplicity
 _atom_site_fract_x
 _atom_site_fract_y
 _atom_site_fract_z
 _atom_site_occupancy
  Y  Y0  1  0.031644  0.307166  0.333955  1
  Y  Y1  1  0.968356  0.692834  0.666045  1
  Y  Y2  1  0.468136  0.192601  0.834216  1
  Y  Y3  1  0.807399  0.531864  0.165784  1
  Y  Y4  1  0.531864  0.807399  0.165784  1
  Y  Y5  1  0.192601  0.468136  0.834216  1
  Y  Y6  1  0.692834  0.968356  0.666045  1
  Y  Y7  1  0.307166  0.031644  0.333955  1
  Y  Y8  1  0.500000  0.500000  0.500000  1
  Ho  Ho9  1  0.000000  0.000000  0.000000  1
  In  In10  1  0.370561  0.370561  0.127622  1
  In  In11  1  0.629439  0.629439  0.872378  1
  In  In12  1  0.129032  0.129032  0.628033  1
  In  In13  1  0.870968  0.870968  0.371967  1
  Sb  Sb14  1  0.797546  0.202454  0.000000  1
  Sb  Sb15  1  0.202454  0.797546  0.000000  1
  Sb  Sb16  1  0.702655  0.297345  0.500000  1
  Sb  Sb17  1  0.297345  0.702655  0.500000  1
