# generated using pymatgen
data_La4PrNd(GaRh)4
_symmetry_space_group_name_H-M   'P 1'
_cell_length_a   5.71002331
_cell_length_b   8.35509645
_cell_length_c   13.84429900
_cell_angle_alpha   90.00000000
_cell_angle_beta   90.00000000
_cell_angle_gamma   89.96232476
_symmetry_Int_Tables_number   1
_chemical_formula_structural   La4PrNd(GaRh)4
_chemical_formula_sum   'La8 Pr2 Nd2 Ga8 Rh8'
_cell_volume   660.48084252
_cell_formula_units_Z   2
loop_
 _symmetry_equiv_pos_site_id
 _symmetry_equiv_pos_as_xyz
  1  'x, y, z'
loop_
 _atom_site_type_symbol
 _atom_site_label
 _atom_site_symmetry_multiplicity
 _atom_site_fract_x
 _atom_site_fract_y
 _atom_site_fract_z
 _atom_site_occupancy
  La  La0  1  0.155282  0.400836  0.095627  1
  La  La1  1  0.844718  0.599164  0.904373  1
  La  La2  1  0.844718  0.599164  0.595627  1
  La  La3  1  0.844751  0.900575  0.404396  1
  La  La4  1  0.155282  0.400836  0.404373  1
  La  La5  1  0.155249  0.099425  0.595604  1
  La  La6  1  0.155249  0.099425  0.904396  1
  La  La7  1  0.844751  0.900575  0.095604  1
  Pr  Pr8  1  0.642358  0.257065  0.250000  1
  Pr  Pr9  1  0.357642  0.742935  0.750000  1
  Nd  Nd10  1  0.357968  0.757360  0.250000  1
  Nd  Nd11  1  0.642032  0.242640  0.750000  1
  Ga  Ga12  1  0.144393  0.106224  0.250000  1
  Ga  Ga13  1  0.855607  0.893776  0.750000  1
  Ga  Ga14  1  0.855718  0.607102  0.250000  1
  Ga  Ga15  1  0.144282  0.392898  0.750000  1
  Ga  Ga16  1  0.639891  0.249999  0.999877  1
  Ga  Ga17  1  0.360109  0.750001  0.000123  1
  Ga  Ga18  1  0.360109  0.750001  0.499877  1
  Ga  Ga19  1  0.639891  0.249999  0.500123  1
  Rh  Rh20  1  0.367529  0.030526  0.092326  1
  Rh  Rh21  1  0.632471  0.969474  0.907674  1
  Rh  Rh22  1  0.632471  0.969474  0.592326  1
  Rh  Rh23  1  0.632275  0.531105  0.407757  1
  Rh  Rh24  1  0.367529  0.030526  0.407674  1
  Rh  Rh25  1  0.367725  0.468895  0.592243  1
  Rh  Rh26  1  0.367725  0.468895  0.907757  1
  Rh  Rh27  1  0.632275  0.531105  0.092243  1
