# generated using pymatgen
data_YbYPt10
_symmetry_space_group_name_H-M   'P 1'
_cell_length_a   4.44742800
_cell_length_b   5.38476200
_cell_length_c   9.27591600
_cell_angle_alpha   89.99998936
_cell_angle_beta   90.00000000
_cell_angle_gamma   90.00000000
_symmetry_Int_Tables_number   1
_chemical_formula_structural   YbYPt10
_chemical_formula_sum   'Yb1 Y1 Pt10'
_cell_volume   222.14280217
_cell_formula_units_Z   1
loop_
 _symmetry_equiv_pos_site_id
 _symmetry_equiv_pos_as_xyz
  1  'x, y, z'
loop_
 _atom_site_type_symbol
 _atom_site_label
 _atom_site_symmetry_multiplicity
 _atom_site_fract_x
 _atom_site_fract_y
 _atom_site_fract_z
 _atom_site_occupancy
  Yb  Yb0  1  0.000000  0.999981  0.000000  1
  Y  Y1  1  0.000000  0.499974  0.500000  1
  Pt  Pt2  1  0.000000  0.999971  0.334017  1
  Pt  Pt3  1  0.000000  0.499974  0.832018  1
  Pt  Pt4  1  0.000000  0.499974  0.167982  1
  Pt  Pt5  1  0.000000  0.999971  0.665983  1
  Pt  Pt6  1  0.500000  0.999996  0.500000  1
  Pt  Pt7  1  0.500000  0.499999  0.000000  1
  Pt  Pt8  1  0.500000  0.251084  0.251325  1
  Pt  Pt9  1  0.500000  0.748896  0.748678  1
  Pt  Pt10  1  0.500000  0.748896  0.251322  1
  Pt  Pt11  1  0.500000  0.251084  0.748675  1
