# generated using pymatgen
data_Rb2ReF7
_symmetry_space_group_name_H-M   'P 1'
_cell_length_a   6.10805500
_cell_length_b   6.03071200
_cell_length_c   10.48659800
_cell_angle_alpha   90.00000000
_cell_angle_beta   90.00000000
_cell_angle_gamma   90.00000000
_symmetry_Int_Tables_number   1
_chemical_formula_structural   Rb2ReF7
_chemical_formula_sum   'Rb4 Re2 F14'
_cell_volume   386.28349114
_cell_formula_units_Z   2
loop_
 _symmetry_equiv_pos_site_id
 _symmetry_equiv_pos_as_xyz
  1  'x, y, z'
loop_
 _atom_site_type_symbol
 _atom_site_label
 _atom_site_symmetry_multiplicity
 _atom_site_fract_x
 _atom_site_fract_y
 _atom_site_fract_z
 _atom_site_occupancy
  Rb  Rb0  1  0.000000  0.500000  0.360677  1
  Rb  Rb1  1  0.500000  0.000000  0.639323  1
  Rb  Rb2  1  0.500000  0.500000  0.997279  1
  Rb  Rb3  1  0.000000  0.000000  0.002721  1
  Re  Re4  1  0.000000  0.500000  0.760500  1
  Re  Re5  1  0.500000  0.000000  0.239500  1
  F  F6  1  0.216499  0.264133  0.798123  1
  F  F7  1  0.283501  0.235867  0.201877  1
  F  F8  1  0.716499  0.764133  0.201877  1
  F  F9  1  0.783501  0.735867  0.798123  1
  F  F10  1  0.216499  0.735867  0.798123  1
  F  F11  1  0.716499  0.235867  0.201877  1
  F  F12  1  0.283501  0.764133  0.201877  1
  F  F13  1  0.783501  0.264133  0.798123  1
  F  F14  1  0.000000  0.500000  0.949933  1
  F  F15  1  0.500000  0.000000  0.050067  1
  F  F16  1  0.192925  0.500000  0.609934  1
  F  F17  1  0.807075  0.500000  0.609934  1
  F  F18  1  0.307075  0.000000  0.390066  1
  F  F19  1  0.692925  0.000000  0.390066  1
