# generated using pymatgen
data_DyLuTh7S17
_symmetry_space_group_name_H-M   'P 1'
_cell_length_a   8.07937563
_cell_length_b   8.06796491
_cell_length_c   10.70368100
_cell_angle_alpha   80.63013891
_cell_angle_beta   80.88946696
_cell_angle_gamma   65.08207063
_symmetry_Int_Tables_number   1
_chemical_formula_structural   DyLuTh7S17
_chemical_formula_sum   'Dy1 Lu1 Th7 S17'
_cell_volume   621.17136966
_cell_formula_units_Z   1
loop_
 _symmetry_equiv_pos_site_id
 _symmetry_equiv_pos_as_xyz
  1  'x, y, z'
loop_
 _atom_site_type_symbol
 _atom_site_label
 _atom_site_symmetry_multiplicity
 _atom_site_fract_x
 _atom_site_fract_y
 _atom_site_fract_z
 _atom_site_occupancy
  Dy  Dy0  1  0.811082  0.303986  0.299250  1
  Lu  Lu1  1  0.997375  0.003713  0.001760  1
  Th  Th2  1  0.302954  0.809729  0.297419  1
  Th  Th3  1  0.187680  0.698245  0.701244  1
  Th  Th4  1  0.697787  0.190415  0.698446  1
  Th  Th5  1  0.207158  0.206691  0.538420  1
  Th  Th6  1  0.792177  0.794558  0.457254  1
  Th  Th7  1  0.684522  0.679750  0.979289  1
  Th  Th8  1  0.316422  0.317172  0.025846  1
  S  S9  1  0.825776  0.427966  0.529014  1
  S  S10  1  0.430792  0.822262  0.531339  1
  S  S11  1  0.175649  0.569546  0.468074  1
  S  S12  1  0.571585  0.177384  0.467635  1
  S  S13  1  0.941334  0.333127  0.038838  1
  S  S14  1  0.332565  0.940645  0.035267  1
  S  S15  1  0.059979  0.669100  0.963602  1
  S  S16  1  0.666905  0.059641  0.962140  1
  S  S17  1  0.204976  0.204218  0.278680  1
  S  S18  1  0.792876  0.792668  0.722070  1
  S  S19  1  0.063649  0.063623  0.764276  1
  S  S20  1  0.936189  0.942352  0.238068  1
  S  S21  1  0.304787  0.305110  0.753535  1
  S  S22  1  0.693828  0.693560  0.246351  1
  S  S23  1  0.521108  0.521863  0.831342  1
  S  S24  1  0.478463  0.478380  0.166886  1
  S  S25  1  0.002382  0.994298  0.503957  1
