# generated using pymatgen
data_Dy16In4AgOs3
_symmetry_space_group_name_H-M   'P 1'
_cell_length_a   9.69019456
_cell_length_b   9.69019531
_cell_length_c   9.69019560
_cell_angle_alpha   60.36788447
_cell_angle_beta   60.36788478
_cell_angle_gamma   60.36788630
_symmetry_Int_Tables_number   1
_chemical_formula_structural   Dy16In4AgOs3
_chemical_formula_sum   'Dy16 In4 Ag1 Os3'
_cell_volume   648.75619484
_cell_formula_units_Z   1
loop_
 _symmetry_equiv_pos_site_id
 _symmetry_equiv_pos_as_xyz
  1  'x, y, z'
loop_
 _atom_site_type_symbol
 _atom_site_label
 _atom_site_symmetry_multiplicity
 _atom_site_fract_x
 _atom_site_fract_y
 _atom_site_fract_z
 _atom_site_occupancy
  Dy  Dy0  1  0.595202  0.595202  0.595202  1
  Dy  Dy1  1  0.609758  0.609758  0.189863  1
  Dy  Dy2  1  0.609758  0.189863  0.609758  1
  Dy  Dy3  1  0.189863  0.609758  0.609758  1
  Dy  Dy4  1  0.044462  0.442503  0.442503  1
  Dy  Dy5  1  0.442490  0.058462  0.058462  1
  Dy  Dy6  1  0.442503  0.044462  0.442503  1
  Dy  Dy7  1  0.058462  0.442490  0.058462  1
  Dy  Dy8  1  0.442503  0.442503  0.044462  1
  Dy  Dy9  1  0.058462  0.058462  0.442490  1
  Dy  Dy10  1  0.192248  0.810037  0.810037  1
  Dy  Dy11  1  0.815428  0.193178  0.193178  1
  Dy  Dy12  1  0.810037  0.192248  0.810037  1
  Dy  Dy13  1  0.193178  0.815428  0.193178  1
  Dy  Dy14  1  0.810037  0.810037  0.192248  1
  Dy  Dy15  1  0.193178  0.193178  0.815428  1
  In  In16  1  0.833749  0.833749  0.833749  1
  In  In17  1  0.831183  0.831183  0.501741  1
  In  In18  1  0.831183  0.501741  0.831183  1
  In  In19  1  0.501741  0.831183  0.831183  1
  Ag  Ag20  1  0.393769  0.393769  0.393769  1
  Os  Os21  1  0.387432  0.387432  0.825943  1
  Os  Os22  1  0.387432  0.825943  0.387432  1
  Os  Os23  1  0.825943  0.387432  0.387432  1
