# generated using pymatgen
data_Dy4MnOs3Ru4
_symmetry_space_group_name_H-M   'P 1'
_cell_length_a   5.35973470
_cell_length_b   5.23062906
_cell_length_c   8.93374700
_cell_angle_alpha   90.00000000
_cell_angle_beta   90.00000000
_cell_angle_gamma   120.89299699
_symmetry_Int_Tables_number   1
_chemical_formula_structural   Dy4MnOs3Ru4
_chemical_formula_sum   'Dy4 Mn1 Os3 Ru4'
_cell_volume   214.92293859
_cell_formula_units_Z   1
loop_
 _symmetry_equiv_pos_site_id
 _symmetry_equiv_pos_as_xyz
  1  'x, y, z'
loop_
 _atom_site_type_symbol
 _atom_site_label
 _atom_site_symmetry_multiplicity
 _atom_site_fract_x
 _atom_site_fract_y
 _atom_site_fract_z
 _atom_site_occupancy
  Dy  Dy0  1  0.666863  0.334367  0.565372  1
  Dy  Dy1  1  0.331126  0.662326  0.433901  1
  Dy  Dy2  1  0.331126  0.662326  0.066099  1
  Dy  Dy3  1  0.666863  0.334367  0.934628  1
  Mn  Mn4  1  0.167117  0.334132  0.750000  1
  Os  Os5  1  0.173998  0.827115  0.750000  1
  Os  Os6  1  0.653483  0.827526  0.750000  1
  Os  Os7  1  0.837900  0.676124  0.250000  1
  Ru  Ru8  1  0.995788  0.991916  0.502013  1
  Ru  Ru9  1  0.995788  0.991916  0.997987  1
  Ru  Ru10  1  0.830216  0.178800  0.250000  1
  Ru  Ru11  1  0.349733  0.179087  0.250000  1
