# generated using pymatgen
data_Nd2V2Fe4Co6P7
_symmetry_space_group_name_H-M   'P 1'
_cell_length_a   9.10615250
_cell_length_b   9.09297610
_cell_length_c   3.66443900
_cell_angle_alpha   90.00000000
_cell_angle_beta   90.00000000
_cell_angle_gamma   119.96245364
_symmetry_Int_Tables_number   1
_chemical_formula_structural   Nd2V2Fe4Co6P7
_chemical_formula_sum   'Nd2 V2 Fe4 Co6 P7'
_cell_volume   262.87136762
_cell_formula_units_Z   1
loop_
 _symmetry_equiv_pos_site_id
 _symmetry_equiv_pos_as_xyz
  1  'x, y, z'
loop_
 _atom_site_type_symbol
 _atom_site_label
 _atom_site_symmetry_multiplicity
 _atom_site_fract_x
 _atom_site_fract_y
 _atom_site_fract_z
 _atom_site_occupancy
  Nd  Nd0  1  0.665999  0.333748  0.000000  1
  Nd  Nd1  1  0.332923  0.666040  0.500000  1
  V  V2  1  0.104371  0.890029  0.500000  1
  V  V3  1  0.784630  0.898136  0.500000  1
  Fe  Fe4  1  0.272237  0.120677  0.000000  1
  Fe  Fe5  1  0.844154  0.726031  0.000000  1
  Fe  Fe6  1  0.881617  0.155305  0.000000  1
  Fe  Fe7  1  0.122443  0.218424  0.500000  1
  Co  Co8  1  0.059189  0.628393  0.000000  1
  Co  Co9  1  0.569695  0.941368  0.000000  1
  Co  Co10  1  0.367447  0.425521  0.000000  1
  Co  Co11  1  0.433597  0.050939  0.500000  1
  Co  Co12  1  0.611907  0.562741  0.500000  1
  Co  Co13  1  0.951947  0.383273  0.500000  1
  P  P14  1  0.300724  0.893839  0.000000  1
  P  P15  1  0.592895  0.700643  0.000000  1
  P  P16  1  0.106615  0.403501  0.000000  1
  P  P17  1  0.395300  0.286417  0.500000  1
  P  P18  1  0.890635  0.600057  0.500000  1
  P  P19  1  0.711077  0.112061  0.500000  1
  P  P20  1  0.000598  0.002858  0.000000  1
