# generated using pymatgen
data_Tb2Al20RuRh3
_symmetry_space_group_name_H-M   'P 1'
_cell_length_a   6.83991098
_cell_length_b   6.83914975
_cell_length_c   9.14231847
_cell_angle_alpha   90.10771967
_cell_angle_beta   90.08543068
_cell_angle_gamma   97.27993988
_symmetry_Int_Tables_number   1
_chemical_formula_structural   Tb2Al20RuRh3
_chemical_formula_sum   'Tb2 Al20 Ru1 Rh3'
_cell_volume   424.22122079
_cell_formula_units_Z   1
loop_
 _symmetry_equiv_pos_site_id
 _symmetry_equiv_pos_as_xyz
  1  'x, y, z'
loop_
 _atom_site_type_symbol
 _atom_site_label
 _atom_site_symmetry_multiplicity
 _atom_site_fract_x
 _atom_site_fract_y
 _atom_site_fract_z
 _atom_site_occupancy
  Tb  Tb0  1  0.868922  0.128282  0.750117  1
  Tb  Tb1  1  0.131078  0.871718  0.249883  1
  Al  Al2  1  0.621242  0.375771  0.547807  1
  Al  Al3  1  0.378758  0.624229  0.452193  1
  Al  Al4  1  0.378072  0.622600  0.049390  1
  Al  Al5  1  0.621928  0.377400  0.950610  1
  Al  Al6  1  0.221525  0.220069  0.499147  1
  Al  Al7  1  0.778475  0.779931  0.500853  1
  Al  Al8  1  0.777368  0.777800  0.000022  1
  Al  Al9  1  0.222632  0.222200  0.999978  1
  Al  Al10  1  0.845117  0.155463  0.103858  1
  Al  Al11  1  0.154883  0.844537  0.896142  1
  Al  Al12  1  0.155751  0.845906  0.602564  1
  Al  Al13  1  0.844249  0.154094  0.397436  1
  Al  Al14  1  0.856965  0.590500  0.749390  1
  Al  Al15  1  0.143035  0.409500  0.250610  1
  Al  Al16  1  0.409757  0.142319  0.749001  1
  Al  Al17  1  0.590243  0.857681  0.250999  1
  Al  Al18  1  0.225527  0.480619  0.749924  1
  Al  Al19  1  0.774473  0.519381  0.250076  1
  Al  Al20  1  0.518754  0.776089  0.746622  1
  Al  Al21  1  0.481246  0.223911  0.253378  1
  Ru  Ru22  1  0.500000  0.000000  0.500000  1
  Rh  Rh23  1  0.000000  0.500000  0.500000  1
  Rh  Rh24  1  0.000000  0.500000  0.000000  1
  Rh  Rh25  1  0.500000  0.000000  0.000000  1
