# generated using pymatgen
data_Tb9Ho3InGaCo4
_symmetry_space_group_name_H-M   'P 1'
_cell_length_a   8.36780171
_cell_length_b   8.37141062
_cell_length_c   8.36780130
_cell_angle_alpha   112.05820460
_cell_angle_beta   109.40747938
_cell_angle_gamma   106.97051828
_symmetry_Int_Tables_number   1
_chemical_formula_structural   Tb9Ho3InGaCo4
_chemical_formula_sum   'Tb9 Ho3 In1 Ga1 Co4'
_cell_volume   450.43812557
_cell_formula_units_Z   1
loop_
 _symmetry_equiv_pos_site_id
 _symmetry_equiv_pos_as_xyz
  1  'x, y, z'
loop_
 _atom_site_type_symbol
 _atom_site_label
 _atom_site_symmetry_multiplicity
 _atom_site_fract_x
 _atom_site_fract_y
 _atom_site_fract_z
 _atom_site_occupancy
  Tb  Tb0  1  0.432104  0.231270  0.200392  1
  Tb  Tb1  1  0.568834  0.768904  0.800704  1
  Tb  Tb2  1  0.030878  0.231270  0.799167  1
  Tb  Tb3  1  0.968200  0.768904  0.200070  1
  Tb  Tb4  1  0.181129  0.283365  0.465192  1
  Tb  Tb5  1  0.819626  0.716614  0.535506  1
  Tb  Tb6  1  0.181109  0.716614  0.896988  1
  Tb  Tb7  1  0.818172  0.283365  0.102236  1
  Tb  Tb8  1  0.325138  0.638815  0.313678  1
  Ho  Ho9  1  0.674407  0.359786  0.685377  1
  Ho  Ho10  1  0.325204  0.011095  0.685891  1
  Ho  Ho11  1  0.674912  0.989387  0.314475  1
  In  In12  1  0.500112  0.499345  0.999233  1
  Ga  Ga13  1  0.000473  0.000678  0.000204  1
  Co  Co14  1  0.342355  0.000752  0.342606  1
  Co  Co15  1  0.658147  0.000752  0.658397  1
  Co  Co16  1  0.113472  0.613813  0.500341  1
  Co  Co17  1  0.885731  0.385273  0.499541  1
