# generated using pymatgen
data_KFePtO4
_symmetry_space_group_name_H-M   'P 1'
_cell_length_a   6.14651823
_cell_length_b   7.76925569
_cell_length_c   6.14651900
_cell_angle_alpha   124.24467932
_cell_angle_beta   119.47536540
_cell_angle_gamma   80.74251661
_symmetry_Int_Tables_number   1
_chemical_formula_structural   KFePtO4
_chemical_formula_sum   'K2 Fe2 Pt2 O8'
_cell_volume   208.46792745
_cell_formula_units_Z   2
loop_
 _symmetry_equiv_pos_site_id
 _symmetry_equiv_pos_as_xyz
  1  'x, y, z'
loop_
 _atom_site_type_symbol
 _atom_site_label
 _atom_site_symmetry_multiplicity
 _atom_site_fract_x
 _atom_site_fract_y
 _atom_site_fract_z
 _atom_site_occupancy
  K  K0  1  0.578362  0.973619  0.895257  1
  K  K1  1  0.924034  0.954295  0.530262  1
  Fe  Fe2  1  0.496913  0.455452  0.458539  1
  Fe  Fe3  1  0.002582  0.472755  0.970173  1
  Pt  Pt4  1  0.000791  0.464500  0.465671  1
  Pt  Pt5  1  0.498829  0.464500  0.963707  1
  O  O6  1  0.801129  0.298604  0.499269  1
  O  O7  1  0.299336  0.298604  0.997473  1
  O  O8  1  0.298548  0.301041  0.502493  1
  O  O9  1  0.200823  0.627719  0.926899  1
  O  O10  1  0.802013  0.302298  0.000284  1
  O  O11  1  0.698383  0.629875  0.929343  1
  O  O12  1  0.697724  0.626864  0.429141  1
  O  O13  1  0.200533  0.629875  0.431491  1
