# generated using pymatgen
data_LaTmZn5Si
_symmetry_space_group_name_H-M   'P 1'
_cell_length_a   8.24596350
_cell_length_b   8.24596407
_cell_length_c   8.78966400
_cell_angle_alpha   90.00000000
_cell_angle_beta   90.00000000
_cell_angle_gamma   149.39623864
_symmetry_Int_Tables_number   1
_chemical_formula_structural   LaTmZn5Si
_chemical_formula_sum   'La2 Tm2 Zn10 Si2'
_cell_volume   304.26811433
_cell_formula_units_Z   2
loop_
 _symmetry_equiv_pos_site_id
 _symmetry_equiv_pos_as_xyz
  1  'x, y, z'
loop_
 _atom_site_type_symbol
 _atom_site_label
 _atom_site_symmetry_multiplicity
 _atom_site_fract_x
 _atom_site_fract_y
 _atom_site_fract_z
 _atom_site_occupancy
  La  La0  1  0.000000  0.000000  0.500000  1
  La  La1  1  0.000000  0.000000  0.000000  1
  Tm  Tm2  1  0.201097  0.798903  0.250000  1
  Tm  Tm3  1  0.798903  0.201097  0.750000  1
  Zn  Zn4  1  0.811853  0.188147  0.391101  1
  Zn  Zn5  1  0.188147  0.811853  0.608899  1
  Zn  Zn6  1  0.811853  0.188147  0.108899  1
  Zn  Zn7  1  0.188147  0.811853  0.891101  1
  Zn  Zn8  1  0.654024  0.345976  0.474079  1
  Zn  Zn9  1  0.345976  0.654024  0.525921  1
  Zn  Zn10  1  0.654024  0.345976  0.025921  1
  Zn  Zn11  1  0.345976  0.654024  0.974079  1
  Zn  Zn12  1  0.401657  0.598343  0.250000  1
  Zn  Zn13  1  0.598343  0.401657  0.750000  1
  Si  Si14  1  0.559904  0.440096  0.250000  1
  Si  Si15  1  0.440096  0.559904  0.750000  1
