# generated using pymatgen
data_HoEr9In8IrPd3
_symmetry_space_group_name_H-M   'P 1'
_cell_length_a   3.59479100
_cell_length_b   8.10173401
_cell_length_c   18.17214580
_cell_angle_alpha   90.02767835
_cell_angle_beta   90.00000000
_cell_angle_gamma   90.00000000
_symmetry_Int_Tables_number   1
_chemical_formula_structural   HoEr9In8IrPd3
_chemical_formula_sum   'Ho1 Er9 In8 Ir1 Pd3'
_cell_volume   529.24624820
_cell_formula_units_Z   1
loop_
 _symmetry_equiv_pos_site_id
 _symmetry_equiv_pos_as_xyz
  1  'x, y, z'
loop_
 _atom_site_type_symbol
 _atom_site_label
 _atom_site_symmetry_multiplicity
 _atom_site_fract_x
 _atom_site_fract_y
 _atom_site_fract_z
 _atom_site_occupancy
  Ho  Ho0  1  0.000000  0.500413  0.499762  1
  Er  Er1  1  0.000000  0.000644  0.000826  1
  Er  Er2  1  0.000000  0.729593  0.277488  1
  Er  Er3  1  0.000000  0.259788  0.719396  1
  Er  Er4  1  0.000000  0.758991  0.779827  1
  Er  Er5  1  0.000000  0.254511  0.220317  1
  Er  Er6  1  0.000000  0.615625  0.087052  1
  Er  Er7  1  0.000000  0.382631  0.916429  1
  Er  Er8  1  0.000000  0.882480  0.583239  1
  Er  Er9  1  0.000000  0.116891  0.415183  1
  In  In10  1  0.500000  0.708747  0.932704  1
  In  In11  1  0.500000  0.292450  0.068051  1
  In  In12  1  0.500000  0.792006  0.431950  1
  In  In13  1  0.500000  0.207339  0.567097  1
  In  In14  1  0.500000  0.578572  0.649371  1
  In  In15  1  0.500000  0.422198  0.351521  1
  In  In16  1  0.500000  0.924593  0.150188  1
  In  In17  1  0.500000  0.078015  0.850344  1
  Ir  Ir18  1  0.500000  0.521088  0.195757  1
  Pd  Pd19  1  0.500000  0.475947  0.803957  1
  Pd  Pd20  1  0.500000  0.976461  0.695702  1
  Pd  Pd21  1  0.500000  0.021017  0.303838  1
