# generated using pymatgen
data_Hf6In4FeBr18
_symmetry_space_group_name_H-M   'P 1'
_cell_length_a   10.54575451
_cell_length_b   10.70080703
_cell_length_c   10.69812619
_cell_angle_alpha   118.95619384
_cell_angle_beta   100.25323037
_cell_angle_gamma   103.18760805
_symmetry_Int_Tables_number   1
_chemical_formula_structural   Hf6In4FeBr18
_chemical_formula_sum   'Hf6 In4 Fe1 Br18'
_cell_volume   967.73662834
_cell_formula_units_Z   1
loop_
 _symmetry_equiv_pos_site_id
 _symmetry_equiv_pos_as_xyz
  1  'x, y, z'
loop_
 _atom_site_type_symbol
 _atom_site_label
 _atom_site_symmetry_multiplicity
 _atom_site_fract_x
 _atom_site_fract_y
 _atom_site_fract_z
 _atom_site_occupancy
  Hf  Hf0  1  0.152559  0.055228  0.232145  1
  Hf  Hf1  1  0.847441  0.944772  0.767855  1
  Hf  Hf2  1  0.865272  0.133902  0.140084  1
  Hf  Hf3  1  0.134728  0.866098  0.859916  1
  Hf  Hf4  1  0.145188  0.236898  0.042804  1
  Hf  Hf5  1  0.854812  0.763102  0.957196  1
  In  In6  1  0.635001  0.530321  0.220817  1
  In  In7  1  0.364999  0.469679  0.779183  1
  In  In8  1  0.668671  0.222483  0.555764  1
  In  In9  1  0.331329  0.777517  0.444236  1
  Fe  Fe10  1  0.000000  0.000000  0.000000  1
  Br  Br11  1  0.013394  0.413865  0.202226  1
  Br  Br12  1  0.986606  0.586135  0.797774  1
  Br  Br13  1  0.331253  0.329208  0.309401  1
  Br  Br14  1  0.668747  0.670792  0.690599  1
  Br  Br15  1  0.322285  0.514320  0.095214  1
  Br  Br16  1  0.677715  0.485680  0.904786  1
  Br  Br17  1  0.007444  0.797687  0.212438  1
  Br  Br18  1  0.992556  0.202313  0.787562  1
  Br  Br19  1  0.711446  0.288851  0.301981  1
  Br  Br20  1  0.288554  0.711149  0.698019  1
  Br  Br21  1  0.311514  0.117298  0.893917  1
  Br  Br22  1  0.688486  0.882702  0.106083  1
  Br  Br23  1  0.021611  0.209816  0.415059  1
  Br  Br24  1  0.978389  0.790184  0.584941  1
  Br  Br25  1  0.318489  0.914427  0.104153  1
  Br  Br26  1  0.681511  0.085573  0.895847  1
  Br  Br27  1  0.337754  0.120962  0.504313  1
  Br  Br28  1  0.662246  0.879038  0.495687  1
