# generated using pymatgen
data_Pm(FeP)2
_symmetry_space_group_name_H-M   'P 1'
_cell_length_a   5.67526749
_cell_length_b   5.67527085
_cell_length_c   5.67527077
_cell_angle_alpha   140.42488782
_cell_angle_beta   140.42488350
_cell_angle_gamma   57.20873609
_symmetry_Int_Tables_number   1
_chemical_formula_structural   Pm(FeP)2
_chemical_formula_sum   'Pm1 Fe2 P2'
_cell_volume   73.56835804
_cell_formula_units_Z   1
loop_
 _symmetry_equiv_pos_site_id
 _symmetry_equiv_pos_as_xyz
  1  'x, y, z'
loop_
 _atom_site_type_symbol
 _atom_site_label
 _atom_site_symmetry_multiplicity
 _atom_site_fract_x
 _atom_site_fract_y
 _atom_site_fract_z
 _atom_site_occupancy
  Pm  Pm0  1  0.000000  0.000001  0.000001  1
  Fe  Fe1  1  0.750000  0.250003  0.500004  1
  Fe  Fe2  1  0.249999  0.749996  0.499995  1
  P  P3  1  0.360175  0.360176  0.000000  1
  P  P4  1  0.639824  0.639824  0.000000  1
