# generated using pymatgen
data_DyHoTcB6
_symmetry_space_group_name_H-M   'P 1'
_cell_length_a   3.68060100
_cell_length_b   9.15368000
_cell_length_c   11.53612500
_cell_angle_alpha   90.00000000
_cell_angle_beta   90.00000000
_cell_angle_gamma   90.00000000
_symmetry_Int_Tables_number   1
_chemical_formula_structural   DyHoTcB6
_chemical_formula_sum   'Dy4 Ho4 Tc4 B24'
_cell_volume   388.66409222
_cell_formula_units_Z   4
loop_
 _symmetry_equiv_pos_site_id
 _symmetry_equiv_pos_as_xyz
  1  'x, y, z'
loop_
 _atom_site_type_symbol
 _atom_site_label
 _atom_site_symmetry_multiplicity
 _atom_site_fract_x
 _atom_site_fract_y
 _atom_site_fract_z
 _atom_site_occupancy
  Dy  Dy0  1  0.000000  0.323818  0.414317  1
  Dy  Dy1  1  0.000000  0.676182  0.585683  1
  Dy  Dy2  1  0.000000  0.823818  0.085683  1
  Dy  Dy3  1  0.000000  0.176182  0.914317  1
  Ho  Ho4  1  0.000000  0.942911  0.369488  1
  Ho  Ho5  1  0.000000  0.057089  0.630512  1
  Ho  Ho6  1  0.000000  0.442911  0.130512  1
  Ho  Ho7  1  0.000000  0.557089  0.869488  1
  Tc  Tc8  1  0.000000  0.638965  0.320395  1
  Tc  Tc9  1  0.000000  0.361035  0.679605  1
  Tc  Tc10  1  0.000000  0.138965  0.179605  1
  Tc  Tc11  1  0.000000  0.861035  0.820395  1
  B  B12  1  0.500000  0.553648  0.432772  1
  B  B13  1  0.500000  0.446352  0.567228  1
  B  B14  1  0.500000  0.053648  0.067228  1
  B  B15  1  0.500000  0.946352  0.932772  1
  B  B16  1  0.500000  0.749060  0.418373  1
  B  B17  1  0.500000  0.250940  0.581627  1
  B  B18  1  0.500000  0.249060  0.081627  1
  B  B19  1  0.500000  0.750940  0.918373  1
  B  B20  1  0.500000  0.792004  0.265288  1
  B  B21  1  0.500000  0.207996  0.734712  1
  B  B22  1  0.500000  0.292004  0.234712  1
  B  B23  1  0.500000  0.707996  0.765288  1
  B  B24  1  0.500000  0.630652  0.185543  1
  B  B25  1  0.500000  0.369348  0.814457  1
  B  B26  1  0.500000  0.130652  0.314457  1
  B  B27  1  0.500000  0.869348  0.685543  1
  B  B28  1  0.500000  0.982242  0.211765  1
  B  B29  1  0.500000  0.017758  0.788235  1
  B  B30  1  0.500000  0.482242  0.288235  1
  B  B31  1  0.500000  0.517758  0.711765  1
  B  B32  1  0.500000  0.599620  0.027823  1
  B  B33  1  0.500000  0.400380  0.972177  1
  B  B34  1  0.500000  0.099620  0.472177  1
  B  B35  1  0.500000  0.900380  0.527823  1
