# generated using pymatgen
data_Ba6Sn2HN
_symmetry_space_group_name_H-M   'P 1'
_cell_length_a   7.90533307
_cell_length_b   7.90533293
_cell_length_c   7.90533200
_cell_angle_alpha   59.99999553
_cell_angle_beta   59.99999612
_cell_angle_gamma   59.99999682
_symmetry_Int_Tables_number   1
_chemical_formula_structural   Ba6Sn2HN
_chemical_formula_sum   'Ba6 Sn2 H1 N1'
_cell_volume   349.33766708
_cell_formula_units_Z   1
loop_
 _symmetry_equiv_pos_site_id
 _symmetry_equiv_pos_as_xyz
  1  'x, y, z'
loop_
 _atom_site_type_symbol
 _atom_site_label
 _atom_site_symmetry_multiplicity
 _atom_site_fract_x
 _atom_site_fract_y
 _atom_site_fract_z
 _atom_site_occupancy
  Ba  Ba0  1  0.257769  0.742231  0.742231  1
  Ba  Ba1  1  0.257769  0.742231  0.257769  1
  Ba  Ba2  1  0.742231  0.257769  0.742231  1
  Ba  Ba3  1  0.742231  0.742231  0.257769  1
  Ba  Ba4  1  0.257769  0.257769  0.742231  1
  Ba  Ba5  1  0.742231  0.257769  0.257769  1
  Sn  Sn6  1  0.250000  0.250000  0.250000  1
  Sn  Sn7  1  0.750000  0.750000  0.750000  1
  H  H8  1  0.000000  0.000000  0.000000  1
  N  N9  1  0.500000  0.500000  0.500000  1
