# generated using pymatgen
data_Er2Tm3Ir2
_symmetry_space_group_name_H-M   'P 1'
_cell_length_a   6.43187590
_cell_length_b   7.15964451
_cell_length_c   8.37732082
_cell_angle_alpha   96.47869812
_cell_angle_beta   112.57461602
_cell_angle_gamma   89.99999838
_symmetry_Int_Tables_number   1
_chemical_formula_structural   Er2Tm3Ir2
_chemical_formula_sum   'Er4 Tm6 Ir4'
_cell_volume   353.54770221
_cell_formula_units_Z   2
loop_
 _symmetry_equiv_pos_site_id
 _symmetry_equiv_pos_as_xyz
  1  'x, y, z'
loop_
 _atom_site_type_symbol
 _atom_site_label
 _atom_site_symmetry_multiplicity
 _atom_site_fract_x
 _atom_site_fract_y
 _atom_site_fract_z
 _atom_site_occupancy
  Er  Er0  1  0.970029  0.918956  0.182195  1
  Er  Er1  1  0.787834  0.581044  0.817805  1
  Er  Er2  1  0.029971  0.081044  0.817805  1
  Er  Er3  1  0.212166  0.418956  0.182195  1
  Tm  Tm4  1  0.653881  0.818182  0.442145  1
  Tm  Tm5  1  0.211736  0.681818  0.557855  1
  Tm  Tm6  1  0.346119  0.181818  0.557855  1
  Tm  Tm7  1  0.788264  0.318182  0.442145  1
  Tm  Tm8  1  0.427454  0.750000  0.000000  1
  Tm  Tm9  1  0.572546  0.250000  0.000000  1
  Ir  Ir10  1  0.825989  0.573239  0.218712  1
  Ir  Ir11  1  0.607277  0.926761  0.781288  1
  Ir  Ir12  1  0.174012  0.426761  0.781288  1
  Ir  Ir13  1  0.392723  0.073239  0.218712  1
