# generated using pymatgen
data_Sc12Co4BiRh
_symmetry_space_group_name_H-M   'P 1'
_cell_length_a   7.76556141
_cell_length_b   7.76556037
_cell_length_c   7.76556004
_cell_angle_alpha   111.49087305
_cell_angle_beta   110.52776500
_cell_angle_gamma   106.43848468
_symmetry_Int_Tables_number   1
_chemical_formula_structural   Sc12Co4BiRh
_chemical_formula_sum   'Sc12 Co4 Bi1 Rh1'
_cell_volume   359.71345459
_cell_formula_units_Z   1
loop_
 _symmetry_equiv_pos_site_id
 _symmetry_equiv_pos_as_xyz
  1  'x, y, z'
loop_
 _atom_site_type_symbol
 _atom_site_label
 _atom_site_symmetry_multiplicity
 _atom_site_fract_x
 _atom_site_fract_y
 _atom_site_fract_z
 _atom_site_occupancy
  Sc  Sc0  1  0.420888  0.220775  0.200111  1
  Sc  Sc1  1  0.579112  0.779225  0.799889  1
  Sc  Sc2  1  0.020664  0.220775  0.799889  1
  Sc  Sc3  1  0.979336  0.779225  0.200111  1
  Sc  Sc4  1  0.318284  0.627382  0.309097  1
  Sc  Sc5  1  0.681716  0.372618  0.690903  1
  Sc  Sc6  1  0.318284  0.009186  0.690903  1
  Sc  Sc7  1  0.681716  0.990814  0.309097  1
  Sc  Sc8  1  0.182847  0.278733  0.461581  1
  Sc  Sc9  1  0.817153  0.721266  0.538419  1
  Sc  Sc10  1  0.182847  0.721266  0.904113  1
  Sc  Sc11  1  0.817153  0.278733  0.095887  1
  Co  Co12  1  0.351264  0.000000  0.351264  1
  Co  Co13  1  0.648736  0.000000  0.648736  1
  Co  Co14  1  0.118343  0.618343  0.500000  1
  Co  Co15  1  0.881657  0.381657  0.500000  1
  Bi  Bi16  1  0.500000  0.500000  0.000000  1
  Rh  Rh17  1  0.000000  0.000000  0.000000  1
