# generated using pymatgen
data_Lu6U(Al3Co8)2
_symmetry_space_group_name_H-M   'P 1'
_cell_length_a   8.43019952
_cell_length_b   8.43066867
_cell_length_c   8.43056500
_cell_angle_alpha   60.00415386
_cell_angle_beta   60.00235246
_cell_angle_gamma   60.00283659
_symmetry_Int_Tables_number   1
_chemical_formula_structural   Lu6U(Al3Co8)2
_chemical_formula_sum   'Lu6 U1 Al6 Co16'
_cell_volume   423.71342209
_cell_formula_units_Z   1
loop_
 _symmetry_equiv_pos_site_id
 _symmetry_equiv_pos_as_xyz
  1  'x, y, z'
loop_
 _atom_site_type_symbol
 _atom_site_label
 _atom_site_symmetry_multiplicity
 _atom_site_fract_x
 _atom_site_fract_y
 _atom_site_fract_z
 _atom_site_occupancy
  Lu  Lu0  1  0.708365  0.291605  0.291625  1
  Lu  Lu1  1  0.291635  0.708395  0.708375  1
  Lu  Lu2  1  0.291657  0.708398  0.291584  1
  Lu  Lu3  1  0.291656  0.291580  0.708390  1
  Lu  Lu4  1  0.708343  0.291602  0.708416  1
  Lu  Lu5  1  0.708344  0.708420  0.291610  1
  U  U6  1  0.000000  0.000000  0.000000  1
  Al  Al7  1  0.500000  0.000000  0.000000  1
  Al  Al8  1  0.000000  0.500000  0.500000  1
  Al  Al9  1  0.000000  0.500000  0.000000  1
  Al  Al10  1  0.000000  0.000000  0.500000  1
  Al  Al11  1  0.500000  0.000000  0.500000  1
  Al  Al12  1  0.500000  0.500000  0.000000  1
  Co  Co13  1  0.322548  0.322490  0.322533  1
  Co  Co14  1  0.322581  0.322518  0.032371  1
  Co  Co15  1  0.032378  0.322521  0.322569  1
  Co  Co16  1  0.322551  0.032401  0.322541  1
  Co  Co17  1  0.677452  0.677510  0.677467  1
  Co  Co18  1  0.677419  0.677482  0.967629  1
  Co  Co19  1  0.677449  0.967599  0.677459  1
  Co  Co20  1  0.967622  0.677479  0.677431  1
  Co  Co21  1  0.122825  0.122765  0.122827  1
  Co  Co22  1  0.122861  0.122803  0.631516  1
  Co  Co23  1  0.631529  0.122799  0.122856  1
  Co  Co24  1  0.122825  0.631563  0.122827  1
  Co  Co25  1  0.877175  0.877235  0.877173  1
  Co  Co26  1  0.877139  0.877197  0.368484  1
  Co  Co27  1  0.877175  0.368437  0.877173  1
  Co  Co28  1  0.368471  0.877201  0.877144  1
