# generated using pymatgen
data_Li4Eu4PPd3
_symmetry_space_group_name_H-M   'P 1'
_cell_length_a   4.29080900
_cell_length_b   7.39042028
_cell_length_c   8.52558536
_cell_angle_alpha   89.12607987
_cell_angle_beta   90.00000000
_cell_angle_gamma   90.00000000
_symmetry_Int_Tables_number   1
_chemical_formula_structural   Li4Eu4PPd3
_chemical_formula_sum   'Li4 Eu4 P1 Pd3'
_cell_volume   270.32238219
_cell_formula_units_Z   1
loop_
 _symmetry_equiv_pos_site_id
 _symmetry_equiv_pos_as_xyz
  1  'x, y, z'
loop_
 _atom_site_type_symbol
 _atom_site_label
 _atom_site_symmetry_multiplicity
 _atom_site_fract_x
 _atom_site_fract_y
 _atom_site_fract_z
 _atom_site_occupancy
  Li  Li0  1  0.250000  0.627748  0.562761  1
  Li  Li1  1  0.750000  0.357352  0.451150  1
  Li  Li2  1  0.750000  0.862393  0.059095  1
  Li  Li3  1  0.250000  0.140850  0.935004  1
  Eu  Eu4  1  0.250000  0.524659  0.188425  1
  Eu  Eu5  1  0.750000  0.470316  0.811454  1
  Eu  Eu6  1  0.750000  0.980811  0.680823  1
  Eu  Eu7  1  0.250000  0.027829  0.315825  1
  P  P8  1  0.250000  0.271255  0.609249  1
  Pd  Pd9  1  0.250000  0.768782  0.889404  1
  Pd  Pd10  1  0.750000  0.231316  0.111835  1
  Pd  Pd11  1  0.750000  0.736690  0.384974  1
