# generated using pymatgen
data_YHoSiP4O15
_symmetry_space_group_name_H-M   'P 1'
_cell_length_a   5.57282400
_cell_length_b   7.07054238
_cell_length_c   16.54701390
_cell_angle_alpha   89.96224194
_cell_angle_beta   90.00000000
_cell_angle_gamma   90.00000000
_symmetry_Int_Tables_number   1
_chemical_formula_structural   YHoSiP4O15
_chemical_formula_sum   'Y2 Ho2 Si2 P8 O30'
_cell_volume   651.99999858
_cell_formula_units_Z   2
loop_
 _symmetry_equiv_pos_site_id
 _symmetry_equiv_pos_as_xyz
  1  'x, y, z'
loop_
 _atom_site_type_symbol
 _atom_site_label
 _atom_site_symmetry_multiplicity
 _atom_site_fract_x
 _atom_site_fract_y
 _atom_site_fract_z
 _atom_site_occupancy
  Y  Y0  1  0.134616  0.094472  0.282056  1
  Y  Y1  1  0.134616  0.905528  0.717944  1
  Ho  Ho2  1  0.865153  0.405151  0.782384  1
  Ho  Ho3  1  0.865153  0.594849  0.217616  1
  Si  Si4  1  0.458473  0.500000  0.500000  1
  Si  Si5  1  0.541422  0.000000  0.000000  1
  P  P6  1  0.692653  0.910333  0.830834  1
  P  P7  1  0.692653  0.089667  0.169166  1
  P  P8  1  0.307431  0.589535  0.330220  1
  P  P9  1  0.307431  0.410465  0.669780  1
  P  P10  1  0.642826  0.137286  0.425744  1
  P  P11  1  0.642826  0.862714  0.574256  1
  P  P12  1  0.357529  0.363142  0.925398  1
  P  P13  1  0.357529  0.636858  0.074602  1
  O  O14  1  0.644054  0.337260  0.468788  1
  O  O15  1  0.644054  0.662740  0.531212  1
  O  O16  1  0.356348  0.162952  0.968467  1
  O  O17  1  0.356348  0.837048  0.031533  1
  O  O18  1  0.717867  0.074291  0.072477  1
  O  O19  1  0.717867  0.925709  0.927523  1
  O  O20  1  0.283296  0.425946  0.572948  1
  O  O21  1  0.283296  0.574054  0.427052  1
  O  O22  1  0.835421  0.077333  0.793615  1
  O  O23  1  0.835421  0.922667  0.206385  1
  O  O24  1  0.163025  0.423895  0.292922  1
  O  O25  1  0.163025  0.576105  0.707078  1
  O  O26  1  0.427096  0.909726  0.811414  1
  O  O27  1  0.427096  0.090274  0.188586  1
  O  O28  1  0.573134  0.590251  0.310407  1
  O  O29  1  0.573134  0.409749  0.689593  1
  O  O30  1  0.834073  0.734187  0.803111  1
  O  O31  1  0.834073  0.265813  0.196889  1
  O  O32  1  0.164680  0.765044  0.302627  1
  O  O33  1  0.164680  0.234956  0.697373  1
  O  O34  1  0.425286  0.115681  0.373452  1
  O  O35  1  0.425286  0.884319  0.626548  1
  O  O36  1  0.575394  0.385016  0.873114  1
  O  O37  1  0.575394  0.614984  0.126886  1
  O  O38  1  0.882603  0.106751  0.387266  1
  O  O39  1  0.882603  0.893249  0.612734  1
  O  O40  1  0.118063  0.393275  0.886394  1
  O  O41  1  0.118063  0.606725  0.113606  1
  O  O42  1  0.606956  0.000000  0.500000  1
  O  O43  1  0.392051  0.500000  0.000000  1
