# generated using pymatgen
data_Tm3Fe7(P3Ir)2
_symmetry_space_group_name_H-M   'P 1'
_cell_length_a   3.75299200
_cell_length_b   10.68414900
_cell_length_c   12.19407800
_cell_angle_alpha   90.00000000
_cell_angle_beta   90.00000000
_cell_angle_gamma   90.00000000
_symmetry_Int_Tables_number   1
_chemical_formula_structural   Tm3Fe7(P3Ir)2
_chemical_formula_sum   'Tm6 Fe14 P12 Ir4'
_cell_volume   488.95235628
_cell_formula_units_Z   2
loop_
 _symmetry_equiv_pos_site_id
 _symmetry_equiv_pos_as_xyz
  1  'x, y, z'
loop_
 _atom_site_type_symbol
 _atom_site_label
 _atom_site_symmetry_multiplicity
 _atom_site_fract_x
 _atom_site_fract_y
 _atom_site_fract_z
 _atom_site_occupancy
  Tm  Tm0  1  0.000000  0.500000  0.522435  1
  Tm  Tm1  1  0.500000  0.000000  0.477565  1
  Tm  Tm2  1  0.500000  0.816185  0.203661  1
  Tm  Tm3  1  0.500000  0.183815  0.203661  1
  Tm  Tm4  1  0.000000  0.683815  0.796339  1
  Tm  Tm5  1  0.000000  0.316185  0.796339  1
  Fe  Fe6  1  0.000000  0.500000  0.991112  1
  Fe  Fe7  1  0.500000  0.000000  0.008888  1
  Fe  Fe8  1  0.500000  0.331153  0.994712  1
  Fe  Fe9  1  0.500000  0.668847  0.994712  1
  Fe  Fe10  1  0.000000  0.168847  0.005288  1
  Fe  Fe11  1  0.000000  0.831153  0.005288  1
  Fe  Fe12  1  0.500000  0.300491  0.430562  1
  Fe  Fe13  1  0.500000  0.699509  0.430562  1
  Fe  Fe14  1  0.000000  0.199509  0.569438  1
  Fe  Fe15  1  0.000000  0.800491  0.569438  1
  Fe  Fe16  1  0.500000  0.882594  0.711169  1
  Fe  Fe17  1  0.500000  0.117406  0.711169  1
  Fe  Fe18  1  0.000000  0.617406  0.288831  1
  Fe  Fe19  1  0.000000  0.382594  0.288831  1
  P  P20  1  0.500000  0.500000  0.890761  1
  P  P21  1  0.000000  0.000000  0.109239  1
  P  P22  1  0.500000  0.500000  0.347016  1
  P  P23  1  0.000000  0.000000  0.652984  1
  P  P24  1  0.500000  0.296630  0.614564  1
  P  P25  1  0.500000  0.703370  0.614564  1
  P  P26  1  0.000000  0.203370  0.385436  1
  P  P27  1  0.000000  0.796630  0.385436  1
  P  P28  1  0.500000  0.842262  0.895745  1
  P  P29  1  0.500000  0.157738  0.895745  1
  P  P30  1  0.000000  0.657738  0.104255  1
  P  P31  1  0.000000  0.342262  0.104255  1
  Ir  Ir32  1  0.500000  0.500000  0.156309  1
  Ir  Ir33  1  0.000000  0.000000  0.843691  1
  Ir  Ir34  1  0.500000  0.500000  0.697502  1
  Ir  Ir35  1  0.000000  0.000000  0.302498  1
