# generated using pymatgen
data_Nd2Th(Ni3As2)3
_symmetry_space_group_name_H-M   'P 1'
_cell_length_a   4.00429800
_cell_length_b   10.92954900
_cell_length_c   12.90923900
_cell_angle_alpha   90.00000000
_cell_angle_beta   90.00000000
_cell_angle_gamma   90.00000000
_symmetry_Int_Tables_number   1
_chemical_formula_structural   Nd2Th(Ni3As2)3
_chemical_formula_sum   'Nd4 Th2 Ni18 As12'
_cell_volume   564.97505492
_cell_formula_units_Z   2
loop_
 _symmetry_equiv_pos_site_id
 _symmetry_equiv_pos_as_xyz
  1  'x, y, z'
loop_
 _atom_site_type_symbol
 _atom_site_label
 _atom_site_symmetry_multiplicity
 _atom_site_fract_x
 _atom_site_fract_y
 _atom_site_fract_z
 _atom_site_occupancy
  Nd  Nd0  1  0.500000  0.811461  0.206175  1
  Nd  Nd1  1  0.500000  0.188539  0.206175  1
  Nd  Nd2  1  0.000000  0.688539  0.793825  1
  Nd  Nd3  1  0.000000  0.311461  0.793825  1
  Th  Th4  1  0.000000  0.500000  0.520155  1
  Th  Th5  1  0.500000  0.000000  0.479845  1
  Ni  Ni6  1  0.500000  0.500000  0.148624  1
  Ni  Ni7  1  0.000000  0.000000  0.851376  1
  Ni  Ni8  1  0.500000  0.500000  0.693790  1
  Ni  Ni9  1  0.000000  0.000000  0.306210  1
  Ni  Ni10  1  0.000000  0.500000  0.977228  1
  Ni  Ni11  1  0.500000  0.000000  0.022772  1
  Ni  Ni12  1  0.500000  0.333948  0.995074  1
  Ni  Ni13  1  0.500000  0.666052  0.995074  1
  Ni  Ni14  1  0.000000  0.166052  0.004926  1
  Ni  Ni15  1  0.000000  0.833948  0.004926  1
  Ni  Ni16  1  0.500000  0.305714  0.425885  1
  Ni  Ni17  1  0.500000  0.694286  0.425885  1
  Ni  Ni18  1  0.000000  0.194286  0.574115  1
  Ni  Ni19  1  0.000000  0.805714  0.574115  1
  Ni  Ni20  1  0.500000  0.882536  0.711062  1
  Ni  Ni21  1  0.500000  0.117464  0.711062  1
  Ni  Ni22  1  0.000000  0.617464  0.288938  1
  Ni  Ni23  1  0.000000  0.382536  0.288938  1
  As  As24  1  0.500000  0.500000  0.873724  1
  As  As25  1  0.000000  0.000000  0.126276  1
  As  As26  1  0.500000  0.500000  0.334845  1
  As  As27  1  0.000000  0.000000  0.665155  1
  As  As28  1  0.500000  0.307632  0.612402  1
  As  As29  1  0.500000  0.692368  0.612402  1
  As  As30  1  0.000000  0.192368  0.387598  1
  As  As31  1  0.000000  0.807632  0.387598  1
  As  As32  1  0.500000  0.851129  0.895831  1
  As  As33  1  0.500000  0.148871  0.895831  1
  As  As34  1  0.000000  0.648871  0.104169  1
  As  As35  1  0.000000  0.351129  0.104169  1
