# generated using pymatgen
data_Pr12Ga(PI4)3
_symmetry_space_group_name_H-M   'P 1'
_cell_length_a   10.79469059
_cell_length_b   10.79469159
_cell_length_c   10.79469086
_cell_angle_alpha   109.44840380
_cell_angle_beta   109.44840486
_cell_angle_gamma   109.44839577
_symmetry_Int_Tables_number   1
_chemical_formula_structural   Pr12Ga(PI4)3
_chemical_formula_sum   'Pr12 Ga1 P3 I12'
_cell_volume   969.11458843
_cell_formula_units_Z   1
loop_
 _symmetry_equiv_pos_site_id
 _symmetry_equiv_pos_as_xyz
  1  'x, y, z'
loop_
 _atom_site_type_symbol
 _atom_site_label
 _atom_site_symmetry_multiplicity
 _atom_site_fract_x
 _atom_site_fract_y
 _atom_site_fract_z
 _atom_site_occupancy
  Pr  Pr0  1  0.466287  0.486920  0.230631  1
  Pr  Pr1  1  0.750000  0.229587  0.270413  1
  Pr  Pr2  1  0.750000  0.019947  0.480053  1
  Pr  Pr3  1  0.230631  0.466287  0.486920  1
  Pr  Pr4  1  0.270413  0.750000  0.229587  1
  Pr  Pr5  1  0.033713  0.269369  0.013080  1
  Pr  Pr6  1  0.013080  0.033713  0.269369  1
  Pr  Pr7  1  0.480053  0.750000  0.019947  1
  Pr  Pr8  1  0.486920  0.230631  0.466287  1
  Pr  Pr9  1  0.019947  0.480053  0.750000  1
  Pr  Pr10  1  0.269369  0.013080  0.033713  1
  Pr  Pr11  1  0.229587  0.270413  0.750000  1
  Ga  Ga12  1  0.250000  0.250000  0.250000  1
  P  P13  1  0.500611  0.999389  0.250000  1
  P  P14  1  0.999389  0.250000  0.500611  1
  P  P15  1  0.250000  0.500611  0.999389  1
  I  I16  1  0.250000  0.758152  0.741848  1
  I  I17  1  0.516442  0.508817  0.759126  1
  I  I18  1  0.983558  0.740874  0.991183  1
  I  I19  1  0.741848  0.250000  0.758152  1
  I  I20  1  0.991183  0.983558  0.740874  1
  I  I21  1  0.250000  0.991236  0.508764  1
  I  I22  1  0.759126  0.516442  0.508817  1
  I  I23  1  0.508764  0.250000  0.991236  1
  I  I24  1  0.758152  0.741848  0.250000  1
  I  I25  1  0.740874  0.991183  0.983558  1
  I  I26  1  0.991236  0.508764  0.250000  1
  I  I27  1  0.508817  0.759126  0.516442  1
