# generated using pymatgen
data_Ba4Nd7DySe16
_symmetry_space_group_name_H-M   'P 1'
_cell_length_a   4.33362800
_cell_length_b   13.07565128
_cell_length_c   15.57720111
_cell_angle_alpha   89.89775061
_cell_angle_beta   90.00000000
_cell_angle_gamma   90.00000000
_symmetry_Int_Tables_number   1
_chemical_formula_structural   Ba4Nd7DySe16
_chemical_formula_sum   'Ba4 Nd7 Dy1 Se16'
_cell_volume   882.68082799
_cell_formula_units_Z   1
loop_
 _symmetry_equiv_pos_site_id
 _symmetry_equiv_pos_as_xyz
  1  'x, y, z'
loop_
 _atom_site_type_symbol
 _atom_site_label
 _atom_site_symmetry_multiplicity
 _atom_site_fract_x
 _atom_site_fract_y
 _atom_site_fract_z
 _atom_site_occupancy
  Ba  Ba0  1  0.250000  0.758166  0.337418  1
  Ba  Ba1  1  0.250000  0.256783  0.164559  1
  Ba  Ba2  1  0.750000  0.241416  0.661098  1
  Ba  Ba3  1  0.750000  0.742736  0.836759  1
  Nd  Nd4  1  0.250000  0.429567  0.391595  1
  Nd  Nd5  1  0.250000  0.932943  0.110642  1
  Nd  Nd6  1  0.750000  0.568517  0.608478  1
  Nd  Nd7  1  0.750000  0.068654  0.891505  1
  Nd  Nd8  1  0.250000  0.420006  0.899542  1
  Nd  Nd9  1  0.250000  0.921889  0.598943  1
  Nd  Nd10  1  0.750000  0.579614  0.100543  1
  Dy  Dy11  1  0.750000  0.078773  0.399245  1
  Se  Se12  1  0.250000  0.207184  0.827308  1
  Se  Se13  1  0.250000  0.707885  0.671074  1
  Se  Se14  1  0.750000  0.793094  0.172406  1
  Se  Se15  1  0.750000  0.287696  0.330921  1
  Se  Se16  1  0.250000  0.129276  0.520714  1
  Se  Se17  1  0.250000  0.629807  0.973541  1
  Se  Se18  1  0.750000  0.874983  0.470986  1
  Se  Se19  1  0.750000  0.369922  0.026809  1
  Se  Se20  1  0.250000  0.523045  0.217468  1
  Se  Se21  1  0.250000  0.025885  0.287165  1
  Se  Se22  1  0.750000  0.476002  0.782778  1
  Se  Se23  1  0.750000  0.976531  0.716468  1
  Se  Se24  1  0.250000  0.415043  0.579491  1
  Se  Se25  1  0.250000  0.915477  0.921976  1
  Se  Se26  1  0.750000  0.584048  0.420579  1
  Se  Se27  1  0.750000  0.085058  0.079989  1
