# generated using pymatgen
data_Er4In2HgAu3
_symmetry_space_group_name_H-M   'P 1'
_cell_length_a   8.03595998
_cell_length_b   8.03595998
_cell_length_c   3.70283500
_cell_angle_alpha   90.00000000
_cell_angle_beta   90.00000000
_cell_angle_gamma   89.75095158
_symmetry_Int_Tables_number   1
_chemical_formula_structural   Er4In2HgAu3
_chemical_formula_sum   'Er4 In2 Hg1 Au3'
_cell_volume   239.11443118
_cell_formula_units_Z   1
loop_
 _symmetry_equiv_pos_site_id
 _symmetry_equiv_pos_as_xyz
  1  'x, y, z'
loop_
 _atom_site_type_symbol
 _atom_site_label
 _atom_site_symmetry_multiplicity
 _atom_site_fract_x
 _atom_site_fract_y
 _atom_site_fract_z
 _atom_site_occupancy
  Er  Er0  1  0.672121  0.172121  0.500000  1
  Er  Er1  1  0.342015  0.842015  0.500000  1
  Er  Er2  1  0.162023  0.316689  0.500000  1
  Er  Er3  1  0.816689  0.662023  0.500000  1
  In  In4  1  0.499482  0.498299  0.000000  1
  In  In5  1  0.998299  0.999482  0.000000  1
  Hg  Hg6  1  0.130429  0.630429  0.000000  1
  Au  Au7  1  0.871283  0.371283  0.000000  1
  Au  Au8  1  0.632981  0.874679  0.000000  1
  Au  Au9  1  0.374679  0.132981  0.000000  1
