# generated using pymatgen
data_ErMgMn3Ni9P7
_symmetry_space_group_name_H-M   'P 1'
_cell_length_a   9.09966100
_cell_length_b   9.09966297
_cell_length_c   3.60397500
_cell_angle_alpha   90.00000000
_cell_angle_beta   90.00000000
_cell_angle_gamma   120.00000375
_symmetry_Int_Tables_number   1
_chemical_formula_structural   ErMgMn3Ni9P7
_chemical_formula_sum   'Er1 Mg1 Mn3 Ni9 P7'
_cell_volume   258.44188841
_cell_formula_units_Z   1
loop_
 _symmetry_equiv_pos_site_id
 _symmetry_equiv_pos_as_xyz
  1  'x, y, z'
loop_
 _atom_site_type_symbol
 _atom_site_label
 _atom_site_symmetry_multiplicity
 _atom_site_fract_x
 _atom_site_fract_y
 _atom_site_fract_z
 _atom_site_occupancy
  Er  Er0  1  0.333333  0.666667  0.000000  1
  Mg  Mg1  1  0.000000  0.000000  0.500000  1
  Mn  Mn2  1  0.790756  0.234797  0.500000  1
  Mn  Mn3  1  0.765203  0.555959  0.500000  1
  Mn  Mn4  1  0.444041  0.209244  0.500000  1
  Ni  Ni5  1  0.040178  0.267428  0.000000  1
  Ni  Ni6  1  0.732572  0.772750  0.000000  1
  Ni  Ni7  1  0.227250  0.959822  0.000000  1
  Ni  Ni8  1  0.543665  0.054927  0.000000  1
  Ni  Ni9  1  0.945073  0.488738  0.000000  1
  Ni  Ni10  1  0.511262  0.456335  0.000000  1
  Ni  Ni11  1  0.615733  0.897797  0.500000  1
  Ni  Ni12  1  0.102203  0.717936  0.500000  1
  Ni  Ni13  1  0.282064  0.384267  0.500000  1
  P  P14  1  0.784692  0.040047  0.000000  1
  P  P15  1  0.959953  0.744645  0.000000  1
  P  P16  1  0.255355  0.215308  0.000000  1
  P  P17  1  0.374779  0.926158  0.500000  1
  P  P18  1  0.073842  0.448623  0.500000  1
  P  P19  1  0.551377  0.625221  0.500000  1
  P  P20  1  0.666667  0.333333  0.000000  1
