# generated using pymatgen
data_Ho3ErCo18(P6Os)2
_symmetry_space_group_name_H-M   'P 1'
_cell_length_a   3.67810400
_cell_length_b   10.32796801
_cell_length_c   11.73281601
_cell_angle_alpha   89.99486611
_cell_angle_beta   90.00000000
_cell_angle_gamma   90.00000000
_symmetry_Int_Tables_number   1
_chemical_formula_structural   Ho3ErCo18(P6Os)2
_chemical_formula_sum   'Ho3 Er1 Co18 P12 Os2'
_cell_volume   445.69847450
_cell_formula_units_Z   1
loop_
 _symmetry_equiv_pos_site_id
 _symmetry_equiv_pos_as_xyz
  1  'x, y, z'
loop_
 _atom_site_type_symbol
 _atom_site_label
 _atom_site_symmetry_multiplicity
 _atom_site_fract_x
 _atom_site_fract_y
 _atom_site_fract_z
 _atom_site_occupancy
  Ho  Ho0  1  0.250000  0.582257  0.701898  1
  Ho  Ho1  1  0.250000  0.917716  0.201777  1
  Ho  Ho2  1  0.750000  0.087094  0.795147  1
  Er  Er3  1  0.750000  0.412966  0.295385  1
  Co  Co4  1  0.750000  0.283703  0.008743  1
  Co  Co5  1  0.750000  0.216363  0.508674  1
  Co  Co6  1  0.250000  0.405654  0.487433  1
  Co  Co7  1  0.250000  0.094267  0.987812  1
  Co  Co8  1  0.750000  0.591060  0.509893  1
  Co  Co9  1  0.750000  0.908773  0.009973  1
  Co  Co10  1  0.250000  0.220442  0.177134  1
  Co  Co11  1  0.250000  0.279940  0.676955  1
  Co  Co12  1  0.750000  0.777614  0.822793  1
  Co  Co13  1  0.750000  0.722271  0.322736  1
  Co  Co14  1  0.250000  0.887684  0.701928  1
  Co  Co15  1  0.250000  0.611967  0.202271  1
  Co  Co16  1  0.750000  0.115630  0.300884  1
  Co  Co17  1  0.750000  0.384688  0.801027  1
  Co  Co18  1  0.250000  0.465577  0.932973  1
  Co  Co19  1  0.250000  0.034545  0.432547  1
  Co  Co20  1  0.750000  0.533303  0.069302  1
  Co  Co21  1  0.750000  0.966530  0.568800  1
  P  P22  1  0.250000  0.416197  0.112864  1
  P  P23  1  0.250000  0.083922  0.612235  1
  P  P24  1  0.750000  0.578839  0.886786  1
  P  P25  1  0.750000  0.921151  0.386446  1
  P  P26  1  0.250000  0.270921  0.869508  1
  P  P27  1  0.250000  0.229508  0.369282  1
  P  P28  1  0.750000  0.729493  0.132507  1
  P  P29  1  0.750000  0.770449  0.632443  1
  P  P30  1  0.250000  0.593010  0.390027  1
  P  P31  1  0.250000  0.906619  0.890116  1
  P  P32  1  0.750000  0.397227  0.608696  1
  P  P33  1  0.750000  0.102804  0.108643  1
  Os  Os34  1  0.250000  0.715772  0.992288  1
  Os  Os35  1  0.250000  0.784044  0.492073  1
