# generated using pymatgen
data_Hf6SnSbPt
_symmetry_space_group_name_H-M   'P 1'
_cell_length_a   7.89079500
_cell_length_b   7.89079358
_cell_length_c   3.58945000
_cell_angle_alpha   90.00000000
_cell_angle_beta   90.00000000
_cell_angle_gamma   120.00001014
_symmetry_Int_Tables_number   1
_chemical_formula_structural   Hf6SnSbPt
_chemical_formula_sum   'Hf6 Sn1 Sb1 Pt1'
_cell_volume   193.55301414
_cell_formula_units_Z   1
loop_
 _symmetry_equiv_pos_site_id
 _symmetry_equiv_pos_as_xyz
  1  'x, y, z'
loop_
 _atom_site_type_symbol
 _atom_site_label
 _atom_site_symmetry_multiplicity
 _atom_site_fract_x
 _atom_site_fract_y
 _atom_site_fract_z
 _atom_site_occupancy
  Hf  Hf0  1  0.253445  0.999210  0.500000  1
  Hf  Hf1  1  0.000790  0.254235  0.500000  1
  Hf  Hf2  1  0.745765  0.746555  0.500000  1
  Hf  Hf3  1  0.603482  0.004084  0.000000  1
  Hf  Hf4  1  0.995916  0.599398  0.000000  1
  Hf  Hf5  1  0.400602  0.396518  0.000000  1
  Sn  Sn6  1  0.333333  0.666667  0.500000  1
  Sb  Sb7  1  0.666667  0.333333  0.500000  1
  Pt  Pt8  1  0.000000  0.000000  0.000000  1
