# generated using pymatgen
data_Cs2AlGa(SiSe4)2
_symmetry_space_group_name_H-M   'P 1'
_cell_length_a   17.08377700
_cell_length_b   7.30126826
_cell_length_c   8.21717417
_cell_angle_alpha   70.41980826
_cell_angle_beta   90.00000000
_cell_angle_gamma   90.00000000
_symmetry_Int_Tables_number   1
_chemical_formula_structural   Cs2AlGa(SiSe4)2
_chemical_formula_sum   'Cs4 Al2 Ga2 Si4 Se16'
_cell_volume   965.68506755
_cell_formula_units_Z   2
loop_
 _symmetry_equiv_pos_site_id
 _symmetry_equiv_pos_as_xyz
  1  'x, y, z'
loop_
 _atom_site_type_symbol
 _atom_site_label
 _atom_site_symmetry_multiplicity
 _atom_site_fract_x
 _atom_site_fract_y
 _atom_site_fract_z
 _atom_site_occupancy
  Cs  Cs0  1  0.396560  0.952552  0.181198  1
  Cs  Cs1  1  0.896560  0.047448  0.818802  1
  Cs  Cs2  1  0.602816  0.528294  0.832991  1
  Cs  Cs3  1  0.102816  0.471706  0.167009  1
  Al  Al4  1  0.582661  0.167437  0.478457  1
  Al  Al5  1  0.082661  0.832563  0.521543  1
  Ga  Ga6  1  0.270910  0.588960  0.698081  1
  Ga  Ga7  1  0.770910  0.411040  0.301919  1
  Si  Si8  1  0.421270  0.316077  0.541053  1
  Si  Si9  1  0.921270  0.683923  0.458947  1
  Si  Si10  1  0.726676  0.915248  0.280150  1
  Si  Si11  1  0.226676  0.084752  0.719850  1
  Se  Se12  1  0.600346  0.892659  0.379734  1
  Se  Se13  1  0.100346  0.107341  0.620266  1
  Se  Se14  1  0.409944  0.583616  0.625626  1
  Se  Se15  1  0.909944  0.416384  0.374374  1
  Se  Se16  1  0.801976  0.790402  0.529824  1
  Se  Se17  1  0.301976  0.209598  0.470176  1
  Se  Se18  1  0.199537  0.719660  0.434062  1
  Se  Se19  1  0.699537  0.280340  0.565938  1
  Se  Se20  1  0.764449  0.219847  0.105739  1
  Se  Se21  1  0.264449  0.780153  0.894261  1
  Se  Se22  1  0.235607  0.265122  0.899711  1
  Se  Se23  1  0.735607  0.734878  0.100289  1
  Se  Se24  1  0.996975  0.920246  0.268471  1
  Se  Se25  1  0.496975  0.079754  0.731529  1
  Se  Se26  1  0.990271  0.605736  0.714090  1
  Se  Se27  1  0.490271  0.394264  0.285910  1
