# generated using pymatgen
data_PrTh3(CoB4)4
_symmetry_space_group_name_H-M   'P 1'
_cell_length_a   6.93791665
_cell_length_b   6.93791631
_cell_length_c   6.93791624
_cell_angle_alpha   112.46948266
_cell_angle_beta   112.46948522
_cell_angle_gamma   103.62801104
_symmetry_Int_Tables_number   1
_chemical_formula_structural   PrTh3(CoB4)4
_chemical_formula_sum   'Pr1 Th3 Co4 B16'
_cell_volume   255.10068830
_cell_formula_units_Z   1
loop_
 _symmetry_equiv_pos_site_id
 _symmetry_equiv_pos_as_xyz
  1  'x, y, z'
loop_
 _atom_site_type_symbol
 _atom_site_label
 _atom_site_symmetry_multiplicity
 _atom_site_fract_x
 _atom_site_fract_y
 _atom_site_fract_z
 _atom_site_occupancy
  Pr  Pr0  1  0.250000  0.750000  0.500000  1
  Th  Th1  1  0.213360  0.213360  0.000000  1
  Th  Th2  1  0.786640  0.786640  0.000000  1
  Th  Th3  1  0.750000  0.250000  0.500000  1
  Co  Co4  1  0.501461  0.272383  0.770921  1
  Co  Co5  1  0.501461  0.730540  0.229079  1
  Co  Co6  1  0.727617  0.498539  0.229079  1
  Co  Co7  1  0.269460  0.498539  0.770921  1
  B  B8  1  0.111868  0.275683  0.388060  1
  B  B9  1  0.887623  0.723808  0.611940  1
  B  B10  1  0.887623  0.275683  0.163816  1
  B  B11  1  0.111868  0.723808  0.836184  1
  B  B12  1  0.724317  0.888132  0.611940  1
  B  B13  1  0.276192  0.112377  0.388060  1
  B  B14  1  0.724317  0.112377  0.836184  1
  B  B15  1  0.276192  0.888132  0.163816  1
  B  B16  1  0.418250  0.417947  0.536275  1
  B  B17  1  0.881673  0.881975  0.463725  1
  B  B18  1  0.582053  0.118327  0.000302  1
  B  B19  1  0.118025  0.581750  0.999698  1
  B  B20  1  0.582053  0.581750  0.463725  1
  B  B21  1  0.118025  0.118327  0.536275  1
  B  B22  1  0.881673  0.417947  0.999698  1
  B  B23  1  0.418250  0.881975  0.000302  1
