# generated using pymatgen
data_Er3Lu17(ZnBi5)2
_symmetry_space_group_name_H-M   'P 1'
_cell_length_a   8.05779745
_cell_length_b   9.32104300
_cell_length_c   11.77266030
_cell_angle_alpha   90.00000000
_cell_angle_beta   90.00627900
_cell_angle_gamma   90.00000000
_symmetry_Int_Tables_number   1
_chemical_formula_structural   Er3Lu17(ZnBi5)2
_chemical_formula_sum   'Er3 Lu17 Zn2 Bi10'
_cell_volume   884.21009304
_cell_formula_units_Z   1
loop_
 _symmetry_equiv_pos_site_id
 _symmetry_equiv_pos_as_xyz
  1  'x, y, z'
loop_
 _atom_site_type_symbol
 _atom_site_label
 _atom_site_symmetry_multiplicity
 _atom_site_fract_x
 _atom_site_fract_y
 _atom_site_fract_z
 _atom_site_occupancy
  Er  Er0  1  0.822367  0.250000  0.288097  1
  Er  Er1  1  0.688750  0.750000  0.782965  1
  Er  Er2  1  0.188628  0.750000  0.717066  1
  Lu  Lu3  1  0.346418  0.750000  0.218426  1
  Lu  Lu4  1  0.845824  0.750000  0.281426  1
  Lu  Lu5  1  0.647156  0.250000  0.795774  1
  Lu  Lu6  1  0.146372  0.250000  0.704412  1
  Lu  Lu7  1  0.690458  0.548235  0.058243  1
  Lu  Lu8  1  0.190007  0.952375  0.441568  1
  Lu  Lu9  1  0.316552  0.073239  0.943844  1
  Lu  Lu10  1  0.816136  0.426940  0.556619  1
  Lu  Lu11  1  0.316552  0.426761  0.943844  1
  Lu  Lu12  1  0.816136  0.073060  0.556619  1
  Lu  Lu13  1  0.690458  0.951765  0.058243  1
  Lu  Lu14  1  0.190007  0.547625  0.441568  1
  Lu  Lu15  1  0.463771  0.250000  0.490338  1
  Lu  Lu16  1  0.964406  0.250000  0.009733  1
  Lu  Lu17  1  0.517354  0.750000  0.508822  1
  Lu  Lu18  1  0.017890  0.750000  0.991268  1
  Lu  Lu19  1  0.321344  0.250000  0.211539  1
  Zn  Zn20  1  0.593645  0.250000  0.041235  1
  Zn  Zn21  1  0.095264  0.250000  0.458922  1
  Bi  Bi22  1  0.402133  0.750000  0.959279  1
  Bi  Bi23  1  0.902166  0.750000  0.540629  1
  Bi  Bi24  1  0.560643  0.998668  0.322026  1
  Bi  Bi25  1  0.062162  0.501617  0.177577  1
  Bi  Bi26  1  0.441181  0.496454  0.675928  1
  Bi  Bi27  1  0.941120  0.003500  0.824230  1
  Bi  Bi28  1  0.441181  0.003546  0.675928  1
  Bi  Bi29  1  0.941120  0.496500  0.824230  1
  Bi  Bi30  1  0.560643  0.501332  0.322026  1
  Bi  Bi31  1  0.062162  0.998383  0.177577  1
