# generated using pymatgen
data_Ca2TbHoPd4
_symmetry_space_group_name_H-M   'P 1'
_cell_length_a   4.46551700
_cell_length_b   5.68096259
_cell_length_c   7.31922251
_cell_angle_alpha   90.13925541
_cell_angle_beta   90.00000000
_cell_angle_gamma   90.00000000
_symmetry_Int_Tables_number   1
_chemical_formula_structural   Ca2TbHoPd4
_chemical_formula_sum   'Ca2 Tb1 Ho1 Pd4'
_cell_volume   185.67667218
_cell_formula_units_Z   1
loop_
 _symmetry_equiv_pos_site_id
 _symmetry_equiv_pos_as_xyz
  1  'x, y, z'
loop_
 _atom_site_type_symbol
 _atom_site_label
 _atom_site_symmetry_multiplicity
 _atom_site_fract_x
 _atom_site_fract_y
 _atom_site_fract_z
 _atom_site_occupancy
  Ca  Ca0  1  0.250000  0.139953  0.183985  1
  Ca  Ca1  1  0.750000  0.639050  0.316815  1
  Tb  Tb2  1  0.750000  0.861163  0.815503  1
  Ho  Ho3  1  0.250000  0.359749  0.684793  1
  Pd  Pd4  1  0.250000  0.849979  0.557455  1
  Pd  Pd5  1  0.250000  0.649269  0.020125  1
  Pd  Pd6  1  0.750000  0.149615  0.477751  1
  Pd  Pd7  1  0.750000  0.351222  0.943573  1
