# generated using pymatgen
data_Tb8Pr5NdHo2(CdPt)4
_symmetry_space_group_name_H-M   'P 1'
_cell_length_a   9.83136043
_cell_length_b   9.83136112
_cell_length_c   9.81441400
_cell_angle_alpha   60.05700588
_cell_angle_beta   60.05700355
_cell_angle_gamma   60.11225552
_symmetry_Int_Tables_number   1
_chemical_formula_structural   Tb8Pr5NdHo2(CdPt)4
_chemical_formula_sum   'Tb8 Pr5 Nd1 Ho2 Cd4 Pt4'
_cell_volume   671.92071262
_cell_formula_units_Z   1
loop_
 _symmetry_equiv_pos_site_id
 _symmetry_equiv_pos_as_xyz
  1  'x, y, z'
loop_
 _atom_site_type_symbol
 _atom_site_label
 _atom_site_symmetry_multiplicity
 _atom_site_fract_x
 _atom_site_fract_y
 _atom_site_fract_z
 _atom_site_occupancy
  Tb  Tb0  1  0.350244  0.350244  0.350528  1
  Tb  Tb1  1  0.350244  0.350244  0.948982  1
  Tb  Tb2  1  0.351180  0.947630  0.350595  1
  Tb  Tb3  1  0.947630  0.351180  0.350595  1
  Tb  Tb4  1  0.812552  0.187302  0.188316  1
  Tb  Tb5  1  0.187302  0.812552  0.811829  1
  Tb  Tb6  1  0.187302  0.812552  0.188316  1
  Tb  Tb7  1  0.812552  0.187302  0.811829  1
  Pr  Pr8  1  0.938816  0.561673  0.562009  1
  Pr  Pr9  1  0.561673  0.938816  0.937502  1
  Pr  Pr10  1  0.561673  0.938816  0.562009  1
  Pr  Pr11  1  0.938816  0.561673  0.937502  1
  Pr  Pr12  1  0.561474  0.561474  0.938526  1
  Nd  Nd13  1  0.938726  0.938726  0.561274  1
  Ho  Ho14  1  0.187879  0.187879  0.812121  1
  Ho  Ho15  1  0.811991  0.811991  0.188009  1
  Cd  Cd16  1  0.579583  0.579583  0.579405  1
  Cd  Cd17  1  0.579583  0.579583  0.261433  1
  Cd  Cd18  1  0.580065  0.260722  0.579608  1
  Cd  Cd19  1  0.260722  0.580065  0.579608  1
  Pt  Pt20  1  0.143005  0.143005  0.142608  1
  Pt  Pt21  1  0.143005  0.143005  0.571382  1
  Pt  Pt22  1  0.141806  0.572179  0.143009  1
  Pt  Pt23  1  0.572179  0.141806  0.143009  1
