# generated using pymatgen
data_Ho5TmFe3(Co5P4)3
_symmetry_space_group_name_H-M   'P 1'
_cell_length_a   3.68348900
_cell_length_b   10.52529105
_cell_length_c   12.11527205
_cell_angle_alpha   90.01065914
_cell_angle_beta   90.00000000
_cell_angle_gamma   90.00000000
_symmetry_Int_Tables_number   1
_chemical_formula_structural   Ho5TmFe3(Co5P4)3
_chemical_formula_sum   'Ho5 Tm1 Fe3 Co15 P12'
_cell_volume   469.70659103
_cell_formula_units_Z   1
loop_
 _symmetry_equiv_pos_site_id
 _symmetry_equiv_pos_as_xyz
  1  'x, y, z'
loop_
 _atom_site_type_symbol
 _atom_site_label
 _atom_site_symmetry_multiplicity
 _atom_site_fract_x
 _atom_site_fract_y
 _atom_site_fract_z
 _atom_site_occupancy
  Ho  Ho0  1  0.000000  0.500101  0.522273  1
  Ho  Ho1  1  0.500000  0.999884  0.477485  1
  Ho  Ho2  1  0.500000  0.182301  0.204872  1
  Ho  Ho3  1  0.000000  0.680941  0.795742  1
  Ho  Ho4  1  0.000000  0.319074  0.795836  1
  Tm  Tm5  1  0.500000  0.817606  0.204926  1
  Fe  Fe6  1  0.000000  0.500105  0.988471  1
  Fe  Fe7  1  0.500000  0.500024  0.155823  1
  Fe  Fe8  1  0.000000  0.000001  0.842565  1
  Co  Co9  1  0.500000  0.999848  0.013963  1
  Co  Co10  1  0.500000  0.297158  0.430553  1
  Co  Co11  1  0.500000  0.702926  0.430369  1
  Co  Co12  1  0.000000  0.203341  0.569531  1
  Co  Co13  1  0.000000  0.796615  0.569443  1
  Co  Co14  1  0.500000  0.878869  0.708733  1
  Co  Co15  1  0.500000  0.121103  0.708750  1
  Co  Co16  1  0.000000  0.621551  0.290535  1
  Co  Co17  1  0.000000  0.378911  0.290720  1
  Co  Co18  1  0.500000  0.331094  0.994157  1
  Co  Co19  1  0.500000  0.669047  0.994349  1
  Co  Co20  1  0.000000  0.166253  0.005876  1
  Co  Co21  1  0.000000  0.833631  0.006161  1
  Co  Co22  1  0.500000  0.500024  0.701298  1
  Co  Co23  1  0.000000  0.999549  0.298396  1
  P  P24  1  0.500000  0.310583  0.616431  1
  P  P25  1  0.500000  0.689461  0.616382  1
  P  P26  1  0.000000  0.189752  0.383602  1
  P  P27  1  0.000000  0.810292  0.383126  1
  P  P28  1  0.500000  0.500010  0.884196  1
  P  P29  1  0.000000  0.999599  0.118186  1
  P  P30  1  0.500000  0.847612  0.892340  1
  P  P31  1  0.500000  0.152373  0.892423  1
  P  P32  1  0.000000  0.653071  0.106977  1
  P  P33  1  0.000000  0.347347  0.106667  1
  P  P34  1  0.500000  0.499939  0.342147  1
  P  P35  1  0.000000  0.000003  0.656697  1
