# generated using pymatgen
data_RbMnN2
_symmetry_space_group_name_H-M   'P 1'
_cell_length_a   5.68965900
_cell_length_b   8.04203000
_cell_length_c   11.37776400
_cell_angle_alpha   90.00000000
_cell_angle_beta   90.00000000
_cell_angle_gamma   90.00000000
_symmetry_Int_Tables_number   1
_chemical_formula_structural   RbMnN2
_chemical_formula_sum   'Rb8 Mn8 N16'
_cell_volume   520.60561590
_cell_formula_units_Z   8
loop_
 _symmetry_equiv_pos_site_id
 _symmetry_equiv_pos_as_xyz
  1  'x, y, z'
loop_
 _atom_site_type_symbol
 _atom_site_label
 _atom_site_symmetry_multiplicity
 _atom_site_fract_x
 _atom_site_fract_y
 _atom_site_fract_z
 _atom_site_occupancy
  Rb  Rb0  1  0.750000  0.126007  0.000000  1
  Rb  Rb1  1  0.250000  0.873993  0.500000  1
  Rb  Rb2  1  0.250000  0.873993  0.000000  1
  Rb  Rb3  1  0.750000  0.126007  0.500000  1
  Rb  Rb4  1  0.714068  0.375544  0.250000  1
  Rb  Rb5  1  0.214068  0.624456  0.250000  1
  Rb  Rb6  1  0.285932  0.624456  0.750000  1
  Rb  Rb7  1  0.785932  0.375544  0.750000  1
  Mn  Mn8  1  0.250000  0.374616  0.000000  1
  Mn  Mn9  1  0.750000  0.625384  0.500000  1
  Mn  Mn10  1  0.750000  0.625384  0.000000  1
  Mn  Mn11  1  0.250000  0.374616  0.500000  1
  Mn  Mn12  1  0.227537  0.124234  0.250000  1
  Mn  Mn13  1  0.727537  0.875766  0.250000  1
  Mn  Mn14  1  0.772463  0.875766  0.750000  1
  Mn  Mn15  1  0.272463  0.124234  0.750000  1
  N  N16  1  0.961268  0.016523  0.250000  1
  N  N17  1  0.461268  0.983477  0.250000  1
  N  N18  1  0.038732  0.983477  0.750000  1
  N  N19  1  0.538732  0.016523  0.750000  1
  N  N20  1  0.247310  0.248916  0.375028  1
  N  N21  1  0.747310  0.751084  0.124972  1
  N  N22  1  0.752690  0.751084  0.875028  1
  N  N23  1  0.252690  0.248916  0.624972  1
  N  N24  1  0.752690  0.751084  0.624972  1
  N  N25  1  0.252690  0.248916  0.875028  1
  N  N26  1  0.247310  0.248916  0.124972  1
  N  N27  1  0.747310  0.751084  0.375028  1
  N  N28  1  0.500000  0.500000  0.500000  1
  N  N29  1  0.000000  0.500000  0.000000  1
  N  N30  1  0.500000  0.500000  0.000000  1
  N  N31  1  0.000000  0.500000  0.500000  1
