# generated using pymatgen
data_Nd3(Ga3Pt2)2
_symmetry_space_group_name_H-M   'P 1'
_cell_length_a   4.46641500
_cell_length_b   8.94568400
_cell_length_c   26.27278600
_cell_angle_alpha   90.00000000
_cell_angle_beta   90.00000000
_cell_angle_gamma   90.00000000
_symmetry_Int_Tables_number   1
_chemical_formula_structural   Nd3(Ga3Pt2)2
_chemical_formula_sum   'Nd12 Ga24 Pt16'
_cell_volume   1049.73276933
_cell_formula_units_Z   4
loop_
 _symmetry_equiv_pos_site_id
 _symmetry_equiv_pos_as_xyz
  1  'x, y, z'
loop_
 _atom_site_type_symbol
 _atom_site_label
 _atom_site_symmetry_multiplicity
 _atom_site_fract_x
 _atom_site_fract_y
 _atom_site_fract_z
 _atom_site_occupancy
  Nd  Nd0  1  0.250000  0.373450  0.278575  1
  Nd  Nd1  1  0.750000  0.626550  0.721425  1
  Nd  Nd2  1  0.750000  0.873450  0.221425  1
  Nd  Nd3  1  0.250000  0.126550  0.778575  1
  Nd  Nd4  1  0.250000  0.126786  0.407903  1
  Nd  Nd5  1  0.750000  0.873214  0.592097  1
  Nd  Nd6  1  0.750000  0.626786  0.092097  1
  Nd  Nd7  1  0.250000  0.373214  0.907903  1
  Nd  Nd8  1  0.250000  0.624010  0.405680  1
  Nd  Nd9  1  0.750000  0.375990  0.594320  1
  Nd  Nd10  1  0.750000  0.124010  0.094320  1
  Nd  Nd11  1  0.250000  0.875990  0.905680  1
  Ga  Ga12  1  0.250000  0.727140  0.286506  1
  Ga  Ga13  1  0.750000  0.272860  0.713494  1
  Ga  Ga14  1  0.750000  0.227140  0.213494  1
  Ga  Ga15  1  0.250000  0.772860  0.786506  1
  Ga  Ga16  1  0.250000  0.375853  0.147174  1
  Ga  Ga17  1  0.750000  0.624147  0.852826  1
  Ga  Ga18  1  0.750000  0.875853  0.352826  1
  Ga  Ga19  1  0.250000  0.124147  0.647174  1
  Ga  Ga20  1  0.250000  0.019920  0.287101  1
  Ga  Ga21  1  0.750000  0.980080  0.712899  1
  Ga  Ga22  1  0.750000  0.519920  0.212899  1
  Ga  Ga23  1  0.250000  0.480080  0.787101  1
  Ga  Ga24  1  0.250000  0.873817  0.137114  1
  Ga  Ga25  1  0.750000  0.126183  0.862886  1
  Ga  Ga26  1  0.750000  0.373817  0.362886  1
  Ga  Ga27  1  0.250000  0.626183  0.637114  1
  Ga  Ga28  1  0.250000  0.129792  0.002658  1
  Ga  Ga29  1  0.750000  0.870208  0.997342  1
  Ga  Ga30  1  0.750000  0.629792  0.497342  1
  Ga  Ga31  1  0.250000  0.370208  0.502658  1
  Ga  Ga32  1  0.250000  0.880241  0.498227  1
  Ga  Ga33  1  0.750000  0.119759  0.501773  1
  Ga  Ga34  1  0.750000  0.380241  0.001773  1
  Ga  Ga35  1  0.250000  0.619759  0.998227  1
  Pt  Pt36  1  0.250000  0.635005  0.188156  1
  Pt  Pt37  1  0.750000  0.364995  0.811844  1
  Pt  Pt38  1  0.750000  0.135005  0.311844  1
  Pt  Pt39  1  0.250000  0.864995  0.688156  1
  Pt  Pt40  1  0.250000  0.628614  0.544509  1
  Pt  Pt41  1  0.750000  0.371386  0.455491  1
  Pt  Pt42  1  0.750000  0.128614  0.955491  1
  Pt  Pt43  1  0.250000  0.871386  0.044509  1
  Pt  Pt44  1  0.250000  0.114702  0.187303  1
  Pt  Pt45  1  0.750000  0.885298  0.812697  1
  Pt  Pt46  1  0.750000  0.614702  0.312697  1
  Pt  Pt47  1  0.250000  0.385298  0.687303  1
  Pt  Pt48  1  0.250000  0.378184  0.052327  1
  Pt  Pt49  1  0.750000  0.621816  0.947673  1
  Pt  Pt50  1  0.750000  0.878184  0.447673  1
  Pt  Pt51  1  0.250000  0.121816  0.552327  1
