# generated using pymatgen
data_Tb4H9Pt2O3
_symmetry_space_group_name_H-M   'P 1'
_cell_length_a   7.05655309
_cell_length_b   7.05655283
_cell_length_c   5.41350100
_cell_angle_alpha   90.04404837
_cell_angle_beta   89.95595163
_cell_angle_gamma   134.83033353
_symmetry_Int_Tables_number   1
_chemical_formula_structural   Tb4H9Pt2O3
_chemical_formula_sum   'Tb4 H9 Pt2 O3'
_cell_volume   191.17475038
_cell_formula_units_Z   1
loop_
 _symmetry_equiv_pos_site_id
 _symmetry_equiv_pos_as_xyz
  1  'x, y, z'
loop_
 _atom_site_type_symbol
 _atom_site_label
 _atom_site_symmetry_multiplicity
 _atom_site_fract_x
 _atom_site_fract_y
 _atom_site_fract_z
 _atom_site_occupancy
  Tb  Tb0  1  0.337402  0.648593  0.992326  1
  Tb  Tb1  1  0.852942  0.164484  0.507960  1
  Tb  Tb2  1  0.664484  0.352942  0.992040  1
  Tb  Tb3  1  0.148593  0.837402  0.507674  1
  H  H4  1  0.500872  0.000872  0.250000  1
  H  H5  1  0.169810  0.918591  0.021167  1
  H  H6  1  0.582091  0.330773  0.481959  1
  H  H7  1  0.830773  0.082091  0.018041  1
  H  H8  1  0.418591  0.669810  0.478833  1
  H  H9  1  0.762054  0.744320  0.236378  1
  H  H10  1  0.233563  0.249761  0.767284  1
  H  H11  1  0.749761  0.733563  0.732716  1
  H  H12  1  0.244320  0.262054  0.263622  1
  Pt  Pt13  1  0.001997  0.002043  0.008450  1
  Pt  Pt14  1  0.502043  0.501997  0.491550  1
  O  O15  1  0.000572  0.500572  0.250000  1
  O  O16  1  0.499710  0.999710  0.750000  1
  O  O17  1  0.000420  0.500420  0.750000  1
