# generated using pymatgen
data_LiCrNiF6
_symmetry_space_group_name_H-M   'P 1'
_cell_length_a   4.69899300
_cell_length_b   4.69899300
_cell_length_c   9.14280200
_cell_angle_alpha   90.00000000
_cell_angle_beta   90.00000000
_cell_angle_gamma   90.00000000
_symmetry_Int_Tables_number   1
_chemical_formula_structural   LiCrNiF6
_chemical_formula_sum   'Li2 Cr2 Ni2 F12'
_cell_volume   201.87796152
_cell_formula_units_Z   2
loop_
 _symmetry_equiv_pos_site_id
 _symmetry_equiv_pos_as_xyz
  1  'x, y, z'
loop_
 _atom_site_type_symbol
 _atom_site_label
 _atom_site_symmetry_multiplicity
 _atom_site_fract_x
 _atom_site_fract_y
 _atom_site_fract_z
 _atom_site_occupancy
  Li  Li0  1  0.500000  0.500000  0.165532  1
  Li  Li1  1  0.000000  0.000000  0.665532  1
  Cr  Cr2  1  0.500000  0.500000  0.499207  1
  Cr  Cr3  1  0.000000  0.000000  0.999207  1
  Ni  Ni4  1  0.500000  0.500000  0.835328  1
  Ni  Ni5  1  0.000000  0.000000  0.335327  1
  F  F6  1  0.192660  0.807340  0.160884  1
  F  F7  1  0.807340  0.192660  0.160884  1
  F  F8  1  0.307340  0.307340  0.660884  1
  F  F9  1  0.692660  0.692660  0.660884  1
  F  F10  1  0.804750  0.195250  0.839827  1
  F  F11  1  0.195250  0.804750  0.839827  1
  F  F12  1  0.695250  0.695250  0.339827  1
  F  F13  1  0.304750  0.304750  0.339827  1
  F  F14  1  0.205610  0.794390  0.499255  1
  F  F15  1  0.794390  0.205610  0.499255  1
  F  F16  1  0.294390  0.294390  0.999255  1
  F  F17  1  0.705610  0.705610  0.999255  1
