# generated using pymatgen
data_Dy4HoHf5(Si5Ir2)4
_symmetry_space_group_name_H-M   'P 1'
_cell_length_a   12.48062800
_cell_length_b   12.48062800
_cell_length_c   4.16234800
_cell_angle_alpha   90.00000000
_cell_angle_beta   90.00000000
_cell_angle_gamma   90.00000000
_symmetry_Int_Tables_number   1
_chemical_formula_structural   Dy4HoHf5(Si5Ir2)4
_chemical_formula_sum   'Dy4 Ho1 Hf5 Si20 Ir8'
_cell_volume   648.35261189
_cell_formula_units_Z   1
loop_
 _symmetry_equiv_pos_site_id
 _symmetry_equiv_pos_as_xyz
  1  'x, y, z'
loop_
 _atom_site_type_symbol
 _atom_site_label
 _atom_site_symmetry_multiplicity
 _atom_site_fract_x
 _atom_site_fract_y
 _atom_site_fract_z
 _atom_site_occupancy
  Dy  Dy0  1  0.884154  0.384713  0.500000  1
  Dy  Dy1  1  0.115846  0.615287  0.500000  1
  Dy  Dy2  1  0.384713  0.115846  0.500000  1
  Dy  Dy3  1  0.615287  0.884154  0.500000  1
  Ho  Ho4  1  0.000000  0.000000  0.000000  1
  Hf  Hf5  1  0.500000  0.500000  0.000000  1
  Hf  Hf6  1  0.673673  0.175141  0.500000  1
  Hf  Hf7  1  0.326327  0.824859  0.500000  1
  Hf  Hf8  1  0.175141  0.326327  0.500000  1
  Hf  Hf9  1  0.824859  0.673673  0.500000  1
  Si  Si10  1  0.565816  0.067880  0.000000  1
  Si  Si11  1  0.434184  0.932120  0.000000  1
  Si  Si12  1  0.067880  0.434184  0.000000  1
  Si  Si13  1  0.932120  0.565816  0.000000  1
  Si  Si14  1  0.665480  0.701446  0.000000  1
  Si  Si15  1  0.334520  0.298554  0.000000  1
  Si  Si16  1  0.163883  0.800588  0.000000  1
  Si  Si17  1  0.836117  0.199412  0.000000  1
  Si  Si18  1  0.298554  0.665480  0.000000  1
  Si  Si19  1  0.701446  0.334520  0.000000  1
  Si  Si20  1  0.199412  0.163883  0.000000  1
  Si  Si21  1  0.800588  0.836117  0.000000  1
  Si  Si22  1  0.650957  0.508043  0.500000  1
  Si  Si23  1  0.349043  0.491957  0.500000  1
  Si  Si24  1  0.156638  0.992706  0.500000  1
  Si  Si25  1  0.843362  0.007294  0.500000  1
  Si  Si26  1  0.491957  0.650957  0.500000  1
  Si  Si27  1  0.508043  0.349043  0.500000  1
  Si  Si28  1  0.007294  0.156638  0.500000  1
  Si  Si29  1  0.992706  0.843362  0.500000  1
  Ir  Ir30  1  0.741772  0.521864  0.000000  1
  Ir  Ir31  1  0.258228  0.478136  0.000000  1
  Ir  Ir32  1  0.246373  0.977696  0.000000  1
  Ir  Ir33  1  0.753627  0.022304  0.000000  1
  Ir  Ir34  1  0.478136  0.741772  0.000000  1
  Ir  Ir35  1  0.521864  0.258228  0.000000  1
  Ir  Ir36  1  0.022304  0.246373  0.000000  1
  Ir  Ir37  1  0.977696  0.753627  0.000000  1
