# generated using pymatgen
data_Lu2Co12Si4P3
_symmetry_space_group_name_H-M   'P 1'
_cell_length_a   9.04928000
_cell_length_b   9.04928005
_cell_length_c   3.57082900
_cell_angle_alpha   90.00000000
_cell_angle_beta   90.00000000
_cell_angle_gamma   119.99999251
_symmetry_Int_Tables_number   1
_chemical_formula_structural   Lu2Co12Si4P3
_chemical_formula_sum   'Lu2 Co12 Si4 P3'
_cell_volume   253.23735715
_cell_formula_units_Z   1
loop_
 _symmetry_equiv_pos_site_id
 _symmetry_equiv_pos_as_xyz
  1  'x, y, z'
loop_
 _atom_site_type_symbol
 _atom_site_label
 _atom_site_symmetry_multiplicity
 _atom_site_fract_x
 _atom_site_fract_y
 _atom_site_fract_z
 _atom_site_occupancy
  Lu  Lu0  1  0.666667  0.333333  0.500000  1
  Lu  Lu1  1  0.333333  0.666667  0.000000  1
  Co  Co2  1  0.129989  0.849460  0.000000  1
  Co  Co3  1  0.380006  0.439744  0.500000  1
  Co  Co4  1  0.719471  0.870011  0.000000  1
  Co  Co5  1  0.560256  0.940262  0.500000  1
  Co  Co6  1  0.234820  0.104048  0.500000  1
  Co  Co7  1  0.869228  0.765180  0.500000  1
  Co  Co8  1  0.895952  0.130772  0.500000  1
  Co  Co9  1  0.944716  0.381380  0.000000  1
  Co  Co10  1  0.618620  0.563336  0.000000  1
  Co  Co11  1  0.436664  0.055284  0.000000  1
  Co  Co12  1  0.059738  0.619994  0.500000  1
  Co  Co13  1  0.150540  0.280529  0.000000  1
  Si  Si14  1  0.000000  0.000000  0.000000  1
  Si  Si15  1  0.713234  0.113446  0.000000  1
  Si  Si16  1  0.886554  0.599787  0.000000  1
  Si  Si17  1  0.400213  0.286766  0.000000  1
  P  P18  1  0.596741  0.707015  0.500000  1
  P  P19  1  0.292985  0.889726  0.500000  1
  P  P20  1  0.110274  0.403259  0.500000  1
