# generated using pymatgen
data_Nd3ThAl4(Ga7Ir3)2
_symmetry_space_group_name_H-M   'P 1'
_cell_length_a   7.65114895
_cell_length_b   7.65803055
_cell_length_c   9.56814100
_cell_angle_alpha   90.00000000
_cell_angle_beta   90.00000000
_cell_angle_gamma   119.53313715
_symmetry_Int_Tables_number   1
_chemical_formula_structural   Nd3ThAl4(Ga7Ir3)2
_chemical_formula_sum   'Nd3 Th1 Al4 Ga14 Ir6'
_cell_volume   487.78213407
_cell_formula_units_Z   1
loop_
 _symmetry_equiv_pos_site_id
 _symmetry_equiv_pos_as_xyz
  1  'x, y, z'
loop_
 _atom_site_type_symbol
 _atom_site_label
 _atom_site_symmetry_multiplicity
 _atom_site_fract_x
 _atom_site_fract_y
 _atom_site_fract_z
 _atom_site_occupancy
  Nd  Nd0  1  0.999749  0.329663  0.750000  1
  Nd  Nd1  1  0.671501  0.998481  0.250000  1
  Nd  Nd2  1  0.329509  0.000076  0.750000  1
  Th  Th3  1  0.998785  0.670725  0.250000  1
  Al  Al4  1  0.332001  0.331984  0.551046  1
  Al  Al5  1  0.664635  0.666901  0.452977  1
  Al  Al6  1  0.664635  0.666901  0.047023  1
  Al  Al7  1  0.332001  0.331984  0.948954  1
  Ga  Ga8  1  0.131383  0.132099  0.250000  1
  Ga  Ga9  1  0.871621  0.873293  0.750000  1
  Ga  Ga10  1  0.001977  0.332260  0.077650  1
  Ga  Ga11  1  0.997967  0.664488  0.918490  1
  Ga  Ga12  1  0.997967  0.664488  0.581510  1
  Ga  Ga13  1  0.339226  0.004765  0.422388  1
  Ga  Ga14  1  0.001977  0.332260  0.422350  1
  Ga  Ga15  1  0.664695  0.998992  0.578130  1
  Ga  Ga16  1  0.664695  0.998992  0.921870  1
  Ga  Ga17  1  0.339226  0.004765  0.077612  1
  Ga  Ga18  1  0.349480  0.549458  0.250000  1
  Ga  Ga19  1  0.651654  0.450033  0.750000  1
  Ga  Ga20  1  0.546640  0.346056  0.250000  1
  Ga  Ga21  1  0.450181  0.653926  0.750000  1
  Ir  Ir22  1  0.670726  0.333560  0.001447  1
  Ir  Ir23  1  0.328931  0.668190  0.001353  1
  Ir  Ir24  1  0.328931  0.668190  0.498647  1
  Ir  Ir25  1  0.670726  0.333560  0.498553  1
  Ir  Ir26  1  0.999592  0.996955  0.002238  1
  Ir  Ir27  1  0.999592  0.996955  0.497762  1
