# generated using pymatgen
data_TbSm6Sn23Ru6
_symmetry_space_group_name_H-M   'P 1'
_cell_length_a   9.92511582
_cell_length_b   9.96510655
_cell_length_c   10.13531934
_cell_angle_alpha   89.99999833
_cell_angle_beta   89.89818393
_cell_angle_gamma   120.13338412
_symmetry_Int_Tables_number   1
_chemical_formula_structural   TbSm6Sn23Ru6
_chemical_formula_sum   'Tb1 Sm6 Sn23 Ru6'
_cell_volume   866.96065900
_cell_formula_units_Z   1
loop_
 _symmetry_equiv_pos_site_id
 _symmetry_equiv_pos_as_xyz
  1  'x, y, z'
loop_
 _atom_site_type_symbol
 _atom_site_label
 _atom_site_symmetry_multiplicity
 _atom_site_fract_x
 _atom_site_fract_y
 _atom_site_fract_z
 _atom_site_occupancy
  Tb  Tb0  1  0.968104  0.484052  0.696175  1
  Sm  Sm1  1  0.999849  0.999925  0.999903  1
  Sm  Sm2  1  0.483253  0.516498  0.303839  1
  Sm  Sm3  1  0.516620  0.483454  0.696202  1
  Sm  Sm4  1  0.483253  0.966755  0.303839  1
  Sm  Sm5  1  0.516620  0.033166  0.696202  1
  Sm  Sm6  1  0.033615  0.516807  0.304463  1
  Sn  Sn7  1  0.348253  0.000089  0.999791  1
  Sn  Sn8  1  0.651580  0.999782  0.000064  1
  Sn  Sn9  1  0.999875  0.348221  0.999784  1
  Sn  Sn10  1  0.999875  0.651654  0.999784  1
  Sn  Sn11  1  0.651580  0.651798  0.000064  1
  Sn  Sn12  1  0.348253  0.348164  0.999791  1
  Sn  Sn13  1  0.332813  0.666407  0.820816  1
  Sn  Sn14  1  0.666801  0.333400  0.178871  1
  Sn  Sn15  1  0.999877  0.999938  0.500079  1
  Sn  Sn16  1  0.781087  0.220560  0.462442  1
  Sn  Sn17  1  0.218466  0.779006  0.538578  1
  Sn  Sn18  1  0.781087  0.560527  0.462442  1
  Sn  Sn19  1  0.218466  0.439460  0.538578  1
  Sn  Sn20  1  0.439141  0.219570  0.461927  1
  Sn  Sn21  1  0.560724  0.780362  0.538082  1
  Sn  Sn22  1  0.333247  0.666624  0.122816  1
  Sn  Sn23  1  0.668479  0.334239  0.876256  1
  Sn  Sn24  1  0.116970  0.882821  0.274001  1
  Sn  Sn25  1  0.883039  0.117843  0.725892  1
  Sn  Sn26  1  0.116970  0.234150  0.274001  1
  Sn  Sn27  1  0.883039  0.765194  0.725892  1
  Sn  Sn28  1  0.765853  0.882927  0.272931  1
  Sn  Sn29  1  0.234059  0.117029  0.727085  1
  Ru  Ru30  1  0.830122  0.169166  0.201749  1
  Ru  Ru31  1  0.169329  0.829821  0.798021  1
  Ru  Ru32  1  0.830122  0.660954  0.201749  1
  Ru  Ru33  1  0.169329  0.339509  0.798021  1
  Ru  Ru34  1  0.339006  0.169503  0.201285  1
  Ru  Ru35  1  0.661243  0.830622  0.798584  1
