# generated using pymatgen
data_Gd2As2Br2O5
_symmetry_space_group_name_H-M   'P 1'
_cell_length_a   7.15781832
_cell_length_b   7.86779633
_cell_length_c   9.81343944
_cell_angle_alpha   110.77090471
_cell_angle_beta   102.98509132
_cell_angle_gamma   102.15936754
_symmetry_Int_Tables_number   1
_chemical_formula_structural   Gd2As2Br2O5
_chemical_formula_sum   'Gd4 As4 Br4 O10'
_cell_volume   477.27645067
_cell_formula_units_Z   2
loop_
 _symmetry_equiv_pos_site_id
 _symmetry_equiv_pos_as_xyz
  1  'x, y, z'
loop_
 _atom_site_type_symbol
 _atom_site_label
 _atom_site_symmetry_multiplicity
 _atom_site_fract_x
 _atom_site_fract_y
 _atom_site_fract_z
 _atom_site_occupancy
  Gd  Gd0  1  0.395142  0.699032  0.515115  1
  Gd  Gd1  1  0.604858  0.300968  0.484885  1
  Gd  Gd2  1  0.842558  0.763067  0.337111  1
  Gd  Gd3  1  0.157442  0.236933  0.662889  1
  As  As4  1  0.880179  0.849368  0.730235  1
  As  As5  1  0.119821  0.150632  0.269765  1
  As  As6  1  0.708924  0.228998  0.791259  1
  As  As7  1  0.291076  0.771002  0.208741  1
  Br  Br8  1  0.244569  0.655032  0.754683  1
  Br  Br9  1  0.755431  0.344968  0.245317  1
  Br  Br10  1  0.789669  0.724993  0.032435  1
  Br  Br11  1  0.210331  0.275007  0.967565  1
  O  O12  1  0.844913  0.275288  0.665781  1
  O  O13  1  0.155087  0.724712  0.334219  1
  O  O14  1  0.528472  0.787291  0.339142  1
  O  O15  1  0.471528  0.212709  0.660858  1
  O  O16  1  0.665370  0.962470  0.711425  1
  O  O17  1  0.334630  0.037530  0.288575  1
  O  O18  1  0.693978  0.625556  0.576777  1
  O  O19  1  0.306022  0.374444  0.423223  1
  O  O20  1  0.990868  0.920819  0.602703  1
  O  O21  1  0.009132  0.079181  0.397297  1
