# generated using pymatgen
data_Ba2Zn2F9
_symmetry_space_group_name_H-M   'P 1'
_cell_length_a   5.67184300
_cell_length_b   7.52241500
_cell_length_c   17.87720500
_cell_angle_alpha   90.00000000
_cell_angle_beta   90.00000000
_cell_angle_gamma   90.00000000
_symmetry_Int_Tables_number   1
_chemical_formula_structural   Ba2Zn2F9
_chemical_formula_sum   'Ba8 Zn8 F36'
_cell_volume   762.74805732
_cell_formula_units_Z   4
loop_
 _symmetry_equiv_pos_site_id
 _symmetry_equiv_pos_as_xyz
  1  'x, y, z'
loop_
 _atom_site_type_symbol
 _atom_site_label
 _atom_site_symmetry_multiplicity
 _atom_site_fract_x
 _atom_site_fract_y
 _atom_site_fract_z
 _atom_site_occupancy
  Ba  Ba0  1  0.750000  0.940416  0.781985  1
  Ba  Ba1  1  0.750000  0.559584  0.281985  1
  Ba  Ba2  1  0.250000  0.059584  0.218015  1
  Ba  Ba3  1  0.250000  0.440416  0.718015  1
  Ba  Ba4  1  0.250000  0.279610  0.463089  1
  Ba  Ba5  1  0.250000  0.220390  0.963089  1
  Ba  Ba6  1  0.750000  0.720390  0.536911  1
  Ba  Ba7  1  0.750000  0.779610  0.036911  1
  Zn  Zn8  1  0.750000  0.414351  0.870629  1
  Zn  Zn9  1  0.750000  0.085649  0.370629  1
  Zn  Zn10  1  0.250000  0.585649  0.129371  1
  Zn  Zn11  1  0.250000  0.914351  0.629371  1
  Zn  Zn12  1  0.250000  0.739795  0.914695  1
  Zn  Zn13  1  0.250000  0.760205  0.414695  1
  Zn  Zn14  1  0.750000  0.260205  0.085305  1
  Zn  Zn15  1  0.750000  0.239795  0.585305  1
  F  F16  1  0.750000  0.575645  0.785550  1
  F  F17  1  0.750000  0.924355  0.285550  1
  F  F18  1  0.250000  0.424355  0.214450  1
  F  F19  1  0.250000  0.075645  0.714450  1
  F  F20  1  0.501745  0.947189  0.425983  1
  F  F21  1  0.998255  0.552811  0.925983  1
  F  F22  1  0.001745  0.052811  0.574017  1
  F  F23  1  0.498255  0.447189  0.074017  1
  F  F24  1  0.498255  0.052811  0.574017  1
  F  F25  1  0.001745  0.447189  0.074017  1
  F  F26  1  0.998255  0.947189  0.425983  1
  F  F27  1  0.501745  0.552811  0.925983  1
  F  F28  1  0.999236  0.575752  0.417454  1
  F  F29  1  0.500764  0.924248  0.917454  1
  F  F30  1  0.499236  0.424248  0.582546  1
  F  F31  1  0.000764  0.075752  0.082546  1
  F  F32  1  0.000764  0.424248  0.582546  1
  F  F33  1  0.499236  0.075752  0.082546  1
  F  F34  1  0.500764  0.575752  0.417454  1
  F  F35  1  0.999236  0.924248  0.917454  1
  F  F36  1  0.497018  0.239431  0.332664  1
  F  F37  1  0.002982  0.260569  0.832664  1
  F  F38  1  0.997018  0.760569  0.667336  1
  F  F39  1  0.502982  0.739431  0.167336  1
  F  F40  1  0.502982  0.760569  0.667336  1
  F  F41  1  0.997018  0.739431  0.167336  1
  F  F42  1  0.002982  0.239431  0.332664  1
  F  F43  1  0.497018  0.260569  0.832664  1
  F  F44  1  0.250000  0.757384  0.529701  1
  F  F45  1  0.250000  0.742616  0.029701  1
  F  F46  1  0.750000  0.242616  0.470299  1
  F  F47  1  0.750000  0.257384  0.970299  1
  F  F48  1  0.250000  0.729025  0.807267  1
  F  F49  1  0.250000  0.770975  0.307267  1
  F  F50  1  0.750000  0.270975  0.192733  1
  F  F51  1  0.750000  0.229025  0.692733  1
