# generated using pymatgen
data_Er2Tm10Co4CuBi
_symmetry_space_group_name_H-M   'P 1'
_cell_length_a   8.22997697
_cell_length_b   8.22997630
_cell_length_c   8.22597996
_cell_angle_alpha   110.10208890
_cell_angle_beta   111.26444351
_cell_angle_gamma   107.09615020
_symmetry_Int_Tables_number   1
_chemical_formula_structural   Er2Tm10Co4CuBi
_chemical_formula_sum   'Er2 Tm10 Co4 Cu1 Bi1'
_cell_volume   428.19725994
_cell_formula_units_Z   1
loop_
 _symmetry_equiv_pos_site_id
 _symmetry_equiv_pos_as_xyz
  1  'x, y, z'
loop_
 _atom_site_type_symbol
 _atom_site_label
 _atom_site_symmetry_multiplicity
 _atom_site_fract_x
 _atom_site_fract_y
 _atom_site_fract_z
 _atom_site_occupancy
  Er  Er0  1  0.286857  0.182940  0.469797  1
  Er  Er1  1  0.713143  0.817060  0.530203  1
  Tm  Tm2  1  0.286825  0.817257  0.104082  1
  Tm  Tm3  1  0.713175  0.182743  0.895918  1
  Tm  Tm4  1  0.621079  0.312800  0.307795  1
  Tm  Tm5  1  0.378921  0.687200  0.692205  1
  Tm  Tm6  1  0.005005  0.313284  0.692205  1
  Tm  Tm7  1  0.994995  0.686716  0.307795  1
  Tm  Tm8  1  0.213462  0.415613  0.201552  1
  Tm  Tm9  1  0.786538  0.584387  0.798448  1
  Tm  Tm10  1  0.214064  0.011911  0.798448  1
  Tm  Tm11  1  0.785936  0.988089  0.201552  1
  Co  Co12  1  0.999636  0.376037  0.375673  1
  Co  Co13  1  0.000364  0.623963  0.624327  1
  Co  Co14  1  0.386698  0.886698  0.500000  1
  Co  Co15  1  0.613302  0.113302  0.500000  1
  Cu  Cu16  1  0.000000  0.000000  0.000000  1
  Bi  Bi17  1  0.500000  0.500000  0.000000  1
