# generated using pymatgen
data_Ca3Ni(NO3)8
_symmetry_space_group_name_H-M   'P 1'
_cell_length_a   7.93037198
_cell_length_b   7.93037205
_cell_length_c   7.93037133
_cell_angle_alpha   88.79437458
_cell_angle_beta   91.20561850
_cell_angle_gamma   88.79438002
_symmetry_Int_Tables_number   1
_chemical_formula_structural   Ca3Ni(NO3)8
_chemical_formula_sum   'Ca3 Ni1 N8 O24'
_cell_volume   498.41144505
_cell_formula_units_Z   1
loop_
 _symmetry_equiv_pos_site_id
 _symmetry_equiv_pos_as_xyz
  1  'x, y, z'
loop_
 _atom_site_type_symbol
 _atom_site_label
 _atom_site_symmetry_multiplicity
 _atom_site_fract_x
 _atom_site_fract_y
 _atom_site_fract_z
 _atom_site_occupancy
  Ca  Ca0  1  0.500000  0.500000  0.000000  1
  Ca  Ca1  1  0.500000  0.000000  0.500000  1
  Ca  Ca2  1  0.000000  0.000000  0.000000  1
  Ni  Ni3  1  0.000000  0.500000  0.500000  1
  N  N4  1  0.312784  0.353387  0.332626  1
  N  N5  1  0.333293  0.166707  0.833293  1
  N  N6  1  0.167374  0.812784  0.353387  1
  N  N7  1  0.853387  0.332626  0.187216  1
  N  N8  1  0.687216  0.646613  0.667374  1
  N  N9  1  0.146613  0.667374  0.812784  1
  N  N10  1  0.832626  0.187216  0.646613  1
  N  N11  1  0.666707  0.833293  0.166707  1
  O  O12  1  0.740828  0.319782  0.072718  1
  O  O13  1  0.180218  0.927282  0.240828  1
  O  O14  1  0.273871  0.801508  0.473188  1
  O  O15  1  0.235282  0.190033  0.955053  1
  O  O16  1  0.211000  0.343074  0.453465  1
  O  O17  1  0.427282  0.240828  0.319782  1
  O  O18  1  0.301508  0.473188  0.226129  1
  O  O19  1  0.156926  0.546535  0.711000  1
  O  O20  1  0.953465  0.289000  0.656926  1
  O  O21  1  0.690033  0.955053  0.264718  1
  O  O22  1  0.026812  0.773871  0.801508  1
  O  O23  1  0.544947  0.735282  0.190033  1
  O  O24  1  0.819782  0.072718  0.759172  1
  O  O25  1  0.726129  0.198492  0.526812  1
  O  O26  1  0.764718  0.809967  0.044947  1
  O  O27  1  0.259172  0.680218  0.927282  1
  O  O28  1  0.789000  0.656926  0.546535  1
  O  O29  1  0.572718  0.759172  0.680218  1
  O  O30  1  0.698492  0.526812  0.773871  1
  O  O31  1  0.843074  0.453465  0.289000  1
  O  O32  1  0.046535  0.711000  0.343074  1
  O  O33  1  0.309967  0.044947  0.735282  1
  O  O34  1  0.973188  0.226129  0.198492  1
  O  O35  1  0.455053  0.264718  0.809967  1
