# generated using pymatgen
data_BaCaNi6(P2O7)4
_symmetry_space_group_name_H-M   'P 1'
_cell_length_a   7.77923408
_cell_length_b   7.52487205
_cell_length_c   9.57456488
_cell_angle_alpha   67.58013939
_cell_angle_beta   90.00105628
_cell_angle_gamma   89.73872353
_symmetry_Int_Tables_number   1
_chemical_formula_structural   BaCaNi6(P2O7)4
_chemical_formula_sum   'Ba1 Ca1 Ni6 P8 O28'
_cell_volume   518.10307085
_cell_formula_units_Z   1
loop_
 _symmetry_equiv_pos_site_id
 _symmetry_equiv_pos_as_xyz
  1  'x, y, z'
loop_
 _atom_site_type_symbol
 _atom_site_label
 _atom_site_symmetry_multiplicity
 _atom_site_fract_x
 _atom_site_fract_y
 _atom_site_fract_z
 _atom_site_occupancy
  Ba  Ba0  1  0.000000  0.500000  0.000000  1
  Ca  Ca1  1  0.500000  0.500000  0.500000  1
  Ni  Ni2  1  0.127105  0.815322  0.524327  1
  Ni  Ni3  1  0.625181  0.182433  0.975217  1
  Ni  Ni4  1  0.872895  0.184678  0.475673  1
  Ni  Ni5  1  0.374819  0.817567  0.024783  1
  Ni  Ni6  1  0.000000  0.000000  0.000000  1
  Ni  Ni7  1  0.500000  0.000000  0.500000  1
  P  P8  1  0.931083  0.396614  0.696434  1
  P  P9  1  0.450829  0.605003  0.796001  1
  P  P10  1  0.068917  0.603386  0.303566  1
  P  P11  1  0.549171  0.394997  0.203999  1
  P  P12  1  0.202149  0.115133  0.690598  1
  P  P13  1  0.702740  0.893652  0.804474  1
  P  P14  1  0.797851  0.884867  0.309402  1
  P  P15  1  0.297260  0.106348  0.195526  1
  O  O16  1  0.373183  0.167782  0.606937  1
  O  O17  1  0.875683  0.858796  0.884059  1
  O  O18  1  0.626817  0.832218  0.393063  1
  O  O19  1  0.124317  0.141204  0.115941  1
  O  O20  1  0.390920  0.729760  0.631724  1
  O  O21  1  0.875573  0.266653  0.860849  1
  O  O22  1  0.609080  0.270240  0.368276  1
  O  O23  1  0.124427  0.733347  0.139151  1
  O  O24  1  0.806109  0.376331  0.580606  1
  O  O25  1  0.330532  0.629366  0.912740  1
  O  O26  1  0.193891  0.623669  0.419394  1
  O  O27  1  0.669468  0.370634  0.087260  1
  O  O28  1  0.117569  0.318193  0.672706  1
  O  O29  1  0.637328  0.682818  0.821603  1
  O  O30  1  0.882431  0.681807  0.327294  1
  O  O31  1  0.362672  0.317182  0.178397  1
  O  O32  1  0.512426  0.598244  0.196328  1
  O  O33  1  0.028479  0.399483  0.316055  1
  O  O34  1  0.487574  0.401756  0.803672  1
  O  O35  1  0.971521  0.600517  0.683945  1
  O  O36  1  0.789383  0.994025  0.137040  1
  O  O37  1  0.292709  0.998244  0.367449  1
  O  O38  1  0.210617  0.005975  0.862960  1
  O  O39  1  0.707291  0.001756  0.632551  1
  O  O40  1  0.427822  0.026266  0.114060  1
  O  O41  1  0.922054  0.975846  0.388312  1
  O  O42  1  0.572178  0.973734  0.885940  1
  O  O43  1  0.077946  0.024154  0.611688  1
