# generated using pymatgen
data_RbNb6BiBr18
_symmetry_space_group_name_H-M   'P 1'
_cell_length_a   10.82822948
_cell_length_b   10.82822941
_cell_length_c   10.82822947
_cell_angle_alpha   55.43589240
_cell_angle_beta   55.43589112
_cell_angle_gamma   55.43590030
_symmetry_Int_Tables_number   1
_chemical_formula_structural   RbNb6BiBr18
_chemical_formula_sum   'Rb1 Nb6 Bi1 Br18'
_cell_volume   802.59255277
_cell_formula_units_Z   1
loop_
 _symmetry_equiv_pos_site_id
 _symmetry_equiv_pos_as_xyz
  1  'x, y, z'
loop_
 _atom_site_type_symbol
 _atom_site_label
 _atom_site_symmetry_multiplicity
 _atom_site_fract_x
 _atom_site_fract_y
 _atom_site_fract_z
 _atom_site_occupancy
  Rb  Rb0  1  0.221467  0.221467  0.221467  1
  Nb  Nb1  1  0.808887  0.142396  0.916583  1
  Nb  Nb2  1  0.916583  0.808887  0.142396  1
  Nb  Nb3  1  0.142396  0.916583  0.808887  1
  Nb  Nb4  1  0.191668  0.858224  0.082664  1
  Nb  Nb5  1  0.082664  0.191668  0.858224  1
  Nb  Nb6  1  0.858224  0.082664  0.191668  1
  Bi  Bi7  1  0.497717  0.497717  0.497717  1
  Br  Br8  1  0.864692  0.410041  0.727474  1
  Br  Br9  1  0.727474  0.864692  0.410041  1
  Br  Br10  1  0.410041  0.727474  0.864692  1
  Br  Br11  1  0.134720  0.590013  0.274925  1
  Br  Br12  1  0.274925  0.134720  0.590013  1
  Br  Br13  1  0.590013  0.274925  0.134720  1
  Br  Br14  1  0.532152  0.337932  0.812753  1
  Br  Br15  1  0.812753  0.532152  0.337932  1
  Br  Br16  1  0.337932  0.812753  0.532152  1
  Br  Br17  1  0.466615  0.662789  0.189111  1
  Br  Br18  1  0.189111  0.466615  0.662789  1
  Br  Br19  1  0.662789  0.189111  0.466615  1
  Br  Br20  1  0.664758  0.938148  0.071104  1
  Br  Br21  1  0.071104  0.664758  0.938148  1
  Br  Br22  1  0.938148  0.071104  0.664758  1
  Br  Br23  1  0.338495  0.060560  0.925254  1
  Br  Br24  1  0.925254  0.338495  0.060560  1
  Br  Br25  1  0.060560  0.925254  0.338495  1
