# generated using pymatgen
data_Li2Tb3YRu2
_symmetry_space_group_name_H-M   'P 1'
_cell_length_a   4.98738400
_cell_length_b   6.90944000
_cell_length_c   14.76797400
_cell_angle_alpha   89.99833662
_cell_angle_beta   90.00029290
_cell_angle_gamma   90.00120273
_symmetry_Int_Tables_number   1
_chemical_formula_structural   Li2Tb3YRu2
_chemical_formula_sum   'Li6 Tb9 Y3 Ru6'
_cell_volume   508.90483437
_cell_formula_units_Z   3
loop_
 _symmetry_equiv_pos_site_id
 _symmetry_equiv_pos_as_xyz
  1  'x, y, z'
loop_
 _atom_site_type_symbol
 _atom_site_label
 _atom_site_symmetry_multiplicity
 _atom_site_fract_x
 _atom_site_fract_y
 _atom_site_fract_z
 _atom_site_occupancy
  Li  Li0  1  0.000000  0.499981  0.999900  1
  Li  Li1  1  0.499968  0.999999  0.166696  1
  Li  Li2  1  0.999969  0.499964  0.333300  1
  Li  Li3  1  0.499997  0.000028  0.500061  1
  Li  Li4  1  0.000033  0.500022  0.666817  1
  Li  Li5  1  0.500045  0.000011  0.833235  1
  Tb  Tb6  1  0.499998  0.252703  0.999774  1
  Tb  Tb7  1  0.500001  0.747091  0.999753  1
  Tb  Tb8  1  0.999646  0.247301  0.166581  1
  Tb  Tb9  1  0.999645  0.752739  0.166574  1
  Tb  Tb10  1  0.499640  0.252626  0.333372  1
  Tb  Tb11  1  0.499646  0.747181  0.333384  1
  Tb  Tb12  1  0.000001  0.247310  0.500186  1
  Tb  Tb13  1  0.999999  0.752818  0.500190  1
  Tb  Tb14  1  0.500349  0.252807  0.666857  1
  Y  Y15  1  0.500368  0.747543  0.666825  1
  Y  Y16  1  0.000367  0.247725  0.833274  1
  Y  Y17  1  0.000360  0.752394  0.833224  1
  Ru  Ru18  1  0.000001  0.000051  0.000867  1
  Ru  Ru19  1  0.499115  0.499978  0.166851  1
  Ru  Ru20  1  0.999087  0.000056  0.333248  1
  Ru  Ru21  1  0.500004  0.499479  0.499424  1
  Ru  Ru22  1  0.000902  0.000706  0.665902  1
  Ru  Ru23  1  0.500863  0.499480  0.833711  1
