# generated using pymatgen
data_Lu10SnBi5Se2
_symmetry_space_group_name_H-M   'P 1'
_cell_length_a   9.03416547
_cell_length_b   9.04310145
_cell_length_c   6.58629200
_cell_angle_alpha   90.00000000
_cell_angle_beta   90.00000000
_cell_angle_gamma   120.03272006
_symmetry_Int_Tables_number   1
_chemical_formula_structural   Lu10SnBi5Se2
_chemical_formula_sum   'Lu10 Sn1 Bi5 Se2'
_cell_volume   465.83677596
_cell_formula_units_Z   1
loop_
 _symmetry_equiv_pos_site_id
 _symmetry_equiv_pos_as_xyz
  1  'x, y, z'
loop_
 _atom_site_type_symbol
 _atom_site_label
 _atom_site_symmetry_multiplicity
 _atom_site_fract_x
 _atom_site_fract_y
 _atom_site_fract_z
 _atom_site_occupancy
  Lu  Lu0  1  0.671170  0.334501  0.002086  1
  Lu  Lu1  1  0.328830  0.663332  0.002086  1
  Lu  Lu2  1  0.328830  0.663332  0.497914  1
  Lu  Lu3  1  0.671170  0.334501  0.497914  1
  Lu  Lu4  1  0.743831  0.744763  0.750000  1
  Lu  Lu5  1  0.256169  0.000932  0.750000  1
  Lu  Lu6  1  0.000000  0.256579  0.750000  1
  Lu  Lu7  1  0.252109  0.257400  0.250000  1
  Lu  Lu8  1  0.747891  0.005291  0.250000  1
  Lu  Lu9  1  0.000000  0.740878  0.250000  1
  Sn  Sn10  1  0.000000  0.395678  0.250000  1
  Bi  Bi11  1  0.394112  0.393305  0.750000  1
  Bi  Bi12  1  0.605888  0.999193  0.750000  1
  Bi  Bi13  1  0.000000  0.605239  0.750000  1
  Bi  Bi14  1  0.607423  0.607836  0.250000  1
  Bi  Bi15  1  0.392577  0.000414  0.250000  1
  Se  Se16  1  0.000000  0.998413  0.999746  1
  Se  Se17  1  0.000000  0.998413  0.500254  1
