# generated using pymatgen
data_Li2TbDy(SiO4)2
_symmetry_space_group_name_H-M   'P 1'
_cell_length_a   6.24367931
_cell_length_b   5.45407120
_cell_length_c   10.95610595
_cell_angle_alpha   66.40474526
_cell_angle_beta   90.09659983
_cell_angle_gamma   90.05598313
_symmetry_Int_Tables_number   1
_chemical_formula_structural   Li2TbDy(SiO4)2
_chemical_formula_sum   'Li4 Tb2 Dy2 Si4 O16'
_cell_volume   341.90078944
_cell_formula_units_Z   2
loop_
 _symmetry_equiv_pos_site_id
 _symmetry_equiv_pos_as_xyz
  1  'x, y, z'
loop_
 _atom_site_type_symbol
 _atom_site_label
 _atom_site_symmetry_multiplicity
 _atom_site_fract_x
 _atom_site_fract_y
 _atom_site_fract_z
 _atom_site_occupancy
  Li  Li0  1  0.133975  0.919390  0.429990  1
  Li  Li1  1  0.633743  0.080348  0.070104  1
  Li  Li2  1  0.866025  0.080610  0.570010  1
  Li  Li3  1  0.366257  0.919652  0.929896  1
  Tb  Tb4  1  0.116503  0.445529  0.847417  1
  Tb  Tb5  1  0.883497  0.554471  0.152583  1
  Dy  Dy6  1  0.616120  0.554531  0.651968  1
  Dy  Dy7  1  0.383880  0.445469  0.348032  1
  Si  Si8  1  0.651077  0.904227  0.359575  1
  Si  Si9  1  0.348923  0.095773  0.640425  1
  Si  Si10  1  0.152580  0.094919  0.141334  1
  Si  Si11  1  0.847420  0.905081  0.858666  1
  O  O12  1  0.857332  0.231467  0.775786  1
  O  O13  1  0.640218  0.230637  0.277035  1
  O  O14  1  0.163947  0.184904  0.524046  1
  O  O15  1  0.836162  0.759331  0.752249  1
  O  O16  1  0.142668  0.768533  0.224214  1
  O  O17  1  0.571184  0.227297  0.554947  1
  O  O18  1  0.661629  0.759050  0.252855  1
  O  O19  1  0.428816  0.772703  0.445053  1
  O  O20  1  0.070719  0.775506  0.943901  1
  O  O21  1  0.663200  0.816093  0.975138  1
  O  O22  1  0.163838  0.240669  0.247751  1
  O  O23  1  0.929281  0.224494  0.056099  1
  O  O24  1  0.336800  0.183907  0.024862  1
  O  O25  1  0.338371  0.240950  0.747145  1
  O  O26  1  0.359782  0.769363  0.722965  1
  O  O27  1  0.836053  0.815096  0.475954  1
