# generated using pymatgen
data_Tb5Sm3Tc2(B12Ru)2
_symmetry_space_group_name_H-M   'P 1'
_cell_length_a   3.71895400
_cell_length_b   9.22362942
_cell_length_c   11.63683403
_cell_angle_alpha   89.84189715
_cell_angle_beta   90.00000000
_cell_angle_gamma   90.00000000
_symmetry_Int_Tables_number   1
_chemical_formula_structural   Tb5Sm3Tc2(B12Ru)2
_chemical_formula_sum   'Tb5 Sm3 Tc2 B24 Ru2'
_cell_volume   399.16811113
_cell_formula_units_Z   1
loop_
 _symmetry_equiv_pos_site_id
 _symmetry_equiv_pos_as_xyz
  1  'x, y, z'
loop_
 _atom_site_type_symbol
 _atom_site_label
 _atom_site_symmetry_multiplicity
 _atom_site_fract_x
 _atom_site_fract_y
 _atom_site_fract_z
 _atom_site_occupancy
  Tb  Tb0  1  0.000000  0.178397  0.912674  1
  Tb  Tb1  1  0.000000  0.941860  0.369867  1
  Tb  Tb2  1  0.000000  0.058284  0.630234  1
  Tb  Tb3  1  0.000000  0.442654  0.130065  1
  Tb  Tb4  1  0.000000  0.556823  0.869770  1
  Sm  Sm5  1  0.000000  0.324839  0.415107  1
  Sm  Sm6  1  0.000000  0.675083  0.585050  1
  Sm  Sm7  1  0.000000  0.822005  0.087040  1
  Tc  Tc8  1  0.000000  0.638874  0.319763  1
  Tc  Tc9  1  0.000000  0.360557  0.680853  1
  B  B10  1  0.500000  0.553956  0.431856  1
  B  B11  1  0.500000  0.445818  0.568382  1
  B  B12  1  0.500000  0.055002  0.067437  1
  B  B13  1  0.500000  0.946360  0.931798  1
  B  B14  1  0.500000  0.748280  0.417674  1
  B  B15  1  0.500000  0.251705  0.582680  1
  B  B16  1  0.500000  0.248130  0.081249  1
  B  B17  1  0.500000  0.752034  0.917566  1
  B  B18  1  0.500000  0.790313  0.265972  1
  B  B19  1  0.500000  0.209073  0.734932  1
  B  B20  1  0.500000  0.289402  0.232998  1
  B  B21  1  0.500000  0.710693  0.766721  1
  B  B22  1  0.500000  0.630837  0.185915  1
  B  B23  1  0.500000  0.368283  0.814735  1
  B  B24  1  0.500000  0.130537  0.312933  1
  B  B25  1  0.500000  0.869849  0.687098  1
  B  B26  1  0.500000  0.984892  0.211812  1
  B  B27  1  0.500000  0.016463  0.788411  1
  B  B28  1  0.500000  0.484369  0.287259  1
  B  B29  1  0.500000  0.515192  0.712874  1
  B  B30  1  0.500000  0.602869  0.028313  1
  B  B31  1  0.500000  0.395568  0.971249  1
  B  B32  1  0.500000  0.102104  0.471660  1
  B  B33  1  0.500000  0.898022  0.528476  1
  Ru  Ru34  1  0.000000  0.138030  0.178234  1
  Ru  Ru35  1  0.000000  0.862841  0.821343  1
