# generated using pymatgen
data_TmPa3(Co2Ge)2
_symmetry_space_group_name_H-M   'P 1'
_cell_length_a   7.08832042
_cell_length_b   7.08832060
_cell_length_c   3.53452300
_cell_angle_alpha   90.00000000
_cell_angle_beta   90.00000000
_cell_angle_gamma   92.55405059
_symmetry_Int_Tables_number   1
_chemical_formula_structural   TmPa3(Co2Ge)2
_chemical_formula_sum   'Tm1 Pa3 Co4 Ge2'
_cell_volume   177.41317769
_cell_formula_units_Z   1
loop_
 _symmetry_equiv_pos_site_id
 _symmetry_equiv_pos_as_xyz
  1  'x, y, z'
loop_
 _atom_site_type_symbol
 _atom_site_label
 _atom_site_symmetry_multiplicity
 _atom_site_fract_x
 _atom_site_fract_y
 _atom_site_fract_z
 _atom_site_occupancy
  Tm  Tm0  1  0.821273  0.678727  0.500000  1
  Pa  Pa1  1  0.681772  0.176720  0.500000  1
  Pa  Pa2  1  0.323280  0.818228  0.500000  1
  Pa  Pa3  1  0.177457  0.322543  0.500000  1
  Co  Co4  1  0.881795  0.347750  0.000000  1
  Co  Co5  1  0.152250  0.618205  0.000000  1
  Co  Co6  1  0.355616  0.144384  0.000000  1
  Co  Co7  1  0.605033  0.894967  0.000000  1
  Ge  Ge8  1  0.505236  0.503712  0.000000  1
  Ge  Ge9  1  0.996288  0.994764  0.000000  1
