# generated using pymatgen
data_Nd20Ir7Ru3Rh2
_symmetry_space_group_name_H-M   'P 1'
_cell_length_a   11.23151054
_cell_length_b   11.23335949
_cell_length_c   6.62193702
_cell_angle_alpha   89.97942612
_cell_angle_beta   89.93782772
_cell_angle_gamma   89.91193938
_symmetry_Int_Tables_number   1
_chemical_formula_structural   Nd20Ir7Ru3Rh2
_chemical_formula_sum   'Nd20 Ir7 Ru3 Rh2'
_cell_volume   835.47233851
_cell_formula_units_Z   1
loop_
 _symmetry_equiv_pos_site_id
 _symmetry_equiv_pos_as_xyz
  1  'x, y, z'
loop_
 _atom_site_type_symbol
 _atom_site_label
 _atom_site_symmetry_multiplicity
 _atom_site_fract_x
 _atom_site_fract_y
 _atom_site_fract_z
 _atom_site_occupancy
  Nd  Nd0  1  0.089703  0.291686  0.113026  1
  Nd  Nd1  1  0.792491  0.409372  0.113063  1
  Nd  Nd2  1  0.208075  0.588369  0.113195  1
  Nd  Nd3  1  0.907982  0.706970  0.111766  1
  Nd  Nd4  1  0.413146  0.793431  0.386110  1
  Nd  Nd5  1  0.589438  0.205823  0.386414  1
  Nd  Nd6  1  0.294806  0.090529  0.386783  1
  Nd  Nd7  1  0.706889  0.911701  0.386471  1
  Nd  Nd8  1  0.413298  0.206500  0.887237  1
  Nd  Nd9  1  0.705885  0.086888  0.886791  1
  Nd  Nd10  1  0.294410  0.913843  0.884978  1
  Nd  Nd11  1  0.587106  0.793820  0.887302  1
  Nd  Nd12  1  0.089435  0.708185  0.620574  1
  Nd  Nd13  1  0.909972  0.291837  0.618562  1
  Nd  Nd14  1  0.208449  0.409907  0.618160  1
  Nd  Nd15  1  0.791122  0.590137  0.618229  1
  Nd  Nd16  1  0.999690  0.999750  0.995381  1
  Nd  Nd17  1  0.500374  0.499959  0.994606  1
  Nd  Nd18  1  0.500219  0.499514  0.494482  1
  Nd  Nd19  1  0.000598  0.000551  0.494266  1
  Ir  Ir20  1  0.344752  0.349392  0.248345  1
  Ir  Ir21  1  0.654671  0.651161  0.248712  1
  Ir  Ir22  1  0.848661  0.155229  0.248685  1
  Ir  Ir23  1  0.345775  0.653608  0.749034  1
  Ir  Ir24  1  0.152868  0.152884  0.749352  1
  Ir  Ir25  1  0.847315  0.847525  0.749202  1
  Ir  Ir26  1  0.653717  0.346452  0.749275  1
  Ru  Ru27  1  0.498865  0.999341  0.128106  1
  Ru  Ru28  1  0.499297  0.999075  0.626054  1
  Ru  Ru29  1  0.000423  0.500837  0.877889  1
  Rh  Rh30  1  0.150492  0.844098  0.247697  1
  Rh  Rh31  1  0.000074  0.501621  0.380250  1
