# generated using pymatgen
data_Dy20TcHg6Ru
_symmetry_space_group_name_H-M   'P 1'
_cell_length_a   9.57202400
_cell_length_b   9.57202404
_cell_length_c   9.90929000
_cell_angle_alpha   90.00000000
_cell_angle_beta   90.00000000
_cell_angle_gamma   119.99999985
_symmetry_Int_Tables_number   1
_chemical_formula_structural   Dy20TcHg6Ru
_chemical_formula_sum   'Dy20 Tc1 Hg6 Ru1'
_cell_volume   786.28633936
_cell_formula_units_Z   1
loop_
 _symmetry_equiv_pos_site_id
 _symmetry_equiv_pos_as_xyz
  1  'x, y, z'
loop_
 _atom_site_type_symbol
 _atom_site_label
 _atom_site_symmetry_multiplicity
 _atom_site_fract_x
 _atom_site_fract_y
 _atom_site_fract_z
 _atom_site_occupancy
  Dy  Dy0  1  0.000000  0.000000  0.499954  1
  Dy  Dy1  1  0.000000  0.000000  0.000046  1
  Dy  Dy2  1  0.210031  0.789969  0.440757  1
  Dy  Dy3  1  0.210031  0.420063  0.440757  1
  Dy  Dy4  1  0.579937  0.789969  0.440757  1
  Dy  Dy5  1  0.789746  0.210254  0.559628  1
  Dy  Dy6  1  0.789746  0.579490  0.559628  1
  Dy  Dy7  1  0.420510  0.210254  0.559628  1
  Dy  Dy8  1  0.789746  0.210254  0.940372  1
  Dy  Dy9  1  0.789746  0.579490  0.940372  1
  Dy  Dy10  1  0.420510  0.210254  0.940372  1
  Dy  Dy11  1  0.210031  0.789969  0.059243  1
  Dy  Dy12  1  0.210031  0.420063  0.059243  1
  Dy  Dy13  1  0.579937  0.789969  0.059243  1
  Dy  Dy14  1  0.539783  0.460217  0.250000  1
  Dy  Dy15  1  0.539783  0.079567  0.250000  1
  Dy  Dy16  1  0.920433  0.460217  0.250000  1
  Dy  Dy17  1  0.458937  0.541063  0.750000  1
  Dy  Dy18  1  0.458937  0.917875  0.750000  1
  Dy  Dy19  1  0.082125  0.541063  0.750000  1
  Tc  Tc20  1  0.333333  0.666667  0.250000  1
  Hg  Hg21  1  0.882849  0.117151  0.250000  1
  Hg  Hg22  1  0.882849  0.765699  0.250000  1
  Hg  Hg23  1  0.234301  0.117151  0.250000  1
  Hg  Hg24  1  0.116949  0.883051  0.750000  1
  Hg  Hg25  1  0.116949  0.233899  0.750000  1
  Hg  Hg26  1  0.766101  0.883051  0.750000  1
  Ru  Ru27  1  0.666667  0.333333  0.750000  1
