# generated using pymatgen
data_Nb2VSi(BW)2
_symmetry_space_group_name_H-M   'P 1'
_cell_length_a   7.07666441
_cell_length_b   7.10111049
_cell_length_c   7.11713182
_cell_angle_alpha   129.42031266
_cell_angle_beta   129.30632256
_cell_angle_gamma   74.36410697
_symmetry_Int_Tables_number   1
_chemical_formula_structural   Nb2VSi(BW)2
_chemical_formula_sum   'Nb4 V2 Si2 B4 W4'
_cell_volume   208.44681309
_cell_formula_units_Z   2
loop_
 _symmetry_equiv_pos_site_id
 _symmetry_equiv_pos_as_xyz
  1  'x, y, z'
loop_
 _atom_site_type_symbol
 _atom_site_label
 _atom_site_symmetry_multiplicity
 _atom_site_fract_x
 _atom_site_fract_y
 _atom_site_fract_z
 _atom_site_occupancy
  Nb  Nb0  1  0.029896  0.194809  0.500489  1
  Nb  Nb1  1  0.525661  0.026908  0.832564  1
  Nb  Nb2  1  0.693422  0.531011  0.500613  1
  Nb  Nb3  1  0.973218  0.804528  0.501258  1
  V  V4  1  0.002397  0.001835  0.001085  1
  V  V5  1  0.501347  0.502106  0.999764  1
  Si  Si6  1  0.247365  0.253712  0.005837  1
  Si  Si7  1  0.747708  0.745413  0.997671  1
  B  B8  1  0.130996  0.628037  0.756832  1
  B  B9  1  0.877060  0.373233  0.246560  1
  B  B10  1  0.616754  0.881442  0.496263  1
  B  B11  1  0.380986  0.120025  0.497157  1
  W  W12  1  0.804797  0.305019  0.835025  1
  W  W13  1  0.193071  0.694957  0.160996  1
  W  W14  1  0.470327  0.970724  0.166684  1
  W  W15  1  0.304994  0.466241  0.501202  1
