# generated using pymatgen
data_Yb3TiAl11Os4
_symmetry_space_group_name_H-M   'P 1'
_cell_length_a   8.87250600
_cell_length_b   8.87250735
_cell_length_c   9.63124900
_cell_angle_alpha   90.00000000
_cell_angle_beta   90.00000000
_cell_angle_gamma   120.00000987
_symmetry_Int_Tables_number   1
_chemical_formula_structural   Yb3TiAl11Os4
_chemical_formula_sum   'Yb6 Ti2 Al22 Os8'
_cell_volume   656.60754552
_cell_formula_units_Z   2
loop_
 _symmetry_equiv_pos_site_id
 _symmetry_equiv_pos_as_xyz
  1  'x, y, z'
loop_
 _atom_site_type_symbol
 _atom_site_label
 _atom_site_symmetry_multiplicity
 _atom_site_fract_x
 _atom_site_fract_y
 _atom_site_fract_z
 _atom_site_occupancy
  Yb  Yb0  1  0.193733  0.387467  0.250131  1
  Yb  Yb1  1  0.806267  0.612533  0.749869  1
  Yb  Yb2  1  0.612533  0.806267  0.250131  1
  Yb  Yb3  1  0.387467  0.193733  0.749869  1
  Yb  Yb4  1  0.193733  0.806267  0.250131  1
  Yb  Yb5  1  0.806267  0.193733  0.749869  1
  Ti  Ti6  1  0.333333  0.666667  0.983387  1
  Ti  Ti7  1  0.666667  0.333333  0.016613  1
  Al  Al8  1  0.666667  0.333333  0.508301  1
  Al  Al9  1  0.333333  0.666667  0.491699  1
  Al  Al10  1  0.161755  0.323512  0.574932  1
  Al  Al11  1  0.838245  0.676488  0.425068  1
  Al  Al12  1  0.676488  0.838245  0.574932  1
  Al  Al13  1  0.840420  0.680839  0.073835  1
  Al  Al14  1  0.323512  0.161755  0.425068  1
  Al  Al15  1  0.159580  0.319161  0.926165  1
  Al  Al16  1  0.161755  0.838245  0.574932  1
  Al  Al17  1  0.319161  0.159580  0.073835  1
  Al  Al18  1  0.838245  0.161755  0.425068  1
  Al  Al19  1  0.680839  0.840420  0.926165  1
  Al  Al20  1  0.840420  0.159580  0.073835  1
  Al  Al21  1  0.159580  0.840420  0.926165  1
  Al  Al22  1  0.560036  0.120072  0.251702  1
  Al  Al23  1  0.439964  0.879928  0.748298  1
  Al  Al24  1  0.879928  0.439964  0.251702  1
  Al  Al25  1  0.120072  0.560036  0.748298  1
  Al  Al26  1  0.560036  0.439964  0.251702  1
  Al  Al27  1  0.439964  0.560036  0.748298  1
  Al  Al28  1  0.000000  0.000000  0.250038  1
  Al  Al29  1  0.000000  0.000000  0.749962  1
  Os  Os30  1  0.500000  0.000000  0.000000  1
  Os  Os31  1  0.000000  0.500000  0.000000  1
  Os  Os32  1  0.500000  0.000000  0.500000  1
  Os  Os33  1  0.500000  0.500000  0.000000  1
  Os  Os34  1  0.000000  0.500000  0.500000  1
  Os  Os35  1  0.500000  0.500000  0.500000  1
  Os  Os36  1  0.000000  0.000000  0.000000  1
  Os  Os37  1  0.000000  0.000000  0.500000  1
