# generated using pymatgen
data_Ba4ScTcO8
_symmetry_space_group_name_H-M   'P 1'
_cell_length_a   7.37470960
_cell_length_b   7.37470990
_cell_length_c   5.83284800
_cell_angle_alpha   90.00000000
_cell_angle_beta   90.00000000
_cell_angle_gamma   133.47404825
_symmetry_Int_Tables_number   1
_chemical_formula_structural   Ba4ScTcO8
_chemical_formula_sum   'Ba4 Sc1 Tc1 O8'
_cell_volume   230.20741987
_cell_formula_units_Z   1
loop_
 _symmetry_equiv_pos_site_id
 _symmetry_equiv_pos_as_xyz
  1  'x, y, z'
loop_
 _atom_site_type_symbol
 _atom_site_label
 _atom_site_symmetry_multiplicity
 _atom_site_fract_x
 _atom_site_fract_y
 _atom_site_fract_z
 _atom_site_occupancy
  Ba  Ba0  1  0.353553  0.646447  0.000000  1
  Ba  Ba1  1  0.854441  0.145559  0.500000  1
  Ba  Ba2  1  0.145559  0.854441  0.500000  1
  Ba  Ba3  1  0.646447  0.353553  0.000000  1
  Sc  Sc4  1  0.000000  0.000000  0.000000  1
  Tc  Tc5  1  0.500000  0.500000  0.500000  1
  O  O6  1  0.257610  0.257610  0.739070  1
  O  O7  1  0.742390  0.742390  0.260930  1
  O  O8  1  0.742390  0.742390  0.739070  1
  O  O9  1  0.257610  0.257610  0.260930  1
  O  O10  1  0.157306  0.842694  0.000000  1
  O  O11  1  0.650801  0.349199  0.500000  1
  O  O12  1  0.349199  0.650801  0.500000  1
  O  O13  1  0.842694  0.157306  0.000000  1
