# generated using pymatgen
data_Hf2Zr4Si3As
_symmetry_space_group_name_H-M   'P 1'
_cell_length_a   7.10461019
_cell_length_b   7.10461001
_cell_length_c   3.72175500
_cell_angle_alpha   90.00000000
_cell_angle_beta   90.00000000
_cell_angle_gamma   89.04727155
_symmetry_Int_Tables_number   1
_chemical_formula_structural   Hf2Zr4Si3As
_chemical_formula_sum   'Hf2 Zr4 Si3 As1'
_cell_volume   187.83141683
_cell_formula_units_Z   1
loop_
 _symmetry_equiv_pos_site_id
 _symmetry_equiv_pos_as_xyz
  1  'x, y, z'
loop_
 _atom_site_type_symbol
 _atom_site_label
 _atom_site_symmetry_multiplicity
 _atom_site_fract_x
 _atom_site_fract_y
 _atom_site_fract_z
 _atom_site_occupancy
  Hf  Hf0  1  0.502287  0.500311  0.000000  1
  Hf  Hf1  1  0.000311  0.002287  0.000000  1
  Zr  Zr2  1  0.825119  0.670135  0.500000  1
  Zr  Zr3  1  0.332313  0.832313  0.500000  1
  Zr  Zr4  1  0.170135  0.325119  0.500000  1
  Zr  Zr5  1  0.671407  0.171407  0.500000  1
  Si  Si6  1  0.625233  0.876241  0.000000  1
  Si  Si7  1  0.376241  0.125233  0.000000  1
  Si  Si8  1  0.868521  0.368521  0.000000  1
  As  As9  1  0.128432  0.628432  0.000000  1
