# generated using pymatgen
data_YbCe(Co3Si2)2
_symmetry_space_group_name_H-M   'P 1'
_cell_length_a   6.27971038
_cell_length_b   6.27971027
_cell_length_c   6.27971008
_cell_angle_alpha   130.27091998
_cell_angle_beta   114.19426605
_cell_angle_gamma   86.77631169
_symmetry_Int_Tables_number   1
_chemical_formula_structural   YbCe(Co3Si2)2
_chemical_formula_sum   'Yb1 Ce1 Co6 Si4'
_cell_volume   164.42066165
_cell_formula_units_Z   1
loop_
 _symmetry_equiv_pos_site_id
 _symmetry_equiv_pos_as_xyz
  1  'x, y, z'
loop_
 _atom_site_type_symbol
 _atom_site_label
 _atom_site_symmetry_multiplicity
 _atom_site_fract_x
 _atom_site_fract_y
 _atom_site_fract_z
 _atom_site_occupancy
  Yb  Yb0  1  0.250000  0.541179  0.291179  1
  Ce  Ce1  1  0.750000  0.452041  0.702041  1
  Co  Co2  1  0.992414  0.003935  0.496349  1
  Co  Co3  1  0.507586  0.003935  0.011521  1
  Co  Co4  1  0.717729  0.002369  0.718539  1
  Co  Co5  1  0.216168  0.500810  0.718539  1
  Co  Co6  1  0.283832  0.002369  0.284642  1
  Co  Co7  1  0.782271  0.500810  0.284642  1
  Si  Si8  1  0.085764  0.887251  0.801487  1
  Si  Si9  1  0.925685  0.120473  0.194789  1
  Si  Si10  1  0.574315  0.769105  0.194789  1
  Si  Si11  1  0.414236  0.215722  0.801487  1
