# generated using pymatgen
data_Ho5Er3GePd24
_symmetry_space_group_name_H-M   'P 1'
_cell_length_a   8.32278701
_cell_length_b   8.32274901
_cell_length_c   8.32276100
_cell_angle_alpha   89.99885720
_cell_angle_beta   90.00099135
_cell_angle_gamma   90.00483273
_symmetry_Int_Tables_number   1
_chemical_formula_structural   Ho5Er3GePd24
_chemical_formula_sum   'Ho5 Er3 Ge1 Pd24'
_cell_volume   576.50489606
_cell_formula_units_Z   1
loop_
 _symmetry_equiv_pos_site_id
 _symmetry_equiv_pos_as_xyz
  1  'x, y, z'
loop_
 _atom_site_type_symbol
 _atom_site_label
 _atom_site_symmetry_multiplicity
 _atom_site_fract_x
 _atom_site_fract_y
 _atom_site_fract_z
 _atom_site_occupancy
  Ho  Ho0  1  0.253332  0.253327  0.253322  1
  Ho  Ho1  1  0.746680  0.746683  0.746689  1
  Ho  Ho2  1  0.746673  0.746669  0.253320  1
  Ho  Ho3  1  0.746684  0.253312  0.746678  1
  Ho  Ho4  1  0.253316  0.253321  0.746690  1
  Er  Er5  1  0.253328  0.746676  0.253340  1
  Er  Er6  1  0.253332  0.746675  0.746663  1
  Er  Er7  1  0.746687  0.253308  0.253310  1
  Ge  Ge8  1  0.999987  0.000014  0.999989  1
  Pd  Pd9  1  0.259856  0.500226  0.000009  1
  Pd  Pd10  1  0.740141  0.499895  0.000131  1
  Pd  Pd11  1  0.999895  0.259856  0.499886  1
  Pd  Pd12  1  0.500106  0.259856  0.000125  1
  Pd  Pd13  1  0.000248  0.740141  0.499998  1
  Pd  Pd14  1  0.499776  0.740145  0.000009  1
  Pd  Pd15  1  0.499996  0.999989  0.259860  1
  Pd  Pd16  1  0.259853  0.999760  0.499992  1
  Pd  Pd17  1  0.499894  0.999872  0.740140  1
  Pd  Pd18  1  0.740144  0.000110  0.499886  1
  Pd  Pd19  1  0.000010  0.500000  0.259861  1
  Pd  Pd20  1  0.000131  0.500114  0.740141  1
  Pd  Pd21  1  0.253268  0.500259  0.499998  1
  Pd  Pd22  1  0.746731  0.499886  0.499867  1
  Pd  Pd23  1  0.500114  0.253271  0.499864  1
  Pd  Pd24  1  0.499741  0.746728  0.499994  1
  Pd  Pd25  1  0.499992  0.500009  0.253268  1
  Pd  Pd26  1  0.499864  0.500130  0.746734  1
  Pd  Pd27  1  0.289331  0.999758  0.000010  1
  Pd  Pd28  1  0.710635  0.000121  0.000128  1
  Pd  Pd29  1  0.999887  0.289363  0.000117  1
  Pd  Pd30  1  0.000239  0.710666  0.000008  1
  Pd  Pd31  1  0.000003  0.999985  0.289337  1
  Pd  Pd32  1  0.000128  0.999873  0.710635  1
