# generated using pymatgen
data_Ba4U3BiF24
_symmetry_space_group_name_H-M   'P 1'
_cell_length_a   7.61457751
_cell_length_b   8.90556597
_cell_length_c   8.98831435
_cell_angle_alpha   102.18103841
_cell_angle_beta   95.89774082
_cell_angle_gamma   114.52487214
_symmetry_Int_Tables_number   1
_chemical_formula_structural   Ba4U3BiF24
_chemical_formula_sum   'Ba4 U3 Bi1 F24'
_cell_volume   529.48122411
_cell_formula_units_Z   1
loop_
 _symmetry_equiv_pos_site_id
 _symmetry_equiv_pos_as_xyz
  1  'x, y, z'
loop_
 _atom_site_type_symbol
 _atom_site_label
 _atom_site_symmetry_multiplicity
 _atom_site_fract_x
 _atom_site_fract_y
 _atom_site_fract_z
 _atom_site_occupancy
  Ba  Ba0  1  0.294949  0.764616  0.542509  1
  Ba  Ba1  1  0.294870  0.311144  0.767294  1
  Ba  Ba2  1  0.706726  0.236815  0.459644  1
  Ba  Ba3  1  0.703737  0.679407  0.229907  1
  U  U4  1  0.177005  0.261575  0.277508  1
  U  U5  1  0.237253  0.782601  0.064118  1
  U  U6  1  0.815932  0.741141  0.721112  1
  Bi  Bi7  1  0.758393  0.219798  0.930114  1
  F  F8  1  0.078176  0.955487  0.698051  1
  F  F9  1  0.406526  0.635677  0.004842  1
  F  F10  1  0.921891  0.039958  0.300252  1
  F  F11  1  0.229536  0.037146  0.147932  1
  F  F12  1  0.765939  0.950652  0.853112  1
  F  F13  1  0.089439  0.761304  0.271239  1
  F  F14  1  0.883642  0.614011  0.502368  1
  F  F15  1  0.132375  0.716404  0.799644  1
  F  F16  1  0.488237  0.623899  0.700037  1
  F  F17  1  0.312713  0.189327  0.470598  1
  F  F18  1  0.114933  0.242571  0.026829  1
  F  F19  1  0.303892  0.543152  0.290988  1
  F  F20  1  0.698634  0.461584  0.709233  1
  F  F21  1  0.589661  0.374276  0.994790  1
  F  F22  1  0.880391  0.288450  0.213006  1
  F  F23  1  0.513123  0.098450  0.707580  1
  F  F24  1  0.487577  0.985973  0.000029  1
  F  F25  1  0.900870  0.759047  0.979609  1
  F  F26  1  0.915363  0.244664  0.726846  1
  F  F27  1  0.477552  0.898213  0.285800  1
  F  F28  1  0.506456  0.373099  0.298546  1
  F  F29  1  0.010575  0.509991  0.001923  1
  F  F30  1  0.119452  0.388613  0.499315  1
  F  F31  1  0.684181  0.810955  0.525225  1
