# generated using pymatgen
data_V3GaPtN
_symmetry_space_group_name_H-M   'P 1'
_cell_length_a   6.61930100
_cell_length_b   6.61930100
_cell_length_c   6.61930100
_cell_angle_alpha   90.00000000
_cell_angle_beta   90.00000000
_cell_angle_gamma   90.00000000
_symmetry_Int_Tables_number   1
_chemical_formula_structural   V3GaPtN
_chemical_formula_sum   'V12 Ga4 Pt4 N4'
_cell_volume   290.02563794
_cell_formula_units_Z   4
loop_
 _symmetry_equiv_pos_site_id
 _symmetry_equiv_pos_as_xyz
  1  'x, y, z'
loop_
 _atom_site_type_symbol
 _atom_site_label
 _atom_site_symmetry_multiplicity
 _atom_site_fract_x
 _atom_site_fract_y
 _atom_site_fract_z
 _atom_site_occupancy
  V  V0  1  0.787810  0.958719  0.377858  1
  V  V1  1  0.712190  0.041281  0.877858  1
  V  V2  1  0.212190  0.458719  0.122142  1
  V  V3  1  0.287810  0.541281  0.622142  1
  V  V4  1  0.958719  0.377858  0.787810  1
  V  V5  1  0.041281  0.877858  0.712190  1
  V  V6  1  0.458719  0.122142  0.212190  1
  V  V7  1  0.541281  0.622142  0.287810  1
  V  V8  1  0.377858  0.787810  0.958719  1
  V  V9  1  0.877858  0.712190  0.041281  1
  V  V10  1  0.122142  0.212190  0.458719  1
  V  V11  1  0.622142  0.287810  0.541281  1
  Ga  Ga12  1  0.567425  0.432575  0.932575  1
  Ga  Ga13  1  0.432575  0.932575  0.567425  1
  Ga  Ga14  1  0.932575  0.567425  0.432575  1
  Ga  Ga15  1  0.067425  0.067425  0.067425  1
  Pt  Pt16  1  0.178757  0.821243  0.321243  1
  Pt  Pt17  1  0.321243  0.178757  0.821243  1
  Pt  Pt18  1  0.821243  0.321243  0.178757  1
  Pt  Pt19  1  0.678757  0.678757  0.678757  1
  N  N20  1  0.874152  0.125848  0.625848  1
  N  N21  1  0.625848  0.874152  0.125848  1
  N  N22  1  0.125848  0.625848  0.874152  1
  N  N23  1  0.374152  0.374152  0.374152  1
