# generated using pymatgen
data_Pr16Er4Si15As
_symmetry_space_group_name_H-M   'P 1'
_cell_length_a   7.83709295
_cell_length_b   7.83273677
_cell_length_c   15.35737000
_cell_angle_alpha   89.93766231
_cell_angle_beta   89.72244996
_cell_angle_gamma   89.98915005
_symmetry_Int_Tables_number   1
_chemical_formula_structural   Pr16Er4Si15As
_chemical_formula_sum   'Pr16 Er4 Si15 As1'
_cell_volume   942.71413113
_cell_formula_units_Z   1
loop_
 _symmetry_equiv_pos_site_id
 _symmetry_equiv_pos_as_xyz
  1  'x, y, z'
loop_
 _atom_site_type_symbol
 _atom_site_label
 _atom_site_symmetry_multiplicity
 _atom_site_fract_x
 _atom_site_fract_y
 _atom_site_fract_z
 _atom_site_occupancy
  Pr  Pr0  1  0.380832  0.012258  0.443469  1
  Pr  Pr1  1  0.487819  0.878250  0.694777  1
  Pr  Pr2  1  0.512668  0.120332  0.194287  1
  Pr  Pr3  1  0.879296  0.486926  0.304991  1
  Pr  Pr4  1  0.121717  0.513219  0.806484  1
  Pr  Pr5  1  0.621761  0.985991  0.944433  1
  Pr  Pr6  1  0.009986  0.379981  0.553945  1
  Pr  Pr7  1  0.986956  0.619748  0.055680  1
  Pr  Pr8  1  0.127423  0.978554  0.877977  1
  Pr  Pr9  1  0.523454  0.625163  0.128051  1
  Pr  Pr10  1  0.475988  0.374907  0.629441  1
  Pr  Pr11  1  0.625496  0.524379  0.871844  1
  Pr  Pr12  1  0.374457  0.474872  0.372188  1
  Pr  Pr13  1  0.875878  0.023915  0.378716  1
  Pr  Pr14  1  0.976246  0.125188  0.121630  1
  Pr  Pr15  1  0.023189  0.873817  0.621440  1
  Er  Er16  1  0.309573  0.309228  0.000100  1
  Er  Er17  1  0.190167  0.808661  0.249827  1
  Er  Er18  1  0.803953  0.190829  0.750742  1
  Er  Er19  1  0.689317  0.691085  0.499089  1
  Si  Si20  1  0.326505  0.687384  0.958573  1
  Si  Si21  1  0.672701  0.313520  0.459112  1
  Si  Si22  1  0.688043  0.327892  0.041660  1
  Si  Si23  1  0.313228  0.672736  0.541761  1
  Si  Si24  1  0.812983  0.827250  0.208774  1
  Si  Si25  1  0.172744  0.187064  0.291023  1
  Si  Si26  1  0.829892  0.812879  0.791313  1
  Si  Si27  1  0.285710  0.920818  0.063384  1
  Si  Si28  1  0.579061  0.786065  0.313279  1
  Si  Si29  1  0.431055  0.213290  0.817849  1
  Si  Si30  1  0.787513  0.579056  0.686067  1
  Si  Si31  1  0.213688  0.421187  0.186510  1
  Si  Si32  1  0.711088  0.077948  0.563624  1
  Si  Si33  1  0.922240  0.287050  0.936522  1
  Si  Si34  1  0.079123  0.713236  0.436545  1
  As  As35  1  0.178247  0.175320  0.704892  1
