# generated using pymatgen
data_YHo4Co(P2Ru3)6
_symmetry_space_group_name_H-M   'P 1'
_cell_length_a   12.47755513
_cell_length_b   12.47755432
_cell_length_c   3.96785500
_cell_angle_alpha   90.00000000
_cell_angle_beta   90.00000000
_cell_angle_gamma   120.01630962
_symmetry_Int_Tables_number   1
_chemical_formula_structural   YHo4Co(P2Ru3)6
_chemical_formula_sum   'Y1 Ho4 Co1 P12 Ru18'
_cell_volume   534.90171826
_cell_formula_units_Z   1
loop_
 _symmetry_equiv_pos_site_id
 _symmetry_equiv_pos_as_xyz
  1  'x, y, z'
loop_
 _atom_site_type_symbol
 _atom_site_label
 _atom_site_symmetry_multiplicity
 _atom_site_fract_x
 _atom_site_fract_y
 _atom_site_fract_z
 _atom_site_occupancy
  Y  Y0  1  0.817933  0.817933  0.500000  1
  Ho  Ho1  1  0.666705  0.333358  0.000000  1
  Ho  Ho2  1  0.333358  0.666705  0.000000  1
  Ho  Ho3  1  0.182100  0.999985  0.500000  1
  Ho  Ho4  1  0.999985  0.182100  0.500000  1
  Co  Co5  1  0.000376  0.000376  0.000000  1
  P  P6  1  0.692065  0.169123  0.500000  1
  P  P7  1  0.830897  0.522973  0.500000  1
  P  P8  1  0.476988  0.307900  0.500000  1
  P  P9  1  0.169123  0.692065  0.500000  1
  P  P10  1  0.522973  0.830897  0.500000  1
  P  P11  1  0.307900  0.476988  0.500000  1
  P  P12  1  0.177212  0.177212  0.000000  1
  P  P13  1  0.822830  0.000284  0.000000  1
  P  P14  1  0.000284  0.822830  0.000000  1
  P  P15  1  0.628396  0.628396  0.000000  1
  P  P16  1  0.371432  0.999998  0.000000  1
  P  P17  1  0.999998  0.371432  0.000000  1
  Ru  Ru18  1  0.873500  0.364165  0.500000  1
  Ru  Ru19  1  0.635751  0.509245  0.500000  1
  Ru  Ru20  1  0.490609  0.126474  0.500000  1
  Ru  Ru21  1  0.364165  0.873500  0.500000  1
  Ru  Ru22  1  0.509245  0.635751  0.500000  1
  Ru  Ru23  1  0.126474  0.490609  0.500000  1
  Ru  Ru24  1  0.445007  0.445007  0.000000  1
  Ru  Ru25  1  0.554892  0.000025  0.000000  1
  Ru  Ru26  1  0.000025  0.554892  0.000000  1
  Ru  Ru27  1  0.808549  0.183597  0.000000  1
  Ru  Ru28  1  0.816482  0.624561  0.000000  1
  Ru  Ru29  1  0.375036  0.191494  0.000000  1
  Ru  Ru30  1  0.183597  0.808549  0.000000  1
  Ru  Ru31  1  0.624561  0.816482  0.000000  1
  Ru  Ru32  1  0.191494  0.375036  0.000000  1
  Ru  Ru33  1  0.279787  0.279787  0.500000  1
  Ru  Ru34  1  0.720073  0.000199  0.500000  1
  Ru  Ru35  1  0.000199  0.720073  0.500000  1
