# generated using pymatgen
data_CoSn14Ru5
_symmetry_space_group_name_H-M   'P 1'
_cell_length_a   8.17355348
_cell_length_b   8.17355382
_cell_length_c   8.17355314
_cell_angle_alpha   109.36475829
_cell_angle_beta   109.68436641
_cell_angle_gamma   109.36475709
_symmetry_Int_Tables_number   1
_chemical_formula_structural   CoSn14Ru5
_chemical_formula_sum   'Co1 Sn14 Ru5'
_cell_volume   420.34537696
_cell_formula_units_Z   1
loop_
 _symmetry_equiv_pos_site_id
 _symmetry_equiv_pos_as_xyz
  1  'x, y, z'
loop_
 _atom_site_type_symbol
 _atom_site_label
 _atom_site_symmetry_multiplicity
 _atom_site_fract_x
 _atom_site_fract_y
 _atom_site_fract_z
 _atom_site_occupancy
  Co  Co0  1  0.342939  0.000000  0.342939  1
  Sn  Sn1  1  0.250379  0.751874  0.498505  1
  Sn  Sn2  1  0.746631  0.248126  0.498505  1
  Sn  Sn3  1  0.749508  0.500000  0.249508  1
  Sn  Sn4  1  0.249508  0.500000  0.749508  1
  Sn  Sn5  1  0.498505  0.751874  0.250379  1
  Sn  Sn6  1  0.498505  0.248126  0.746631  1
  Sn  Sn7  1  0.004902  0.000000  0.325349  1
  Sn  Sn8  1  0.676651  0.000000  0.999304  1
  Sn  Sn9  1  0.004902  0.679553  0.004902  1
  Sn  Sn10  1  0.325349  0.320447  0.325349  1
  Sn  Sn11  1  0.999304  0.322654  0.999304  1
  Sn  Sn12  1  0.676651  0.677346  0.676651  1
  Sn  Sn13  1  0.325349  0.000000  0.004902  1
  Sn  Sn14  1  0.999304  0.000000  0.676651  1
  Ru  Ru15  1  0.000429  0.344541  0.344970  1
  Ru  Ru16  1  0.000429  0.655459  0.655888  1
  Ru  Ru17  1  0.344970  0.344541  0.000429  1
  Ru  Ru18  1  0.655888  0.655459  0.000429  1
  Ru  Ru19  1  0.649900  0.000000  0.649900  1
