# generated using pymatgen
data_Lu2Ga(Ni2P)6
_symmetry_space_group_name_H-M   'P 1'
_cell_length_a   9.05992300
_cell_length_b   9.05992421
_cell_length_c   3.64750200
_cell_angle_alpha   90.00000000
_cell_angle_beta   90.00000000
_cell_angle_gamma   120.00000655
_symmetry_Int_Tables_number   1
_chemical_formula_structural   Lu2Ga(Ni2P)6
_chemical_formula_sum   'Lu2 Ga1 Ni12 P6'
_cell_volume   259.28369838
_cell_formula_units_Z   1
loop_
 _symmetry_equiv_pos_site_id
 _symmetry_equiv_pos_as_xyz
  1  'x, y, z'
loop_
 _atom_site_type_symbol
 _atom_site_label
 _atom_site_symmetry_multiplicity
 _atom_site_fract_x
 _atom_site_fract_y
 _atom_site_fract_z
 _atom_site_occupancy
  Lu  Lu0  1  0.666667  0.333333  0.000000  1
  Lu  Lu1  1  0.000000  0.000000  0.500000  1
  Ga  Ga2  1  0.333333  0.666667  0.000000  1
  Ni  Ni3  1  0.717495  0.102172  0.500000  1
  Ni  Ni4  1  0.897828  0.615324  0.500000  1
  Ni  Ni5  1  0.384676  0.282505  0.500000  1
  Ni  Ni6  1  0.772040  0.730752  0.000000  1
  Ni  Ni7  1  0.269248  0.041288  0.000000  1
  Ni  Ni8  1  0.958712  0.227960  0.000000  1
  Ni  Ni9  1  0.568662  0.770225  0.500000  1
  Ni  Ni10  1  0.229775  0.798436  0.500000  1
  Ni  Ni11  1  0.201564  0.431338  0.500000  1
  Ni  Ni12  1  0.497156  0.960844  0.000000  1
  Ni  Ni13  1  0.039156  0.536312  0.000000  1
  Ni  Ni14  1  0.463688  0.502844  0.000000  1
  P  P15  1  0.445684  0.073220  0.500000  1
  P  P16  1  0.926780  0.372464  0.500000  1
  P  P17  1  0.627536  0.554316  0.500000  1
  P  P18  1  0.740217  0.958338  0.000000  1
  P  P19  1  0.041662  0.781879  0.000000  1
  P  P20  1  0.218121  0.259783  0.000000  1
