# generated using pymatgen
data_Dy4Tm8Ni5Pb
_symmetry_space_group_name_H-M   'P 1'
_cell_length_a   8.26715264
_cell_length_b   8.26715187
_cell_length_c   8.26715200
_cell_angle_alpha   109.37062999
_cell_angle_beta   111.66059962
_cell_angle_gamma   107.41044194
_symmetry_Int_Tables_number   1
_chemical_formula_structural   Dy4Tm8Ni5Pb
_chemical_formula_sum   'Dy4 Tm8 Ni5 Pb1'
_cell_volume   434.35607391
_cell_formula_units_Z   1
loop_
 _symmetry_equiv_pos_site_id
 _symmetry_equiv_pos_as_xyz
  1  'x, y, z'
loop_
 _atom_site_type_symbol
 _atom_site_label
 _atom_site_symmetry_multiplicity
 _atom_site_fract_x
 _atom_site_fract_y
 _atom_site_fract_z
 _atom_site_occupancy
  Dy  Dy0  1  0.294480  0.181133  0.475613  1
  Dy  Dy1  1  0.705520  0.818867  0.524387  1
  Dy  Dy2  1  0.294480  0.818867  0.113347  1
  Dy  Dy3  1  0.705520  0.181133  0.886653  1
  Tm  Tm4  1  0.628182  0.321648  0.306536  1
  Tm  Tm5  1  0.371818  0.678352  0.693464  1
  Tm  Tm6  1  0.015112  0.321648  0.693464  1
  Tm  Tm7  1  0.984888  0.678352  0.306536  1
  Tm  Tm8  1  0.209233  0.401171  0.191939  1
  Tm  Tm9  1  0.790767  0.598829  0.808061  1
  Tm  Tm10  1  0.209233  0.017295  0.808061  1
  Tm  Tm11  1  0.790767  0.982705  0.191939  1
  Ni  Ni12  1  0.000000  0.367147  0.367147  1
  Ni  Ni13  1  0.000000  0.632853  0.632853  1
  Ni  Ni14  1  0.373412  0.873412  0.500000  1
  Ni  Ni15  1  0.626588  0.126588  0.500000  1
  Ni  Ni16  1  0.000000  0.000000  0.000000  1
  Pb  Pb17  1  0.500000  0.500000  0.000000  1
