# generated using pymatgen
data_Tb3Mg(P3Rh4)2
_symmetry_space_group_name_H-M   'P 1'
_cell_length_a   3.95598300
_cell_length_b   11.28406900
_cell_length_c   12.86831600
_cell_angle_alpha   90.00000000
_cell_angle_beta   90.00000000
_cell_angle_gamma   90.00000000
_symmetry_Int_Tables_number   1
_chemical_formula_structural   Tb3Mg(P3Rh4)2
_chemical_formula_sum   'Tb6 Mg2 P12 Rh16'
_cell_volume   574.43628762
_cell_formula_units_Z   2
loop_
 _symmetry_equiv_pos_site_id
 _symmetry_equiv_pos_as_xyz
  1  'x, y, z'
loop_
 _atom_site_type_symbol
 _atom_site_label
 _atom_site_symmetry_multiplicity
 _atom_site_fract_x
 _atom_site_fract_y
 _atom_site_fract_z
 _atom_site_occupancy
  Tb  Tb0  1  0.000000  0.500000  0.521172  1
  Tb  Tb1  1  0.500000  0.000000  0.478828  1
  Tb  Tb2  1  0.500000  0.821072  0.205050  1
  Tb  Tb3  1  0.500000  0.178928  0.205050  1
  Tb  Tb4  1  0.000000  0.678928  0.794950  1
  Tb  Tb5  1  0.000000  0.321072  0.794950  1
  Mg  Mg6  1  0.500000  0.500000  0.159835  1
  Mg  Mg7  1  0.000000  0.000000  0.840165  1
  P  P8  1  0.500000  0.500000  0.882696  1
  P  P9  1  0.000000  0.000000  0.117304  1
  P  P10  1  0.500000  0.500000  0.355903  1
  P  P11  1  0.000000  0.000000  0.644097  1
  P  P12  1  0.500000  0.313216  0.617426  1
  P  P13  1  0.500000  0.686784  0.617426  1
  P  P14  1  0.000000  0.186784  0.382574  1
  P  P15  1  0.000000  0.813216  0.382574  1
  P  P16  1  0.500000  0.838998  0.889886  1
  P  P17  1  0.500000  0.161002  0.889886  1
  P  P18  1  0.000000  0.661002  0.110114  1
  P  P19  1  0.000000  0.338998  0.110114  1
  Rh  Rh20  1  0.500000  0.500000  0.703995  1
  Rh  Rh21  1  0.000000  0.000000  0.296005  1
  Rh  Rh22  1  0.000000  0.500000  0.987284  1
  Rh  Rh23  1  0.500000  0.000000  0.012716  1
  Rh  Rh24  1  0.500000  0.332823  0.997517  1
  Rh  Rh25  1  0.500000  0.667177  0.997517  1
  Rh  Rh26  1  0.000000  0.167177  0.002483  1
  Rh  Rh27  1  0.000000  0.832823  0.002483  1
  Rh  Rh28  1  0.500000  0.292838  0.431892  1
  Rh  Rh29  1  0.500000  0.707162  0.431892  1
  Rh  Rh30  1  0.000000  0.207162  0.568108  1
  Rh  Rh31  1  0.000000  0.792838  0.568108  1
  Rh  Rh32  1  0.500000  0.873635  0.709285  1
  Rh  Rh33  1  0.500000  0.126365  0.709285  1
  Rh  Rh34  1  0.000000  0.626365  0.290715  1
  Rh  Rh35  1  0.000000  0.373635  0.290715  1
