# generated using pymatgen
data_La2Y(ErSn2)2
_symmetry_space_group_name_H-M   'P 1'
_cell_length_a   8.18889000
_cell_length_b   8.33978700
_cell_length_c   15.71538500
_cell_angle_alpha   90.00000000
_cell_angle_beta   90.00000000
_cell_angle_gamma   90.00000000
_symmetry_Int_Tables_number   1
_chemical_formula_structural   La2Y(ErSn2)2
_chemical_formula_sum   'La8 Y4 Er8 Sn16'
_cell_volume   1073.26019136
_cell_formula_units_Z   4
loop_
 _symmetry_equiv_pos_site_id
 _symmetry_equiv_pos_as_xyz
  1  'x, y, z'
loop_
 _atom_site_type_symbol
 _atom_site_label
 _atom_site_symmetry_multiplicity
 _atom_site_fract_x
 _atom_site_fract_y
 _atom_site_fract_z
 _atom_site_occupancy
  La  La0  1  0.515175  0.321512  0.903643  1
  La  La1  1  0.015175  0.178488  0.596357  1
  La  La2  1  0.484825  0.678488  0.403643  1
  La  La3  1  0.984825  0.821512  0.096357  1
  La  La4  1  0.484825  0.678488  0.096357  1
  La  La5  1  0.984825  0.821512  0.403643  1
  La  La6  1  0.515175  0.321512  0.596357  1
  La  La7  1  0.015175  0.178488  0.903643  1
  Y  Y8  1  0.194826  0.504100  0.750000  1
  Y  Y9  1  0.694826  0.995900  0.750000  1
  Y  Y10  1  0.805174  0.495900  0.250000  1
  Y  Y11  1  0.305174  0.004100  0.250000  1
  Er  Er12  1  0.360554  0.837168  0.876730  1
  Er  Er13  1  0.860554  0.662832  0.623270  1
  Er  Er14  1  0.639446  0.162832  0.376730  1
  Er  Er15  1  0.139446  0.337168  0.123270  1
  Er  Er16  1  0.639446  0.162832  0.123270  1
  Er  Er17  1  0.139446  0.337168  0.376730  1
  Er  Er18  1  0.360554  0.837168  0.623270  1
  Er  Er19  1  0.860554  0.662832  0.876730  1
  Sn  Sn20  1  0.305324  0.041978  0.042640  1
  Sn  Sn21  1  0.805324  0.458022  0.457360  1
  Sn  Sn22  1  0.694676  0.958022  0.542640  1
  Sn  Sn23  1  0.194676  0.541978  0.957360  1
  Sn  Sn24  1  0.694676  0.958022  0.957360  1
  Sn  Sn25  1  0.194676  0.541978  0.542640  1
  Sn  Sn26  1  0.305324  0.041978  0.457360  1
  Sn  Sn27  1  0.805324  0.458022  0.042640  1
  Sn  Sn28  1  0.559878  0.626444  0.750000  1
  Sn  Sn29  1  0.059878  0.873556  0.750000  1
  Sn  Sn30  1  0.440122  0.373556  0.250000  1
  Sn  Sn31  1  0.940122  0.126444  0.250000  1
  Sn  Sn32  1  0.323894  0.139766  0.750000  1
  Sn  Sn33  1  0.823894  0.360234  0.750000  1
  Sn  Sn34  1  0.676106  0.860234  0.250000  1
  Sn  Sn35  1  0.176106  0.639766  0.250000  1
