# generated using pymatgen
data_Er2Zr3P12Ru18Pt
_symmetry_space_group_name_H-M   'P 1'
_cell_length_a   12.51369530
_cell_length_b   12.51369497
_cell_length_c   3.94035100
_cell_angle_alpha   90.00000000
_cell_angle_beta   90.00000000
_cell_angle_gamma   120.55391265
_symmetry_Int_Tables_number   1
_chemical_formula_structural   Er2Zr3P12Ru18Pt
_chemical_formula_sum   'Er2 Zr3 P12 Ru18 Pt1'
_cell_volume   531.35584966
_cell_formula_units_Z   1
loop_
 _symmetry_equiv_pos_site_id
 _symmetry_equiv_pos_as_xyz
  1  'x, y, z'
loop_
 _atom_site_type_symbol
 _atom_site_label
 _atom_site_symmetry_multiplicity
 _atom_site_fract_x
 _atom_site_fract_y
 _atom_site_fract_z
 _atom_site_occupancy
  Er  Er0  1  0.813634  0.999873  0.500000  1
  Er  Er1  1  0.999873  0.813634  0.500000  1
  Zr  Zr2  1  0.187572  0.187572  0.500000  1
  Zr  Zr3  1  0.327410  0.666092  0.000000  1
  Zr  Zr4  1  0.666092  0.327410  0.000000  1
  P  P5  1  0.815188  0.815188  0.000000  1
  P  P6  1  0.183094  0.001749  0.000000  1
  P  P7  1  0.001749  0.183094  0.000000  1
  P  P8  1  0.174542  0.481157  0.500000  1
  P  P9  1  0.517305  0.700617  0.500000  1
  P  P10  1  0.304977  0.829266  0.500000  1
  P  P11  1  0.700617  0.517305  0.500000  1
  P  P12  1  0.829266  0.304977  0.500000  1
  P  P13  1  0.481157  0.174542  0.500000  1
  P  P14  1  0.361947  0.361947  0.000000  1
  P  P15  1  0.628403  0.999829  0.000000  1
  P  P16  1  0.999829  0.628403  0.000000  1
  Ru  Ru17  1  0.447313  0.004520  0.000000  1
  Ru  Ru18  1  0.004520  0.447313  0.000000  1
  Ru  Ru19  1  0.712313  0.712313  0.500000  1
  Ru  Ru20  1  0.282849  0.003615  0.500000  1
  Ru  Ru21  1  0.003615  0.282849  0.500000  1
  Ru  Ru22  1  0.186510  0.376811  0.000000  1
  Ru  Ru23  1  0.618363  0.804444  0.000000  1
  Ru  Ru24  1  0.192712  0.816480  0.000000  1
  Ru  Ru25  1  0.804444  0.618363  0.000000  1
  Ru  Ru26  1  0.816480  0.192712  0.000000  1
  Ru  Ru27  1  0.376811  0.186510  0.000000  1
  Ru  Ru28  1  0.367185  0.497615  0.500000  1
  Ru  Ru29  1  0.504283  0.876079  0.500000  1
  Ru  Ru30  1  0.130008  0.634491  0.500000  1
  Ru  Ru31  1  0.876079  0.504283  0.500000  1
  Ru  Ru32  1  0.634491  0.130008  0.500000  1
  Ru  Ru33  1  0.497615  0.367185  0.500000  1
  Ru  Ru34  1  0.002041  0.002041  0.000000  1
  Pt  Pt35  1  0.549713  0.549713  0.000000  1
