# generated using pymatgen
data_Ba4Cd(IO6)2
_symmetry_space_group_name_H-M   'P 1'
_cell_length_a   10.26740954
_cell_length_b   10.26740900
_cell_length_c   10.26740921
_cell_angle_alpha   33.37627310
_cell_angle_beta   33.37627720
_cell_angle_gamma   33.37627366
_symmetry_Int_Tables_number   1
_chemical_formula_structural   Ba4Cd(IO6)2
_chemical_formula_sum   'Ba4 Cd1 I2 O12'
_cell_volume   291.69911969
_cell_formula_units_Z   1
loop_
 _symmetry_equiv_pos_site_id
 _symmetry_equiv_pos_as_xyz
  1  'x, y, z'
loop_
 _atom_site_type_symbol
 _atom_site_label
 _atom_site_symmetry_multiplicity
 _atom_site_fract_x
 _atom_site_fract_y
 _atom_site_fract_z
 _atom_site_occupancy
  Ba  Ba0  1  0.711555  0.711555  0.711555  1
  Ba  Ba1  1  0.288445  0.288445  0.288445  1
  Ba  Ba2  1  0.866415  0.866415  0.866415  1
  Ba  Ba3  1  0.133585  0.133585  0.133585  1
  Cd  Cd4  1  0.000000  0.000000  0.000000  1
  I  I5  1  0.580754  0.580754  0.580754  1
  I  I6  1  0.419246  0.419246  0.419246  1
  O  O7  1  0.226786  0.684325  0.226786  1
  O  O8  1  0.226786  0.226786  0.684325  1
  O  O9  1  0.684325  0.226786  0.226786  1
  O  O10  1  0.773214  0.315675  0.773214  1
  O  O11  1  0.773214  0.773214  0.315675  1
  O  O12  1  0.315675  0.773214  0.773214  1
  O  O13  1  0.389384  0.861441  0.389384  1
  O  O14  1  0.389384  0.389384  0.861441  1
  O  O15  1  0.861441  0.389384  0.389384  1
  O  O16  1  0.610616  0.138559  0.610616  1
  O  O17  1  0.610616  0.610616  0.138559  1
  O  O18  1  0.138559  0.610616  0.610616  1
