# generated using pymatgen
data_K9Rb3Al2(FeSe6)2
_symmetry_space_group_name_H-M   'P 1'
_cell_length_a   13.51248161
_cell_length_b   8.21771519
_cell_length_c   10.50253598
_cell_angle_alpha   52.80462496
_cell_angle_beta   89.64221641
_cell_angle_gamma   89.57932563
_symmetry_Int_Tables_number   1
_chemical_formula_structural   K9Rb3Al2(FeSe6)2
_chemical_formula_sum   'K9 Rb3 Al2 Fe2 Se12'
_cell_volume   928.95838065
_cell_formula_units_Z   1
loop_
 _symmetry_equiv_pos_site_id
 _symmetry_equiv_pos_as_xyz
  1  'x, y, z'
loop_
 _atom_site_type_symbol
 _atom_site_label
 _atom_site_symmetry_multiplicity
 _atom_site_fract_x
 _atom_site_fract_y
 _atom_site_fract_z
 _atom_site_occupancy
  K  K0  1  0.899764  0.323675  0.399258  1
  K  K1  1  0.617773  0.371617  0.471901  1
  K  K2  1  0.117894  0.627994  0.028589  1
  K  K3  1  0.382353  0.624664  0.528414  1
  K  K4  1  0.883607  0.375862  0.971505  1
  K  K5  1  0.602255  0.319718  0.901336  1
  K  K6  1  0.102452  0.680114  0.598716  1
  K  K7  1  0.398143  0.676697  0.100850  1
  K  K8  1  0.188953  0.153749  0.572769  1
  Rb  Rb9  1  0.310657  0.154752  0.070405  1
  Rb  Rb10  1  0.687844  0.844422  0.930787  1
  Rb  Rb11  1  0.811504  0.845666  0.429788  1
  Al  Al12  1  0.436768  0.946550  0.656164  1
  Al  Al13  1  0.938790  0.056007  0.842556  1
  Fe  Fe14  1  0.062619  0.943399  0.156219  1
  Fe  Fe15  1  0.560823  0.055256  0.343650  1
  Se  Se16  1  0.399133  0.176057  0.368797  1
  Se  Se17  1  0.901745  0.825890  0.130886  1
  Se  Se18  1  0.596376  0.822296  0.633832  1
  Se  Se19  1  0.098703  0.175244  0.864437  1
  Se  Se20  1  0.684519  0.316666  0.201619  1
  Se  Se21  1  0.184535  0.676074  0.301250  1
  Se  Se22  1  0.313110  0.685397  0.796309  1
  Se  Se23  1  0.815310  0.319971  0.702088  1
  Se  Se24  1  0.547930  0.867783  0.239468  1
  Se  Se25  1  0.048848  0.132069  0.259729  1
  Se  Se26  1  0.452634  0.132245  0.762325  1
  Se  Se27  1  0.954956  0.870166  0.736355  1
