# generated using pymatgen
data_ScZn2InPd2
_symmetry_space_group_name_H-M   'P 1'
_cell_length_a   5.20022661
_cell_length_b   5.20022657
_cell_length_c   5.18032300
_cell_angle_alpha   90.00000000
_cell_angle_beta   90.00000000
_cell_angle_gamma   131.18079566
_symmetry_Int_Tables_number   1
_chemical_formula_structural   ScZn2InPd2
_chemical_formula_sum   'Sc1 Zn2 In1 Pd2'
_cell_volume   105.43532914
_cell_formula_units_Z   1
loop_
 _symmetry_equiv_pos_site_id
 _symmetry_equiv_pos_as_xyz
  1  'x, y, z'
loop_
 _atom_site_type_symbol
 _atom_site_label
 _atom_site_symmetry_multiplicity
 _atom_site_fract_x
 _atom_site_fract_y
 _atom_site_fract_z
 _atom_site_occupancy
  Sc  Sc0  1  0.288382  0.711618  0.750000  1
  Zn  Zn1  1  0.993796  0.006204  0.504289  1
  Zn  Zn2  1  0.993796  0.006204  0.995711  1
  In  In3  1  0.713897  0.286103  0.250000  1
  Pd  Pd4  1  0.417217  0.582783  0.250000  1
  Pd  Pd5  1  0.592912  0.407088  0.750000  1
