# generated using pymatgen
data_Sc10Bi9Te
_symmetry_space_group_name_H-M   'P 1'
_cell_length_a   7.38340733
_cell_length_b   8.53225002
_cell_length_c   9.51884693
_cell_angle_alpha   102.78949633
_cell_angle_beta   97.47540155
_cell_angle_gamma   106.95726283
_symmetry_Int_Tables_number   1
_chemical_formula_structural   Sc10Bi9Te
_chemical_formula_sum   'Sc10 Bi9 Te1'
_cell_volume   547.04104144
_cell_formula_units_Z   1
loop_
 _symmetry_equiv_pos_site_id
 _symmetry_equiv_pos_as_xyz
  1  'x, y, z'
loop_
 _atom_site_type_symbol
 _atom_site_label
 _atom_site_symmetry_multiplicity
 _atom_site_fract_x
 _atom_site_fract_y
 _atom_site_fract_z
 _atom_site_occupancy
  Sc  Sc0  1  0.900732  0.549614  0.800439  1
  Sc  Sc1  1  0.697815  0.151496  0.399835  1
  Sc  Sc2  1  0.499992  0.749778  0.000122  1
  Sc  Sc3  1  0.697607  0.647100  0.399204  1
  Sc  Sc4  1  0.302393  0.352900  0.600796  1
  Sc  Sc5  1  0.100913  0.948568  0.197142  1
  Sc  Sc6  1  0.500008  0.250222  0.999878  1
  Sc  Sc7  1  0.302185  0.848504  0.600165  1
  Sc  Sc8  1  0.099268  0.450386  0.199561  1
  Sc  Sc9  1  0.899087  0.051432  0.802858  1
  Bi  Bi10  1  0.799826  0.600460  0.100729  1
  Bi  Bi11  1  0.599459  0.199625  0.699797  1
  Bi  Bi12  1  0.400541  0.800375  0.300203  1
  Bi  Bi13  1  0.799873  0.099930  0.101708  1
  Bi  Bi14  1  0.200174  0.399540  0.899271  1
  Bi  Bi15  1  0.602555  0.701128  0.700532  1
  Bi  Bi16  1  0.397445  0.298872  0.299468  1
  Bi  Bi17  1  0.200127  0.900070  0.898292  1
  Bi  Bi18  1  0.000000  0.500000  0.500000  1
  Te  Te19  1  0.000000  0.000000  0.500000  1
