# generated using pymatgen
data_Dy2ErZn(SiRh3)2
_symmetry_space_group_name_H-M   'P 1'
_cell_length_a   5.56049900
_cell_length_b   5.56049754
_cell_length_c   15.29719200
_cell_angle_alpha   90.00000000
_cell_angle_beta   90.00000000
_cell_angle_gamma   120.00000271
_symmetry_Int_Tables_number   1
_chemical_formula_structural   Dy2ErZn(SiRh3)2
_chemical_formula_sum   'Dy4 Er2 Zn2 Si4 Rh12'
_cell_volume   409.60925217
_cell_formula_units_Z   2
loop_
 _symmetry_equiv_pos_site_id
 _symmetry_equiv_pos_as_xyz
  1  'x, y, z'
loop_
 _atom_site_type_symbol
 _atom_site_label
 _atom_site_symmetry_multiplicity
 _atom_site_fract_x
 _atom_site_fract_y
 _atom_site_fract_z
 _atom_site_occupancy
  Dy  Dy0  1  0.333333  0.666667  0.537469  1
  Dy  Dy1  1  0.666667  0.333333  0.462531  1
  Dy  Dy2  1  0.333333  0.666667  0.750037  1
  Dy  Dy3  1  0.666667  0.333333  0.249963  1
  Er  Er4  1  0.666667  0.333333  0.037360  1
  Er  Er5  1  0.333333  0.666667  0.962640  1
  Zn  Zn6  1  0.000000  0.000000  0.000000  1
  Zn  Zn7  1  0.000000  0.000000  0.500000  1
  Si  Si8  1  0.000000  0.000000  0.249964  1
  Si  Si9  1  0.000000  0.000000  0.750036  1
  Si  Si10  1  0.333333  0.666667  0.249993  1
  Si  Si11  1  0.666667  0.333333  0.750007  1
  Rh  Rh12  1  0.167932  0.335865  0.133703  1
  Rh  Rh13  1  0.832068  0.664135  0.866297  1
  Rh  Rh14  1  0.664135  0.832068  0.133703  1
  Rh  Rh15  1  0.832127  0.664255  0.633819  1
  Rh  Rh16  1  0.335865  0.167932  0.866297  1
  Rh  Rh17  1  0.167873  0.335745  0.366181  1
  Rh  Rh18  1  0.167932  0.832068  0.133703  1
  Rh  Rh19  1  0.335745  0.167873  0.633819  1
  Rh  Rh20  1  0.832068  0.167932  0.866297  1
  Rh  Rh21  1  0.664255  0.832127  0.366181  1
  Rh  Rh22  1  0.832127  0.167873  0.633819  1
  Rh  Rh23  1  0.167873  0.832127  0.366181  1
