# generated using pymatgen
data_Tm12Fe4SnIr
_symmetry_space_group_name_H-M   'P 1'
_cell_length_a   8.19748810
_cell_length_b   8.19748931
_cell_length_c   8.19748790
_cell_angle_alpha   110.87664773
_cell_angle_beta   111.11479152
_cell_angle_gamma   106.46353885
_symmetry_Int_Tables_number   1
_chemical_formula_structural   Tm12Fe4SnIr
_chemical_formula_sum   'Tm12 Fe4 Sn1 Ir1'
_cell_volume   423.18091968
_cell_formula_units_Z   1
loop_
 _symmetry_equiv_pos_site_id
 _symmetry_equiv_pos_as_xyz
  1  'x, y, z'
loop_
 _atom_site_type_symbol
 _atom_site_label
 _atom_site_symmetry_multiplicity
 _atom_site_fract_x
 _atom_site_fract_y
 _atom_site_fract_z
 _atom_site_occupancy
  Tm  Tm0  1  0.415900  0.219792  0.196108  1
  Tm  Tm1  1  0.584100  0.780208  0.803892  1
  Tm  Tm2  1  0.023684  0.219792  0.803892  1
  Tm  Tm3  1  0.976316  0.780208  0.196108  1
  Tm  Tm4  1  0.183952  0.280110  0.464062  1
  Tm  Tm5  1  0.816048  0.719890  0.535938  1
  Tm  Tm6  1  0.183952  0.719890  0.903842  1
  Tm  Tm7  1  0.816048  0.280110  0.096158  1
  Tm  Tm8  1  0.313349  0.617279  0.303929  1
  Tm  Tm9  1  0.686651  0.382721  0.696071  1
  Tm  Tm10  1  0.313349  0.009421  0.696071  1
  Tm  Tm11  1  0.686651  0.990579  0.303929  1
  Fe  Fe12  1  0.381646  0.000000  0.381646  1
  Fe  Fe13  1  0.618354  0.000000  0.618354  1
  Fe  Fe14  1  0.107687  0.607687  0.500000  1
  Fe  Fe15  1  0.892313  0.392313  0.500000  1
  Sn  Sn16  1  0.500000  0.500000  0.000000  1
  Ir  Ir17  1  0.000000  0.000000  0.000000  1
