# generated using pymatgen
data_NaSb(SO4)3
_symmetry_space_group_name_H-M   'P 1'
_cell_length_a   8.15951918
_cell_length_b   8.15951853
_cell_length_c   9.06293600
_cell_angle_alpha   68.60465996
_cell_angle_beta   68.60466175
_cell_angle_gamma   66.05904599
_symmetry_Int_Tables_number   1
_chemical_formula_structural   NaSb(SO4)3
_chemical_formula_sum   'Na2 Sb2 S6 O24'
_cell_volume   496.53416231
_cell_formula_units_Z   2
loop_
 _symmetry_equiv_pos_site_id
 _symmetry_equiv_pos_as_xyz
  1  'x, y, z'
loop_
 _atom_site_type_symbol
 _atom_site_label
 _atom_site_symmetry_multiplicity
 _atom_site_fract_x
 _atom_site_fract_y
 _atom_site_fract_z
 _atom_site_occupancy
  Na  Na0  1  0.360619  0.871488  0.387042  1
  Na  Na1  1  0.871488  0.360619  0.887042  1
  Sb  Sb2  1  0.141281  0.643544  0.015076  1
  Sb  Sb3  1  0.643544  0.141281  0.515076  1
  S  S4  1  0.826363  0.497365  0.323559  1
  S  S5  1  0.497365  0.826363  0.823559  1
  S  S6  1  0.983484  0.957227  0.228488  1
  S  S7  1  0.957227  0.983484  0.728488  1
  S  S8  1  0.442285  0.311877  0.214735  1
  S  S9  1  0.311877  0.442285  0.714735  1
  O  O10  1  0.780900  0.986720  0.348344  1
  O  O11  1  0.986720  0.780900  0.848344  1
  O  O12  1  0.919063  0.510702  0.423630  1
  O  O13  1  0.646652  0.627370  0.308075  1
  O  O14  1  0.959279  0.495773  0.141555  1
  O  O15  1  0.510702  0.919063  0.923630  1
  O  O16  1  0.119237  0.856188  0.322145  1
  O  O17  1  0.819033  0.292821  0.378979  1
  O  O18  1  0.627370  0.646652  0.808075  1
  O  O19  1  0.495773  0.959279  0.641555  1
  O  O20  1  0.856188  0.119237  0.822145  1
  O  O21  1  0.619049  0.316689  0.103965  1
  O  O22  1  0.292821  0.819033  0.878979  1
  O  O23  1  0.966097  0.827665  0.146501  1
  O  O24  1  0.443629  0.300323  0.393011  1
  O  O25  1  0.297100  0.511008  0.181124  1
  O  O26  1  0.316689  0.619049  0.603965  1
  O  O27  1  0.827665  0.966097  0.646501  1
  O  O28  1  0.368990  0.172946  0.226738  1
  O  O29  1  0.300323  0.443629  0.893011  1
  O  O30  1  0.511008  0.297100  0.681124  1
  O  O31  1  0.172946  0.368990  0.726738  1
  O  O32  1  0.002459  0.124776  0.107032  1
  O  O33  1  0.124776  0.002459  0.607032  1
