# generated using pymatgen
data_Yb6CeDy3Ru4
_symmetry_space_group_name_H-M   'P 1'
_cell_length_a   8.63822850
_cell_length_b   8.60568575
_cell_length_c   7.34170934
_cell_angle_alpha   82.99137795
_cell_angle_beta   84.33985042
_cell_angle_gamma   43.92303204
_symmetry_Int_Tables_number   1
_chemical_formula_structural   Yb6CeDy3Ru4
_chemical_formula_sum   'Yb6 Ce1 Dy3 Ru4'
_cell_volume   375.71930376
_cell_formula_units_Z   1
loop_
 _symmetry_equiv_pos_site_id
 _symmetry_equiv_pos_as_xyz
  1  'x, y, z'
loop_
 _atom_site_type_symbol
 _atom_site_label
 _atom_site_symmetry_multiplicity
 _atom_site_fract_x
 _atom_site_fract_y
 _atom_site_fract_z
 _atom_site_occupancy
  Yb  Yb0  1  0.016466  0.799215  0.919889  1
  Yb  Yb1  1  0.209666  0.364122  0.315262  1
  Yb  Yb2  1  0.631829  0.804427  0.183419  1
  Yb  Yb3  1  0.798401  0.635174  0.677158  1
  Yb  Yb4  1  0.368857  0.204968  0.818106  1
  Yb  Yb5  1  0.971354  0.200068  0.080008  1
  Ce  Ce6  1  0.184087  0.995498  0.604469  1
  Dy  Dy7  1  0.805849  0.021057  0.416022  1
  Dy  Dy8  1  0.559171  0.433782  0.752726  1
  Dy  Dy9  1  0.428566  0.570972  0.252476  1
  Ru  Ru10  1  0.182478  0.609385  0.566090  1
  Ru  Ru11  1  0.373806  0.842878  0.884404  1
  Ru  Ru12  1  0.866223  0.328917  0.446642  1
  Ru  Ru13  1  0.603246  0.189537  0.083329  1
