# generated using pymatgen
data_Ir(IF)2
_symmetry_space_group_name_H-M   'P 1'
_cell_length_a   6.57473268
_cell_length_b   6.57473252
_cell_length_c   6.57473351
_cell_angle_alpha   107.00568870
_cell_angle_beta   112.65992538
_cell_angle_gamma   108.80042502
_symmetry_Int_Tables_number   1
_chemical_formula_structural   Ir(IF)2
_chemical_formula_sum   'Ir2 I4 F4'
_cell_volume   218.22061437
_cell_formula_units_Z   2
loop_
 _symmetry_equiv_pos_site_id
 _symmetry_equiv_pos_as_xyz
  1  'x, y, z'
loop_
 _atom_site_type_symbol
 _atom_site_label
 _atom_site_symmetry_multiplicity
 _atom_site_fract_x
 _atom_site_fract_y
 _atom_site_fract_z
 _atom_site_occupancy
  Ir  Ir0  1  0.000000  0.250100  0.250100  1
  Ir  Ir1  1  0.000000  0.749900  0.749900  1
  I  I2  1  0.766332  0.766332  0.000000  1
  I  I3  1  0.233668  0.233668  0.000000  1
  I  I4  1  0.766512  0.266512  0.500000  1
  I  I5  1  0.233488  0.733488  0.500000  1
  F  F6  1  0.725111  0.249861  0.974972  1
  F  F7  1  0.274889  0.249861  0.524750  1
  F  F8  1  0.725111  0.750139  0.475250  1
  F  F9  1  0.274889  0.750139  0.025028  1
