# generated using pymatgen
data_Cs3TlSe3
_symmetry_space_group_name_H-M   'P 1'
_cell_length_a   8.88713286
_cell_length_b   8.88713236
_cell_length_c   8.80594319
_cell_angle_alpha   83.27327411
_cell_angle_beta   83.27328287
_cell_angle_gamma   112.66141433
_symmetry_Int_Tables_number   1
_chemical_formula_structural   Cs3TlSe3
_chemical_formula_sum   'Cs6 Tl2 Se6'
_cell_volume   627.32028342
_cell_formula_units_Z   2
loop_
 _symmetry_equiv_pos_site_id
 _symmetry_equiv_pos_as_xyz
  1  'x, y, z'
loop_
 _atom_site_type_symbol
 _atom_site_label
 _atom_site_symmetry_multiplicity
 _atom_site_fract_x
 _atom_site_fract_y
 _atom_site_fract_z
 _atom_site_occupancy
  Cs  Cs0  1  0.610699  0.610699  0.649119  1
  Cs  Cs1  1  0.389301  0.389301  0.350881  1
  Cs  Cs2  1  0.175253  0.824747  0.500000  1
  Cs  Cs3  1  0.824747  0.175253  0.500000  1
  Cs  Cs4  1  0.242479  0.757521  0.000000  1
  Cs  Cs5  1  0.757521  0.242479  0.000000  1
  Tl  Tl6  1  0.174789  0.174789  0.844998  1
  Tl  Tl7  1  0.825211  0.825211  0.155002  1
  Se  Se8  1  0.447605  0.149596  0.717402  1
  Se  Se9  1  0.850404  0.552395  0.282598  1
  Se  Se10  1  0.552395  0.850404  0.282598  1
  Se  Se11  1  0.149596  0.447605  0.717402  1
  Se  Se12  1  0.105073  0.105073  0.168494  1
  Se  Se13  1  0.894927  0.894927  0.831506  1
