# generated using pymatgen
data_Ce2Zn2FeCo
_symmetry_space_group_name_H-M   'P 1'
_cell_length_a   6.01840015
_cell_length_b   6.01839972
_cell_length_c   4.58605347
_cell_angle_alpha   73.68501781
_cell_angle_beta   73.68501522
_cell_angle_gamma   43.89111668
_symmetry_Int_Tables_number   1
_chemical_formula_structural   Ce2Zn2FeCo
_chemical_formula_sum   'Ce2 Zn2 Fe1 Co1'
_cell_volume   109.75507020
_cell_formula_units_Z   1
loop_
 _symmetry_equiv_pos_site_id
 _symmetry_equiv_pos_as_xyz
  1  'x, y, z'
loop_
 _atom_site_type_symbol
 _atom_site_label
 _atom_site_symmetry_multiplicity
 _atom_site_fract_x
 _atom_site_fract_y
 _atom_site_fract_z
 _atom_site_occupancy
  Ce  Ce0  1  0.871509  0.871509  0.337596  1
  Ce  Ce1  1  0.129920  0.129920  0.649621  1
  Zn  Zn2  1  0.581224  0.581224  0.179512  1
  Zn  Zn3  1  0.417272  0.417272  0.813599  1
  Fe  Fe4  1  0.193741  0.193741  0.166172  1
  Co  Co5  1  0.806334  0.806334  0.853500  1
