# generated using pymatgen
data_Tb4Ho3Sn23Os6
_symmetry_space_group_name_H-M   'P 1'
_cell_length_a   9.86994000
_cell_length_b   9.86993970
_cell_length_c   10.13541900
_cell_angle_alpha   90.00000000
_cell_angle_beta   90.00000000
_cell_angle_gamma   119.99999432
_symmetry_Int_Tables_number   1
_chemical_formula_structural   Tb4Ho3Sn23Os6
_chemical_formula_sum   'Tb4 Ho3 Sn23 Os6'
_cell_volume   855.06942115
_cell_formula_units_Z   1
loop_
 _symmetry_equiv_pos_site_id
 _symmetry_equiv_pos_as_xyz
  1  'x, y, z'
loop_
 _atom_site_type_symbol
 _atom_site_label
 _atom_site_symmetry_multiplicity
 _atom_site_fract_x
 _atom_site_fract_y
 _atom_site_fract_z
 _atom_site_occupancy
  Tb  Tb0  1  0.000000  0.000000  0.000029  1
  Tb  Tb1  1  0.514973  0.485027  0.697919  1
  Tb  Tb2  1  0.514973  0.029944  0.697919  1
  Tb  Tb3  1  0.970056  0.485027  0.697919  1
  Ho  Ho4  1  0.029254  0.514627  0.301843  1
  Ho  Ho5  1  0.485373  0.970746  0.301843  1
  Ho  Ho6  1  0.485373  0.514627  0.301843  1
  Sn  Sn7  1  0.666667  0.333333  0.175393  1
  Sn  Sn8  1  0.666667  0.333333  0.870588  1
  Sn  Sn9  1  0.333333  0.666667  0.130114  1
  Sn  Sn10  1  0.349880  0.349862  0.000077  1
  Sn  Sn11  1  0.999982  0.650120  0.000077  1
  Sn  Sn12  1  0.650138  0.000018  0.000077  1
  Sn  Sn13  1  0.650138  0.650120  0.000077  1
  Sn  Sn14  1  0.333333  0.666667  0.824799  1
  Sn  Sn15  1  0.439690  0.219845  0.462796  1
  Sn  Sn16  1  0.219824  0.780176  0.536680  1
  Sn  Sn17  1  0.219824  0.439647  0.536680  1
  Sn  Sn18  1  0.560353  0.780176  0.536680  1
  Sn  Sn19  1  0.117816  0.882184  0.275785  1
  Sn  Sn20  1  0.780155  0.560310  0.462796  1
  Sn  Sn21  1  0.780155  0.219845  0.462796  1
  Sn  Sn22  1  0.349880  0.000018  0.000077  1
  Sn  Sn23  1  0.117816  0.235632  0.275785  1
  Sn  Sn24  1  0.764368  0.882184  0.275785  1
  Sn  Sn25  1  0.235385  0.117692  0.724273  1
  Sn  Sn26  1  0.882308  0.764615  0.724273  1
  Sn  Sn27  1  0.882308  0.117692  0.724273  1
  Sn  Sn28  1  0.000000  0.000000  0.499991  1
  Sn  Sn29  1  0.999982  0.349862  0.000077  1
  Os  Os30  1  0.170221  0.829779  0.797859  1
  Os  Os31  1  0.170221  0.340441  0.797859  1
  Os  Os32  1  0.659559  0.829779  0.797859  1
  Os  Os33  1  0.340766  0.170384  0.202386  1
  Os  Os34  1  0.829616  0.659234  0.202386  1
  Os  Os35  1  0.829616  0.170384  0.202386  1
