# generated using pymatgen
data_Yb10Cd2Pd3Pt
_symmetry_space_group_name_H-M   'P 1'
_cell_length_a   9.06253561
_cell_length_b   9.06253421
_cell_length_c   9.07748286
_cell_angle_alpha   128.83899039
_cell_angle_beta   128.83898292
_cell_angle_gamma   75.14718330
_symmetry_Int_Tables_number   1
_chemical_formula_structural   Yb10Cd2Pd3Pt
_chemical_formula_sum   'Yb10 Cd2 Pd3 Pt1'
_cell_volume   440.63911105
_cell_formula_units_Z   1
loop_
 _symmetry_equiv_pos_site_id
 _symmetry_equiv_pos_as_xyz
  1  'x, y, z'
loop_
 _atom_site_type_symbol
 _atom_site_label
 _atom_site_symmetry_multiplicity
 _atom_site_fract_x
 _atom_site_fract_y
 _atom_site_fract_z
 _atom_site_occupancy
  Yb  Yb0  1  0.497386  0.501109  0.998494  1
  Yb  Yb1  1  0.001109  0.997386  0.998494  1
  Yb  Yb2  1  0.532404  0.032404  0.828555  1
  Yb  Yb3  1  0.203439  0.703439  0.168708  1
  Yb  Yb4  1  0.033315  0.206165  0.501671  1
  Yb  Yb5  1  0.706165  0.533315  0.501671  1
  Yb  Yb6  1  0.465270  0.965270  0.168708  1
  Yb  Yb7  1  0.796149  0.296149  0.828555  1
  Yb  Yb8  1  0.968357  0.795506  0.501671  1
  Yb  Yb9  1  0.295506  0.468357  0.501671  1
  Cd  Cd10  1  0.250172  0.250172  0.000344  1
  Cd  Cd11  1  0.750172  0.750172  0.000344  1
  Pd  Pd12  1  0.866282  0.366282  0.232564  1
  Pd  Pd13  1  0.632950  0.867333  0.500283  1
  Pd  Pd14  1  0.367333  0.132950  0.500283  1
  Pt  Pt15  1  0.133991  0.633991  0.767982  1
