# generated using pymatgen
data_Ba4La7SmSe16
_symmetry_space_group_name_H-M   'P 1'
_cell_length_a   4.41257800
_cell_length_b   13.10194501
_cell_length_c   15.75708336
_cell_angle_alpha   89.75499398
_cell_angle_beta   90.00000000
_cell_angle_gamma   90.00000000
_symmetry_Int_Tables_number   1
_chemical_formula_structural   Ba4La7SmSe16
_chemical_formula_sum   'Ba4 La7 Sm1 Se16'
_cell_volume   910.96151416
_cell_formula_units_Z   1
loop_
 _symmetry_equiv_pos_site_id
 _symmetry_equiv_pos_as_xyz
  1  'x, y, z'
loop_
 _atom_site_type_symbol
 _atom_site_label
 _atom_site_symmetry_multiplicity
 _atom_site_fract_x
 _atom_site_fract_y
 _atom_site_fract_z
 _atom_site_occupancy
  Ba  Ba0  1  0.250000  0.757411  0.338462  1
  Ba  Ba1  1  0.250000  0.256697  0.164298  1
  Ba  Ba2  1  0.750000  0.241218  0.659744  1
  Ba  Ba3  1  0.750000  0.743291  0.837283  1
  La  La4  1  0.250000  0.427459  0.391777  1
  La  La5  1  0.250000  0.931377  0.111165  1
  La  La6  1  0.750000  0.570254  0.609141  1
  La  La7  1  0.750000  0.070576  0.891083  1
  La  La8  1  0.250000  0.418712  0.898533  1
  La  La9  1  0.250000  0.921729  0.599355  1
  La  La10  1  0.750000  0.580407  0.101724  1
  Sm  Sm11  1  0.750000  0.079530  0.397580  1
  Se  Se12  1  0.250000  0.207067  0.822311  1
  Se  Se13  1  0.250000  0.708633  0.674835  1
  Se  Se14  1  0.750000  0.792870  0.177350  1
  Se  Se15  1  0.750000  0.288641  0.326515  1
  Se  Se16  1  0.250000  0.131837  0.520575  1
  Se  Se17  1  0.250000  0.630983  0.974237  1
  Se  Se18  1  0.750000  0.872217  0.471905  1
  Se  Se19  1  0.750000  0.368325  0.026265  1
  Se  Se20  1  0.250000  0.521002  0.217425  1
  Se  Se21  1  0.250000  0.024464  0.286067  1
  Se  Se22  1  0.750000  0.477348  0.783117  1
  Se  Se23  1  0.750000  0.978123  0.716064  1
  Se  Se24  1  0.250000  0.415819  0.580655  1
  Se  Se25  1  0.250000  0.916590  0.921636  1
  Se  Se26  1  0.750000  0.582826  0.420042  1
  Se  Se27  1  0.750000  0.084594  0.080855  1
