# generated using pymatgen
data_La2Fe3Tc14C3
_symmetry_space_group_name_H-M   'P 1'
_cell_length_a   6.94463494
_cell_length_b   6.94463445
_cell_length_c   6.94463416
_cell_angle_alpha   82.94926820
_cell_angle_beta   82.94926775
_cell_angle_gamma   82.94927705
_symmetry_Int_Tables_number   1
_chemical_formula_structural   La2Fe3Tc14C3
_chemical_formula_sum   'La2 Fe3 Tc14 C3'
_cell_volume   327.90172946
_cell_formula_units_Z   1
loop_
 _symmetry_equiv_pos_site_id
 _symmetry_equiv_pos_as_xyz
  1  'x, y, z'
loop_
 _atom_site_type_symbol
 _atom_site_label
 _atom_site_symmetry_multiplicity
 _atom_site_fract_x
 _atom_site_fract_y
 _atom_site_fract_z
 _atom_site_occupancy
  La  La0  1  0.650225  0.650225  0.650225  1
  La  La1  1  0.349775  0.349775  0.349775  1
  Fe  Fe2  1  0.000000  0.000000  0.500000  1
  Fe  Fe3  1  0.500000  0.000000  0.000000  1
  Fe  Fe4  1  0.000000  0.500000  0.000000  1
  Tc  Tc5  1  0.724767  0.275233  0.000000  1
  Tc  Tc6  1  0.000000  0.724767  0.275233  1
  Tc  Tc7  1  0.275233  0.000000  0.724767  1
  Tc  Tc8  1  0.000000  0.275233  0.724767  1
  Tc  Tc9  1  0.724767  0.000000  0.275233  1
  Tc  Tc10  1  0.275233  0.724767  0.000000  1
  Tc  Tc11  1  0.346267  0.864649  0.346267  1
  Tc  Tc12  1  0.346267  0.346267  0.864649  1
  Tc  Tc13  1  0.864649  0.346267  0.346267  1
  Tc  Tc14  1  0.653733  0.135351  0.653733  1
  Tc  Tc15  1  0.653733  0.653733  0.135351  1
  Tc  Tc16  1  0.135351  0.653733  0.653733  1
  Tc  Tc17  1  0.900810  0.900810  0.900810  1
  Tc  Tc18  1  0.099190  0.099190  0.099190  1
  C  C19  1  0.500000  0.500000  0.000000  1
  C  C20  1  0.000000  0.500000  0.500000  1
  C  C21  1  0.500000  0.000000  0.500000  1
