# generated using pymatgen
data_Na6Li4ZrSnAs6
_symmetry_space_group_name_H-M   'P 1'
_cell_length_a   9.76400224
_cell_length_b   9.76400231
_cell_length_c   14.24767100
_cell_angle_alpha   90.00000000
_cell_angle_beta   90.00000000
_cell_angle_gamma   142.90486837
_symmetry_Int_Tables_number   1
_chemical_formula_structural   Na6Li4ZrSnAs6
_chemical_formula_sum   'Na12 Li8 Zr2 Sn2 As12'
_cell_volume   819.25275174
_cell_formula_units_Z   2
loop_
 _symmetry_equiv_pos_site_id
 _symmetry_equiv_pos_as_xyz
  1  'x, y, z'
loop_
 _atom_site_type_symbol
 _atom_site_label
 _atom_site_symmetry_multiplicity
 _atom_site_fract_x
 _atom_site_fract_y
 _atom_site_fract_z
 _atom_site_occupancy
  Na  Na0  1  0.600295  0.941619  0.822421  1
  Na  Na1  1  0.264614  0.265991  0.320378  1
  Na  Na2  1  0.235386  0.234009  0.820378  1
  Na  Na3  1  0.734009  0.735386  0.679622  1
  Na  Na4  1  0.441619  0.100295  0.677579  1
  Na  Na5  1  0.899705  0.558381  0.322421  1
  Na  Na6  1  0.058381  0.399705  0.177579  1
  Na  Na7  1  0.408060  0.067999  0.178939  1
  Na  Na8  1  0.567999  0.908060  0.321061  1
  Na  Na9  1  0.091940  0.432001  0.678939  1
  Na  Na10  1  0.932001  0.591940  0.821061  1
  Na  Na11  1  0.765991  0.764614  0.179622  1
  Li  Li12  1  0.084323  0.915677  0.000000  1
  Li  Li13  1  0.583864  0.416136  0.500000  1
  Li  Li14  1  0.916136  0.083864  0.000000  1
  Li  Li15  1  0.755414  0.244586  0.000000  1
  Li  Li16  1  0.744586  0.255414  0.500000  1
  Li  Li17  1  0.244209  0.755791  0.000000  1
  Li  Li18  1  0.255791  0.744209  0.500000  1
  Li  Li19  1  0.415677  0.584323  0.500000  1
  Zr  Zr20  1  0.085713  0.914287  0.500000  1
  Zr  Zr21  1  0.414287  0.585713  0.000000  1
  Sn  Sn22  1  0.909627  0.090373  0.500000  1
  Sn  Sn23  1  0.590373  0.409627  0.000000  1
  As  As24  1  0.082838  0.413649  0.387507  1
  As  As25  1  0.913649  0.582838  0.112493  1
  As  As26  1  0.417162  0.086351  0.887507  1
  As  As27  1  0.586351  0.917162  0.612493  1
  As  As28  1  0.928893  0.599287  0.608503  1
  As  As29  1  0.099287  0.428893  0.891497  1
  As  As30  1  0.571107  0.900713  0.108503  1
  As  As31  1  0.400713  0.071107  0.391497  1
  As  As32  1  0.244837  0.241345  0.606692  1
  As  As33  1  0.741345  0.744837  0.893308  1
  As  As34  1  0.255163  0.258655  0.106692  1
  As  As35  1  0.758655  0.755163  0.393308  1
