# generated using pymatgen
data_Pa4In2RePd3
_symmetry_space_group_name_H-M   'P 1'
_cell_length_a   7.83214347
_cell_length_b   7.83214347
_cell_length_c   3.63928900
_cell_angle_alpha   90.00000000
_cell_angle_beta   90.00000000
_cell_angle_gamma   90.54772566
_symmetry_Int_Tables_number   1
_chemical_formula_structural   Pa4In2RePd3
_chemical_formula_sum   'Pa4 In2 Re1 Pd3'
_cell_volume   223.23278049
_cell_formula_units_Z   1
loop_
 _symmetry_equiv_pos_site_id
 _symmetry_equiv_pos_as_xyz
  1  'x, y, z'
loop_
 _atom_site_type_symbol
 _atom_site_label
 _atom_site_symmetry_multiplicity
 _atom_site_fract_x
 _atom_site_fract_y
 _atom_site_fract_z
 _atom_site_occupancy
  Pa  Pa0  1  0.325367  0.842837  0.500000  1
  Pa  Pa1  1  0.831699  0.668301  0.500000  1
  Pa  Pa2  1  0.182690  0.317310  0.500000  1
  Pa  Pa3  1  0.657163  0.174633  0.500000  1
  In  In4  1  0.994666  0.000977  0.000000  1
  In  In5  1  0.499023  0.505334  0.000000  1
  Re  Re6  1  0.370766  0.129234  0.000000  1
  Pd  Pd7  1  0.871398  0.369599  0.000000  1
  Pd  Pd8  1  0.130401  0.628602  0.000000  1
  Pd  Pd9  1  0.636828  0.863172  0.000000  1
