# generated using pymatgen
data_Nb3ZnPtN
_symmetry_space_group_name_H-M   'P 1'
_cell_length_a   7.05076800
_cell_length_b   7.05076800
_cell_length_c   7.05076800
_cell_angle_alpha   90.00000000
_cell_angle_beta   90.00000000
_cell_angle_gamma   90.00000000
_symmetry_Int_Tables_number   1
_chemical_formula_structural   Nb3ZnPtN
_chemical_formula_sum   'Nb12 Zn4 Pt4 N4'
_cell_volume   350.51715204
_cell_formula_units_Z   4
loop_
 _symmetry_equiv_pos_site_id
 _symmetry_equiv_pos_as_xyz
  1  'x, y, z'
loop_
 _atom_site_type_symbol
 _atom_site_label
 _atom_site_symmetry_multiplicity
 _atom_site_fract_x
 _atom_site_fract_y
 _atom_site_fract_z
 _atom_site_occupancy
  Nb  Nb0  1  0.794481  0.957855  0.372912  1
  Nb  Nb1  1  0.705519  0.042145  0.872912  1
  Nb  Nb2  1  0.205519  0.457855  0.127088  1
  Nb  Nb3  1  0.294481  0.542145  0.627088  1
  Nb  Nb4  1  0.957855  0.372912  0.794481  1
  Nb  Nb5  1  0.042145  0.872912  0.705519  1
  Nb  Nb6  1  0.457855  0.127088  0.205519  1
  Nb  Nb7  1  0.542145  0.627088  0.294481  1
  Nb  Nb8  1  0.372912  0.794481  0.957855  1
  Nb  Nb9  1  0.872912  0.705519  0.042145  1
  Nb  Nb10  1  0.127088  0.205519  0.457855  1
  Nb  Nb11  1  0.627088  0.294481  0.542145  1
  Zn  Zn12  1  0.181615  0.818385  0.318385  1
  Zn  Zn13  1  0.318385  0.181615  0.818385  1
  Zn  Zn14  1  0.818385  0.318385  0.181615  1
  Zn  Zn15  1  0.681615  0.681615  0.681615  1
  Pt  Pt16  1  0.570473  0.429527  0.929527  1
  Pt  Pt17  1  0.429527  0.929527  0.570473  1
  Pt  Pt18  1  0.929527  0.570473  0.429527  1
  Pt  Pt19  1  0.070473  0.070473  0.070473  1
  N  N20  1  0.876188  0.123812  0.623812  1
  N  N21  1  0.623812  0.876188  0.123812  1
  N  N22  1  0.123812  0.623812  0.876188  1
  N  N23  1  0.376188  0.376188  0.376188  1
