# generated using pymatgen
data_Yb2Ni5(PRu)7
_symmetry_space_group_name_H-M   'P 1'
_cell_length_a   9.36313792
_cell_length_b   9.38239791
_cell_length_c   3.77163000
_cell_angle_alpha   90.00000000
_cell_angle_beta   90.00000000
_cell_angle_gamma   120.67274937
_symmetry_Int_Tables_number   1
_chemical_formula_structural   Yb2Ni5(PRu)7
_chemical_formula_sum   'Yb2 Ni5 P7 Ru7'
_cell_volume   284.97762970
_cell_formula_units_Z   1
loop_
 _symmetry_equiv_pos_site_id
 _symmetry_equiv_pos_as_xyz
  1  'x, y, z'
loop_
 _atom_site_type_symbol
 _atom_site_label
 _atom_site_symmetry_multiplicity
 _atom_site_fract_x
 _atom_site_fract_y
 _atom_site_fract_z
 _atom_site_occupancy
  Yb  Yb0  1  0.002657  0.999837  0.000000  1
  Yb  Yb1  1  0.329511  0.663967  0.500000  1
  Ni  Ni2  1  0.826208  0.604151  0.000000  1
  Ni  Ni3  1  0.774532  0.170249  0.000000  1
  Ni  Ni4  1  0.403148  0.226932  0.000000  1
  Ni  Ni5  1  0.541644  0.131511  0.500000  1
  Ni  Ni6  1  0.583128  0.461868  0.500000  1
  P  P7  1  0.076828  0.630946  0.000000  1
  P  P8  1  0.552142  0.915071  0.000000  1
  P  P9  1  0.366086  0.445253  0.000000  1
  P  P10  1  0.780468  0.734551  0.500000  1
  P  P11  1  0.956307  0.221186  0.500000  1
  P  P12  1  0.269410  0.048240  0.500000  1
  P  P13  1  0.669935  0.333189  0.000000  1
  Ru  Ru14  1  0.090541  0.389515  0.000000  1
  Ru  Ru15  1  0.303833  0.909486  0.000000  1
  Ru  Ru16  1  0.606893  0.697783  0.000000  1
  Ru  Ru17  1  0.050122  0.767540  0.500000  1
  Ru  Ru18  1  0.716102  0.951986  0.500000  1
  Ru  Ru19  1  0.238678  0.285251  0.500000  1
  Ru  Ru20  1  0.861822  0.411490  0.500000  1
