# generated using pymatgen
data_Tm8Sc12Ga15As
_symmetry_space_group_name_H-M   'P 1'
_cell_length_a   7.20851005
_cell_length_b   7.50947339
_cell_length_c   14.38940892
_cell_angle_alpha   89.89394577
_cell_angle_beta   90.10273830
_cell_angle_gamma   90.02339798
_symmetry_Int_Tables_number   1
_chemical_formula_structural   Tm8Sc12Ga15As
_chemical_formula_sum   'Tm8 Sc12 Ga15 As1'
_cell_volume   778.92647825
_cell_formula_units_Z   1
loop_
 _symmetry_equiv_pos_site_id
 _symmetry_equiv_pos_as_xyz
  1  'x, y, z'
loop_
 _atom_site_type_symbol
 _atom_site_label
 _atom_site_symmetry_multiplicity
 _atom_site_fract_x
 _atom_site_fract_y
 _atom_site_fract_z
 _atom_site_occupancy
  Tm  Tm0  1  0.011407  0.179555  0.094966  1
  Tm  Tm1  1  0.989282  0.821011  0.904604  1
  Tm  Tm2  1  0.489862  0.678339  0.905387  1
  Tm  Tm3  1  0.987329  0.820574  0.594247  1
  Tm  Tm4  1  0.510006  0.321457  0.094604  1
  Tm  Tm5  1  0.010210  0.180471  0.405145  1
  Tm  Tm6  1  0.513099  0.314581  0.405535  1
  Tm  Tm7  1  0.490631  0.679407  0.594425  1
  Sc  Sc8  1  0.164227  0.505081  0.750768  1
  Sc  Sc9  1  0.837689  0.495210  0.249323  1
  Sc  Sc10  1  0.336091  0.005864  0.250263  1
  Sc  Sc11  1  0.663808  0.995805  0.749730  1
  Sc  Sc12  1  0.328812  0.172486  0.623506  1
  Sc  Sc13  1  0.670039  0.830262  0.376187  1
  Sc  Sc14  1  0.170872  0.671950  0.376817  1
  Sc  Sc15  1  0.670257  0.825870  0.124329  1
  Sc  Sc16  1  0.829033  0.327184  0.623872  1
  Sc  Sc17  1  0.330478  0.173889  0.875578  1
  Sc  Sc18  1  0.829272  0.327653  0.875177  1
  Sc  Sc19  1  0.171408  0.672309  0.124895  1
  Ga  Ga20  1  0.031863  0.116662  0.748860  1
  Ga  Ga21  1  0.968709  0.883946  0.250127  1
  Ga  Ga22  1  0.469783  0.614944  0.252470  1
  Ga  Ga23  1  0.531467  0.383750  0.749153  1
  Ga  Ga24  1  0.284081  0.868962  0.749165  1
  Ga  Ga25  1  0.716589  0.130179  0.250174  1
  Ga  Ga26  1  0.216073  0.369694  0.251224  1
  Ga  Ga27  1  0.784575  0.630575  0.748905  1
  Ga  Ga28  1  0.829577  0.535613  0.457408  1
  Ga  Ga29  1  0.336838  0.965227  0.459849  1
  Ga  Ga30  1  0.837873  0.533441  0.040262  1
  Ga  Ga31  1  0.662595  0.036202  0.541643  1
  Ga  Ga32  1  0.161962  0.466004  0.959414  1
  Ga  Ga33  1  0.662933  0.034372  0.959239  1
  Ga  Ga34  1  0.337985  0.965042  0.040599  1
  As  As35  1  0.163285  0.466427  0.542150  1
