# generated using pymatgen
data_Na3La8Ho9Sn16
_symmetry_space_group_name_H-M   'P 1'
_cell_length_a   8.02343900
_cell_length_b   8.37082314
_cell_length_c   15.73501300
_cell_angle_alpha   90.00000000
_cell_angle_beta   90.00000000
_cell_angle_gamma   90.04093816
_symmetry_Int_Tables_number   1
_chemical_formula_structural   Na3La8Ho9Sn16
_chemical_formula_sum   'Na3 La8 Ho9 Sn16'
_cell_volume   1056.80708540
_cell_formula_units_Z   1
loop_
 _symmetry_equiv_pos_site_id
 _symmetry_equiv_pos_as_xyz
  1  'x, y, z'
loop_
 _atom_site_type_symbol
 _atom_site_label
 _atom_site_symmetry_multiplicity
 _atom_site_fract_x
 _atom_site_fract_y
 _atom_site_fract_z
 _atom_site_occupancy
  Na  Na0  1  0.335979  0.996252  0.750000  1
  Na  Na1  1  0.163135  0.496271  0.250000  1
  Na  Na2  1  0.663520  0.002232  0.250000  1
  La  La3  1  0.503144  0.682590  0.597079  1
  La  La4  1  0.009109  0.824967  0.903631  1
  La  La5  1  0.491338  0.318349  0.097384  1
  La  La6  1  0.992226  0.181811  0.403162  1
  La  La7  1  0.491338  0.318349  0.402616  1
  La  La8  1  0.992226  0.181811  0.096838  1
  La  La9  1  0.503144  0.682590  0.902921  1
  La  La10  1  0.009109  0.824967  0.596369  1
  Ho  Ho11  1  0.665341  0.166283  0.626078  1
  Ho  Ho12  1  0.171489  0.327103  0.874053  1
  Ho  Ho13  1  0.333898  0.827385  0.125790  1
  Ho  Ho14  1  0.834549  0.670273  0.375166  1
  Ho  Ho15  1  0.333898  0.827385  0.374210  1
  Ho  Ho16  1  0.834549  0.670273  0.124834  1
  Ho  Ho17  1  0.665341  0.166283  0.873922  1
  Ho  Ho18  1  0.171489  0.327103  0.625947  1
  Ho  Ho19  1  0.836126  0.500730  0.750000  1
  Sn  Sn20  1  0.671166  0.959254  0.462355  1
  Sn  Sn21  1  0.170992  0.539451  0.037077  1
  Sn  Sn22  1  0.329601  0.041363  0.963904  1
  Sn  Sn23  1  0.829670  0.463942  0.542184  1
  Sn  Sn24  1  0.329601  0.041363  0.536096  1
  Sn  Sn25  1  0.829670  0.463942  0.957816  1
  Sn  Sn26  1  0.671166  0.959254  0.037645  1
  Sn  Sn27  1  0.170992  0.539451  0.462923  1
  Sn  Sn28  1  0.473504  0.387340  0.750000  1
  Sn  Sn29  1  0.968708  0.122012  0.750000  1
  Sn  Sn30  1  0.531299  0.613367  0.250000  1
  Sn  Sn31  1  0.031557  0.883357  0.250000  1
  Sn  Sn32  1  0.710525  0.861938  0.750000  1
  Sn  Sn33  1  0.200190  0.631706  0.750000  1
  Sn  Sn34  1  0.289375  0.129348  0.250000  1
  Sn  Sn35  1  0.791041  0.369907  0.250000  1
