# generated using pymatgen
data_Zr5AlInSb2
_symmetry_space_group_name_H-M   'P 1'
_cell_length_a   8.72662868
_cell_length_b   8.76419970
_cell_length_c   5.88491600
_cell_angle_alpha   90.00000000
_cell_angle_beta   90.00000000
_cell_angle_gamma   120.14252680
_symmetry_Int_Tables_number   1
_chemical_formula_structural   Zr5AlInSb2
_chemical_formula_sum   'Zr10 Al2 In2 Sb4'
_cell_volume   389.22805582
_cell_formula_units_Z   2
loop_
 _symmetry_equiv_pos_site_id
 _symmetry_equiv_pos_as_xyz
  1  'x, y, z'
loop_
 _atom_site_type_symbol
 _atom_site_label
 _atom_site_symmetry_multiplicity
 _atom_site_fract_x
 _atom_site_fract_y
 _atom_site_fract_z
 _atom_site_occupancy
  Zr  Zr0  1  0.728371  0.724289  0.750000  1
  Zr  Zr1  1  0.271629  0.995918  0.750000  1
  Zr  Zr2  1  0.000000  0.277218  0.750000  1
  Zr  Zr3  1  0.267488  0.268445  0.250000  1
  Zr  Zr4  1  0.732512  0.000957  0.250000  1
  Zr  Zr5  1  0.000000  0.731149  0.250000  1
  Zr  Zr6  1  0.669102  0.335464  0.998587  1
  Zr  Zr7  1  0.330898  0.666363  0.998587  1
  Zr  Zr8  1  0.330898  0.666363  0.501413  1
  Zr  Zr9  1  0.669102  0.335464  0.501413  1
  Al  Al10  1  0.000000  0.002164  0.992046  1
  Al  Al11  1  0.000000  0.002164  0.507954  1
  In  In12  1  0.381076  0.380244  0.750000  1
  In  In13  1  0.618924  0.999168  0.750000  1
  Sb  Sb14  1  0.000000  0.614351  0.750000  1
  Sb  Sb15  1  0.608846  0.611174  0.250000  1
  Sb  Sb16  1  0.391154  0.002328  0.250000  1
  Sb  Sb17  1  0.000000  0.386774  0.250000  1
