# generated using pymatgen
data_BeV10P5H2
_symmetry_space_group_name_H-M   'P 1'
_cell_length_a   6.92690843
_cell_length_b   6.93111690
_cell_length_c   4.77685100
_cell_angle_alpha   90.00000000
_cell_angle_beta   90.00000000
_cell_angle_gamma   120.02010492
_symmetry_Int_Tables_number   1
_chemical_formula_structural   BeV10P5H2
_chemical_formula_sum   'Be1 V10 P5 H2'
_cell_volume   198.57610017
_cell_formula_units_Z   1
loop_
 _symmetry_equiv_pos_site_id
 _symmetry_equiv_pos_as_xyz
  1  'x, y, z'
loop_
 _atom_site_type_symbol
 _atom_site_label
 _atom_site_symmetry_multiplicity
 _atom_site_fract_x
 _atom_site_fract_y
 _atom_site_fract_z
 _atom_site_occupancy
  Be  Be0  1  0.000000  0.598722  0.250000  1
  V  V1  1  0.757267  0.750385  0.250000  1
  V  V2  1  0.752645  0.005729  0.750000  1
  V  V3  1  0.000000  0.246475  0.250000  1
  V  V4  1  0.000000  0.760723  0.750000  1
  V  V5  1  0.247355  0.253084  0.750000  1
  V  V6  1  0.242733  0.993118  0.250000  1
  V  V7  1  0.336898  0.669159  0.497949  1
  V  V8  1  0.663102  0.332259  0.002051  1
  V  V9  1  0.663102  0.332259  0.497949  1
  V  V10  1  0.336898  0.669159  0.002051  1
  P  P11  1  0.000000  0.404739  0.750000  1
  P  P12  1  0.612505  0.610920  0.750000  1
  P  P13  1  0.611438  0.001559  0.250000  1
  P  P14  1  0.388562  0.390121  0.250000  1
  P  P15  1  0.387495  0.998415  0.750000  1
  H  H16  1  0.000000  0.991587  0.004904  1
  H  H17  1  0.000000  0.991587  0.495096  1
