# generated using pymatgen
data_Gd4Se3O4
_symmetry_space_group_name_H-M   'P 1'
_cell_length_a   6.64457903
_cell_length_b   6.64457953
_cell_length_c   8.37229800
_cell_angle_alpha   90.00000000
_cell_angle_beta   90.00000000
_cell_angle_gamma   145.62456532
_symmetry_Int_Tables_number   1
_chemical_formula_structural   Gd4Se3O4
_chemical_formula_sum   'Gd4 Se3 O4'
_cell_volume   208.70395095
_cell_formula_units_Z   1
loop_
 _symmetry_equiv_pos_site_id
 _symmetry_equiv_pos_as_xyz
  1  'x, y, z'
loop_
 _atom_site_type_symbol
 _atom_site_label
 _atom_site_symmetry_multiplicity
 _atom_site_fract_x
 _atom_site_fract_y
 _atom_site_fract_z
 _atom_site_occupancy
  Gd  Gd0  1  0.318269  0.681731  0.238893  1
  Gd  Gd1  1  0.318269  0.681731  0.761107  1
  Gd  Gd2  1  0.996861  0.003139  0.000000  1
  Gd  Gd3  1  0.982732  0.017268  0.500000  1
  Se  Se4  1  0.645381  0.354619  0.347815  1
  Se  Se5  1  0.682972  0.317028  0.000000  1
  Se  Se6  1  0.645381  0.354619  0.652185  1
  O  O7  1  0.912803  0.087197  0.755071  1
  O  O8  1  0.409787  0.590213  0.000000  1
  O  O9  1  0.384925  0.615075  0.500000  1
  O  O10  1  0.912803  0.087197  0.244929  1
