# generated using pymatgen
data_ZrAl2Ru4W
_symmetry_space_group_name_H-M   'P 1'
_cell_length_a   4.40913400
_cell_length_b   6.22648700
_cell_length_c   13.19570200
_cell_angle_alpha   90.00000000
_cell_angle_beta   89.99984825
_cell_angle_gamma   90.00000000
_symmetry_Int_Tables_number   1
_chemical_formula_structural   ZrAl2Ru4W
_chemical_formula_sum   'Zr3 Al6 Ru12 W3'
_cell_volume   362.26709025
_cell_formula_units_Z   3
loop_
 _symmetry_equiv_pos_site_id
 _symmetry_equiv_pos_as_xyz
  1  'x, y, z'
loop_
 _atom_site_type_symbol
 _atom_site_label
 _atom_site_symmetry_multiplicity
 _atom_site_fract_x
 _atom_site_fract_y
 _atom_site_fract_z
 _atom_site_occupancy
  Zr  Zr0  1  0.499998  0.000000  0.498997  1
  Zr  Zr1  1  0.000015  0.500001  0.666677  1
  Zr  Zr2  1  0.500014  0.000000  0.834361  1
  Al  Al3  1  0.000000  0.000000  0.002125  1
  Al  Al4  1  0.499987  0.500001  0.166637  1
  Al  Al5  1  0.999985  0.000000  0.331231  1
  Al  Al6  1  0.500001  0.500001  0.500070  1
  Al  Al7  1  0.000013  0.000000  0.666640  1
  Al  Al8  1  0.500020  0.500001  0.833312  1
  Ru  Ru9  1  0.499998  0.256368  0.008627  1
  Ru  Ru10  1  0.499998  0.743631  0.008627  1
  Ru  Ru11  1  0.999984  0.247631  0.166655  1
  Ru  Ru12  1  0.999984  0.752369  0.166655  1
  Ru  Ru13  1  0.499984  0.256391  0.324702  1
  Ru  Ru14  1  0.499984  0.743609  0.324702  1
  Ru  Ru15  1  0.999998  0.256532  0.490234  1
  Ru  Ru16  1  0.999998  0.743468  0.490234  1
  Ru  Ru17  1  0.500017  0.248499  0.666666  1
  Ru  Ru18  1  0.500017  0.751501  0.666666  1
  Ru  Ru19  1  0.000017  0.256634  0.843080  1
  Ru  Ru20  1  0.000017  0.743366  0.843080  1
  W  W21  1  0.999998  0.500001  0.999232  1
  W  W22  1  0.499987  0.000000  0.166688  1
  W  W23  1  0.999984  0.500001  0.334106  1
