# generated using pymatgen
data_Ho4ScNb3(Co4P3)4
_symmetry_space_group_name_H-M   'P 1'
_cell_length_a   12.13865640
_cell_length_b   12.13865665
_cell_length_c   3.67870400
_cell_angle_alpha   90.00000000
_cell_angle_beta   90.00000000
_cell_angle_gamma   119.97679800
_symmetry_Int_Tables_number   1
_chemical_formula_structural   Ho4ScNb3(Co4P3)4
_chemical_formula_sum   'Ho4 Sc1 Nb3 Co16 P12'
_cell_volume   469.53526087
_cell_formula_units_Z   1
loop_
 _symmetry_equiv_pos_site_id
 _symmetry_equiv_pos_as_xyz
  1  'x, y, z'
loop_
 _atom_site_type_symbol
 _atom_site_label
 _atom_site_symmetry_multiplicity
 _atom_site_fract_x
 _atom_site_fract_y
 _atom_site_fract_z
 _atom_site_occupancy
  Ho  Ho0  1  0.817772  0.000424  0.500000  1
  Ho  Ho1  1  0.000424  0.817772  0.500000  1
  Ho  Ho2  1  0.333048  0.666895  0.000000  1
  Ho  Ho3  1  0.666895  0.333048  0.000000  1
  Sc  Sc4  1  0.184596  0.184596  0.500000  1
  Nb  Nb5  1  0.444545  0.000735  0.000000  1
  Nb  Nb6  1  0.000735  0.444545  0.000000  1
  Nb  Nb7  1  0.553640  0.553640  0.000000  1
  Co  Co8  1  0.278314  0.002431  0.500000  1
  Co  Co9  1  0.002431  0.278314  0.500000  1
  Co  Co10  1  0.720442  0.720442  0.500000  1
  Co  Co11  1  0.626306  0.803138  0.000000  1
  Co  Co12  1  0.196278  0.824351  0.000000  1
  Co  Co13  1  0.177367  0.371096  0.000000  1
  Co  Co14  1  0.371096  0.177367  0.000000  1
  Co  Co15  1  0.803138  0.626306  0.000000  1
  Co  Co16  1  0.824351  0.196278  0.000000  1
  Co  Co17  1  0.519017  0.872881  0.500000  1
  Co  Co18  1  0.126878  0.646780  0.500000  1
  Co  Co19  1  0.352466  0.478873  0.500000  1
  Co  Co20  1  0.478873  0.352466  0.500000  1
  Co  Co21  1  0.872881  0.519017  0.500000  1
  Co  Co22  1  0.646780  0.126878  0.500000  1
  Co  Co23  1  0.001665  0.001665  0.000000  1
  P  P24  1  0.178182  0.003722  0.000000  1
  P  P25  1  0.003722  0.178182  0.000000  1
  P  P26  1  0.822742  0.822742  0.000000  1
  P  P27  1  0.519804  0.687934  0.500000  1
  P  P28  1  0.310845  0.832871  0.500000  1
  P  P29  1  0.168445  0.479584  0.500000  1
  P  P30  1  0.479584  0.168445  0.500000  1
  P  P31  1  0.687934  0.519804  0.500000  1
  P  P32  1  0.832871  0.310845  0.500000  1
  P  P33  1  0.644484  0.999807  0.000000  1
  P  P34  1  0.999807  0.644484  0.000000  1
  P  P35  1  0.351642  0.351642  0.000000  1
