# generated using pymatgen
data_La12CdCo5Ni
_symmetry_space_group_name_H-M   'P 1'
_cell_length_a   8.79540608
_cell_length_b   8.82533178
_cell_length_c   8.79540563
_cell_angle_alpha   110.00736578
_cell_angle_beta   109.30854883
_cell_angle_gamma   108.96159572
_symmetry_Int_Tables_number   1
_chemical_formula_structural   La12CdCo5Ni
_chemical_formula_sum   'La12 Cd1 Co5 Ni1'
_cell_volume   526.40537445
_cell_formula_units_Z   1
loop_
 _symmetry_equiv_pos_site_id
 _symmetry_equiv_pos_as_xyz
  1  'x, y, z'
loop_
 _atom_site_type_symbol
 _atom_site_label
 _atom_site_symmetry_multiplicity
 _atom_site_fract_x
 _atom_site_fract_y
 _atom_site_fract_z
 _atom_site_occupancy
  La  La0  1  0.810799  0.687107  0.496356  1
  La  La1  1  0.190575  0.314220  0.503574  1
  La  La2  1  0.190749  0.687107  0.876309  1
  La  La3  1  0.810648  0.314220  0.123644  1
  La  La4  1  0.686115  0.495671  0.809557  1
  La  La5  1  0.312701  0.502863  0.190161  1
  La  La6  1  0.686199  0.875956  0.189756  1
  La  La7  1  0.312689  0.123495  0.810807  1
  La  La8  1  0.497276  0.809038  0.688668  1
  La  La9  1  0.491189  0.183746  0.307127  1
  La  La10  1  0.120369  0.809038  0.311761  1
  La  La11  1  0.876620  0.183746  0.692558  1
  Cd  Cd12  1  0.998980  0.998936  0.999955  1
  Co  Co13  1  0.129967  0.629891  0.499924  1
  Co  Co14  1  0.378177  0.498753  0.879692  1
  Co  Co15  1  0.619061  0.498753  0.120576  1
  Co  Co16  1  0.503490  0.886038  0.382548  1
  Co  Co17  1  0.503778  0.121392  0.617614  1
  Ni  Ni18  1  0.880618  0.380030  0.499412  1
