# generated using pymatgen
data_Tb7Y13(CoBi2)4
_symmetry_space_group_name_H-M   'P 1'
_cell_length_a   8.09133606
_cell_length_b   8.86367914
_cell_length_c   12.47253223
_cell_angle_alpha   89.98132787
_cell_angle_beta   89.98777124
_cell_angle_gamma   89.99270893
_symmetry_Int_Tables_number   1
_chemical_formula_structural   Tb7Y13(CoBi2)4
_chemical_formula_sum   'Tb7 Y13 Co4 Bi8'
_cell_volume   894.51754713
_cell_formula_units_Z   1
loop_
 _symmetry_equiv_pos_site_id
 _symmetry_equiv_pos_as_xyz
  1  'x, y, z'
loop_
 _atom_site_type_symbol
 _atom_site_label
 _atom_site_symmetry_multiplicity
 _atom_site_fract_x
 _atom_site_fract_y
 _atom_site_fract_z
 _atom_site_occupancy
  Tb  Tb0  1  0.324038  0.966025  0.437451  1
  Tb  Tb1  1  0.176399  0.966381  0.937355  1
  Tb  Tb2  1  0.323732  0.533800  0.437425  1
  Tb  Tb3  1  0.823576  0.033913  0.062681  1
  Tb  Tb4  1  0.676158  0.466580  0.562630  1
  Tb  Tb5  1  0.823565  0.466073  0.062655  1
  Tb  Tb6  1  0.176435  0.533601  0.937330  1
  Y  Y7  1  0.847514  0.749996  0.801513  1
  Y  Y8  1  0.152283  0.250031  0.198296  1
  Y  Y9  1  0.347660  0.250107  0.698340  1
  Y  Y10  1  0.652289  0.750028  0.301952  1
  Y  Y11  1  0.379420  0.749986  0.690080  1
  Y  Y12  1  0.621074  0.249848  0.309672  1
  Y  Y13  1  0.878981  0.250095  0.809611  1
  Y  Y14  1  0.121097  0.749984  0.190555  1
  Y  Y15  1  0.955476  0.749782  0.502106  1
  Y  Y16  1  0.044650  0.250193  0.497695  1
  Y  Y17  1  0.455489  0.249997  0.997792  1
  Y  Y18  1  0.544450  0.749991  0.002189  1
  Y  Y19  1  0.676395  0.033797  0.563089  1
  Co  Co20  1  0.558817  0.749360  0.508175  1
  Co  Co21  1  0.440960  0.250203  0.491726  1
  Co  Co22  1  0.058884  0.250017  0.991677  1
  Co  Co23  1  0.941228  0.749986  0.008234  1
  Bi  Bi24  1  0.570512  0.492421  0.825757  1
  Bi  Bi25  1  0.429479  0.507609  0.174288  1
  Bi  Bi26  1  0.070480  0.507650  0.674254  1
  Bi  Bi27  1  0.429493  0.992432  0.174261  1
  Bi  Bi28  1  0.929460  0.492356  0.325725  1
  Bi  Bi29  1  0.570500  0.007649  0.825611  1
  Bi  Bi30  1  0.929527  0.007654  0.325820  1
  Bi  Bi31  1  0.069980  0.992454  0.674055  1
