# generated using pymatgen
data_Zr3Al3FeAu2
_symmetry_space_group_name_H-M   'P 1'
_cell_length_a   6.72561900
_cell_length_b   6.72561833
_cell_length_c   4.14105200
_cell_angle_alpha   90.00000000
_cell_angle_beta   90.00000000
_cell_angle_gamma   119.99998855
_symmetry_Int_Tables_number   1
_chemical_formula_structural   Zr3Al3FeAu2
_chemical_formula_sum   'Zr3 Al3 Fe1 Au2'
_cell_volume   162.22054086
_cell_formula_units_Z   1
loop_
 _symmetry_equiv_pos_site_id
 _symmetry_equiv_pos_as_xyz
  1  'x, y, z'
loop_
 _atom_site_type_symbol
 _atom_site_label
 _atom_site_symmetry_multiplicity
 _atom_site_fract_x
 _atom_site_fract_y
 _atom_site_fract_z
 _atom_site_occupancy
  Zr  Zr0  1  0.390402  0.390402  0.500000  1
  Zr  Zr1  1  0.609598  0.000000  0.500000  1
  Zr  Zr2  1  0.000000  0.609598  0.500000  1
  Al  Al3  1  0.766858  0.766858  0.000000  1
  Al  Al4  1  0.233142  0.000000  0.000000  1
  Al  Al5  1  0.000000  0.233142  0.000000  1
  Fe  Fe6  1  0.000000  0.000000  0.500000  1
  Au  Au7  1  0.666667  0.333333  0.000000  1
  Au  Au8  1  0.333333  0.666667  0.000000  1
