# generated using pymatgen
data_Dy3LuAl18Rh5Au
_symmetry_space_group_name_H-M   'P 1'
_cell_length_a   7.57181221
_cell_length_b   7.57385407
_cell_length_c   9.44775167
_cell_angle_alpha   89.92598794
_cell_angle_beta   89.97799946
_cell_angle_gamma   119.46322461
_symmetry_Int_Tables_number   1
_chemical_formula_structural   Dy3LuAl18Rh5Au
_chemical_formula_sum   'Dy3 Lu1 Al18 Rh5 Au1'
_cell_volume   471.73591903
_cell_formula_units_Z   1
loop_
 _symmetry_equiv_pos_site_id
 _symmetry_equiv_pos_as_xyz
  1  'x, y, z'
loop_
 _atom_site_type_symbol
 _atom_site_label
 _atom_site_symmetry_multiplicity
 _atom_site_fract_x
 _atom_site_fract_y
 _atom_site_fract_z
 _atom_site_occupancy
  Dy  Dy0  1  0.995925  0.675043  0.250556  1
  Dy  Dy1  1  0.004364  0.324866  0.749525  1
  Dy  Dy2  1  0.674633  0.995720  0.250501  1
  Lu  Lu3  1  0.324750  0.004235  0.748986  1
  Al  Al4  1  0.136527  0.136153  0.257142  1
  Al  Al5  1  0.864507  0.863988  0.743073  1
  Al  Al6  1  0.001723  0.344871  0.079247  1
  Al  Al7  1  0.999354  0.656393  0.919582  1
  Al  Al8  1  0.001318  0.664544  0.575500  1
  Al  Al9  1  0.336281  0.999735  0.426835  1
  Al  Al10  1  0.999760  0.336223  0.425763  1
  Al  Al11  1  0.662764  0.000328  0.575496  1
  Al  Al12  1  0.654155  0.998540  0.919385  1
  Al  Al13  1  0.344486  0.001636  0.078148  1
  Al  Al14  1  0.333171  0.332424  0.552614  1
  Al  Al15  1  0.666906  0.666793  0.449236  1
  Al  Al16  1  0.657917  0.657919  0.056624  1
  Al  Al17  1  0.341915  0.341116  0.941618  1
  Al  Al18  1  0.339708  0.551737  0.251366  1
  Al  Al19  1  0.659701  0.447058  0.748621  1
  Al  Al20  1  0.551757  0.339279  0.251346  1
  Al  Al21  1  0.447954  0.661168  0.748653  1
  Rh  Rh22  1  0.671942  0.327952  0.999467  1
  Rh  Rh23  1  0.327992  0.672226  0.999475  1
  Rh  Rh24  1  0.327881  0.672092  0.500364  1
  Rh  Rh25  1  0.672006  0.327779  0.500474  1
  Rh  Rh26  1  0.000452  0.000140  0.500616  1
  Au  Au27  1  0.000149  0.000041  0.999785  1
