# generated using pymatgen
data_Dy4U(FeB3)2
_symmetry_space_group_name_H-M   'P 1'
_cell_length_a   5.43621823
_cell_length_b   5.43621791
_cell_length_c   7.85590398
_cell_angle_alpha   69.75740953
_cell_angle_beta   69.75741042
_cell_angle_gamma   59.99998063
_symmetry_Int_Tables_number   1
_chemical_formula_structural   Dy4U(FeB3)2
_chemical_formula_sum   'Dy4 U1 Fe2 B6'
_cell_volume   184.31428274
_cell_formula_units_Z   1
loop_
 _symmetry_equiv_pos_site_id
 _symmetry_equiv_pos_as_xyz
  1  'x, y, z'
loop_
 _atom_site_type_symbol
 _atom_site_label
 _atom_site_symmetry_multiplicity
 _atom_site_fract_x
 _atom_site_fract_y
 _atom_site_fract_z
 _atom_site_occupancy
  Dy  Dy0  1  0.255775  0.255775  0.232676  1
  Dy  Dy1  1  0.744225  0.744225  0.767324  1
  Dy  Dy2  1  0.411561  0.411561  0.765317  1
  Dy  Dy3  1  0.588439  0.588439  0.234683  1
  U  U4  1  0.000000  0.000000  0.000000  1
  Fe  Fe5  1  0.105790  0.105790  0.682632  1
  Fe  Fe6  1  0.894210  0.894210  0.317368  1
  B  B7  1  0.166534  0.833466  0.500000  1
  B  B8  1  0.833466  0.500000  0.500000  1
  B  B9  1  0.500000  0.166534  0.500000  1
  B  B10  1  0.166534  0.500000  0.500000  1
  B  B11  1  0.500000  0.833466  0.500000  1
  B  B12  1  0.833466  0.166534  0.500000  1
