# generated using pymatgen
data_Rb2SrCd(H6Ir)2
_symmetry_space_group_name_H-M   'P 1'
_cell_length_a   7.81877600
_cell_length_b   7.81877600
_cell_length_c   7.91868800
_cell_angle_alpha   90.00000000
_cell_angle_beta   90.00000000
_cell_angle_gamma   90.00000000
_symmetry_Int_Tables_number   1
_chemical_formula_structural   Rb2SrCd(H6Ir)2
_chemical_formula_sum   'Rb4 Sr2 Cd2 H24 Ir4'
_cell_volume   484.09519762
_cell_formula_units_Z   2
loop_
 _symmetry_equiv_pos_site_id
 _symmetry_equiv_pos_as_xyz
  1  'x, y, z'
loop_
 _atom_site_type_symbol
 _atom_site_label
 _atom_site_symmetry_multiplicity
 _atom_site_fract_x
 _atom_site_fract_y
 _atom_site_fract_z
 _atom_site_occupancy
  Rb  Rb0  1  0.000000  0.000000  0.500000  1
  Rb  Rb1  1  0.000000  0.500000  0.000000  1
  Rb  Rb2  1  0.500000  0.000000  0.000000  1
  Rb  Rb3  1  0.000000  0.000000  0.000000  1
  Sr  Sr4  1  0.000000  0.500000  0.500000  1
  Sr  Sr5  1  0.500000  0.000000  0.500000  1
  Cd  Cd6  1  0.500000  0.500000  0.500000  1
  Cd  Cd7  1  0.500000  0.500000  0.000000  1
  H  H8  1  0.739734  0.739734  0.484167  1
  H  H9  1  0.260266  0.260266  0.484167  1
  H  H10  1  0.069143  0.720717  0.737203  1
  H  H11  1  0.279283  0.930857  0.737203  1
  H  H12  1  0.720717  0.069143  0.737203  1
  H  H13  1  0.930857  0.279283  0.737203  1
  H  H14  1  0.731929  0.497782  0.714521  1
  H  H15  1  0.497782  0.731929  0.714521  1
  H  H16  1  0.502218  0.268071  0.714521  1
  H  H17  1  0.268071  0.502218  0.714521  1
  H  H18  1  0.295741  0.704259  0.938155  1
  H  H19  1  0.704259  0.295741  0.938155  1
  H  H20  1  0.704259  0.704259  0.061845  1
  H  H21  1  0.295741  0.295741  0.061845  1
  H  H22  1  0.268071  0.497782  0.285479  1
  H  H23  1  0.502218  0.731929  0.285479  1
  H  H24  1  0.497782  0.268071  0.285479  1
  H  H25  1  0.731929  0.502218  0.285479  1
  H  H26  1  0.930857  0.720717  0.262797  1
  H  H27  1  0.720717  0.930857  0.262797  1
  H  H28  1  0.279283  0.069143  0.262797  1
  H  H29  1  0.069143  0.279283  0.262797  1
  H  H30  1  0.260266  0.739734  0.515833  1
  H  H31  1  0.739734  0.260266  0.515833  1
  Ir  Ir32  1  0.285431  0.714569  0.723651  1
  Ir  Ir33  1  0.714569  0.285431  0.723651  1
  Ir  Ir34  1  0.714569  0.714569  0.276349  1
  Ir  Ir35  1  0.285431  0.285431  0.276349  1
