# generated using pymatgen
data_Pr4Dy2Al24Os5Pt3
_symmetry_space_group_name_H-M   'P 1'
_cell_length_a   8.89527850
_cell_length_b   8.91378938
_cell_length_c   9.65715412
_cell_angle_alpha   90.03792469
_cell_angle_beta   89.86217073
_cell_angle_gamma   119.63969791
_symmetry_Int_Tables_number   1
_chemical_formula_structural   Pr4Dy2Al24Os5Pt3
_chemical_formula_sum   'Pr4 Dy2 Al24 Os5 Pt3'
_cell_volume   665.52706497
_cell_formula_units_Z   1
loop_
 _symmetry_equiv_pos_site_id
 _symmetry_equiv_pos_as_xyz
  1  'x, y, z'
loop_
 _atom_site_type_symbol
 _atom_site_label
 _atom_site_symmetry_multiplicity
 _atom_site_fract_x
 _atom_site_fract_y
 _atom_site_fract_z
 _atom_site_occupancy
  Pr  Pr0  1  0.187436  0.379511  0.249785  1
  Pr  Pr1  1  0.812564  0.620489  0.750215  1
  Pr  Pr2  1  0.617834  0.813814  0.251699  1
  Pr  Pr3  1  0.382166  0.186186  0.748301  1
  Dy  Dy4  1  0.195415  0.808940  0.251098  1
  Dy  Dy5  1  0.804585  0.191060  0.748902  1
  Al  Al6  1  0.334665  0.671851  0.026433  1
  Al  Al7  1  0.665335  0.328149  0.973567  1
  Al  Al8  1  0.670175  0.330806  0.524839  1
  Al  Al9  1  0.329825  0.669194  0.475161  1
  Al  Al10  1  0.156802  0.325519  0.574170  1
  Al  Al11  1  0.843198  0.674481  0.425830  1
  Al  Al12  1  0.673673  0.842270  0.575124  1
  Al  Al13  1  0.838050  0.675883  0.077148  1
  Al  Al14  1  0.326327  0.157730  0.424876  1
  Al  Al15  1  0.161950  0.324117  0.922852  1
  Al  Al16  1  0.164473  0.834640  0.573367  1
  Al  Al17  1  0.325806  0.157338  0.075527  1
  Al  Al18  1  0.835527  0.165360  0.426633  1
  Al  Al19  1  0.674194  0.842662  0.924473  1
  Al  Al20  1  0.831437  0.159695  0.075029  1
  Al  Al21  1  0.168563  0.840305  0.924971  1
  Al  Al22  1  0.560191  0.125359  0.249676  1
  Al  Al23  1  0.439809  0.874641  0.750324  1
  Al  Al24  1  0.873582  0.438286  0.253027  1
  Al  Al25  1  0.126418  0.561714  0.746973  1
  Al  Al26  1  0.563970  0.435299  0.249605  1
  Al  Al27  1  0.436030  0.564701  0.750395  1
  Al  Al28  1  0.000563  0.000822  0.250185  1
  Al  Al29  1  0.999437  0.999178  0.749815  1
  Os  Os30  1  0.500000  0.000000  0.000000  1
  Os  Os31  1  0.500000  0.000000  0.500000  1
  Os  Os32  1  0.000000  0.500000  0.500000  1
  Os  Os33  1  0.000000  0.000000  0.000000  1
  Os  Os34  1  0.000000  0.000000  0.500000  1
  Pt  Pt35  1  0.000000  0.500000  0.000000  1
  Pt  Pt36  1  0.500000  0.500000  0.000000  1
  Pt  Pt37  1  0.500000  0.500000  0.500000  1
