# generated using pymatgen
data_ThGaSiPt2
_symmetry_space_group_name_H-M   'P 1'
_cell_length_a   4.24006800
_cell_length_b   4.24006800
_cell_length_c   10.40373200
_cell_angle_alpha   90.00000000
_cell_angle_beta   90.00000000
_cell_angle_gamma   90.00000000
_symmetry_Int_Tables_number   1
_chemical_formula_structural   ThGaSiPt2
_chemical_formula_sum   'Th2 Ga2 Si2 Pt4'
_cell_volume   187.04013166
_cell_formula_units_Z   2
loop_
 _symmetry_equiv_pos_site_id
 _symmetry_equiv_pos_as_xyz
  1  'x, y, z'
loop_
 _atom_site_type_symbol
 _atom_site_label
 _atom_site_symmetry_multiplicity
 _atom_site_fract_x
 _atom_site_fract_y
 _atom_site_fract_z
 _atom_site_occupancy
  Th  Th0  1  0.000000  0.500000  0.244191  1
  Th  Th1  1  0.500000  0.000000  0.755809  1
  Ga  Ga2  1  0.000000  0.000000  0.500000  1
  Ga  Ga3  1  0.500000  0.500000  0.500000  1
  Si  Si4  1  0.000000  0.500000  0.871759  1
  Si  Si5  1  0.500000  0.000000  0.128241  1
  Pt  Pt6  1  0.000000  0.000000  0.000000  1
  Pt  Pt7  1  0.500000  0.500000  0.000000  1
  Pt  Pt8  1  0.000000  0.500000  0.642261  1
  Pt  Pt9  1  0.500000  0.000000  0.357739  1
