# generated using pymatgen
data_Tb4CdPt11
_symmetry_space_group_name_H-M   'P 1'
_cell_length_a   4.21149600
_cell_length_b   5.85419019
_cell_length_c   11.71268462
_cell_angle_alpha   88.24873141
_cell_angle_beta   90.00000000
_cell_angle_gamma   90.00000000
_symmetry_Int_Tables_number   1
_chemical_formula_structural   Tb4CdPt11
_chemical_formula_sum   'Tb4 Cd1 Pt11'
_cell_volume   288.64016850
_cell_formula_units_Z   1
loop_
 _symmetry_equiv_pos_site_id
 _symmetry_equiv_pos_as_xyz
  1  'x, y, z'
loop_
 _atom_site_type_symbol
 _atom_site_label
 _atom_site_symmetry_multiplicity
 _atom_site_fract_x
 _atom_site_fract_y
 _atom_site_fract_z
 _atom_site_occupancy
  Tb  Tb0  1  0.500000  0.756073  0.374970  1
  Tb  Tb1  1  0.500000  0.723291  0.865026  1
  Tb  Tb2  1  0.500000  0.276709  0.134974  1
  Tb  Tb3  1  0.500000  0.243927  0.625030  1
  Cd  Cd4  1  0.000000  0.000000  0.000000  1
  Pt  Pt5  1  0.000000  0.013781  0.250548  1
  Pt  Pt6  1  0.000000  0.986219  0.749452  1
  Pt  Pt7  1  0.000000  0.500000  0.000000  1
  Pt  Pt8  1  0.000000  0.500000  0.500000  1
  Pt  Pt9  1  0.000000  0.516294  0.249638  1
  Pt  Pt10  1  0.000000  0.483706  0.750362  1
  Pt  Pt11  1  0.500000  0.254695  0.377459  1
  Pt  Pt12  1  0.500000  0.232517  0.878433  1
  Pt  Pt13  1  0.500000  0.767483  0.121567  1
  Pt  Pt14  1  0.500000  0.745305  0.622541  1
  Pt  Pt15  1  0.000000  0.000000  0.500000  1
