# generated using pymatgen
data_YbDy(Ni4C)2
_symmetry_space_group_name_H-M   'P 1'
_cell_length_a   4.97258000
_cell_length_b   4.97257898
_cell_length_c   6.72168900
_cell_angle_alpha   90.00000000
_cell_angle_beta   90.00000000
_cell_angle_gamma   119.99999349
_symmetry_Int_Tables_number   1
_chemical_formula_structural   YbDy(Ni4C)2
_chemical_formula_sum   'Yb1 Dy1 Ni8 C2'
_cell_volume   143.93703203
_cell_formula_units_Z   1
loop_
 _symmetry_equiv_pos_site_id
 _symmetry_equiv_pos_as_xyz
  1  'x, y, z'
loop_
 _atom_site_type_symbol
 _atom_site_label
 _atom_site_symmetry_multiplicity
 _atom_site_fract_x
 _atom_site_fract_y
 _atom_site_fract_z
 _atom_site_occupancy
  Yb  Yb0  1  0.000000  0.000000  0.000000  1
  Dy  Dy1  1  0.000000  0.000000  0.500000  1
  Ni  Ni2  1  0.666667  0.333333  0.500000  1
  Ni  Ni3  1  0.333333  0.666667  0.500000  1
  Ni  Ni4  1  0.500000  0.500000  0.805064  1
  Ni  Ni5  1  0.500000  0.000000  0.805064  1
  Ni  Ni6  1  0.000000  0.500000  0.805064  1
  Ni  Ni7  1  0.500000  0.500000  0.194936  1
  Ni  Ni8  1  0.500000  0.000000  0.194936  1
  Ni  Ni9  1  0.000000  0.500000  0.194936  1
  C  C10  1  0.666667  0.333333  0.000000  1
  C  C11  1  0.333333  0.666667  0.000000  1
