# generated using pymatgen
data_Sr2PaTiSb5
_symmetry_space_group_name_H-M   'P 1'
_cell_length_a   9.64743095
_cell_length_b   9.64743207
_cell_length_c   6.30388100
_cell_angle_alpha   90.00000000
_cell_angle_beta   90.00000000
_cell_angle_gamma   121.68024516
_symmetry_Int_Tables_number   1
_chemical_formula_structural   Sr2PaTiSb5
_chemical_formula_sum   'Sr4 Pa2 Ti2 Sb10'
_cell_volume   499.29476403
_cell_formula_units_Z   2
loop_
 _symmetry_equiv_pos_site_id
 _symmetry_equiv_pos_as_xyz
  1  'x, y, z'
loop_
 _atom_site_type_symbol
 _atom_site_label
 _atom_site_symmetry_multiplicity
 _atom_site_fract_x
 _atom_site_fract_y
 _atom_site_fract_z
 _atom_site_occupancy
  Sr  Sr0  1  0.621909  0.015632  0.250000  1
  Sr  Sr1  1  0.378091  0.984368  0.750000  1
  Sr  Sr2  1  0.015632  0.621909  0.250000  1
  Sr  Sr3  1  0.984368  0.378091  0.750000  1
  Pa  Pa4  1  0.381697  0.381697  0.250000  1
  Pa  Pa5  1  0.618303  0.618303  0.750000  1
  Ti  Ti6  1  0.000000  0.000000  0.000000  1
  Ti  Ti7  1  0.000000  0.000000  0.500000  1
  Sb  Sb8  1  0.250770  0.013748  0.250000  1
  Sb  Sb9  1  0.749230  0.986252  0.750000  1
  Sb  Sb10  1  0.013748  0.250770  0.250000  1
  Sb  Sb11  1  0.986252  0.749230  0.750000  1
  Sb  Sb12  1  0.739902  0.739902  0.250000  1
  Sb  Sb13  1  0.260098  0.260098  0.750000  1
  Sb  Sb14  1  0.349109  0.650891  0.000000  1
  Sb  Sb15  1  0.650891  0.349109  0.000000  1
  Sb  Sb16  1  0.650891  0.349109  0.500000  1
  Sb  Sb17  1  0.349109  0.650891  0.500000  1
