# generated using pymatgen
data_ErScCo5Si14Rh
_symmetry_space_group_name_H-M   'P 1'
_cell_length_a   7.67339919
_cell_length_b   7.65287130
_cell_length_c   7.65685182
_cell_angle_alpha   57.46283202
_cell_angle_beta   57.27188484
_cell_angle_gamma   57.28402002
_symmetry_Int_Tables_number   1
_chemical_formula_structural   ErScCo5Si14Rh
_chemical_formula_sum   'Er1 Sc1 Co5 Si14 Rh1'
_cell_volume   298.46908151
_cell_formula_units_Z   1
loop_
 _symmetry_equiv_pos_site_id
 _symmetry_equiv_pos_as_xyz
  1  'x, y, z'
loop_
 _atom_site_type_symbol
 _atom_site_label
 _atom_site_symmetry_multiplicity
 _atom_site_fract_x
 _atom_site_fract_y
 _atom_site_fract_z
 _atom_site_occupancy
  Er  Er0  1  0.000477  0.998955  0.001046  1
  Sc  Sc1  1  0.498998  0.499862  0.501011  1
  Co  Co2  1  0.072144  0.429404  0.749344  1
  Co  Co3  1  0.251675  0.926534  0.571053  1
  Co  Co4  1  0.569668  0.252220  0.926975  1
  Co  Co5  1  0.928146  0.570564  0.251326  1
  Co  Co6  1  0.429999  0.747370  0.072892  1
  Si  Si7  1  0.750194  0.740126  0.760225  1
  Si  Si8  1  0.249705  0.250496  0.248733  1
  Si  Si9  1  0.854656  0.074414  0.671140  1
  Si  Si10  1  0.666113  0.847903  0.074082  1
  Si  Si11  1  0.077019  0.665179  0.847928  1
  Si  Si12  1  0.642811  0.827034  0.428276  1
  Si  Si13  1  0.426635  0.648482  0.832528  1
  Si  Si14  1  0.832157  0.429008  0.648437  1
  Si  Si15  1  0.164938  0.573496  0.352778  1
  Si  Si16  1  0.565673  0.359758  0.160100  1
  Si  Si17  1  0.340688  0.169952  0.573940  1
  Si  Si18  1  0.930932  0.342479  0.142695  1
  Si  Si19  1  0.337575  0.150579  0.922705  1
  Si  Si20  1  0.162016  0.922327  0.332499  1
  Rh  Rh21  1  0.747782  0.073858  0.430285  1
