# generated using pymatgen
data_Ho2Tm2Ni2C5
_symmetry_space_group_name_H-M   'P 1'
_cell_length_a   3.57572200
_cell_length_b   3.66998300
_cell_length_c   11.51522800
_cell_angle_alpha   90.00000000
_cell_angle_beta   90.00000000
_cell_angle_gamma   90.00000000
_symmetry_Int_Tables_number   1
_chemical_formula_structural   Ho2Tm2Ni2C5
_chemical_formula_sum   'Ho2 Tm2 Ni2 C5'
_cell_volume   151.11248255
_cell_formula_units_Z   1
loop_
 _symmetry_equiv_pos_site_id
 _symmetry_equiv_pos_as_xyz
  1  'x, y, z'
loop_
 _atom_site_type_symbol
 _atom_site_label
 _atom_site_symmetry_multiplicity
 _atom_site_fract_x
 _atom_site_fract_y
 _atom_site_fract_z
 _atom_site_occupancy
  Ho  Ho0  1  0.500000  0.209791  0.500000  1
  Ho  Ho1  1  0.000000  0.999020  0.000000  1
  Tm  Tm2  1  0.500000  0.502741  0.203147  1
  Tm  Tm3  1  0.500000  0.502741  0.796853  1
  Ni  Ni4  1  0.000000  0.698110  0.383993  1
  Ni  Ni5  1  0.000000  0.698110  0.616007  1
  C  C6  1  0.000000  0.000166  0.228656  1
  C  C7  1  0.000000  0.000166  0.771344  1
  C  C8  1  0.000000  0.198549  0.331864  1
  C  C9  1  0.000000  0.198549  0.668136  1
  C  C10  1  0.500000  0.493556  0.000000  1
