# generated using pymatgen
data_Rb3As7S12
_symmetry_space_group_name_H-M   'P 1'
_cell_length_a   9.47967600
_cell_length_b   9.47967666
_cell_length_c   8.11328500
_cell_angle_alpha   90.00000000
_cell_angle_beta   90.00000000
_cell_angle_gamma   119.99999769
_symmetry_Int_Tables_number   1
_chemical_formula_structural   Rb3As7S12
_chemical_formula_sum   'Rb3 As7 S12'
_cell_volume   631.41426935
_cell_formula_units_Z   1
loop_
 _symmetry_equiv_pos_site_id
 _symmetry_equiv_pos_as_xyz
  1  'x, y, z'
loop_
 _atom_site_type_symbol
 _atom_site_label
 _atom_site_symmetry_multiplicity
 _atom_site_fract_x
 _atom_site_fract_y
 _atom_site_fract_z
 _atom_site_occupancy
  Rb  Rb0  1  0.000000  0.000000  0.000000  1
  Rb  Rb1  1  0.333333  0.666667  0.869781  1
  Rb  Rb2  1  0.666667  0.333333  0.130219  1
  As  As3  1  0.000000  0.000000  0.500000  1
  As  As4  1  0.278946  0.832082  0.400583  1
  As  As5  1  0.167918  0.446864  0.400583  1
  As  As6  1  0.553136  0.721054  0.400583  1
  As  As7  1  0.721054  0.167918  0.599417  1
  As  As8  1  0.832082  0.553136  0.599417  1
  As  As9  1  0.446864  0.278946  0.599417  1
  S  S10  1  0.237796  0.030551  0.310648  1
  S  S11  1  0.969449  0.207246  0.310648  1
  S  S12  1  0.792754  0.762204  0.310648  1
  S  S13  1  0.762204  0.969449  0.689352  1
  S  S14  1  0.030551  0.792754  0.689352  1
  S  S15  1  0.207246  0.237796  0.689352  1
  S  S16  1  0.516040  0.907896  0.245678  1
  S  S17  1  0.092104  0.608142  0.245678  1
  S  S18  1  0.391858  0.483960  0.245678  1
  S  S19  1  0.483960  0.092104  0.754322  1
  S  S20  1  0.907896  0.391858  0.754322  1
  S  S21  1  0.608142  0.516040  0.754322  1
