# generated using pymatgen
data_TbY3HgPd
_symmetry_space_group_name_H-M   'P 1'
_cell_length_a   9.69343615
_cell_length_b   9.69343573
_cell_length_c   9.69343600
_cell_angle_alpha   59.99999908
_cell_angle_beta   60.00000051
_cell_angle_gamma   59.99999891
_symmetry_Int_Tables_number   1
_chemical_formula_structural   TbY3HgPd
_chemical_formula_sum   'Tb4 Y12 Hg4 Pd4'
_cell_volume   644.04799665
_cell_formula_units_Z   4
loop_
 _symmetry_equiv_pos_site_id
 _symmetry_equiv_pos_as_xyz
  1  'x, y, z'
loop_
 _atom_site_type_symbol
 _atom_site_label
 _atom_site_symmetry_multiplicity
 _atom_site_fract_x
 _atom_site_fract_y
 _atom_site_fract_z
 _atom_site_occupancy
  Tb  Tb0  1  0.356618  0.356618  0.356618  1
  Tb  Tb1  1  0.356618  0.356618  0.930145  1
  Tb  Tb2  1  0.356618  0.930145  0.356618  1
  Tb  Tb3  1  0.930145  0.356618  0.356618  1
  Y  Y4  1  0.811143  0.188857  0.188857  1
  Y  Y5  1  0.188857  0.811143  0.811143  1
  Y  Y6  1  0.188857  0.811143  0.188857  1
  Y  Y7  1  0.811143  0.188857  0.811143  1
  Y  Y8  1  0.188857  0.188857  0.811143  1
  Y  Y9  1  0.811143  0.811143  0.188857  1
  Y  Y10  1  0.935070  0.564930  0.564930  1
  Y  Y11  1  0.564930  0.935070  0.935070  1
  Y  Y12  1  0.564930  0.935070  0.564930  1
  Y  Y13  1  0.935070  0.564930  0.935070  1
  Y  Y14  1  0.564930  0.564930  0.935070  1
  Y  Y15  1  0.935070  0.935070  0.564930  1
  Hg  Hg16  1  0.587034  0.587034  0.587034  1
  Hg  Hg17  1  0.587034  0.587034  0.238899  1
  Hg  Hg18  1  0.587034  0.238899  0.587034  1
  Hg  Hg19  1  0.238899  0.587034  0.587034  1
  Pd  Pd20  1  0.145915  0.145915  0.145915  1
  Pd  Pd21  1  0.145915  0.145915  0.562253  1
  Pd  Pd22  1  0.145915  0.562253  0.145915  1
  Pd  Pd23  1  0.562253  0.145915  0.145915  1
