# generated using pymatgen
data_Ba2Li4EuSb4
_symmetry_space_group_name_H-M   'P 1'
_cell_length_a   9.26825293
_cell_length_b   9.26825391
_cell_length_c   9.26825420
_cell_angle_alpha   148.48698426
_cell_angle_beta   133.27191970
_cell_angle_gamma   57.45355937
_symmetry_Int_Tables_number   1
_chemical_formula_structural   Ba2Li4EuSb4
_chemical_formula_sum   'Ba2 Li4 Eu1 Sb4'
_cell_volume   300.73625094
_cell_formula_units_Z   1
loop_
 _symmetry_equiv_pos_site_id
 _symmetry_equiv_pos_as_xyz
  1  'x, y, z'
loop_
 _atom_site_type_symbol
 _atom_site_label
 _atom_site_symmetry_multiplicity
 _atom_site_fract_x
 _atom_site_fract_y
 _atom_site_fract_z
 _atom_site_occupancy
  Ba  Ba0  1  0.631376  0.131376  0.500000  1
  Ba  Ba1  1  0.368624  0.868624  0.500000  1
  Li  Li2  1  0.982036  0.674164  0.307872  1
  Li  Li3  1  0.017964  0.325836  0.692128  1
  Li  Li4  1  0.633709  0.325836  0.307872  1
  Li  Li5  1  0.366291  0.674164  0.692128  1
  Eu  Eu6  1  0.000000  0.000000  0.000000  1
  Sb  Sb7  1  0.792010  0.792010  0.000000  1
  Sb  Sb8  1  0.207990  0.207990  0.000000  1
  Sb  Sb9  1  0.700831  0.500000  0.200831  1
  Sb  Sb10  1  0.299169  0.500000  0.799169  1
