# generated using pymatgen
data_Dy6CuRh17
_symmetry_space_group_name_H-M   'P 1'
_cell_length_a   5.27604313
_cell_length_b   5.27658701
_cell_length_c   17.36057400
_cell_angle_alpha   90.00000000
_cell_angle_beta   90.00000000
_cell_angle_gamma   119.99554258
_symmetry_Int_Tables_number   1
_chemical_formula_structural   Dy6CuRh17
_chemical_formula_sum   'Dy6 Cu1 Rh17'
_cell_volume   418.57728657
_cell_formula_units_Z   1
loop_
 _symmetry_equiv_pos_site_id
 _symmetry_equiv_pos_as_xyz
  1  'x, y, z'
loop_
 _atom_site_type_symbol
 _atom_site_label
 _atom_site_symmetry_multiplicity
 _atom_site_fract_x
 _atom_site_fract_y
 _atom_site_fract_z
 _atom_site_occupancy
  Dy  Dy0  1  0.333344  0.666703  0.958147  1
  Dy  Dy1  1  0.666664  0.333328  0.042354  1
  Dy  Dy2  1  0.666664  0.333328  0.457646  1
  Dy  Dy3  1  0.333344  0.666703  0.541853  1
  Dy  Dy4  1  0.333329  0.666660  0.750000  1
  Dy  Dy5  1  0.666679  0.333337  0.250000  1
  Cu  Cu6  1  0.333357  0.666682  0.250000  1
  Rh  Rh7  1  0.168950  0.830993  0.373297  1
  Rh  Rh8  1  0.168951  0.337892  0.373277  1
  Rh  Rh9  1  0.662050  0.830991  0.373296  1
  Rh  Rh10  1  0.832841  0.167191  0.624650  1
  Rh  Rh11  1  0.832841  0.665696  0.624697  1
  Rh  Rh12  1  0.334339  0.167198  0.624663  1
  Rh  Rh13  1  0.832841  0.167191  0.875350  1
  Rh  Rh14  1  0.832841  0.665696  0.875303  1
  Rh  Rh15  1  0.334339  0.167198  0.875337  1
  Rh  Rh16  1  0.168950  0.830993  0.126703  1
  Rh  Rh17  1  0.168951  0.337892  0.126723  1
  Rh  Rh18  1  0.662050  0.830991  0.126704  1
  Rh  Rh19  1  0.666620  0.333140  0.750000  1
  Rh  Rh20  1  0.999991  0.999982  0.250000  1
  Rh  Rh21  1  0.000048  0.000190  0.750000  1
  Rh  Rh22  1  0.000006  0.000011  0.497711  1
  Rh  Rh23  1  0.000006  0.000011  0.002289  1
