# generated using pymatgen
data_CaPrZn21Pt
_symmetry_space_group_name_H-M   'P 1'
_cell_length_a   8.29702607
_cell_length_b   8.32155717
_cell_length_c   8.32155600
_cell_angle_alpha   99.66138864
_cell_angle_beta   100.13481167
_cell_angle_gamma   131.19856221
_symmetry_Int_Tables_number   1
_chemical_formula_structural   CaPrZn21Pt
_chemical_formula_sum   'Ca1 Pr1 Zn21 Pt1'
_cell_volume   393.10704383
_cell_formula_units_Z   1
loop_
 _symmetry_equiv_pos_site_id
 _symmetry_equiv_pos_as_xyz
  1  'x, y, z'
loop_
 _atom_site_type_symbol
 _atom_site_label
 _atom_site_symmetry_multiplicity
 _atom_site_fract_x
 _atom_site_fract_y
 _atom_site_fract_z
 _atom_site_occupancy
  Ca  Ca0  1  0.748178  0.246723  0.501449  1
  Pr  Pr1  1  0.496307  0.501055  0.995273  1
  Zn  Zn2  1  0.923925  0.598393  0.916606  1
  Zn  Zn3  1  0.842727  0.429670  0.170201  1
  Zn  Zn4  1  0.256886  0.673426  0.826463  1
  Zn  Zn5  1  0.684245  0.011448  0.084403  1
  Zn  Zn6  1  0.405117  0.077275  0.086879  1
  Zn  Zn7  1  0.990820  0.316880  0.915933  1
  Zn  Zn8  1  0.568795  0.153400  0.829633  1
  Zn  Zn9  1  0.328124  0.742903  0.172698  1
  Zn  Zn10  1  0.328121  0.155426  0.585212  1
  Zn  Zn11  1  0.405116  0.318242  0.327838  1
  Zn  Zn12  1  0.990807  0.074886  0.673933  1
  Zn  Zn13  1  0.568788  0.739163  0.415384  1
  Zn  Zn14  1  0.842723  0.672524  0.413048  1
  Zn  Zn15  1  0.256880  0.430424  0.583451  1
  Zn  Zn16  1  0.684246  0.599851  0.672793  1
  Zn  Zn17  1  0.923912  0.007316  0.325524  1
  Zn  Zn18  1  0.126992  0.377404  0.250804  1
  Zn  Zn19  1  0.126994  0.876185  0.749590  1
  Zn  Zn20  1  0.621435  0.872825  0.748608  1
  Zn  Zn21  1  0.249541  0.754554  0.494977  1
  Zn  Zn22  1  0.001169  0.995518  0.005658  1
  Pt  Pt23  1  0.128148  0.874510  0.253642  1
