# generated using pymatgen
data_Gd3HoScIr3
_symmetry_space_group_name_H-M   'P 1'
_cell_length_a   10.77706000
_cell_length_b   10.77207100
_cell_length_c   6.27140400
_cell_angle_alpha   90.00000000
_cell_angle_beta   90.00000000
_cell_angle_gamma   90.00000000
_symmetry_Int_Tables_number   1
_chemical_formula_structural   Gd3HoScIr3
_chemical_formula_sum   'Gd12 Ho4 Sc4 Ir12'
_cell_volume   728.05516405
_cell_formula_units_Z   4
loop_
 _symmetry_equiv_pos_site_id
 _symmetry_equiv_pos_as_xyz
  1  'x, y, z'
loop_
 _atom_site_type_symbol
 _atom_site_label
 _atom_site_symmetry_multiplicity
 _atom_site_fract_x
 _atom_site_fract_y
 _atom_site_fract_z
 _atom_site_occupancy
  Gd  Gd0  1  0.286537  0.086922  0.375917  1
  Gd  Gd1  1  0.286537  0.913078  0.875917  1
  Gd  Gd2  1  0.713463  0.086922  0.875917  1
  Gd  Gd3  1  0.713463  0.913078  0.375917  1
  Gd  Gd4  1  0.586577  0.786883  0.876577  1
  Gd  Gd5  1  0.586577  0.213117  0.376577  1
  Gd  Gd6  1  0.413423  0.786883  0.376577  1
  Gd  Gd7  1  0.413423  0.213117  0.876577  1
  Gd  Gd8  1  0.212157  0.413761  0.623614  1
  Gd  Gd9  1  0.212157  0.586239  0.123614  1
  Gd  Gd10  1  0.787843  0.413761  0.123614  1
  Gd  Gd11  1  0.787843  0.586239  0.623614  1
  Ho  Ho12  1  0.915010  0.712075  0.122553  1
  Ho  Ho13  1  0.915010  0.287925  0.622553  1
  Ho  Ho14  1  0.084990  0.712075  0.622553  1
  Ho  Ho15  1  0.084990  0.287925  0.122553  1
  Sc  Sc16  1  0.000000  0.000000  0.500596  1
  Sc  Sc17  1  0.000000  0.000000  0.000596  1
  Sc  Sc18  1  0.500000  0.500000  0.000787  1
  Sc  Sc19  1  0.500000  0.500000  0.500787  1
  Ir  Ir20  1  0.854989  0.147856  0.250804  1
  Ir  Ir21  1  0.854989  0.852144  0.750804  1
  Ir  Ir22  1  0.145011  0.147856  0.750804  1
  Ir  Ir23  1  0.145011  0.852144  0.250804  1
  Ir  Ir24  1  0.647721  0.353011  0.749885  1
  Ir  Ir25  1  0.647721  0.646989  0.249885  1
  Ir  Ir26  1  0.352279  0.353011  0.249885  1
  Ir  Ir27  1  0.352279  0.646989  0.749885  1
  Ir  Ir28  1  0.500000  0.000000  0.121314  1
  Ir  Ir29  1  0.500000  0.000000  0.621314  1
  Ir  Ir30  1  0.000000  0.500000  0.878604  1
  Ir  Ir31  1  0.000000  0.500000  0.378604  1
