# generated using pymatgen
data_Tb3Dy7(IrRu)2
_symmetry_space_group_name_H-M   'P 1'
_cell_length_a   6.43296377
_cell_length_b   7.25685530
_cell_length_c   8.53400369
_cell_angle_alpha   96.69818241
_cell_angle_beta   112.07607652
_cell_angle_gamma   90.09816173
_symmetry_Int_Tables_number   1
_chemical_formula_structural   Tb3Dy7(IrRu)2
_chemical_formula_sum   'Tb3 Dy7 Ir2 Ru2'
_cell_volume   366.21638777
_cell_formula_units_Z   1
loop_
 _symmetry_equiv_pos_site_id
 _symmetry_equiv_pos_as_xyz
  1  'x, y, z'
loop_
 _atom_site_type_symbol
 _atom_site_label
 _atom_site_symmetry_multiplicity
 _atom_site_fract_x
 _atom_site_fract_y
 _atom_site_fract_z
 _atom_site_occupancy
  Tb  Tb0  1  0.790914  0.084643  0.814589  1
  Tb  Tb1  1  0.976341  0.415600  0.185090  1
  Tb  Tb2  1  0.206994  0.917905  0.186118  1
  Dy  Dy3  1  0.020639  0.582270  0.813748  1
  Dy  Dy4  1  0.210484  0.185827  0.562174  1
  Dy  Dy5  1  0.648770  0.314644  0.437834  1
  Dy  Dy6  1  0.789384  0.815547  0.436145  1
  Dy  Dy7  1  0.352901  0.683704  0.564342  1
  Dy  Dy8  1  0.427557  0.250242  0.000057  1
  Dy  Dy9  1  0.574046  0.749961  0.999996  1
  Ir  Ir10  1  0.398210  0.574912  0.221659  1
  Ir  Ir11  1  0.176054  0.924745  0.777602  1
  Ru  Ru12  1  0.603340  0.427189  0.778291  1
  Ru  Ru13  1  0.824365  0.072808  0.222355  1
