# generated using pymatgen
data_Er4Ga4PtRh3
_symmetry_space_group_name_H-M   'P 1'
_cell_length_a   4.30154300
_cell_length_b   6.80991000
_cell_length_c   7.78402700
_cell_angle_alpha   89.99911877
_cell_angle_beta   90.00000000
_cell_angle_gamma   90.00000000
_symmetry_Int_Tables_number   1
_chemical_formula_structural   Er4Ga4PtRh3
_chemical_formula_sum   'Er4 Ga4 Pt1 Rh3'
_cell_volume   228.01844236
_cell_formula_units_Z   1
loop_
 _symmetry_equiv_pos_site_id
 _symmetry_equiv_pos_as_xyz
  1  'x, y, z'
loop_
 _atom_site_type_symbol
 _atom_site_label
 _atom_site_symmetry_multiplicity
 _atom_site_fract_x
 _atom_site_fract_y
 _atom_site_fract_z
 _atom_site_occupancy
  Er  Er0  1  0.250000  0.972383  0.313947  1
  Er  Er1  1  0.250000  0.473799  0.189521  1
  Er  Er2  1  0.750000  0.027321  0.684664  1
  Er  Er3  1  0.750000  0.530067  0.813049  1
  Ga  Ga4  1  0.250000  0.351345  0.564904  1
  Ga  Ga5  1  0.250000  0.844651  0.932131  1
  Ga  Ga6  1  0.750000  0.651574  0.432571  1
  Ga  Ga7  1  0.750000  0.148199  0.070555  1
  Pt  Pt8  1  0.250000  0.235262  0.886503  1
  Rh  Rh9  1  0.250000  0.737266  0.612335  1
  Rh  Rh10  1  0.750000  0.763443  0.112044  1
  Rh  Rh11  1  0.750000  0.264691  0.387775  1
