# generated using pymatgen
data_TmHf3ZrSn3
_symmetry_space_group_name_H-M   'P 1'
_cell_length_a   8.54810500
_cell_length_b   8.61931177
_cell_length_c   5.84876700
_cell_angle_alpha   90.00000000
_cell_angle_beta   90.00000000
_cell_angle_gamma   120.27595183
_symmetry_Int_Tables_number   1
_chemical_formula_structural   TmHf3ZrSn3
_chemical_formula_sum   'Tm2 Hf6 Zr2 Sn6'
_cell_volume   372.15429054
_cell_formula_units_Z   2
loop_
 _symmetry_equiv_pos_site_id
 _symmetry_equiv_pos_as_xyz
  1  'x, y, z'
loop_
 _atom_site_type_symbol
 _atom_site_label
 _atom_site_symmetry_multiplicity
 _atom_site_fract_x
 _atom_site_fract_y
 _atom_site_fract_z
 _atom_site_occupancy
  Tm  Tm0  1  0.237079  0.237743  0.750000  1
  Tm  Tm1  1  0.237079  0.999334  0.250000  1
  Hf  Hf2  1  0.998157  0.746961  0.750000  1
  Hf  Hf3  1  0.998157  0.251195  0.250000  1
  Hf  Hf4  1  0.336548  0.668275  0.500000  1
  Hf  Hf5  1  0.668397  0.334198  0.000000  1
  Hf  Hf6  1  0.668397  0.334198  0.500000  1
  Hf  Hf7  1  0.336548  0.668275  0.000000  1
  Zr  Zr8  1  0.756297  0.756722  0.250000  1
  Zr  Zr9  1  0.756297  0.999576  0.750000  1
  Sn  Sn10  1  0.394596  0.997148  0.750000  1
  Sn  Sn11  1  0.394596  0.397448  0.250000  1
  Sn  Sn12  1  0.999161  0.604139  0.250000  1
  Sn  Sn13  1  0.999161  0.395024  0.750000  1
  Sn  Sn14  1  0.609765  0.608864  0.750000  1
  Sn  Sn15  1  0.609765  0.000901  0.250000  1
