# generated using pymatgen
data_Pr2Nd(SiIr)2
_symmetry_space_group_name_H-M   'P 1'
_cell_length_a   5.83530253
_cell_length_b   5.83530355
_cell_length_c   13.47636500
_cell_angle_alpha   90.00000000
_cell_angle_beta   90.00000000
_cell_angle_gamma   138.16170669
_symmetry_Int_Tables_number   1
_chemical_formula_structural   Pr2Nd(SiIr)2
_chemical_formula_sum   'Pr4 Nd2 Si4 Ir4'
_cell_volume   306.08730954
_cell_formula_units_Z   2
loop_
 _symmetry_equiv_pos_site_id
 _symmetry_equiv_pos_as_xyz
  1  'x, y, z'
loop_
 _atom_site_type_symbol
 _atom_site_label
 _atom_site_symmetry_multiplicity
 _atom_site_fract_x
 _atom_site_fract_y
 _atom_site_fract_z
 _atom_site_occupancy
  Pr  Pr0  1  0.772386  0.227614  0.603146  1
  Pr  Pr1  1  0.227614  0.772386  0.396854  1
  Pr  Pr2  1  0.772386  0.227614  0.896854  1
  Pr  Pr3  1  0.227614  0.772386  0.103146  1
  Nd  Nd4  1  0.517271  0.482729  0.250000  1
  Nd  Nd5  1  0.482729  0.517271  0.750000  1
  Si  Si6  1  0.060116  0.939884  0.587989  1
  Si  Si7  1  0.060116  0.939884  0.912011  1
  Si  Si8  1  0.939884  0.060116  0.412011  1
  Si  Si9  1  0.939884  0.060116  0.087989  1
  Ir  Ir10  1  0.816935  0.183065  0.250000  1
  Ir  Ir11  1  0.183065  0.816935  0.750000  1
  Ir  Ir12  1  0.500000  0.500000  0.000000  1
  Ir  Ir13  1  0.500000  0.500000  0.500000  1
