# generated using pymatgen
data_Li3Sc(NO3)8
_symmetry_space_group_name_H-M   'P 1'
_cell_length_a   7.83630088
_cell_length_b   7.83630115
_cell_length_c   7.83630100
_cell_angle_alpha   91.39419356
_cell_angle_beta   88.60579907
_cell_angle_gamma   88.60580556
_symmetry_Int_Tables_number   1
_chemical_formula_structural   Li3Sc(NO3)8
_chemical_formula_sum   'Li3 Sc1 N8 O24'
_cell_volume   480.77410819
_cell_formula_units_Z   1
loop_
 _symmetry_equiv_pos_site_id
 _symmetry_equiv_pos_as_xyz
  1  'x, y, z'
loop_
 _atom_site_type_symbol
 _atom_site_label
 _atom_site_symmetry_multiplicity
 _atom_site_fract_x
 _atom_site_fract_y
 _atom_site_fract_z
 _atom_site_occupancy
  Li  Li0  1  0.500000  0.500000  0.500000  1
  Li  Li1  1  0.500000  0.000000  0.000000  1
  Li  Li2  1  0.000000  0.500000  0.000000  1
  Sc  Sc3  1  0.000000  0.000000  0.500000  1
  N  N4  1  0.671681  0.165303  0.321975  1
  N  N5  1  0.668748  0.331252  0.831252  1
  N  N6  1  0.834697  0.821975  0.828319  1
  N  N7  1  0.821975  0.671681  0.334697  1
  N  N8  1  0.165303  0.178025  0.171681  1
  N  N9  1  0.178025  0.328319  0.665303  1
  N  N10  1  0.331252  0.668748  0.168748  1
  N  N11  1  0.328319  0.834697  0.678025  1
  O  O12  1  0.558427  0.217785  0.834190  1
  O  O13  1  0.568468  0.288266  0.329348  1
  O  O14  1  0.665810  0.441573  0.717785  1
  O  O15  1  0.669021  0.051480  0.208045  1
  O  O16  1  0.708045  0.669021  0.448520  1
  O  O17  1  0.711734  0.829348  0.931532  1
  O  O18  1  0.782215  0.334190  0.941573  1
  O  O19  1  0.786693  0.156002  0.438126  1
  O  O20  1  0.843998  0.938126  0.713307  1
  O  O21  1  0.829348  0.568468  0.211734  1
  O  O22  1  0.948520  0.708045  0.830979  1
  O  O23  1  0.938126  0.786693  0.343998  1
  O  O24  1  0.061874  0.213307  0.656002  1
  O  O25  1  0.051480  0.291955  0.169021  1
  O  O26  1  0.170652  0.431532  0.788266  1
  O  O27  1  0.156002  0.061874  0.286693  1
  O  O28  1  0.217785  0.665810  0.058427  1
  O  O29  1  0.213307  0.843998  0.561874  1
  O  O30  1  0.288266  0.170652  0.068468  1
  O  O31  1  0.291955  0.330979  0.551480  1
  O  O32  1  0.334190  0.558427  0.282215  1
  O  O33  1  0.330979  0.948520  0.791955  1
  O  O34  1  0.431532  0.711734  0.670652  1
  O  O35  1  0.441573  0.782215  0.165810  1
