# generated using pymatgen
data_Y7ErTi8(Si4Mo)4
_symmetry_space_group_name_H-M   'P 1'
_cell_length_a   6.99786312
_cell_length_b   6.99714726
_cell_length_c   12.85994716
_cell_angle_alpha   90.01610979
_cell_angle_beta   90.00267566
_cell_angle_gamma   90.00988942
_symmetry_Int_Tables_number   1
_chemical_formula_structural   Y7ErTi8(Si4Mo)4
_chemical_formula_sum   'Y7 Er1 Ti8 Si16 Mo4'
_cell_volume   629.68829086
_cell_formula_units_Z   1
loop_
 _symmetry_equiv_pos_site_id
 _symmetry_equiv_pos_as_xyz
  1  'x, y, z'
loop_
 _atom_site_type_symbol
 _atom_site_label
 _atom_site_symmetry_multiplicity
 _atom_site_fract_x
 _atom_site_fract_y
 _atom_site_fract_z
 _atom_site_occupancy
  Y  Y0  1  0.341389  0.000666  0.467137  1
  Y  Y1  1  0.499362  0.841432  0.717440  1
  Y  Y2  1  0.500825  0.158625  0.217006  1
  Y  Y3  1  0.841407  0.499154  0.282503  1
  Y  Y4  1  0.158576  0.500861  0.782808  1
  Y  Y5  1  0.658809  0.999276  0.967557  1
  Y  Y6  1  0.000727  0.341298  0.532705  1
  Er  Er7  1  0.000307  0.658313  0.032801  1
  Ti  Ti8  1  0.153003  0.009253  0.876732  1
  Ti  Ti9  1  0.490795  0.653528  0.126224  1
  Ti  Ti10  1  0.509205  0.346194  0.626485  1
  Ti  Ti11  1  0.653745  0.491414  0.874006  1
  Ti  Ti12  1  0.346291  0.509104  0.373380  1
  Ti  Ti13  1  0.846284  0.990613  0.376089  1
  Ti  Ti14  1  0.009174  0.153463  0.123531  1
  Ti  Ti15  1  0.990806  0.846225  0.623782  1
  Si  Si16  1  0.200346  0.129776  0.685201  1
  Si  Si17  1  0.369317  0.700360  0.935209  1
  Si  Si18  1  0.629739  0.299670  0.434951  1
  Si  Si19  1  0.701336  0.371154  0.065172  1
  Si  Si20  1  0.299857  0.629682  0.564865  1
  Si  Si21  1  0.800273  0.869351  0.184244  1
  Si  Si22  1  0.129707  0.200281  0.314783  1
  Si  Si23  1  0.870177  0.799327  0.815582  1
  Si  Si24  1  0.290435  0.951531  0.065523  1
  Si  Si25  1  0.547972  0.790970  0.315320  1
  Si  Si26  1  0.452212  0.209030  0.815783  1
  Si  Si27  1  0.791091  0.547751  0.684626  1
  Si  Si28  1  0.208332  0.452704  0.184015  1
  Si  Si29  1  0.708921  0.047672  0.565469  1
  Si  Si30  1  0.952377  0.292355  0.934759  1
  Si  Si31  1  0.047772  0.708881  0.434400  1
  Mo  Mo32  1  0.325955  0.326805  0.000102  1
  Mo  Mo33  1  0.173492  0.825932  0.249659  1
  Mo  Mo34  1  0.826278  0.173692  0.750214  1
  Mo  Mo35  1  0.673707  0.673660  0.499937  1
