# generated using pymatgen
data_HfSc3Rh2O
_symmetry_space_group_name_H-M   'P 1'
_cell_length_a   8.70097168
_cell_length_b   8.70097099
_cell_length_c   8.70097300
_cell_angle_alpha   60.00000375
_cell_angle_beta   60.00000640
_cell_angle_gamma   59.99999723
_symmetry_Int_Tables_number   1
_chemical_formula_structural   HfSc3Rh2O
_chemical_formula_sum   'Hf4 Sc12 Rh8 O4'
_cell_volume   465.78802942
_cell_formula_units_Z   4
loop_
 _symmetry_equiv_pos_site_id
 _symmetry_equiv_pos_as_xyz
  1  'x, y, z'
loop_
 _atom_site_type_symbol
 _atom_site_label
 _atom_site_symmetry_multiplicity
 _atom_site_fract_x
 _atom_site_fract_y
 _atom_site_fract_z
 _atom_site_occupancy
  Hf  Hf0  1  0.125000  0.625000  0.625000  1
  Hf  Hf1  1  0.625000  0.125000  0.625000  1
  Hf  Hf2  1  0.625000  0.625000  0.125000  1
  Hf  Hf3  1  0.625000  0.625000  0.625000  1
  Sc  Sc4  1  0.817879  0.817879  0.182121  1
  Sc  Sc5  1  0.182121  0.182121  0.817879  1
  Sc  Sc6  1  0.817879  0.182121  0.817879  1
  Sc  Sc7  1  0.182121  0.817879  0.182121  1
  Sc  Sc8  1  0.182121  0.817879  0.817879  1
  Sc  Sc9  1  0.817879  0.182121  0.182121  1
  Sc  Sc10  1  0.432121  0.432121  0.067879  1
  Sc  Sc11  1  0.067879  0.067879  0.432121  1
  Sc  Sc12  1  0.432121  0.067879  0.432121  1
  Sc  Sc13  1  0.067879  0.432121  0.067879  1
  Sc  Sc14  1  0.067879  0.432121  0.432121  1
  Sc  Sc15  1  0.432121  0.067879  0.067879  1
  Rh  Rh16  1  0.760582  0.413139  0.413139  1
  Rh  Rh17  1  0.413139  0.760582  0.413139  1
  Rh  Rh18  1  0.413139  0.413139  0.760582  1
  Rh  Rh19  1  0.413139  0.413139  0.413139  1
  Rh  Rh20  1  0.489418  0.836861  0.836861  1
  Rh  Rh21  1  0.836861  0.489418  0.836861  1
  Rh  Rh22  1  0.836861  0.836861  0.489418  1
  Rh  Rh23  1  0.836861  0.836861  0.836861  1
  O  O24  1  0.625000  0.125000  0.125000  1
  O  O25  1  0.125000  0.625000  0.125000  1
  O  O26  1  0.125000  0.125000  0.625000  1
  O  O27  1  0.125000  0.125000  0.125000  1
