# generated using pymatgen
data_Ho8Ta5Si16W7
_symmetry_space_group_name_H-M   'P 1'
_cell_length_a   6.92566174
_cell_length_b   6.92154103
_cell_length_c   12.87463091
_cell_angle_alpha   90.00787423
_cell_angle_beta   90.14790210
_cell_angle_gamma   89.97853058
_symmetry_Int_Tables_number   1
_chemical_formula_structural   Ho8Ta5Si16W7
_chemical_formula_sum   'Ho8 Ta5 Si16 W7'
_cell_volume   617.15944506
_cell_formula_units_Z   1
loop_
 _symmetry_equiv_pos_site_id
 _symmetry_equiv_pos_as_xyz
  1  'x, y, z'
loop_
 _atom_site_type_symbol
 _atom_site_label
 _atom_site_symmetry_multiplicity
 _atom_site_fract_x
 _atom_site_fract_y
 _atom_site_fract_z
 _atom_site_occupancy
  Ho  Ho0  1  0.338147  0.999907  0.467509  1
  Ho  Ho1  1  0.499370  0.837855  0.718838  1
  Ho  Ho2  1  0.499577  0.162230  0.218520  1
  Ho  Ho3  1  0.837353  0.499525  0.280620  1
  Ho  Ho4  1  0.162859  0.499997  0.782253  1
  Ho  Ho5  1  0.661695  0.999766  0.969197  1
  Ho  Ho6  1  0.000574  0.337430  0.531641  1
  Ho  Ho7  1  0.999780  0.662799  0.031610  1
  Ta  Ta8  1  0.332091  0.332925  0.000172  1
  Ta  Ta9  1  0.167409  0.831842  0.249434  1
  Ta  Ta10  1  0.831955  0.168447  0.750754  1
  Ta  Ta11  1  0.667923  0.666476  0.499155  1
  Ta  Ta12  1  0.994749  0.841461  0.625799  1
  Si  Si13  1  0.206456  0.131198  0.682888  1
  Si  Si14  1  0.372311  0.703567  0.933172  1
  Si  Si15  1  0.629360  0.296364  0.432480  1
  Si  Si16  1  0.702706  0.371998  0.067158  1
  Si  Si17  1  0.299720  0.627127  0.566229  1
  Si  Si18  1  0.795366  0.872389  0.182682  1
  Si  Si19  1  0.126913  0.202998  0.317075  1
  Si  Si20  1  0.871779  0.795739  0.818555  1
  Si  Si21  1  0.291214  0.962299  0.062905  1
  Si  Si22  1  0.538589  0.791043  0.312746  1
  Si  Si23  1  0.461433  0.208744  0.813098  1
  Si  Si24  1  0.790859  0.537949  0.687775  1
  Si  Si25  1  0.207744  0.460755  0.187000  1
  Si  Si26  1  0.705418  0.041245  0.562705  1
  Si  Si27  1  0.960822  0.292920  0.937844  1
  Si  Si28  1  0.040349  0.705979  0.435792  1
  W  W29  1  0.160540  0.007123  0.874186  1
  W  W30  1  0.494509  0.661615  0.123822  1
  W  W31  1  0.505294  0.337972  0.623780  1
  W  W32  1  0.661054  0.494412  0.876973  1
  W  W33  1  0.340287  0.502529  0.375283  1
  W  W34  1  0.840157  0.993950  0.374450  1
  W  W35  1  0.003640  0.159426  0.125901  1
