# generated using pymatgen
data_Nb12Al8FeAu3C4
_symmetry_space_group_name_H-M   'P 1'
_cell_length_a   8.43358524
_cell_length_b   8.43324520
_cell_length_c   8.43350737
_cell_angle_alpha   59.57463064
_cell_angle_beta   59.57485752
_cell_angle_gamma   59.57457280
_symmetry_Int_Tables_number   1
_chemical_formula_structural   Nb12Al8FeAu3C4
_chemical_formula_sum   'Nb12 Al8 Fe1 Au3 C4'
_cell_volume   420.03052169
_cell_formula_units_Z   1
loop_
 _symmetry_equiv_pos_site_id
 _symmetry_equiv_pos_as_xyz
  1  'x, y, z'
loop_
 _atom_site_type_symbol
 _atom_site_label
 _atom_site_symmetry_multiplicity
 _atom_site_fract_x
 _atom_site_fract_y
 _atom_site_fract_z
 _atom_site_occupancy
  Nb  Nb0  1  0.570930  0.930493  0.570930  1
  Nb  Nb1  1  0.319512  0.679062  0.679055  1
  Nb  Nb2  1  0.691340  0.313703  0.313718  1
  Nb  Nb3  1  0.313650  0.691432  0.313645  1
  Nb  Nb4  1  0.679057  0.679063  0.319511  1
  Nb  Nb5  1  0.313711  0.313691  0.691355  1
  Nb  Nb6  1  0.570943  0.570937  0.930489  1
  Nb  Nb7  1  0.930488  0.570938  0.570945  1
  Nb  Nb8  1  0.558660  0.936297  0.936282  1
  Nb  Nb9  1  0.936289  0.936309  0.558645  1
  Nb  Nb10  1  0.679070  0.319507  0.679070  1
  Nb  Nb11  1  0.936350  0.558568  0.936355  1
  Al  Al12  1  0.912119  0.912148  0.912123  1
  Al  Al13  1  0.998533  0.326636  0.326677  1
  Al  Al14  1  0.326647  0.998581  0.326642  1
  Al  Al15  1  0.326678  0.326632  0.998539  1
  Al  Al16  1  0.923353  0.251419  0.923358  1
  Al  Al17  1  0.923322  0.923368  0.251461  1
  Al  Al18  1  0.251467  0.923364  0.923323  1
  Al  Al19  1  0.337881  0.337852  0.337877  1
  Fe  Fe20  1  0.125000  0.125000  0.125000  1
  Au  Au21  1  0.625000  0.125000  0.125000  1
  Au  Au22  1  0.125000  0.625000  0.125000  1
  Au  Au23  1  0.125000  0.125000  0.625000  1
  C  C24  1  0.625000  0.625000  0.625000  1
  C  C25  1  0.125000  0.625000  0.625000  1
  C  C26  1  0.625000  0.125000  0.625000  1
  C  C27  1  0.625000  0.625000  0.125000  1
