# generated using pymatgen
data_La9Sm11Sn16
_symmetry_space_group_name_H-M   'P 1'
_cell_length_a   8.31116911
_cell_length_b   8.40862508
_cell_length_c   16.02844600
_cell_angle_alpha   90.06582257
_cell_angle_beta   90.06352665
_cell_angle_gamma   90.21733265
_symmetry_Int_Tables_number   1
_chemical_formula_structural   La9Sm11Sn16
_chemical_formula_sum   'La9 Sm11 Sn16'
_cell_volume   1120.14655187
_cell_formula_units_Z   1
loop_
 _symmetry_equiv_pos_site_id
 _symmetry_equiv_pos_as_xyz
  1  'x, y, z'
loop_
 _atom_site_type_symbol
 _atom_site_label
 _atom_site_symmetry_multiplicity
 _atom_site_fract_x
 _atom_site_fract_y
 _atom_site_fract_z
 _atom_site_occupancy
  La  La0  1  0.867270  0.664398  0.880955  1
  La  La1  1  0.517593  0.318906  0.902124  1
  La  La2  1  0.016409  0.180362  0.596100  1
  La  La3  1  0.483602  0.680357  0.402442  1
  La  La4  1  0.982582  0.819534  0.098646  1
  La  La5  1  0.483101  0.679969  0.098548  1
  La  La6  1  0.983527  0.819949  0.402442  1
  La  La7  1  0.515863  0.319210  0.596498  1
  La  La8  1  0.017031  0.180635  0.902699  1
  Sm  Sm9  1  0.364235  0.837611  0.878663  1
  Sm  Sm10  1  0.864229  0.663671  0.621075  1
  Sm  Sm11  1  0.635806  0.162644  0.378815  1
  Sm  Sm12  1  0.134918  0.337804  0.121473  1
  Sm  Sm13  1  0.633500  0.162186  0.123024  1
  Sm  Sm14  1  0.135711  0.336189  0.378153  1
  Sm  Sm15  1  0.364858  0.836980  0.619947  1
  Sm  Sm16  1  0.197195  0.502981  0.749847  1
  Sm  Sm17  1  0.697083  0.996824  0.749364  1
  Sm  Sm18  1  0.802762  0.496865  0.250741  1
  Sm  Sm19  1  0.301915  0.002717  0.250019  1
  Sn  Sn20  1  0.296288  0.038162  0.042787  1
  Sn  Sn21  1  0.798582  0.461703  0.457431  1
  Sn  Sn22  1  0.702741  0.961666  0.542440  1
  Sn  Sn23  1  0.210475  0.536105  0.957917  1
  Sn  Sn24  1  0.698759  0.967281  0.957801  1
  Sn  Sn25  1  0.201025  0.537910  0.542329  1
  Sn  Sn26  1  0.297590  0.038217  0.456756  1
  Sn  Sn27  1  0.795863  0.459154  0.045844  1
  Sn  Sn28  1  0.563121  0.620793  0.747945  1
  Sn  Sn29  1  0.067509  0.882167  0.748656  1
  Sn  Sn30  1  0.435053  0.379222  0.250509  1
  Sn  Sn31  1  0.934893  0.120711  0.250038  1
  Sn  Sn32  1  0.322817  0.139863  0.749078  1
  Sn  Sn33  1  0.822614  0.357152  0.748110  1
  Sn  Sn34  1  0.677337  0.859658  0.250495  1
  Sn  Sn35  1  0.176139  0.640445  0.250290  1
