# generated using pymatgen
data_Dy7Ho8Lu(CdPt)4
_symmetry_space_group_name_H-M   'P 1'
_cell_length_a   9.65309958
_cell_length_b   9.65310080
_cell_length_c   9.62864400
_cell_angle_alpha   60.08377447
_cell_angle_beta   60.08377032
_cell_angle_gamma   60.14708554
_symmetry_Int_Tables_number   1
_chemical_formula_structural   Dy7Ho8Lu(CdPt)4
_chemical_formula_sum   'Dy7 Ho8 Lu1 Cd4 Pt4'
_cell_volume   635.93711420
_cell_formula_units_Z   1
loop_
 _symmetry_equiv_pos_site_id
 _symmetry_equiv_pos_as_xyz
  1  'x, y, z'
loop_
 _atom_site_type_symbol
 _atom_site_label
 _atom_site_symmetry_multiplicity
 _atom_site_fract_x
 _atom_site_fract_y
 _atom_site_fract_z
 _atom_site_occupancy
  Dy  Dy0  1  0.811680  0.811680  0.188320  1
  Dy  Dy1  1  0.936959  0.563334  0.564617  1
  Dy  Dy2  1  0.563334  0.936959  0.935088  1
  Dy  Dy3  1  0.563334  0.936959  0.564617  1
  Dy  Dy4  1  0.936959  0.563333  0.935088  1
  Dy  Dy5  1  0.565552  0.565552  0.934448  1
  Dy  Dy6  1  0.937320  0.937320  0.562679  1
  Ho  Ho7  1  0.351647  0.351647  0.351477  1
  Ho  Ho8  1  0.351647  0.351647  0.945230  1
  Ho  Ho9  1  0.354329  0.939863  0.352905  1
  Ho  Ho10  1  0.939863  0.354329  0.352905  1
  Ho  Ho11  1  0.811680  0.190108  0.188300  1
  Ho  Ho12  1  0.190108  0.811680  0.809913  1
  Ho  Ho13  1  0.190108  0.811680  0.188300  1
  Ho  Ho14  1  0.811680  0.190108  0.809913  1
  Lu  Lu15  1  0.189894  0.189894  0.810106  1
  Cd  Cd16  1  0.580534  0.580534  0.582838  1
  Cd  Cd17  1  0.580534  0.580534  0.256094  1
  Cd  Cd18  1  0.580240  0.254379  0.582689  1
  Cd  Cd19  1  0.254379  0.580240  0.582689  1
  Pt  Pt20  1  0.142987  0.142987  0.144024  1
  Pt  Pt21  1  0.142987  0.142987  0.570004  1
  Pt  Pt22  1  0.142395  0.569856  0.143875  1
  Pt  Pt23  1  0.569856  0.142395  0.143875  1
