# generated using pymatgen
data_Dy3AgPtRh3O14
_symmetry_space_group_name_H-M   'P 1'
_cell_length_a   7.33162779
_cell_length_b   7.33162643
_cell_length_c   7.14086706
_cell_angle_alpha   59.11230877
_cell_angle_beta   59.11231057
_cell_angle_gamma   60.00000174
_symmetry_Int_Tables_number   1
_chemical_formula_structural   Dy3AgPtRh3O14
_chemical_formula_sum   'Dy3 Ag1 Pt1 Rh3 O14'
_cell_volume   267.71786783
_cell_formula_units_Z   1
loop_
 _symmetry_equiv_pos_site_id
 _symmetry_equiv_pos_as_xyz
  1  'x, y, z'
loop_
 _atom_site_type_symbol
 _atom_site_label
 _atom_site_symmetry_multiplicity
 _atom_site_fract_x
 _atom_site_fract_y
 _atom_site_fract_z
 _atom_site_occupancy
  Dy  Dy0  1  0.125000  0.625000  0.125000  1
  Dy  Dy1  1  0.625000  0.125000  0.125000  1
  Dy  Dy2  1  0.125000  0.125000  0.125000  1
  Ag  Ag3  1  0.125000  0.125000  0.625000  1
  Pt  Pt4  1  0.625000  0.625000  0.125000  1
  Rh  Rh5  1  0.625000  0.625000  0.625000  1
  Rh  Rh6  1  0.125000  0.625000  0.625000  1
  Rh  Rh7  1  0.625000  0.125000  0.625000  1
  O  O8  1  0.298841  0.693717  0.708603  1
  O  O9  1  0.533094  0.963647  0.970164  1
  O  O10  1  0.693717  0.298841  0.708603  1
  O  O11  1  0.298841  0.298841  0.708603  1
  O  O12  1  0.716906  0.716906  0.279836  1
  O  O13  1  0.003169  0.003169  0.990492  1
  O  O14  1  0.286353  0.716906  0.279836  1
  O  O15  1  0.963647  0.533094  0.970164  1
  O  O16  1  0.951159  0.951159  0.541397  1
  O  O17  1  0.533094  0.533094  0.970164  1
  O  O18  1  0.246831  0.246831  0.259508  1
  O  O19  1  0.556283  0.951159  0.541397  1
  O  O20  1  0.716906  0.286353  0.279836  1
  O  O21  1  0.951159  0.556283  0.541397  1
