# generated using pymatgen
data_Zr20Si12O
_symmetry_space_group_name_H-M   'P 1'
_cell_length_a   5.58871300
_cell_length_b   7.98950320
_cell_length_c   13.82827300
_cell_angle_alpha   89.99999283
_cell_angle_beta   90.00000000
_cell_angle_gamma   89.94128071
_symmetry_Int_Tables_number   1
_chemical_formula_structural   Zr20Si12O
_chemical_formula_sum   'Zr20 Si12 O1'
_cell_volume   617.44645176
_cell_formula_units_Z   1
loop_
 _symmetry_equiv_pos_site_id
 _symmetry_equiv_pos_as_xyz
  1  'x, y, z'
loop_
 _atom_site_type_symbol
 _atom_site_label
 _atom_site_symmetry_multiplicity
 _atom_site_fract_x
 _atom_site_fract_y
 _atom_site_fract_z
 _atom_site_occupancy
  Zr  Zr0  1  0.500000  0.000001  0.334178  1
  Zr  Zr1  1  0.500000  0.499999  0.833061  1
  Zr  Zr2  1  0.500000  0.499999  0.166939  1
  Zr  Zr3  1  0.500000  0.000001  0.665822  1
  Zr  Zr4  1  0.000000  0.500000  0.164463  1
  Zr  Zr5  1  0.999999  0.000001  0.668525  1
  Zr  Zr6  1  0.999999  0.000001  0.331475  1
  Zr  Zr7  1  0.000000  0.500000  0.835537  1
  Zr  Zr8  1  0.754965  0.246131  0.000000  1
  Zr  Zr9  1  0.750317  0.754402  0.500000  1
  Zr  Zr10  1  0.750074  0.375388  0.373966  1
  Zr  Zr11  1  0.753751  0.876576  0.877035  1
  Zr  Zr12  1  0.753751  0.876576  0.122965  1
  Zr  Zr13  1  0.750074  0.375388  0.626034  1
  Zr  Zr14  1  0.245035  0.753870  0.000000  1
  Zr  Zr15  1  0.249680  0.245599  0.500000  1
  Zr  Zr16  1  0.246251  0.123424  0.122965  1
  Zr  Zr17  1  0.249925  0.624611  0.626034  1
  Zr  Zr18  1  0.249925  0.624611  0.373966  1
  Zr  Zr19  1  0.246251  0.123424  0.877035  1
  Si  Si20  1  0.742239  0.605668  0.000000  1
  Si  Si21  1  0.752266  0.111864  0.500000  1
  Si  Si22  1  0.744155  0.197370  0.197133  1
  Si  Si23  1  0.750904  0.696331  0.696446  1
  Si  Si24  1  0.750904  0.696331  0.303554  1
  Si  Si25  1  0.744155  0.197370  0.802867  1
  Si  Si26  1  0.257759  0.394332  0.000000  1
  Si  Si27  1  0.247732  0.888136  0.500000  1
  Si  Si28  1  0.249095  0.303669  0.303554  1
  Si  Si29  1  0.255847  0.802630  0.802866  1
  Si  Si30  1  0.255847  0.802630  0.197134  1
  Si  Si31  1  0.249095  0.303669  0.696446  1
  O  O32  1  0.000001  0.000000  0.000000  1
