# generated using pymatgen
data_Ti10CuGeSb4
_symmetry_space_group_name_H-M   'P 1'
_cell_length_a   7.83399435
_cell_length_b   7.83382524
_cell_length_c   7.83399536
_cell_angle_alpha   96.25609732
_cell_angle_beta   96.25229844
_cell_angle_gamma   141.45690522
_symmetry_Int_Tables_number   1
_chemical_formula_structural   Ti10CuGeSb4
_chemical_formula_sum   'Ti10 Cu1 Ge1 Sb4'
_cell_volume   282.78187282
_cell_formula_units_Z   1
loop_
 _symmetry_equiv_pos_site_id
 _symmetry_equiv_pos_as_xyz
  1  'x, y, z'
loop_
 _atom_site_type_symbol
 _atom_site_label
 _atom_site_symmetry_multiplicity
 _atom_site_fract_x
 _atom_site_fract_y
 _atom_site_fract_z
 _atom_site_occupancy
  Ti  Ti0  1  0.573726  0.714452  0.287961  1
  Ti  Ti1  1  0.426479  0.285816  0.712027  1
  Ti  Ti2  1  0.750010  0.250000  0.500010  1
  Ti  Ti3  1  0.250009  0.750000  0.500009  1
  Ti  Ti4  1  0.714489  0.426544  0.140756  1
  Ti  Ti5  1  0.285810  0.573696  0.859241  1
  Ti  Ti6  1  0.926211  0.214184  0.140663  1
  Ti  Ti7  1  0.214212  0.073456  0.287944  1
  Ti  Ti8  1  0.073509  0.785548  0.859275  1
  Ti  Ti9  1  0.785546  0.926304  0.712115  1
  Cu  Cu10  1  0.249991  0.250000  0.999991  1
  Ge  Ge11  1  0.749977  0.750000  0.999977  1
  Sb  Sb12  1  0.335761  0.835769  0.171522  1
  Sb  Sb13  1  0.164259  0.335788  0.500047  1
  Sb  Sb14  1  0.664259  0.164212  0.828472  1
  Sb  Sb15  1  0.835753  0.664231  0.499992  1
