# generated using pymatgen
data_ErTm3(ScRh)4
_symmetry_space_group_name_H-M   'P 1'
_cell_length_a   4.25974500
_cell_length_b   7.15632034
_cell_length_c   8.55532901
_cell_angle_alpha   89.93237282
_cell_angle_beta   90.00000000
_cell_angle_gamma   90.00000000
_symmetry_Int_Tables_number   1
_chemical_formula_structural   ErTm3(ScRh)4
_chemical_formula_sum   'Er1 Tm3 Sc4 Rh4'
_cell_volume   260.80132148
_cell_formula_units_Z   1
loop_
 _symmetry_equiv_pos_site_id
 _symmetry_equiv_pos_as_xyz
  1  'x, y, z'
loop_
 _atom_site_type_symbol
 _atom_site_label
 _atom_site_symmetry_multiplicity
 _atom_site_fract_x
 _atom_site_fract_y
 _atom_site_fract_z
 _atom_site_occupancy
  Er  Er0  1  0.250000  0.981816  0.327153  1
  Tm  Tm1  1  0.750000  0.519439  0.827532  1
  Tm  Tm2  1  0.250000  0.480627  0.172107  1
  Tm  Tm3  1  0.750000  0.018796  0.672497  1
  Sc  Sc4  1  0.750000  0.640501  0.432456  1
  Sc  Sc5  1  0.750000  0.140772  0.066543  1
  Sc  Sc6  1  0.250000  0.359313  0.568178  1
  Sc  Sc7  1  0.250000  0.858715  0.932187  1
  Rh  Rh8  1  0.750000  0.754987  0.102617  1
  Rh  Rh9  1  0.750000  0.256435  0.397817  1
  Rh  Rh10  1  0.250000  0.244522  0.897289  1
  Rh  Rh11  1  0.250000  0.744078  0.603624  1
