# generated using pymatgen
data_Ho2Zr4Sn6(IrRh)3
_symmetry_space_group_name_H-M   'P 1'
_cell_length_a   7.50541641
_cell_length_b   7.51230211
_cell_length_c   7.37876254
_cell_angle_alpha   89.88175752
_cell_angle_beta   90.01825005
_cell_angle_gamma   120.10428553
_symmetry_Int_Tables_number   1
_chemical_formula_structural   Ho2Zr4Sn6(IrRh)3
_chemical_formula_sum   'Ho2 Zr4 Sn6 Ir3 Rh3'
_cell_volume   359.91802008
_cell_formula_units_Z   1
loop_
 _symmetry_equiv_pos_site_id
 _symmetry_equiv_pos_as_xyz
  1  'x, y, z'
loop_
 _atom_site_type_symbol
 _atom_site_label
 _atom_site_symmetry_multiplicity
 _atom_site_fract_x
 _atom_site_fract_y
 _atom_site_fract_z
 _atom_site_occupancy
  Ho  Ho0  1  0.595613  0.000385  0.249803  1
  Ho  Ho1  1  0.405792  0.403026  0.249932  1
  Zr  Zr2  1  0.608416  0.004329  0.750534  1
  Zr  Zr3  1  0.392680  0.395282  0.750553  1
  Zr  Zr4  1  0.999841  0.602780  0.750384  1
  Zr  Zr5  1  0.993967  0.594784  0.247556  1
  Sn  Sn6  1  0.266288  0.999449  0.993608  1
  Sn  Sn7  1  0.732427  0.734599  0.506646  1
  Sn  Sn8  1  0.002777  0.268741  0.496557  1
  Sn  Sn9  1  0.001002  0.266161  0.003119  1
  Sn  Sn10  1  0.732879  0.734341  0.993026  1
  Sn  Sn11  1  0.265436  0.996607  0.506340  1
  Ir  Ir12  1  0.672153  0.338008  0.975480  1
  Ir  Ir13  1  0.671788  0.337688  0.524708  1
  Ir  Ir14  1  0.328453  0.665880  0.977949  1
  Rh  Rh15  1  0.330044  0.665852  0.524372  1
  Rh  Rh16  1  0.000468  0.003693  0.749926  1
  Rh  Rh17  1  0.999979  0.988394  0.249508  1
