# generated using pymatgen
data_Tb9Dy7(AlCo)4
_symmetry_space_group_name_H-M   'P 1'
_cell_length_a   9.45481837
_cell_length_b   9.45490807
_cell_length_c   9.45490904
_cell_angle_alpha   60.01048815
_cell_angle_beta   60.00031655
_cell_angle_gamma   60.00031141
_symmetry_Int_Tables_number   1
_chemical_formula_structural   Tb9Dy7(AlCo)4
_chemical_formula_sum   'Tb9 Dy7 Al4 Co4'
_cell_volume   597.70836229
_cell_formula_units_Z   1
loop_
 _symmetry_equiv_pos_site_id
 _symmetry_equiv_pos_as_xyz
  1  'x, y, z'
loop_
 _atom_site_type_symbol
 _atom_site_label
 _atom_site_symmetry_multiplicity
 _atom_site_fract_x
 _atom_site_fract_y
 _atom_site_fract_z
 _atom_site_occupancy
  Tb  Tb0  1  0.562004  0.937995  0.937996  1
  Tb  Tb1  1  0.562204  0.937781  0.562037  1
  Tb  Tb2  1  0.937978  0.562036  0.937782  1
  Tb  Tb3  1  0.562204  0.562036  0.937782  1
  Tb  Tb4  1  0.937978  0.937781  0.562037  1
  Tb  Tb5  1  0.349077  0.349243  0.349243  1
  Tb  Tb6  1  0.349182  0.349200  0.952435  1
  Tb  Tb7  1  0.349182  0.952435  0.349200  1
  Tb  Tb8  1  0.952434  0.349243  0.349243  1
  Dy  Dy9  1  0.807896  0.192104  0.192104  1
  Dy  Dy10  1  0.192071  0.807929  0.807929  1
  Dy  Dy11  1  0.191959  0.807832  0.192227  1
  Dy  Dy12  1  0.807981  0.192227  0.807832  1
  Dy  Dy13  1  0.191959  0.192227  0.807832  1
  Dy  Dy14  1  0.807981  0.807832  0.192227  1
  Dy  Dy15  1  0.938162  0.561837  0.561838  1
  Al  Al16  1  0.576734  0.576618  0.576618  1
  Al  Al17  1  0.576559  0.576610  0.270273  1
  Al  Al18  1  0.576559  0.270273  0.576610  1
  Al  Al19  1  0.270031  0.576618  0.576618  1
  Co  Co20  1  0.140457  0.140455  0.140455  1
  Co  Co21  1  0.140386  0.140667  0.578561  1
  Co  Co22  1  0.140386  0.578561  0.140667  1
  Co  Co23  1  0.578634  0.140455  0.140455  1
