# generated using pymatgen
data_UNb6TlCl18
_symmetry_space_group_name_H-M   'P 1'
_cell_length_a   10.39708712
_cell_length_b   10.39708617
_cell_length_c   10.39708700
_cell_angle_alpha   55.53510792
_cell_angle_beta   55.53511151
_cell_angle_gamma   55.53511139
_symmetry_Int_Tables_number   1
_chemical_formula_structural   UNb6TlCl18
_chemical_formula_sum   'U1 Nb6 Tl1 Cl18'
_cell_volume   712.35607278
_cell_formula_units_Z   1
loop_
 _symmetry_equiv_pos_site_id
 _symmetry_equiv_pos_as_xyz
  1  'x, y, z'
loop_
 _atom_site_type_symbol
 _atom_site_label
 _atom_site_symmetry_multiplicity
 _atom_site_fract_x
 _atom_site_fract_y
 _atom_site_fract_z
 _atom_site_occupancy
  U  U0  1  0.499339  0.499307  0.499337  1
  Nb  Nb1  1  0.805953  0.146639  0.910844  1
  Nb  Nb2  1  0.910875  0.805967  0.146587  1
  Nb  Nb3  1  0.146620  0.910882  0.805921  1
  Nb  Nb4  1  0.194562  0.853303  0.089299  1
  Nb  Nb5  1  0.089292  0.194544  0.853330  1
  Nb  Nb6  1  0.853272  0.089277  0.194590  1
  Tl  Tl7  1  0.220434  0.220417  0.220494  1
  Cl  Cl8  1  0.873665  0.403133  0.725134  1
  Cl  Cl9  1  0.725148  0.873652  0.403094  1
  Cl  Cl10  1  0.403069  0.725184  0.873636  1
  Cl  Cl11  1  0.126685  0.595453  0.275871  1
  Cl  Cl12  1  0.275867  0.126694  0.595481  1
  Cl  Cl13  1  0.595508  0.275831  0.126687  1
  Cl  Cl14  1  0.544292  0.335207  0.801126  1
  Cl  Cl15  1  0.801178  0.544284  0.335119  1
  Cl  Cl16  1  0.335159  0.801226  0.544261  1
  Cl  Cl17  1  0.449027  0.664929  0.204835  1
  Cl  Cl18  1  0.204791  0.449040  0.665024  1
  Cl  Cl19  1  0.664985  0.204744  0.449046  1
  Cl  Cl20  1  0.664807  0.943282  0.068667  1
  Cl  Cl21  1  0.068696  0.664857  0.943223  1
  Cl  Cl22  1  0.943321  0.068691  0.664809  1
  Cl  Cl23  1  0.335389  0.056393  0.932879  1
  Cl  Cl24  1  0.932822  0.335355  0.056468  1
  Cl  Cl25  1  0.056381  0.932847  0.335374  1
