# generated using pymatgen
data_YHo9Al4(GaC4)2
_symmetry_space_group_name_H-M   'P 1'
_cell_length_a   10.80591502
_cell_length_b   10.80650202
_cell_length_c   3.49975000
_cell_angle_alpha   90.00000000
_cell_angle_beta   90.00000000
_cell_angle_gamma   89.99290047
_symmetry_Int_Tables_number   1
_chemical_formula_structural   YHo9Al4(GaC4)2
_chemical_formula_sum   'Y1 Ho9 Al4 Ga2 C8'
_cell_volume   408.68030210
_cell_formula_units_Z   1
loop_
 _symmetry_equiv_pos_site_id
 _symmetry_equiv_pos_as_xyz
  1  'x, y, z'
loop_
 _atom_site_type_symbol
 _atom_site_label
 _atom_site_symmetry_multiplicity
 _atom_site_fract_x
 _atom_site_fract_y
 _atom_site_fract_z
 _atom_site_occupancy
  Y  Y0  1  0.772786  0.949582  0.500000  1
  Ho  Ho1  1  0.550359  0.728248  0.500000  1
  Ho  Ho2  1  0.449542  0.271758  0.500000  1
  Ho  Ho3  1  0.050520  0.771652  0.500000  1
  Ho  Ho4  1  0.949647  0.228388  0.500000  1
  Ho  Ho5  1  0.271712  0.550404  0.500000  1
  Ho  Ho6  1  0.728291  0.449551  0.500000  1
  Ho  Ho7  1  0.228250  0.050458  0.500000  1
  Ho  Ho8  1  0.499945  0.999994  0.000000  1
  Ho  Ho9  1  0.999998  0.499992  0.000000  1
  Al  Al10  1  0.703847  0.204038  0.000000  1
  Al  Al11  1  0.296053  0.796112  0.000000  1
  Al  Al12  1  0.203906  0.296062  0.000000  1
  Al  Al13  1  0.796019  0.703733  0.000000  1
  Ga  Ga14  1  0.499975  0.499949  0.000000  1
  Ga  Ga15  1  0.000413  0.000116  0.000000  1
  C  C16  1  0.632076  0.133270  0.500000  1
  C  C17  1  0.367387  0.867386  0.500000  1
  C  C18  1  0.132596  0.367424  0.500000  1
  C  C19  1  0.867440  0.632588  0.500000  1
  C  C20  1  0.162171  0.662145  0.000000  1
  C  C21  1  0.837850  0.337882  0.000000  1
  C  C22  1  0.661374  0.837110  0.000000  1
  C  C23  1  0.337844  0.162156  0.000000  1
