# generated using pymatgen
data_SmHo7(Ge4Mo3)4
_symmetry_space_group_name_H-M   'P 1'
_cell_length_a   6.92111532
_cell_length_b   7.07269128
_cell_length_c   13.12273106
_cell_angle_alpha   90.05832204
_cell_angle_beta   89.97798232
_cell_angle_gamma   90.00116188
_symmetry_Int_Tables_number   1
_chemical_formula_structural   SmHo7(Ge4Mo3)4
_chemical_formula_sum   'Sm1 Ho7 Ge16 Mo12'
_cell_volume   642.36927237
_cell_formula_units_Z   1
loop_
 _symmetry_equiv_pos_site_id
 _symmetry_equiv_pos_as_xyz
  1  'x, y, z'
loop_
 _atom_site_type_symbol
 _atom_site_label
 _atom_site_symmetry_multiplicity
 _atom_site_fract_x
 _atom_site_fract_y
 _atom_site_fract_z
 _atom_site_occupancy
  Sm  Sm0  1  0.992946  0.167455  0.091893  1
  Ho  Ho1  1  0.491937  0.331851  0.092517  1
  Ho  Ho2  1  0.991960  0.168426  0.407422  1
  Ho  Ho3  1  0.508002  0.668629  0.592529  1
  Ho  Ho4  1  0.008168  0.831459  0.906913  1
  Ho  Ho5  1  0.508319  0.668029  0.906965  1
  Ho  Ho6  1  0.007958  0.831553  0.592494  1
  Ho  Ho7  1  0.492126  0.331615  0.408226  1
  Ge  Ge8  1  0.668120  0.043936  0.547497  1
  Ge  Ge9  1  0.168565  0.457220  0.951775  1
  Ge  Ge10  1  0.334988  0.954107  0.047097  1
  Ge  Ge11  1  0.831986  0.543829  0.452718  1
  Ge  Ge12  1  0.331870  0.956198  0.452862  1
  Ge  Ge13  1  0.831097  0.546248  0.047099  1
  Ge  Ge14  1  0.666619  0.043796  0.951630  1
  Ge  Ge15  1  0.168081  0.455926  0.547545  1
  Ge  Ge16  1  0.530112  0.366759  0.749677  1
  Ge  Ge17  1  0.030310  0.133548  0.749909  1
  Ge  Ge18  1  0.469553  0.632945  0.250295  1
  Ge  Ge19  1  0.969210  0.864956  0.250793  1
  Ge  Ge20  1  0.809401  0.641454  0.749665  1
  Ge  Ge21  1  0.309546  0.858825  0.749867  1
  Ge  Ge22  1  0.191882  0.360266  0.251150  1
  Ge  Ge23  1  0.688814  0.141192  0.250904  1
  Mo  Mo24  1  0.829987  0.339453  0.625808  1
  Mo  Mo25  1  0.330372  0.160665  0.873633  1
  Mo  Mo26  1  0.170213  0.660543  0.126004  1
  Mo  Mo27  1  0.669611  0.838956  0.374510  1
  Mo  Mo28  1  0.170176  0.660855  0.374704  1
  Mo  Mo29  1  0.669100  0.839031  0.126541  1
  Mo  Mo30  1  0.829160  0.340243  0.873405  1
  Mo  Mo31  1  0.329908  0.160536  0.625898  1
  Mo  Mo32  1  0.665104  0.002215  0.749606  1
  Mo  Mo33  1  0.164842  0.497964  0.749726  1
  Mo  Mo34  1  0.335208  0.996955  0.250491  1
  Mo  Mo35  1  0.834751  0.502365  0.250238  1
