# generated using pymatgen
data_NaNb6CoS12
_symmetry_space_group_name_H-M   'P 1'
_cell_length_a   5.81595100
_cell_length_b   5.81595221
_cell_length_c   13.13169200
_cell_angle_alpha   90.00000000
_cell_angle_beta   90.00000000
_cell_angle_gamma   119.99998743
_symmetry_Int_Tables_number   1
_chemical_formula_structural   NaNb6CoS12
_chemical_formula_sum   'Na1 Nb6 Co1 S12'
_cell_volume   384.67409689
_cell_formula_units_Z   1
loop_
 _symmetry_equiv_pos_site_id
 _symmetry_equiv_pos_as_xyz
  1  'x, y, z'
loop_
 _atom_site_type_symbol
 _atom_site_label
 _atom_site_symmetry_multiplicity
 _atom_site_fract_x
 _atom_site_fract_y
 _atom_site_fract_z
 _atom_site_occupancy
  Na  Na0  1  0.333333  0.666667  0.250000  1
  Nb  Nb1  1  0.000000  0.000000  0.531518  1
  Nb  Nb2  1  0.000000  0.000000  0.968482  1
  Nb  Nb3  1  0.333333  0.666667  0.968275  1
  Nb  Nb4  1  0.666667  0.333333  0.973299  1
  Nb  Nb5  1  0.666667  0.333333  0.526701  1
  Nb  Nb6  1  0.333333  0.666667  0.531725  1
  Co  Co7  1  0.666667  0.333333  0.750000  1
  S  S8  1  0.329858  0.331008  0.409445  1
  S  S9  1  0.668992  0.998850  0.409445  1
  S  S10  1  0.001150  0.670142  0.409445  1
  S  S11  1  0.337461  0.333341  0.648042  1
  S  S12  1  0.995880  0.662539  0.648042  1
  S  S13  1  0.666659  0.004120  0.648042  1
  S  S14  1  0.666659  0.662539  0.851958  1
  S  S15  1  0.337461  0.004120  0.851958  1
  S  S16  1  0.995880  0.333341  0.851958  1
  S  S17  1  0.668992  0.670142  0.090555  1
  S  S18  1  0.001150  0.331008  0.090555  1
  S  S19  1  0.329858  0.998850  0.090555  1
