# generated using pymatgen
data_Nd3Er3(PtRh8)2
_symmetry_space_group_name_H-M   'P 1'
_cell_length_a   5.31855700
_cell_length_b   5.31855721
_cell_length_c   17.59086000
_cell_angle_alpha   90.00000000
_cell_angle_beta   90.00000000
_cell_angle_gamma   119.99999250
_symmetry_Int_Tables_number   1
_chemical_formula_structural   Nd3Er3(PtRh8)2
_chemical_formula_sum   'Nd3 Er3 Pt2 Rh16'
_cell_volume   430.92867061
_cell_formula_units_Z   1
loop_
 _symmetry_equiv_pos_site_id
 _symmetry_equiv_pos_as_xyz
  1  'x, y, z'
loop_
 _atom_site_type_symbol
 _atom_site_label
 _atom_site_symmetry_multiplicity
 _atom_site_fract_x
 _atom_site_fract_y
 _atom_site_fract_z
 _atom_site_occupancy
  Nd  Nd0  1  0.333333  0.666667  0.957801  1
  Nd  Nd1  1  0.333333  0.666667  0.748070  1
  Nd  Nd2  1  0.666667  0.333333  0.251343  1
  Er  Er3  1  0.666667  0.333333  0.045279  1
  Er  Er4  1  0.666667  0.333333  0.457843  1
  Er  Er5  1  0.333333  0.666667  0.541843  1
  Pt  Pt6  1  0.000000  0.000000  0.499933  1
  Pt  Pt7  1  0.000000  0.000000  0.000318  1
  Rh  Rh8  1  0.168018  0.831982  0.375109  1
  Rh  Rh9  1  0.168018  0.336039  0.375109  1
  Rh  Rh10  1  0.663961  0.831982  0.375109  1
  Rh  Rh11  1  0.832069  0.167931  0.624596  1
  Rh  Rh12  1  0.832069  0.664138  0.624596  1
  Rh  Rh13  1  0.335862  0.167931  0.624596  1
  Rh  Rh14  1  0.832621  0.167379  0.872337  1
  Rh  Rh15  1  0.832621  0.665242  0.872337  1
  Rh  Rh16  1  0.334758  0.167379  0.872337  1
  Rh  Rh17  1  0.167454  0.832546  0.127104  1
  Rh  Rh18  1  0.167454  0.334908  0.127104  1
  Rh  Rh19  1  0.665092  0.832546  0.127104  1
  Rh  Rh20  1  0.333333  0.666667  0.251040  1
  Rh  Rh21  1  0.666667  0.333333  0.748916  1
  Rh  Rh22  1  0.000000  0.000000  0.251541  1
  Rh  Rh23  1  0.000000  0.000000  0.748636  1
