# generated using pymatgen
data_Tm4ZrSc3Pt4
_symmetry_space_group_name_H-M   'P 1'
_cell_length_a   4.61564700
_cell_length_b   6.95886814
_cell_length_c   8.31587494
_cell_angle_alpha   90.64307364
_cell_angle_beta   90.00000000
_cell_angle_gamma   90.00000000
_symmetry_Int_Tables_number   1
_chemical_formula_structural   Tm4ZrSc3Pt4
_chemical_formula_sum   'Tm4 Zr1 Sc3 Pt4'
_cell_volume   267.08640878
_cell_formula_units_Z   1
loop_
 _symmetry_equiv_pos_site_id
 _symmetry_equiv_pos_as_xyz
  1  'x, y, z'
loop_
 _atom_site_type_symbol
 _atom_site_label
 _atom_site_symmetry_multiplicity
 _atom_site_fract_x
 _atom_site_fract_y
 _atom_site_fract_z
 _atom_site_occupancy
  Tm  Tm0  1  0.250000  0.015981  0.677497  1
  Tm  Tm1  1  0.250000  0.516514  0.825138  1
  Tm  Tm2  1  0.750000  0.981779  0.322029  1
  Tm  Tm3  1  0.750000  0.482343  0.174624  1
  Zr  Zr4  1  0.750000  0.358590  0.572866  1
  Sc  Sc5  1  0.250000  0.142999  0.074311  1
  Sc  Sc6  1  0.250000  0.643826  0.424255  1
  Sc  Sc7  1  0.750000  0.858139  0.927570  1
  Pt  Pt8  1  0.250000  0.255974  0.404507  1
  Pt  Pt9  1  0.250000  0.754385  0.100797  1
  Pt  Pt10  1  0.750000  0.744478  0.598177  1
  Pt  Pt11  1  0.750000  0.244991  0.898231  1
