# generated using pymatgen
data_Tb16Al4FeNi3
_symmetry_space_group_name_H-M   'P 1'
_cell_length_a   9.48097817
_cell_length_b   9.48073817
_cell_length_c   9.48073379
_cell_angle_alpha   60.11432680
_cell_angle_beta   60.11480564
_cell_angle_gamma   60.11516914
_symmetry_Int_Tables_number   1
_chemical_formula_structural   Tb16Al4FeNi3
_chemical_formula_sum   'Tb16 Al4 Fe1 Ni3'
_cell_volume   604.15729977
_cell_formula_units_Z   1
loop_
 _symmetry_equiv_pos_site_id
 _symmetry_equiv_pos_as_xyz
  1  'x, y, z'
loop_
 _atom_site_type_symbol
 _atom_site_label
 _atom_site_symmetry_multiplicity
 _atom_site_fract_x
 _atom_site_fract_y
 _atom_site_fract_z
 _atom_site_occupancy
  Tb  Tb0  1  0.186730  0.813402  0.813405  1
  Tb  Tb1  1  0.809485  0.187585  0.187585  1
  Tb  Tb2  1  0.813411  0.186734  0.813383  1
  Tb  Tb3  1  0.187573  0.809482  0.187562  1
  Tb  Tb4  1  0.813414  0.813382  0.186728  1
  Tb  Tb5  1  0.187571  0.187562  0.809484  1
  Tb  Tb6  1  0.062977  0.441130  0.441136  1
  Tb  Tb7  1  0.441855  0.057893  0.057882  1
  Tb  Tb8  1  0.441146  0.062981  0.441121  1
  Tb  Tb9  1  0.057895  0.441833  0.057876  1
  Tb  Tb10  1  0.441152  0.441119  0.062974  1
  Tb  Tb11  1  0.057893  0.057881  0.441839  1
  Tb  Tb12  1  0.599162  0.599226  0.599207  1
  Tb  Tb13  1  0.598729  0.598796  0.200544  1
  Tb  Tb14  1  0.598744  0.200524  0.598794  1
  Tb  Tb15  1  0.200569  0.598764  0.598748  1
  Al  Al16  1  0.826775  0.826757  0.826762  1
  Al  Al17  1  0.826570  0.826555  0.521148  1
  Al  Al18  1  0.826576  0.521127  0.826569  1
  Al  Al19  1  0.521142  0.826557  0.826568  1
  Fe  Fe20  1  0.391827  0.391813  0.391833  1
  Ni  Ni21  1  0.392019  0.392032  0.824795  1
  Ni  Ni22  1  0.392008  0.824840  0.392019  1
  Ni  Ni23  1  0.824775  0.392028  0.392035  1
