# generated using pymatgen
data_Nb6Al8Cu3Pt
_symmetry_space_group_name_H-M   'P 1'
_cell_length_a   8.80743419
_cell_length_b   8.88184552
_cell_length_c   8.20452400
_cell_angle_alpha   90.00000000
_cell_angle_beta   90.00000000
_cell_angle_gamma   121.07374006
_symmetry_Int_Tables_number   1
_chemical_formula_structural   Nb6Al8Cu3Pt
_chemical_formula_sum   'Nb12 Al16 Cu6 Pt2'
_cell_volume   549.71206920
_cell_formula_units_Z   2
loop_
 _symmetry_equiv_pos_site_id
 _symmetry_equiv_pos_as_xyz
  1  'x, y, z'
loop_
 _atom_site_type_symbol
 _atom_site_label
 _atom_site_symmetry_multiplicity
 _atom_site_fract_x
 _atom_site_fract_y
 _atom_site_fract_z
 _atom_site_occupancy
  Nb  Nb0  1  0.331326  0.990646  0.066651  1
  Nb  Nb1  1  0.668674  0.009354  0.933349  1
  Nb  Nb2  1  0.996305  0.332394  0.069418  1
  Nb  Nb3  1  0.668674  0.009354  0.566651  1
  Nb  Nb4  1  0.996305  0.332394  0.430582  1
  Nb  Nb5  1  0.003695  0.667606  0.930582  1
  Nb  Nb6  1  0.331326  0.990646  0.433349  1
  Nb  Nb7  1  0.003695  0.667606  0.569418  1
  Nb  Nb8  1  0.664415  0.660417  0.066927  1
  Nb  Nb9  1  0.335585  0.339583  0.933073  1
  Nb  Nb10  1  0.335585  0.339583  0.566927  1
  Nb  Nb11  1  0.664415  0.660417  0.433073  1
  Al  Al12  1  0.344177  0.848156  0.750000  1
  Al  Al13  1  0.655138  0.505580  0.750000  1
  Al  Al14  1  0.655823  0.151844  0.250000  1
  Al  Al15  1  0.344862  0.494420  0.250000  1
  Al  Al16  1  0.844872  0.342039  0.750000  1
  Al  Al17  1  0.155128  0.657961  0.250000  1
  Al  Al18  1  0.340284  0.665454  0.505118  1
  Al  Al19  1  0.659716  0.334546  0.494882  1
  Al  Al20  1  0.659716  0.334546  0.005118  1
  Al  Al21  1  0.340284  0.665454  0.994882  1
  Al  Al22  1  0.181496  0.010446  0.750000  1
  Al  Al23  1  0.818504  0.989554  0.250000  1
  Al  Al24  1  0.010265  0.182762  0.750000  1
  Al  Al25  1  0.989735  0.817238  0.250000  1
  Al  Al26  1  0.822553  0.833343  0.750000  1
  Al  Al27  1  0.177447  0.166657  0.250000  1
  Cu  Cu28  1  0.167717  0.501271  0.750000  1
  Cu  Cu29  1  0.832283  0.498729  0.250000  1
  Cu  Cu30  1  0.505176  0.671765  0.750000  1
  Cu  Cu31  1  0.503714  0.171117  0.750000  1
  Cu  Cu32  1  0.494824  0.328235  0.250000  1
  Cu  Cu33  1  0.496286  0.828883  0.250000  1
  Pt  Pt34  1  0.000000  0.000000  0.500000  1
  Pt  Pt35  1  0.000000  0.000000  0.000000  1
