# generated using pymatgen
data_Ba4Er(IrO6)2
_symmetry_space_group_name_H-M   'P 1'
_cell_length_a   10.09382360
_cell_length_b   10.09382337
_cell_length_c   10.09382356
_cell_angle_alpha   33.93503110
_cell_angle_beta   33.93503480
_cell_angle_gamma   33.93503069
_symmetry_Int_Tables_number   1
_chemical_formula_structural   Ba4Er(IrO6)2
_chemical_formula_sum   'Ba4 Er1 Ir2 O12'
_cell_volume   285.65547484
_cell_formula_units_Z   1
loop_
 _symmetry_equiv_pos_site_id
 _symmetry_equiv_pos_as_xyz
  1  'x, y, z'
loop_
 _atom_site_type_symbol
 _atom_site_label
 _atom_site_symmetry_multiplicity
 _atom_site_fract_x
 _atom_site_fract_y
 _atom_site_fract_z
 _atom_site_occupancy
  Ba  Ba0  1  0.711884  0.711884  0.711884  1
  Ba  Ba1  1  0.288116  0.288116  0.288116  1
  Ba  Ba2  1  0.866774  0.866774  0.866774  1
  Ba  Ba3  1  0.133226  0.133226  0.133226  1
  Er  Er4  1  0.000000  0.000000  0.000000  1
  Ir  Ir5  1  0.580031  0.580031  0.580031  1
  Ir  Ir6  1  0.419969  0.419969  0.419969  1
  O  O7  1  0.221352  0.691131  0.221352  1
  O  O8  1  0.221352  0.221352  0.691131  1
  O  O9  1  0.691131  0.221352  0.221352  1
  O  O10  1  0.778648  0.308869  0.778648  1
  O  O11  1  0.778648  0.778648  0.308869  1
  O  O12  1  0.308869  0.778648  0.778648  1
  O  O13  1  0.387053  0.860161  0.387053  1
  O  O14  1  0.387053  0.387053  0.860161  1
  O  O15  1  0.860161  0.387053  0.387053  1
  O  O16  1  0.612947  0.139839  0.612947  1
  O  O17  1  0.612947  0.612947  0.139839  1
  O  O18  1  0.139839  0.612947  0.612947  1
