# generated using pymatgen
data_Li2V2Ir3Rh
_symmetry_space_group_name_H-M   'P 1'
_cell_length_a   4.19744600
_cell_length_b   5.91598206
_cell_length_c   12.58644713
_cell_angle_alpha   89.98331656
_cell_angle_beta   89.99975882
_cell_angle_gamma   90.00038478
_symmetry_Int_Tables_number   1
_chemical_formula_structural   Li2V2Ir3Rh
_chemical_formula_sum   'Li6 V6 Ir9 Rh3'
_cell_volume   312.54683384
_cell_formula_units_Z   3
loop_
 _symmetry_equiv_pos_site_id
 _symmetry_equiv_pos_as_xyz
  1  'x, y, z'
loop_
 _atom_site_type_symbol
 _atom_site_label
 _atom_site_symmetry_multiplicity
 _atom_site_fract_x
 _atom_site_fract_y
 _atom_site_fract_z
 _atom_site_occupancy
  Li  Li0  1  0.999962  0.000013  0.999177  1
  Li  Li1  1  0.499840  0.499951  0.166579  1
  Li  Li2  1  0.999838  0.000005  0.333343  1
  Li  Li3  1  0.499980  0.501039  0.500592  1
  Li  Li4  1  0.000197  0.998239  0.667439  1
  Li  Li5  1  0.500159  0.500873  0.832875  1
  V  V6  1  0.999946  0.500245  0.000973  1
  V  V7  1  0.499806  0.000151  0.166489  1
  V  V8  1  0.999814  0.500253  0.333404  1
  V  V9  1  0.500002  0.000332  0.499721  1
  V  V10  1  0.000270  0.498247  0.665687  1
  V  V11  1  0.500268  0.000476  0.833776  1
  Ir  Ir12  1  0.499973  0.250045  0.999265  1
  Ir  Ir13  1  0.499969  0.749546  0.999482  1
  Ir  Ir14  1  0.999802  0.249598  0.166376  1
  Ir  Ir15  1  0.999801  0.750133  0.166396  1
  Ir  Ir16  1  0.499808  0.250030  0.333588  1
  Ir  Ir17  1  0.499803  0.749644  0.333338  1
  Ir  Ir18  1  0.999990  0.249878  0.500661  1
  Ir  Ir19  1  0.999985  0.750247  0.500471  1
  Ir  Ir20  1  0.500208  0.251034  0.667086  1
  Rh  Rh21  1  0.500190  0.749891  0.667064  1
  Rh  Rh22  1  0.000210  0.249699  0.832976  1
  Rh  Rh23  1  0.000183  0.750427  0.833242  1
