# generated using pymatgen
data_CaCe2(SnRh)3
_symmetry_space_group_name_H-M   'P 1'
_cell_length_a   7.54352421
_cell_length_b   7.38089339
_cell_length_c   4.08254100
_cell_angle_alpha   90.00000000
_cell_angle_beta   90.00000000
_cell_angle_gamma   119.28937027
_symmetry_Int_Tables_number   1
_chemical_formula_structural   CaCe2(SnRh)3
_chemical_formula_sum   'Ca1 Ce2 Sn3 Rh3'
_cell_volume   198.24852507
_cell_formula_units_Z   1
loop_
 _symmetry_equiv_pos_site_id
 _symmetry_equiv_pos_as_xyz
  1  'x, y, z'
loop_
 _atom_site_type_symbol
 _atom_site_label
 _atom_site_symmetry_multiplicity
 _atom_site_fract_x
 _atom_site_fract_y
 _atom_site_fract_z
 _atom_site_occupancy
  Ca  Ca0  1  0.000000  0.407631  0.000000  1
  Ce  Ce1  1  0.586372  0.584862  0.000000  1
  Ce  Ce2  1  0.413628  0.998490  0.000000  1
  Sn  Sn3  1  0.242562  0.253134  0.500000  1
  Sn  Sn4  1  0.000000  0.737000  0.500000  1
  Sn  Sn5  1  0.757438  0.010572  0.500000  1
  Rh  Rh6  1  0.640467  0.329594  0.500000  1
  Rh  Rh7  1  0.359533  0.689128  0.500000  1
  Rh  Rh8  1  0.000000  0.989588  0.000000  1
