# generated using pymatgen
data_Er2LuZnCd3Au2
_symmetry_space_group_name_H-M   'P 1'
_cell_length_a   7.82768500
_cell_length_b   7.81121003
_cell_length_c   3.75853200
_cell_angle_alpha   90.00000000
_cell_angle_beta   90.00000000
_cell_angle_gamma   120.06979027
_symmetry_Int_Tables_number   1
_chemical_formula_structural   Er2LuZnCd3Au2
_chemical_formula_sum   'Er2 Lu1 Zn1 Cd3 Au2'
_cell_volume   198.88163926
_cell_formula_units_Z   1
loop_
 _symmetry_equiv_pos_site_id
 _symmetry_equiv_pos_as_xyz
  1  'x, y, z'
loop_
 _atom_site_type_symbol
 _atom_site_label
 _atom_site_symmetry_multiplicity
 _atom_site_fract_x
 _atom_site_fract_y
 _atom_site_fract_z
 _atom_site_occupancy
  Er  Er0  1  0.000053  0.591047  0.000000  1
  Er  Er1  1  0.409006  0.408953  0.000000  1
  Lu  Lu2  1  0.591019  0.000000  0.000000  1
  Zn  Zn3  1  0.999632  0.000000  0.000000  1
  Cd  Cd4  1  0.257019  0.000000  0.500000  1
  Cd  Cd5  1  0.999414  0.256312  0.500000  1
  Cd  Cd6  1  0.743102  0.743688  0.500000  1
  Au  Au7  1  0.334583  0.668413  0.500000  1
  Au  Au8  1  0.666171  0.331587  0.500000  1
