# generated using pymatgen
data_Er8InAgIrRh
_symmetry_space_group_name_H-M   'P 1'
_cell_length_a   9.52692270
_cell_length_b   9.52240377
_cell_length_c   9.52240343
_cell_angle_alpha   60.01336395
_cell_angle_beta   59.98429515
_cell_angle_gamma   59.98429527
_symmetry_Int_Tables_number   1
_chemical_formula_structural   Er8InAgIrRh
_chemical_formula_sum   'Er16 In2 Ag2 Ir2 Rh2'
_cell_volume   610.76128896
_cell_formula_units_Z   2
loop_
 _symmetry_equiv_pos_site_id
 _symmetry_equiv_pos_as_xyz
  1  'x, y, z'
loop_
 _atom_site_type_symbol
 _atom_site_label
 _atom_site_symmetry_multiplicity
 _atom_site_fract_x
 _atom_site_fract_y
 _atom_site_fract_z
 _atom_site_occupancy
  Er  Er0  1  0.188320  0.190826  0.810746  1
  Er  Er1  1  0.438427  0.061573  0.061573  1
  Er  Er2  1  0.438996  0.058221  0.435959  1
  Er  Er3  1  0.066823  0.435959  0.058221  1
  Er  Er4  1  0.650512  0.051638  0.647338  1
  Er  Er5  1  0.189089  0.810911  0.810911  1
  Er  Er6  1  0.066823  0.058221  0.435959  1
  Er  Er7  1  0.807703  0.192297  0.192297  1
  Er  Er8  1  0.810108  0.810746  0.190826  1
  Er  Er9  1  0.650512  0.647338  0.051638  1
  Er  Er10  1  0.653104  0.649195  0.649195  1
  Er  Er11  1  0.063615  0.436385  0.436385  1
  Er  Er12  1  0.048506  0.649195  0.649195  1
  Er  Er13  1  0.810108  0.190826  0.810746  1
  Er  Er14  1  0.438996  0.435959  0.058221  1
  Er  Er15  1  0.188320  0.810746  0.190826  1
  In  In16  1  0.742318  0.421265  0.421265  1
  In  In17  1  0.415151  0.421265  0.421265  1
  Ag  Ag18  1  0.415765  0.750565  0.417905  1
  Ag  Ag19  1  0.415765  0.417905  0.750565  1
  Ir  Ir20  1  0.857698  0.426000  0.858604  1
  Ir  Ir21  1  0.857698  0.858604  0.426000  1
  Rh  Rh22  1  0.427538  0.857178  0.857178  1
  Rh  Rh23  1  0.858104  0.857178  0.857178  1
