# generated using pymatgen
data_Pr9Sm(Ga2Pb)2
_symmetry_space_group_name_H-M   'P 1'
_cell_length_a   8.56220100
_cell_length_b   8.56220100
_cell_length_c   13.15009700
_cell_angle_alpha   90.00000000
_cell_angle_beta   90.00000000
_cell_angle_gamma   90.00000000
_symmetry_Int_Tables_number   1
_chemical_formula_structural   Pr9Sm(Ga2Pb)2
_chemical_formula_sum   'Pr18 Sm2 Ga8 Pb4'
_cell_volume   964.05052163
_cell_formula_units_Z   2
loop_
 _symmetry_equiv_pos_site_id
 _symmetry_equiv_pos_as_xyz
  1  'x, y, z'
loop_
 _atom_site_type_symbol
 _atom_site_label
 _atom_site_symmetry_multiplicity
 _atom_site_fract_x
 _atom_site_fract_y
 _atom_site_fract_z
 _atom_site_occupancy
  Pr  Pr0  1  0.844934  0.835365  0.895335  1
  Pr  Pr1  1  0.163979  0.156069  0.604166  1
  Pr  Pr2  1  0.843931  0.163979  0.395834  1
  Pr  Pr3  1  0.156069  0.836021  0.395834  1
  Pr  Pr4  1  0.336021  0.343931  0.395834  1
  Pr  Pr5  1  0.835365  0.155066  0.104665  1
  Pr  Pr6  1  0.335365  0.655066  0.895335  1
  Pr  Pr7  1  0.164635  0.844934  0.104665  1
  Pr  Pr8  1  0.500000  0.000000  0.764129  1
  Pr  Pr9  1  0.000000  0.500000  0.235871  1
  Pr  Pr10  1  0.343931  0.663979  0.604166  1
  Pr  Pr11  1  0.655066  0.664635  0.104665  1
  Pr  Pr12  1  0.656069  0.336021  0.604166  1
  Pr  Pr13  1  0.836021  0.843931  0.604166  1
  Pr  Pr14  1  0.664635  0.344934  0.895335  1
  Pr  Pr15  1  0.155066  0.164635  0.895335  1
  Pr  Pr16  1  0.663979  0.656069  0.395834  1
  Pr  Pr17  1  0.344934  0.335365  0.104665  1
  Sm  Sm18  1  0.000000  0.500000  0.736337  1
  Sm  Sm19  1  0.500000  0.000000  0.263663  1
  Ga  Ga20  1  0.638935  0.358192  0.250869  1
  Ga  Ga21  1  0.361065  0.641808  0.250869  1
  Ga  Ga22  1  0.141808  0.138935  0.250869  1
  Ga  Ga23  1  0.358192  0.361065  0.749131  1
  Ga  Ga24  1  0.138935  0.858192  0.749131  1
  Ga  Ga25  1  0.858192  0.861065  0.250869  1
  Ga  Ga26  1  0.641808  0.638935  0.749131  1
  Ga  Ga27  1  0.861065  0.141808  0.749131  1
  Pb  Pb28  1  0.000000  0.500000  0.987207  1
  Pb  Pb29  1  0.500000  0.000000  0.012793  1
  Pb  Pb30  1  0.500000  0.000000  0.507677  1
  Pb  Pb31  1  0.000000  0.500000  0.492323  1
