# generated using pymatgen
data_Tb3Yb2ZnPb3
_symmetry_space_group_name_H-M   'P 1'
_cell_length_a   9.25975700
_cell_length_b   9.25975916
_cell_length_c   6.87837200
_cell_angle_alpha   90.00000000
_cell_angle_beta   90.00000000
_cell_angle_gamma   119.99999586
_symmetry_Int_Tables_number   1
_chemical_formula_structural   Tb3Yb2ZnPb3
_chemical_formula_sum   'Tb6 Yb4 Zn2 Pb6'
_cell_volume   510.75848563
_cell_formula_units_Z   2
loop_
 _symmetry_equiv_pos_site_id
 _symmetry_equiv_pos_as_xyz
  1  'x, y, z'
loop_
 _atom_site_type_symbol
 _atom_site_label
 _atom_site_symmetry_multiplicity
 _atom_site_fract_x
 _atom_site_fract_y
 _atom_site_fract_z
 _atom_site_occupancy
  Tb  Tb0  1  0.262580  0.000000  0.250000  1
  Tb  Tb1  1  0.737420  0.000000  0.750000  1
  Tb  Tb2  1  0.000000  0.262580  0.250000  1
  Tb  Tb3  1  0.000000  0.737420  0.750000  1
  Tb  Tb4  1  0.737420  0.737420  0.250000  1
  Tb  Tb5  1  0.262580  0.262580  0.750000  1
  Yb  Yb6  1  0.333333  0.666667  0.000000  1
  Yb  Yb7  1  0.666667  0.333333  0.000000  1
  Yb  Yb8  1  0.666667  0.333333  0.500000  1
  Yb  Yb9  1  0.333333  0.666667  0.500000  1
  Zn  Zn10  1  0.000000  0.000000  0.000000  1
  Zn  Zn11  1  0.000000  0.000000  0.500000  1
  Pb  Pb12  1  0.615565  0.000000  0.250000  1
  Pb  Pb13  1  0.384435  0.000000  0.750000  1
  Pb  Pb14  1  0.000000  0.615565  0.250000  1
  Pb  Pb15  1  0.000000  0.384435  0.750000  1
  Pb  Pb16  1  0.384435  0.384435  0.250000  1
  Pb  Pb17  1  0.615565  0.615565  0.750000  1
