# generated using pymatgen
data_Ce3Tm(MgIr)4
_symmetry_space_group_name_H-M   'P 1'
_cell_length_a   7.08942474
_cell_length_b   4.06936400
_cell_length_c   8.70029744
_cell_angle_alpha   90.00000000
_cell_angle_beta   90.31429883
_cell_angle_gamma   90.00000000
_symmetry_Int_Tables_number   1
_chemical_formula_structural   Ce3Tm(MgIr)4
_chemical_formula_sum   'Ce3 Tm1 Mg4 Ir4'
_cell_volume   250.99501802
_cell_formula_units_Z   1
loop_
 _symmetry_equiv_pos_site_id
 _symmetry_equiv_pos_as_xyz
  1  'x, y, z'
loop_
 _atom_site_type_symbol
 _atom_site_label
 _atom_site_symmetry_multiplicity
 _atom_site_fract_x
 _atom_site_fract_y
 _atom_site_fract_z
 _atom_site_occupancy
  Ce  Ce0  1  0.461981  0.250000  0.312920  1
  Ce  Ce1  1  0.036919  0.750000  0.824578  1
  Ce  Ce2  1  0.536327  0.750000  0.681031  1
  Tm  Tm3  1  0.956919  0.250000  0.178956  1
  Mg  Mg4  1  0.866328  0.250000  0.555408  1
  Mg  Mg5  1  0.366303  0.250000  0.946021  1
  Mg  Mg6  1  0.130183  0.750000  0.439653  1
  Mg  Mg7  1  0.639267  0.750000  0.057319  1
  Ir  Ir8  1  0.758783  0.250000  0.864074  1
  Ir  Ir9  1  0.258444  0.250000  0.636369  1
  Ir  Ir10  1  0.247353  0.750000  0.135493  1
  Ir  Ir11  1  0.741192  0.750000  0.368178  1
