# generated using pymatgen
data_Ti5Ru4Rh
_symmetry_space_group_name_H-M   'P 1'
_cell_length_a   3.09186700
_cell_length_b   3.09186700
_cell_length_c   15.47065800
_cell_angle_alpha   90.00000000
_cell_angle_beta   90.00000000
_cell_angle_gamma   90.00000000
_symmetry_Int_Tables_number   1
_chemical_formula_structural   Ti5Ru4Rh
_chemical_formula_sum   'Ti5 Ru4 Rh1'
_cell_volume   147.89394496
_cell_formula_units_Z   1
loop_
 _symmetry_equiv_pos_site_id
 _symmetry_equiv_pos_as_xyz
  1  'x, y, z'
loop_
 _atom_site_type_symbol
 _atom_site_label
 _atom_site_symmetry_multiplicity
 _atom_site_fract_x
 _atom_site_fract_y
 _atom_site_fract_z
 _atom_site_occupancy
  Ti  Ti0  1  0.500000  0.500000  0.101730  1
  Ti  Ti1  1  0.500000  0.500000  0.301116  1
  Ti  Ti2  1  0.500000  0.500000  0.500000  1
  Ti  Ti3  1  0.500000  0.500000  0.698884  1
  Ti  Ti4  1  0.500000  0.500000  0.898270  1
  Ru  Ru5  1  0.000000  0.000000  0.200158  1
  Ru  Ru6  1  0.000000  0.000000  0.400428  1
  Ru  Ru7  1  0.000000  0.000000  0.599572  1
  Ru  Ru8  1  0.000000  0.000000  0.799842  1
  Rh  Rh9  1  0.000000  0.000000  0.000000  1
