# generated using pymatgen
data_Yb4CoGe7O20
_symmetry_space_group_name_H-M   'P 1'
_cell_length_a   5.74771200
_cell_length_b   7.29624935
_cell_length_c   8.32650636
_cell_angle_alpha   89.96543218
_cell_angle_beta   90.00000000
_cell_angle_gamma   90.00000000
_symmetry_Int_Tables_number   1
_chemical_formula_structural   Yb4CoGe7O20
_chemical_formula_sum   'Yb4 Co1 Ge7 O20'
_cell_volume   349.18646825
_cell_formula_units_Z   1
loop_
 _symmetry_equiv_pos_site_id
 _symmetry_equiv_pos_as_xyz
  1  'x, y, z'
loop_
 _atom_site_type_symbol
 _atom_site_label
 _atom_site_symmetry_multiplicity
 _atom_site_fract_x
 _atom_site_fract_y
 _atom_site_fract_z
 _atom_site_occupancy
  Yb  Yb0  1  0.498694  0.367703  0.168544  1
  Yb  Yb1  1  0.498694  0.632297  0.831456  1
  Yb  Yb2  1  0.498317  0.864530  0.333629  1
  Yb  Yb3  1  0.498317  0.135470  0.666371  1
  Co  Co4  1  0.251566  0.500000  0.500000  1
  Ge  Ge5  1  0.999214  0.606778  0.147706  1
  Ge  Ge6  1  0.999214  0.393222  0.852294  1
  Ge  Ge7  1  0.000682  0.109208  0.353771  1
  Ge  Ge8  1  0.000682  0.890792  0.646229  1
  Ge  Ge9  1  0.745107  0.000000  0.000000  1
  Ge  Ge10  1  0.747289  0.500000  0.500000  1
  Ge  Ge11  1  0.255370  0.000000  0.000000  1
  O  O12  1  0.000931  0.844425  0.074313  1
  O  O13  1  0.000931  0.155575  0.925687  1
  O  O14  1  0.998832  0.345891  0.426734  1
  O  O15  1  0.998832  0.654109  0.573266  1
  O  O16  1  0.496411  0.342794  0.445386  1
  O  O17  1  0.496411  0.657206  0.554614  1
  O  O18  1  0.500144  0.838582  0.056156  1
  O  O19  1  0.500144  0.161418  0.943844  1
  O  O20  1  0.212966  0.500000  0.000000  1
  O  O21  1  0.787483  0.000000  0.500000  1
  O  O22  1  0.789051  0.500000  0.000000  1
  O  O23  1  0.211322  0.000000  0.500000  1
  O  O24  1  0.245717  0.108221  0.208620  1
  O  O25  1  0.245717  0.891779  0.791380  1
  O  O26  1  0.755376  0.609434  0.291369  1
  O  O27  1  0.755376  0.390566  0.708631  1
  O  O28  1  0.754854  0.891283  0.791209  1
  O  O29  1  0.754854  0.108717  0.208791  1
  O  O30  1  0.250749  0.396372  0.708382  1
  O  O31  1  0.250749  0.603628  0.291618  1
