# generated using pymatgen
data_Ho2Er5Tm9(Ga3Co)2
_symmetry_space_group_name_H-M   'P 1'
_cell_length_a   9.89053403
_cell_length_b   9.89031474
_cell_length_c   6.84979500
_cell_angle_alpha   89.99960932
_cell_angle_beta   90.00048008
_cell_angle_gamma   119.99251313
_symmetry_Int_Tables_number   1
_chemical_formula_structural   Ho2Er5Tm9(Ga3Co)2
_chemical_formula_sum   'Ho2 Er5 Tm9 Ga6 Co2'
_cell_volume   580.32438417
_cell_formula_units_Z   1
loop_
 _symmetry_equiv_pos_site_id
 _symmetry_equiv_pos_as_xyz
  1  'x, y, z'
loop_
 _atom_site_type_symbol
 _atom_site_label
 _atom_site_symmetry_multiplicity
 _atom_site_fract_x
 _atom_site_fract_y
 _atom_site_fract_z
 _atom_site_occupancy
  Ho  Ho0  1  0.999988  0.000015  0.269830  1
  Ho  Ho1  1  0.000019  0.999985  0.769821  1
  Er  Er2  1  0.535972  0.464050  0.792939  1
  Er  Er3  1  0.464062  0.928035  0.292898  1
  Er  Er4  1  0.071953  0.535934  0.292921  1
  Er  Er5  1  0.928033  0.464024  0.792898  1
  Er  Er6  1  0.535975  0.071947  0.792951  1
  Tm  Tm7  1  0.173409  0.826608  0.990826  1
  Tm  Tm8  1  0.826594  0.173444  0.490820  1
  Tm  Tm9  1  0.173564  0.346946  0.990963  1
  Tm  Tm10  1  0.653050  0.826441  0.990976  1
  Tm  Tm11  1  0.346903  0.173576  0.490688  1
  Tm  Tm12  1  0.826415  0.653095  0.490694  1
  Tm  Tm13  1  0.333415  0.666600  0.672769  1
  Tm  Tm14  1  0.666602  0.333396  0.173014  1
  Tm  Tm15  1  0.463938  0.536053  0.293048  1
  Ga  Ga16  1  0.163530  0.836481  0.540589  1
  Ga  Ga17  1  0.836444  0.163538  0.040529  1
  Ga  Ga18  1  0.163682  0.327180  0.540416  1
  Ga  Ga19  1  0.672815  0.836312  0.540428  1
  Ga  Ga20  1  0.327085  0.163541  0.040621  1
  Ga  Ga21  1  0.836443  0.672914  0.040630  1
  Co  Co22  1  0.333456  0.666543  0.057512  1
  Co  Co23  1  0.666654  0.333340  0.557339  1
