# generated using pymatgen
data_PrGd3(Zn4Ru)2
_symmetry_space_group_name_H-M   'P 1'
_cell_length_a   7.03693300
_cell_length_b   7.03693300
_cell_length_c   5.33595200
_cell_angle_alpha   90.00000000
_cell_angle_beta   90.00000000
_cell_angle_gamma   90.00000000
_symmetry_Int_Tables_number   1
_chemical_formula_structural   PrGd3(Zn4Ru)2
_chemical_formula_sum   'Pr1 Gd3 Zn8 Ru2'
_cell_volume   264.22794450
_cell_formula_units_Z   1
loop_
 _symmetry_equiv_pos_site_id
 _symmetry_equiv_pos_as_xyz
  1  'x, y, z'
loop_
 _atom_site_type_symbol
 _atom_site_label
 _atom_site_symmetry_multiplicity
 _atom_site_fract_x
 _atom_site_fract_y
 _atom_site_fract_z
 _atom_site_occupancy
  Pr  Pr0  1  0.500000  0.000000  0.221175  1
  Gd  Gd1  1  0.000000  0.500000  0.776338  1
  Gd  Gd2  1  0.000000  0.000000  0.000366  1
  Gd  Gd3  1  0.500000  0.500000  0.000366  1
  Zn  Zn4  1  0.183848  0.683848  0.297030  1
  Zn  Zn5  1  0.816152  0.683848  0.297030  1
  Zn  Zn6  1  0.816152  0.316152  0.297030  1
  Zn  Zn7  1  0.312421  0.187579  0.702954  1
  Zn  Zn8  1  0.183848  0.316152  0.297030  1
  Zn  Zn9  1  0.687579  0.187579  0.702954  1
  Zn  Zn10  1  0.687579  0.812421  0.702954  1
  Zn  Zn11  1  0.312421  0.812421  0.702954  1
  Ru  Ru12  1  0.500000  0.500000  0.500910  1
  Ru  Ru13  1  0.000000  0.000000  0.500910  1
