# generated using pymatgen
data_Y2Al9OsRh2
_symmetry_space_group_name_H-M   'P 1'
_cell_length_a   7.52838668
_cell_length_b   7.52838676
_cell_length_c   9.54054400
_cell_angle_alpha   90.00000000
_cell_angle_beta   90.00000000
_cell_angle_gamma   118.59345523
_symmetry_Int_Tables_number   1
_chemical_formula_structural   Y2Al9OsRh2
_chemical_formula_sum   'Y4 Al18 Os2 Rh4'
_cell_volume   474.77748655
_cell_formula_units_Z   2
loop_
 _symmetry_equiv_pos_site_id
 _symmetry_equiv_pos_as_xyz
  1  'x, y, z'
loop_
 _atom_site_type_symbol
 _atom_site_label
 _atom_site_symmetry_multiplicity
 _atom_site_fract_x
 _atom_site_fract_y
 _atom_site_fract_z
 _atom_site_occupancy
  Y  Y0  1  0.993199  0.677153  0.250000  1
  Y  Y1  1  0.006801  0.322847  0.750000  1
  Y  Y2  1  0.677153  0.993199  0.250000  1
  Y  Y3  1  0.322847  0.006801  0.750000  1
  Al  Al4  1  0.132711  0.132711  0.250000  1
  Al  Al5  1  0.867289  0.867289  0.750000  1
  Al  Al6  1  0.002843  0.336879  0.073746  1
  Al  Al7  1  0.997157  0.663121  0.926254  1
  Al  Al8  1  0.997157  0.663121  0.573746  1
  Al  Al9  1  0.336879  0.002843  0.426254  1
  Al  Al10  1  0.002843  0.336879  0.426254  1
  Al  Al11  1  0.663121  0.997157  0.573746  1
  Al  Al12  1  0.663121  0.997157  0.926254  1
  Al  Al13  1  0.336879  0.002843  0.073746  1
  Al  Al14  1  0.332414  0.332414  0.547491  1
  Al  Al15  1  0.667586  0.667586  0.452509  1
  Al  Al16  1  0.667586  0.667586  0.047491  1
  Al  Al17  1  0.332414  0.332414  0.952509  1
  Al  Al18  1  0.340259  0.552083  0.250000  1
  Al  Al19  1  0.659741  0.447917  0.750000  1
  Al  Al20  1  0.552083  0.340259  0.250000  1
  Al  Al21  1  0.447917  0.659741  0.750000  1
  Os  Os22  1  0.000000  0.000000  0.000000  1
  Os  Os23  1  0.000000  0.000000  0.500000  1
  Rh  Rh24  1  0.671928  0.328072  0.000000  1
  Rh  Rh25  1  0.328072  0.671928  0.000000  1
  Rh  Rh26  1  0.328072  0.671928  0.500000  1
  Rh  Rh27  1  0.671928  0.328072  0.500000  1
