# generated using pymatgen
data_Li3Tb2YSi2Sn
_symmetry_space_group_name_H-M   'P 1'
_cell_length_a   7.10990650
_cell_length_b   7.10990543
_cell_length_c   4.34430300
_cell_angle_alpha   90.00000000
_cell_angle_beta   90.00000000
_cell_angle_gamma   119.95682663
_symmetry_Int_Tables_number   1
_chemical_formula_structural   Li3Tb2YSi2Sn
_chemical_formula_sum   'Li3 Tb2 Y1 Si2 Sn1'
_cell_volume   190.26864539
_cell_formula_units_Z   1
loop_
 _symmetry_equiv_pos_site_id
 _symmetry_equiv_pos_as_xyz
  1  'x, y, z'
loop_
 _atom_site_type_symbol
 _atom_site_label
 _atom_site_symmetry_multiplicity
 _atom_site_fract_x
 _atom_site_fract_y
 _atom_site_fract_z
 _atom_site_occupancy
  Li  Li0  1  0.241371  0.000032  0.500000  1
  Li  Li1  1  0.758595  0.758595  0.500000  1
  Li  Li2  1  0.000032  0.241371  0.500000  1
  Tb  Tb3  1  0.999988  0.553157  0.000000  1
  Tb  Tb4  1  0.553157  0.999988  0.000000  1
  Y  Y5  1  0.446902  0.446902  0.000000  1
  Si  Si6  1  0.333360  0.666553  0.500000  1
  Si  Si7  1  0.666553  0.333360  0.500000  1
  Sn  Sn8  1  0.000043  0.000043  0.000000  1
