# generated using pymatgen
data_La2Sm2C2Br5
_symmetry_space_group_name_H-M   'P 1'
_cell_length_a   3.98338525
_cell_length_b   8.39359090
_cell_length_c   9.98133571
_cell_angle_alpha   104.74775529
_cell_angle_beta   78.48983024
_cell_angle_gamma   90.00000542
_symmetry_Int_Tables_number   1
_chemical_formula_structural   La2Sm2C2Br5
_chemical_formula_sum   'La2 Sm2 C2 Br5'
_cell_volume   315.78573878
_cell_formula_units_Z   1
loop_
 _symmetry_equiv_pos_site_id
 _symmetry_equiv_pos_as_xyz
  1  'x, y, z'
loop_
 _atom_site_type_symbol
 _atom_site_label
 _atom_site_symmetry_multiplicity
 _atom_site_fract_x
 _atom_site_fract_y
 _atom_site_fract_z
 _atom_site_occupancy
  La  La0  1  0.003640  0.201385  0.992720  1
  La  La1  1  0.003294  0.794218  0.993412  1
  Sm  Sm2  1  0.658438  0.894614  0.683123  1
  Sm  Sm3  1  0.348567  0.100676  0.302865  1
  C  C4  1  0.466411  0.022000  0.067177  1
  C  C5  1  0.540602  0.973429  0.918797  1
  Br  Br6  1  0.167655  0.634318  0.664690  1
  Br  Br7  1  0.839260  0.360844  0.321478  1
  Br  Br8  1  0.502742  0.498352  0.994515  1
  Br  Br9  1  0.173038  0.148429  0.653923  1
  Br  Br10  1  0.833950  0.847033  0.332099  1
