# generated using pymatgen
data_Tl2HgIr4PbO14
_symmetry_space_group_name_H-M   'P 1'
_cell_length_a   7.33700406
_cell_length_b   7.36421567
_cell_length_c   7.29879359
_cell_angle_alpha   59.84610805
_cell_angle_beta   59.82667548
_cell_angle_gamma   60.12217066
_symmetry_Int_Tables_number   1
_chemical_formula_structural   Tl2HgIr4PbO14
_chemical_formula_sum   'Tl2 Hg1 Ir4 Pb1 O14'
_cell_volume   278.41990231
_cell_formula_units_Z   1
loop_
 _symmetry_equiv_pos_site_id
 _symmetry_equiv_pos_as_xyz
  1  'x, y, z'
loop_
 _atom_site_type_symbol
 _atom_site_label
 _atom_site_symmetry_multiplicity
 _atom_site_fract_x
 _atom_site_fract_y
 _atom_site_fract_z
 _atom_site_occupancy
  Tl  Tl0  1  0.625000  0.125000  0.125000  1
  Tl  Tl1  1  0.125000  0.125000  0.125000  1
  Hg  Hg2  1  0.125000  0.125000  0.625000  1
  Ir  Ir3  1  0.125000  0.625000  0.625000  1
  Ir  Ir4  1  0.625000  0.125000  0.625000  1
  Ir  Ir5  1  0.625000  0.625000  0.125000  1
  Ir  Ir6  1  0.625000  0.625000  0.625000  1
  Pb  Pb7  1  0.125000  0.625000  0.125000  1
  O  O8  1  0.705385  0.701263  0.295617  1
  O  O9  1  0.303008  0.304435  0.707575  1
  O  O10  1  0.684980  0.304435  0.707575  1
  O  O11  1  0.297734  0.701263  0.295617  1
  O  O12  1  0.301840  0.688301  0.708018  1
  O  O13  1  0.700722  0.301032  0.297524  1
  O  O14  1  0.544615  0.548737  0.954383  1
  O  O15  1  0.946992  0.945565  0.542425  1
  O  O16  1  0.565020  0.945565  0.542425  1
  O  O17  1  0.952266  0.548737  0.954383  1
  O  O18  1  0.948160  0.561699  0.541982  1
  O  O19  1  0.549278  0.948968  0.952476  1
  O  O20  1  0.246216  0.237416  0.270151  1
  O  O21  1  0.003784  0.012584  0.979849  1
