# generated using pymatgen
data_SrH5Rh
_symmetry_space_group_name_H-M   'P 1'
_cell_length_a   4.63967600
_cell_length_b   5.13878000
_cell_length_c   12.42426300
_cell_angle_alpha   90.00000000
_cell_angle_beta   90.00000000
_cell_angle_gamma   90.00000000
_symmetry_Int_Tables_number   1
_chemical_formula_structural   SrH5Rh
_chemical_formula_sum   'Sr4 H20 Rh4'
_cell_volume   296.22268562
_cell_formula_units_Z   4
loop_
 _symmetry_equiv_pos_site_id
 _symmetry_equiv_pos_as_xyz
  1  'x, y, z'
loop_
 _atom_site_type_symbol
 _atom_site_label
 _atom_site_symmetry_multiplicity
 _atom_site_fract_x
 _atom_site_fract_y
 _atom_site_fract_z
 _atom_site_occupancy
  Sr  Sr0  1  0.256803  0.174273  0.646147  1
  Sr  Sr1  1  0.756803  0.325727  0.353853  1
  Sr  Sr2  1  0.243197  0.825727  0.146147  1
  Sr  Sr3  1  0.743197  0.674273  0.853853  1
  H  H4  1  0.572569  0.409133  0.528204  1
  H  H5  1  0.072569  0.090867  0.471796  1
  H  H6  1  0.927431  0.590867  0.028204  1
  H  H7  1  0.427431  0.909133  0.971796  1
  H  H8  1  0.145160  0.996012  0.828129  1
  H  H9  1  0.645160  0.503988  0.171871  1
  H  H10  1  0.354840  0.003988  0.328129  1
  H  H11  1  0.854840  0.496012  0.671871  1
  H  H12  1  0.225694  0.446441  0.844107  1
  H  H13  1  0.725694  0.053559  0.155893  1
  H  H14  1  0.274306  0.553559  0.344107  1
  H  H15  1  0.774306  0.946441  0.655893  1
  H  H16  1  0.588429  0.166912  0.834381  1
  H  H17  1  0.088429  0.333088  0.165619  1
  H  H18  1  0.911571  0.833088  0.334381  1
  H  H19  1  0.411571  0.666912  0.665619  1
  H  H20  1  0.999842  0.116637  0.995117  1
  H  H21  1  0.499842  0.383363  0.004883  1
  H  H22  1  0.500158  0.883363  0.495117  1
  H  H23  1  0.000158  0.616637  0.504883  1
  Rh  Rh24  1  0.316411  0.177350  0.914495  1
  Rh  Rh25  1  0.816411  0.322650  0.085505  1
  Rh  Rh26  1  0.183589  0.822650  0.414495  1
  Rh  Rh27  1  0.683589  0.677350  0.585505  1
