# generated using pymatgen
data_ScVCo4P3
_symmetry_space_group_name_H-M   'P 1'
_cell_length_a   3.59834000
_cell_length_b   10.23272000
_cell_length_c   11.73868600
_cell_angle_alpha   90.00000000
_cell_angle_beta   90.00000000
_cell_angle_gamma   90.00000000
_symmetry_Int_Tables_number   1
_chemical_formula_structural   ScVCo4P3
_chemical_formula_sum   'Sc4 V4 Co16 P12'
_cell_volume   432.22787620
_cell_formula_units_Z   4
loop_
 _symmetry_equiv_pos_site_id
 _symmetry_equiv_pos_as_xyz
  1  'x, y, z'
loop_
 _atom_site_type_symbol
 _atom_site_label
 _atom_site_symmetry_multiplicity
 _atom_site_fract_x
 _atom_site_fract_y
 _atom_site_fract_z
 _atom_site_occupancy
  Sc  Sc0  1  0.250000  0.581647  0.705817  1
  Sc  Sc1  1  0.250000  0.918353  0.205817  1
  Sc  Sc2  1  0.750000  0.418353  0.294183  1
  Sc  Sc3  1  0.750000  0.081647  0.794183  1
  V  V4  1  0.250000  0.707621  0.989013  1
  V  V5  1  0.250000  0.792379  0.489013  1
  V  V6  1  0.750000  0.292379  0.010987  1
  V  V7  1  0.750000  0.207621  0.510987  1
  Co  Co8  1  0.250000  0.406640  0.486919  1
  Co  Co9  1  0.250000  0.093360  0.986919  1
  Co  Co10  1  0.750000  0.593360  0.513081  1
  Co  Co11  1  0.750000  0.906640  0.013081  1
  Co  Co12  1  0.250000  0.220631  0.177535  1
  Co  Co13  1  0.250000  0.279370  0.677535  1
  Co  Co14  1  0.750000  0.779370  0.822465  1
  Co  Co15  1  0.750000  0.720630  0.322465  1
  Co  Co16  1  0.250000  0.886260  0.699874  1
  Co  Co17  1  0.250000  0.613740  0.199874  1
  Co  Co18  1  0.750000  0.113740  0.300126  1
  Co  Co19  1  0.750000  0.386260  0.800126  1
  Co  Co20  1  0.250000  0.465250  0.932835  1
  Co  Co21  1  0.250000  0.034750  0.432835  1
  Co  Co22  1  0.750000  0.534750  0.067165  1
  Co  Co23  1  0.750000  0.965250  0.567165  1
  P  P24  1  0.250000  0.418737  0.116934  1
  P  P25  1  0.250000  0.081263  0.616934  1
  P  P26  1  0.750000  0.581263  0.883066  1
  P  P27  1  0.750000  0.918737  0.383066  1
  P  P28  1  0.250000  0.264283  0.865361  1
  P  P29  1  0.250000  0.235717  0.365361  1
  P  P30  1  0.750000  0.735717  0.134639  1
  P  P31  1  0.750000  0.764283  0.634639  1
  P  P32  1  0.250000  0.594521  0.389292  1
  P  P33  1  0.250000  0.905479  0.889292  1
  P  P34  1  0.750000  0.405479  0.610708  1
  P  P35  1  0.750000  0.094521  0.110708  1
