# generated using pymatgen
data_Tb4GaSi3Ni8
_symmetry_space_group_name_H-M   'P 1'
_cell_length_a   5.46718822
_cell_length_b   6.40775300
_cell_length_c   7.10697048
_cell_angle_alpha   90.00000000
_cell_angle_beta   89.24523589
_cell_angle_gamma   90.00000000
_symmetry_Int_Tables_number   1
_chemical_formula_structural   Tb4GaSi3Ni8
_chemical_formula_sum   'Tb4 Ga1 Si3 Ni8'
_cell_volume   248.95257170
_cell_formula_units_Z   1
loop_
 _symmetry_equiv_pos_site_id
 _symmetry_equiv_pos_as_xyz
  1  'x, y, z'
loop_
 _atom_site_type_symbol
 _atom_site_label
 _atom_site_symmetry_multiplicity
 _atom_site_fract_x
 _atom_site_fract_y
 _atom_site_fract_z
 _atom_site_occupancy
  Tb  Tb0  1  0.146374  0.750000  0.529729  1
  Tb  Tb1  1  0.850002  0.250000  0.470566  1
  Tb  Tb2  1  0.655750  0.250000  0.966179  1
  Tb  Tb3  1  0.344320  0.750000  0.032355  1
  Ga  Ga4  1  0.843070  0.750000  0.875701  1
  Si  Si5  1  0.153927  0.250000  0.124777  1
  Si  Si6  1  0.349241  0.250000  0.620839  1
  Si  Si7  1  0.647640  0.750000  0.373896  1
  Ni  Ni8  1  0.575178  0.556901  0.663536  1
  Ni  Ni9  1  0.409335  0.441708  0.328157  1
  Ni  Ni10  1  0.104848  0.439059  0.831991  1
  Ni  Ni11  1  0.409335  0.058292  0.328157  1
  Ni  Ni12  1  0.915476  0.555106  0.179295  1
  Ni  Ni13  1  0.575178  0.943099  0.663536  1
  Ni  Ni14  1  0.915476  0.944894  0.179295  1
  Ni  Ni15  1  0.104848  0.060941  0.831991  1
