# generated using pymatgen
data_Dy2Th2ReWC4
_symmetry_space_group_name_H-M   'P 1'
_cell_length_a   5.27303600
_cell_length_b   6.74450800
_cell_length_c   9.91427300
_cell_angle_alpha   90.00000000
_cell_angle_beta   90.00000000
_cell_angle_gamma   90.00000000
_symmetry_Int_Tables_number   1
_chemical_formula_structural   Dy2Th2ReWC4
_chemical_formula_sum   'Dy4 Th4 Re2 W2 C8'
_cell_volume   352.59153696
_cell_formula_units_Z   2
loop_
 _symmetry_equiv_pos_site_id
 _symmetry_equiv_pos_as_xyz
  1  'x, y, z'
loop_
 _atom_site_type_symbol
 _atom_site_label
 _atom_site_symmetry_multiplicity
 _atom_site_fract_x
 _atom_site_fract_y
 _atom_site_fract_z
 _atom_site_occupancy
  Dy  Dy0  1  0.250000  0.826216  0.053992  1
  Dy  Dy1  1  0.750000  0.673784  0.553992  1
  Dy  Dy2  1  0.250000  0.327013  0.446986  1
  Dy  Dy3  1  0.750000  0.172987  0.946986  1
  Th  Th4  1  0.250000  0.469492  0.787948  1
  Th  Th5  1  0.750000  0.030508  0.287948  1
  Th  Th6  1  0.250000  0.965079  0.714374  1
  Th  Th7  1  0.750000  0.534921  0.214374  1
  Re  Re8  1  0.250000  0.773746  0.365057  1
  Re  Re9  1  0.750000  0.726254  0.865057  1
  W  W10  1  0.250000  0.274734  0.134923  1
  W  W11  1  0.750000  0.225266  0.634923  1
  C  C12  1  0.250000  0.170674  0.944954  1
  C  C13  1  0.750000  0.830412  0.050714  1
  C  C14  1  0.250000  0.669588  0.550714  1
  C  C15  1  0.750000  0.329326  0.444954  1
  C  C16  1  0.250000  0.040989  0.262080  1
  C  C17  1  0.750000  0.459011  0.762080  1
  C  C18  1  0.250000  0.544332  0.238971  1
  C  C19  1  0.750000  0.955668  0.738971  1
