# generated using pymatgen
data_Dy4Co2ReRu5
_symmetry_space_group_name_H-M   'P 1'
_cell_length_a   5.13241800
_cell_length_b   5.31294152
_cell_length_c   8.84456300
_cell_angle_alpha   90.00000000
_cell_angle_beta   90.00000000
_cell_angle_gamma   120.98129139
_symmetry_Int_Tables_number   1
_chemical_formula_structural   Dy4Co2ReRu5
_chemical_formula_sum   'Dy4 Co2 Re1 Ru5'
_cell_volume   206.76841860
_cell_formula_units_Z   1
loop_
 _symmetry_equiv_pos_site_id
 _symmetry_equiv_pos_as_xyz
  1  'x, y, z'
loop_
 _atom_site_type_symbol
 _atom_site_label
 _atom_site_symmetry_multiplicity
 _atom_site_fract_x
 _atom_site_fract_y
 _atom_site_fract_z
 _atom_site_occupancy
  Dy  Dy0  1  0.326525  0.663354  0.432977  1
  Dy  Dy1  1  0.659818  0.328462  0.564545  1
  Dy  Dy2  1  0.659818  0.328462  0.935455  1
  Dy  Dy3  1  0.326525  0.663354  0.067023  1
  Co  Co4  1  0.834920  0.160713  0.250000  1
  Co  Co5  1  0.182354  0.838659  0.750000  1
  Re  Re6  1  0.676855  0.838053  0.750000  1
  Ru  Ru7  1  0.981170  0.989921  0.499986  1
  Ru  Ru8  1  0.981170  0.989921  0.000014  1
  Ru  Ru9  1  0.829604  0.665110  0.250000  1
  Ru  Ru10  1  0.353343  0.177165  0.250000  1
  Ru  Ru11  1  0.187895  0.356827  0.750000  1
