# generated using pymatgen
data_Dy15Ho5(Sn3Bi)4
_symmetry_space_group_name_H-M   'P 1'
_cell_length_a   8.16292002
_cell_length_b   8.18177100
_cell_length_c   15.47766904
_cell_angle_alpha   90.00190328
_cell_angle_beta   89.99147163
_cell_angle_gamma   89.99786179
_symmetry_Int_Tables_number   1
_chemical_formula_structural   Dy15Ho5(Sn3Bi)4
_chemical_formula_sum   'Dy15 Ho5 Sn12 Bi4'
_cell_volume   1033.70927299
_cell_formula_units_Z   1
loop_
 _symmetry_equiv_pos_site_id
 _symmetry_equiv_pos_as_xyz
  1  'x, y, z'
loop_
 _atom_site_type_symbol
 _atom_site_label
 _atom_site_symmetry_multiplicity
 _atom_site_fract_x
 _atom_site_fract_y
 _atom_site_fract_z
 _atom_site_occupancy
  Dy  Dy0  1  0.125330  0.337915  0.377878  1
  Dy  Dy1  1  0.374784  0.837850  0.622106  1
  Dy  Dy2  1  0.874468  0.662131  0.878180  1
  Dy  Dy3  1  0.549094  0.325862  0.894262  1
  Dy  Dy4  1  0.049354  0.173688  0.606082  1
  Dy  Dy5  1  0.450550  0.673656  0.393803  1
  Dy  Dy6  1  0.950688  0.826405  0.106057  1
  Dy  Dy7  1  0.469826  0.673477  0.104024  1
  Dy  Dy8  1  0.969751  0.826678  0.395782  1
  Dy  Dy9  1  0.530132  0.326542  0.604033  1
  Dy  Dy10  1  0.030317  0.173552  0.895861  1
  Dy  Dy11  1  0.208894  0.501104  0.747115  1
  Dy  Dy12  1  0.708908  0.998764  0.752962  1
  Dy  Dy13  1  0.790919  0.498746  0.247026  1
  Dy  Dy14  1  0.291116  0.001235  0.252737  1
  Ho  Ho15  1  0.382777  0.839441  0.876157  1
  Ho  Ho16  1  0.882775  0.660421  0.623761  1
  Ho  Ho17  1  0.617153  0.160454  0.376061  1
  Ho  Ho18  1  0.117119  0.339627  0.123715  1
  Ho  Ho19  1  0.625752  0.161888  0.122401  1
  Sn  Sn20  1  0.717886  0.969422  0.957441  1
  Sn  Sn21  1  0.218136  0.531172  0.542817  1
  Sn  Sn22  1  0.282075  0.030869  0.457137  1
  Sn  Sn23  1  0.781709  0.468500  0.042964  1
  Sn  Sn24  1  0.574850  0.623464  0.748591  1
  Sn  Sn25  1  0.074587  0.876206  0.751633  1
  Sn  Sn26  1  0.425383  0.376048  0.248215  1
  Sn  Sn27  1  0.925239  0.123762  0.251452  1
  Sn  Sn28  1  0.345350  0.146479  0.751521  1
  Sn  Sn29  1  0.845357  0.353675  0.748565  1
  Sn  Sn30  1  0.654487  0.853562  0.251355  1
  Sn  Sn31  1  0.154547  0.646512  0.248412  1
  Bi  Bi32  1  0.277162  0.027342  0.043187  1
  Bi  Bi33  1  0.776187  0.473275  0.456699  1
  Bi  Bi34  1  0.723769  0.973313  0.543232  1
  Bi  Bi35  1  0.223569  0.526964  0.956777  1
