# generated using pymatgen
data_Nd2In4(CuNi)9
_symmetry_space_group_name_H-M   'P 1'
_cell_length_a   8.29385624
_cell_length_b   8.29385624
_cell_length_c   5.05873700
_cell_angle_alpha   90.00000000
_cell_angle_beta   90.00000000
_cell_angle_gamma   89.91571971
_symmetry_Int_Tables_number   1
_chemical_formula_structural   Nd2In4(CuNi)9
_chemical_formula_sum   'Nd2 In4 Cu9 Ni9'
_cell_volume   347.98028422
_cell_formula_units_Z   1
loop_
 _symmetry_equiv_pos_site_id
 _symmetry_equiv_pos_as_xyz
  1  'x, y, z'
loop_
 _atom_site_type_symbol
 _atom_site_label
 _atom_site_symmetry_multiplicity
 _atom_site_fract_x
 _atom_site_fract_y
 _atom_site_fract_z
 _atom_site_occupancy
  Nd  Nd0  1  0.000000  0.000000  0.000000  1
  Nd  Nd1  1  0.500000  0.500000  0.000000  1
  In  In2  1  0.124047  0.624047  0.000000  1
  In  In3  1  0.875953  0.375953  0.000000  1
  In  In4  1  0.623395  0.876605  0.000000  1
  In  In5  1  0.376605  0.123395  0.000000  1
  Cu  Cu6  1  0.000000  0.500000  0.500000  1
  Cu  Cu7  1  0.208233  0.065431  0.500000  1
  Cu  Cu8  1  0.791767  0.934569  0.500000  1
  Cu  Cu9  1  0.065475  0.794067  0.500000  1
  Cu  Cu10  1  0.705933  0.434525  0.500000  1
  Cu  Cu11  1  0.934525  0.205933  0.500000  1
  Cu  Cu12  1  0.294067  0.565475  0.500000  1
  Cu  Cu13  1  0.565431  0.708233  0.500000  1
  Cu  Cu14  1  0.434569  0.291767  0.500000  1
  Ni  Ni15  1  0.500000  0.000000  0.500000  1
  Ni  Ni16  1  0.675427  0.175427  0.247517  1
  Ni  Ni17  1  0.324573  0.824573  0.752483  1
  Ni  Ni18  1  0.324573  0.824573  0.247517  1
  Ni  Ni19  1  0.176382  0.323618  0.246573  1
  Ni  Ni20  1  0.176382  0.323618  0.753427  1
  Ni  Ni21  1  0.675427  0.175427  0.752483  1
  Ni  Ni22  1  0.823618  0.676382  0.753427  1
  Ni  Ni23  1  0.823618  0.676382  0.246573  1
