# generated using pymatgen
data_AlFe3(Se2O5)6
_symmetry_space_group_name_H-M   'P 1'
_cell_length_a   11.38723700
_cell_length_b   11.59170734
_cell_length_c   11.93601100
_cell_angle_alpha   102.86025306
_cell_angle_beta   90.00000000
_cell_angle_gamma   90.00000000
_symmetry_Int_Tables_number   1
_chemical_formula_structural   AlFe3(Se2O5)6
_chemical_formula_sum   'Al2 Fe6 Se24 O60'
_cell_volume   1536.00313001
_cell_formula_units_Z   2
loop_
 _symmetry_equiv_pos_site_id
 _symmetry_equiv_pos_as_xyz
  1  'x, y, z'
loop_
 _atom_site_type_symbol
 _atom_site_label
 _atom_site_symmetry_multiplicity
 _atom_site_fract_x
 _atom_site_fract_y
 _atom_site_fract_z
 _atom_site_occupancy
  Al  Al0  1  0.261139  0.758036  0.767611  1
  Al  Al1  1  0.241038  0.758901  0.271320  1
  Fe  Fe2  1  0.238508  0.257997  0.269643  1
  Fe  Fe3  1  0.258830  0.259192  0.773314  1
  Fe  Fe4  1  0.758600  0.240808  0.726847  1
  Fe  Fe5  1  0.738366  0.241758  0.230800  1
  Fe  Fe6  1  0.741309  0.741163  0.227487  1
  Fe  Fe7  1  0.760188  0.742077  0.730858  1
  Se  Se8  1  0.484102  0.107594  0.212630  1
  Se  Se9  1  0.845009  0.859921  0.009937  1
  Se  Se10  1  0.986057  0.674334  0.335657  1
  Se  Se11  1  0.660254  0.359096  0.508493  1
  Se  Se12  1  0.670131  0.522568  0.871745  1
  Se  Se13  1  0.161304  0.141158  0.991452  1
  Se  Se14  1  0.519048  0.168331  0.837567  1
  Se  Se15  1  0.112264  0.744444  0.008201  1
  Se  Se16  1  0.018247  0.331487  0.662973  1
  Se  Se17  1  0.173196  0.972737  0.631390  1
  Se  Se18  1  0.986525  0.392220  0.287978  1
  Se  Se19  1  0.323525  0.483043  0.131646  1
  Se  Se20  1  0.597365  0.490885  0.214530  1
  Se  Se21  1  0.831716  0.022205  0.372995  1
  Se  Se22  1  0.897627  0.252581  0.989145  1
  Se  Se23  1  0.509932  0.887469  0.784213  1
  Se  Se24  1  0.016097  0.613082  0.716859  1
  Se  Se25  1  0.901590  0.989126  0.713729  1
  Se  Se26  1  0.396692  0.247105  0.510774  1
  Se  Se27  1  0.103340  0.006623  0.283673  1
  Se  Se28  1  0.400991  0.512205  0.782116  1
  Se  Se29  1  0.333955  0.645436  0.490367  1
  Se  Se30  1  0.602287  0.751869  0.488775  1
  Se  Se31  1  0.477157  0.825823  0.165699  1
  O  O32  1  0.216766  0.908862  0.739042  1
  O  O33  1  0.295820  0.298297  0.614072  1
  O  O34  1  0.297358  0.618060  0.826696  1
  O  O35  1  0.162771  0.805798  0.901700  1
  O  O36  1  0.351756  0.306637  0.400805  1
  O  O37  1  0.117118  0.360658  0.772888  1
  O  O38  1  0.138593  0.674473  0.672061  1
  O  O39  1  0.885004  0.639041  0.227792  1
  O  O40  1  0.355935  0.403013  0.847003  1
  O  O41  1  0.630657  0.828355  0.834711  1
  O  O42  1  0.629545  0.289659  0.369295  1
  O  O43  1  0.869616  0.791657  0.869384  1
  O  O44  1  0.848382  0.877715  0.300845  1
  O  O45  1  0.206052  0.111187  0.336369  1
  O  O46  1  0.595490  0.162242  0.145884  1
  O  O47  1  0.986503  0.065804  0.390488  1
  O  O48  1  0.374471  0.856936  0.272438  1
  O  O49  1  0.640348  0.602594  0.151745  1
  O  O50  1  0.112328  0.653113  0.255110  1
  O  O51  1  0.486084  0.638492  0.437052  1
  O  O52  1  0.891864  0.355853  0.742942  1
  O  O53  1  0.862310  0.102899  0.652039  1
  O  O54  1  0.011062  0.137442  0.933958  1
  O  O55  1  0.517160  0.573283  0.889273  1
  O  O56  1  0.129829  0.209941  0.130668  1
  O  O57  1  0.224631  0.251743  0.940188  1
  O  O58  1  0.394179  0.147829  0.755060  1
  O  O59  1  0.207855  0.793413  0.117118  1
  O  O60  1  0.018835  0.926742  0.608775  1
  O  O61  1  0.397890  0.829379  0.846782  1
  O  O62  1  0.363615  0.168061  0.162804  1
  O  O63  1  0.778245  0.751743  0.062055  1
  O  O64  1  0.619952  0.134643  0.729395  1
  O  O65  1  0.702101  0.698373  0.385009  1
  O  O66  1  0.602269  0.851292  0.247902  1
  O  O67  1  0.984272  0.539093  0.388889  1
  O  O68  1  0.145647  0.891738  0.341890  1
  O  O69  1  0.510362  0.362213  0.566154  1
  O  O70  1  0.862459  0.336832  0.336695  1
  O  O71  1  0.277341  0.419055  0.238294  1
  O  O72  1  0.476739  0.434930  0.110666  1
  O  O73  1  0.783687  0.084193  0.265577  1
  O  O74  1  0.647605  0.692586  0.598873  1
  O  O75  1  0.907347  0.669082  0.648280  1
  O  O76  1  0.359618  0.719204  0.629385  1
  O  O77  1  0.795692  0.887139  0.663293  1
  O  O78  1  0.723462  0.249047  0.560611  1
  O  O79  1  0.342717  0.626981  0.204769  1
  O  O80  1  0.153957  0.116604  0.703737  1
  O  O81  1  0.094004  0.331955  0.354821  1
  O  O82  1  0.517274  0.032360  0.888592  1
  O  O83  1  0.720475  0.582451  0.763626  1
  O  O84  1  0.797366  0.201188  0.885449  1
  O  O85  1  0.698869  0.385277  0.161820  1
  O  O86  1  0.274138  0.751491  0.430424  1
  O  O87  1  0.649776  0.377978  0.801015  1
  O  O88  1  0.026790  0.468278  0.613284  1
  O  O89  1  0.473150  0.960956  0.112480  1
  O  O90  1  0.996885  0.859000  0.062236  1
  O  O91  1  0.851584  0.193869  0.099369  1
