# generated using pymatgen
data_Eu7ErAsP5
_symmetry_space_group_name_H-M   'P 1'
_cell_length_a   7.72356498
_cell_length_b   7.71787162
_cell_length_c   7.65914647
_cell_angle_alpha   108.92723311
_cell_angle_beta   109.14195931
_cell_angle_gamma   110.16908854
_symmetry_Int_Tables_number   1
_chemical_formula_structural   Eu7ErAsP5
_chemical_formula_sum   'Eu7 Er1 As1 P5'
_cell_volume   352.18140858
_cell_formula_units_Z   1
loop_
 _symmetry_equiv_pos_site_id
 _symmetry_equiv_pos_as_xyz
  1  'x, y, z'
loop_
 _atom_site_type_symbol
 _atom_site_label
 _atom_site_symmetry_multiplicity
 _atom_site_fract_x
 _atom_site_fract_y
 _atom_site_fract_z
 _atom_site_occupancy
  Eu  Eu0  1  0.633764  0.637593  0.638319  1
  Eu  Eu1  1  0.009415  0.370997  0.504260  1
  Eu  Eu2  1  0.363600  0.497680  0.994129  1
  Eu  Eu3  1  0.002056  0.868357  0.500258  1
  Eu  Eu4  1  0.867002  0.499697  0.997533  1
  Eu  Eu5  1  0.497857  0.995052  0.863801  1
  Eu  Eu6  1  0.126381  0.131562  0.129650  1
  Er  Er7  1  0.499481  0.998329  0.373174  1
  As  As8  1  0.622416  0.366858  0.253562  1
  P  P9  1  0.863534  0.122074  0.737172  1
  P  P10  1  0.378267  0.241419  0.614745  1
  P  P11  1  0.134293  0.756732  0.888087  1
  P  P12  1  0.743363  0.877529  0.131843  1
  P  P13  1  0.258571  0.636121  0.373465  1
