# generated using pymatgen
data_YbTm3Sb6Rh7
_symmetry_space_group_name_H-M   'P 1'
_cell_length_a   7.59211683
_cell_length_b   7.59211720
_cell_length_c   7.59211655
_cell_angle_alpha   109.51809451
_cell_angle_beta   109.51809033
_cell_angle_gamma   109.51809472
_symmetry_Int_Tables_number   1
_chemical_formula_structural   YbTm3Sb6Rh7
_chemical_formula_sum   'Yb1 Tm3 Sb6 Rh7'
_cell_volume   336.28754851
_cell_formula_units_Z   1
loop_
 _symmetry_equiv_pos_site_id
 _symmetry_equiv_pos_as_xyz
  1  'x, y, z'
loop_
 _atom_site_type_symbol
 _atom_site_label
 _atom_site_symmetry_multiplicity
 _atom_site_fract_x
 _atom_site_fract_y
 _atom_site_fract_z
 _atom_site_occupancy
  Yb  Yb0  1  0.500000  0.500000  0.500000  1
  Tm  Tm1  1  0.500000  0.000000  0.000000  1
  Tm  Tm2  1  0.000000  0.500000  0.000000  1
  Tm  Tm3  1  0.000000  0.000000  0.500000  1
  Sb  Sb4  1  0.317231  0.001260  0.317231  1
  Sb  Sb5  1  0.998740  0.682769  0.682769  1
  Sb  Sb6  1  0.682769  0.682769  0.998740  1
  Sb  Sb7  1  0.682769  0.998740  0.682769  1
  Sb  Sb8  1  0.001260  0.317231  0.317231  1
  Sb  Sb9  1  0.317231  0.317231  0.001260  1
  Rh  Rh10  1  0.247362  0.500000  0.752638  1
  Rh  Rh11  1  0.500000  0.247362  0.752638  1
  Rh  Rh12  1  0.752638  0.247362  0.500000  1
  Rh  Rh13  1  0.500000  0.752638  0.247362  1
  Rh  Rh14  1  0.000000  0.000000  0.000000  1
  Rh  Rh15  1  0.247362  0.752638  0.500000  1
  Rh  Rh16  1  0.752638  0.500000  0.247362  1
