# generated using pymatgen
data_CsRb2Cu(AgP)2
_symmetry_space_group_name_H-M   'P 1'
_cell_length_a   7.92285424
_cell_length_b   7.88270294
_cell_length_c   7.88270185
_cell_angle_alpha   47.16225597
_cell_angle_beta   46.10825939
_cell_angle_gamma   46.10824938
_symmetry_Int_Tables_number   1
_chemical_formula_structural   CsRb2Cu(AgP)2
_chemical_formula_sum   'Cs1 Rb2 Cu1 Ag2 P2'
_cell_volume   236.10316872
_cell_formula_units_Z   1
loop_
 _symmetry_equiv_pos_site_id
 _symmetry_equiv_pos_as_xyz
  1  'x, y, z'
loop_
 _atom_site_type_symbol
 _atom_site_label
 _atom_site_symmetry_multiplicity
 _atom_site_fract_x
 _atom_site_fract_y
 _atom_site_fract_z
 _atom_site_occupancy
  Cs  Cs0  1  0.500000  0.500000  0.500000  1
  Rb  Rb1  1  0.901337  0.911706  0.911706  1
  Rb  Rb2  1  0.098663  0.088294  0.088294  1
  Cu  Cu3  1  0.000000  0.500000  0.500000  1
  Ag  Ag4  1  0.500000  0.500000  0.000000  1
  Ag  Ag5  1  0.500000  0.000000  0.500000  1
  P  P6  1  0.231173  0.272247  0.272247  1
  P  P7  1  0.768827  0.727753  0.727753  1
