# generated using pymatgen
data_Ho10Er2Fe2I17
_symmetry_space_group_name_H-M   'P 1'
_cell_length_a   9.72953160
_cell_length_b   11.68070328
_cell_length_c   11.69959500
_cell_angle_alpha   93.52027736
_cell_angle_beta   104.77620665
_cell_angle_gamma   113.99060178
_symmetry_Int_Tables_number   1
_chemical_formula_structural   Ho10Er2Fe2I17
_chemical_formula_sum   'Ho10 Er2 Fe2 I17'
_cell_volume   1153.89998787
_cell_formula_units_Z   1
loop_
 _symmetry_equiv_pos_site_id
 _symmetry_equiv_pos_as_xyz
  1  'x, y, z'
loop_
 _atom_site_type_symbol
 _atom_site_label
 _atom_site_symmetry_multiplicity
 _atom_site_fract_x
 _atom_site_fract_y
 _atom_site_fract_z
 _atom_site_occupancy
  Ho  Ho0  1  0.051120  0.501978  0.318756  1
  Ho  Ho1  1  0.992880  0.807348  0.591453  1
  Ho  Ho2  1  0.659271  0.242140  0.279171  1
  Ho  Ho3  1  0.008236  0.191430  0.411221  1
  Ho  Ho4  1  0.217548  0.672565  0.980317  1
  Ho  Ho5  1  0.252302  0.975352  0.887724  1
  Ho  Ho6  1  0.344533  0.758272  0.719366  1
  Ho  Ho7  1  0.950098  0.500435  0.681887  1
  Ho  Ho8  1  0.746001  0.022743  0.111332  1
  Ho  Ho9  1  0.136612  0.285865  0.153629  1
  Er  Er10  1  0.781644  0.327837  0.018636  1
  Er  Er11  1  0.860513  0.713766  0.846166  1
  Fe  Fe12  1  0.104321  0.738151  0.785959  1
  Fe  Fe13  1  0.895999  0.261861  0.214118  1
  I  I14  1  0.785139  0.528250  0.417663  1
  I  I15  1  0.647439  0.420661  0.765507  1
  I  I16  1  0.844608  0.897145  0.327751  1
  I  I17  1  0.326543  0.214443  0.366947  1
  I  I18  1  0.155092  0.102694  0.672202  1
  I  I19  1  0.585168  0.053656  0.843504  1
  I  I20  1  0.760294  0.190922  0.538030  1
  I  I21  1  0.552636  0.712579  0.954466  1
  I  I22  1  0.352439  0.579042  0.235978  1
  I  I23  1  0.215369  0.471301  0.581908  1
  I  I24  1  0.055309  0.368003  0.897673  1
  I  I25  1  0.448933  0.287399  0.045466  1
  I  I26  1  0.000112  0.000448  0.000309  1
  I  I27  1  0.239468  0.809377  0.461070  1
  I  I28  1  0.415479  0.947583  0.156339  1
  I  I29  1  0.672332  0.785324  0.633425  1
  I  I30  1  0.942565  0.631434  0.102026  1
