# generated using pymatgen
data_La4Pr6Ir3Os
_symmetry_space_group_name_H-M   'P 1'
_cell_length_a   9.19031589
_cell_length_b   9.16107321
_cell_length_c   7.38509165
_cell_angle_alpha   84.42960310
_cell_angle_beta   84.35929235
_cell_angle_gamma   43.13825967
_symmetry_Int_Tables_number   1
_chemical_formula_structural   La4Pr6Ir3Os
_chemical_formula_sum   'La4 Pr6 Ir3 Os1'
_cell_volume   422.79281234
_cell_formula_units_Z   1
loop_
 _symmetry_equiv_pos_site_id
 _symmetry_equiv_pos_as_xyz
  1  'x, y, z'
loop_
 _atom_site_type_symbol
 _atom_site_label
 _atom_site_symmetry_multiplicity
 _atom_site_fract_x
 _atom_site_fract_y
 _atom_site_fract_z
 _atom_site_occupancy
  La  La0  1  0.016725  0.796043  0.910367  1
  La  La1  1  0.200998  0.982269  0.587143  1
  La  La2  1  0.985013  0.201140  0.086750  1
  La  La3  1  0.801745  0.011747  0.414566  1
  Pr  Pr4  1  0.351958  0.216312  0.817284  1
  Pr  Pr5  1  0.789864  0.645122  0.681167  1
  Pr  Pr6  1  0.644748  0.788014  0.181487  1
  Pr  Pr7  1  0.213437  0.355782  0.319074  1
  Pr  Pr8  1  0.568460  0.431434  0.750039  1
  Pr  Pr9  1  0.430683  0.567585  0.251348  1
  Ir  Ir10  1  0.397183  0.825636  0.922476  1
  Ir  Ir11  1  0.825365  0.397563  0.420428  1
  Ir  Ir12  1  0.602091  0.173847  0.078887  1
  Os  Os13  1  0.171728  0.607505  0.578984  1
