# generated using pymatgen
data_EuMnCuO5
_symmetry_space_group_name_H-M   'P 1'
_cell_length_a   5.71556500
_cell_length_b   7.81209300
_cell_length_c   8.60724900
_cell_angle_alpha   90.00000000
_cell_angle_beta   90.00000000
_cell_angle_gamma   90.00000000
_symmetry_Int_Tables_number   1
_chemical_formula_structural   EuMnCuO5
_chemical_formula_sum   'Eu4 Mn4 Cu4 O20'
_cell_volume   384.31818947
_cell_formula_units_Z   4
loop_
 _symmetry_equiv_pos_site_id
 _symmetry_equiv_pos_as_xyz
  1  'x, y, z'
loop_
 _atom_site_type_symbol
 _atom_site_label
 _atom_site_symmetry_multiplicity
 _atom_site_fract_x
 _atom_site_fract_y
 _atom_site_fract_z
 _atom_site_occupancy
  Eu  Eu0  1  0.000000  0.344655  0.675510  1
  Eu  Eu1  1  0.000000  0.655345  0.324490  1
  Eu  Eu2  1  0.000000  0.844655  0.824490  1
  Eu  Eu3  1  0.000000  0.155345  0.175510  1
  Mn  Mn4  1  0.259553  0.500000  0.000000  1
  Mn  Mn5  1  0.740447  0.000000  0.500000  1
  Mn  Mn6  1  0.740447  0.500000  0.000000  1
  Mn  Mn7  1  0.259553  0.000000  0.500000  1
  Cu  Cu8  1  0.500000  0.065929  0.848582  1
  Cu  Cu9  1  0.500000  0.934071  0.151418  1
  Cu  Cu10  1  0.500000  0.565929  0.651418  1
  Cu  Cu11  1  0.500000  0.434071  0.348582  1
  O  O12  1  0.247322  0.910465  0.288095  1
  O  O13  1  0.247322  0.089535  0.711905  1
  O  O14  1  0.752678  0.410465  0.211905  1
  O  O15  1  0.752678  0.589535  0.788095  1
  O  O16  1  0.752678  0.089535  0.711905  1
  O  O17  1  0.752678  0.910465  0.288095  1
  O  O18  1  0.247322  0.589535  0.788095  1
  O  O19  1  0.247322  0.410465  0.211905  1
  O  O20  1  0.500000  0.351475  0.940707  1
  O  O21  1  0.500000  0.648525  0.059293  1
  O  O22  1  0.500000  0.851475  0.559293  1
  O  O23  1  0.500000  0.148525  0.440707  1
  O  O24  1  0.280713  0.000000  0.000000  1
  O  O25  1  0.719287  0.500000  0.500000  1
  O  O26  1  0.719287  0.000000  0.000000  1
  O  O27  1  0.280713  0.500000  0.500000  1
  O  O28  1  0.000000  0.156054  0.450393  1
  O  O29  1  0.000000  0.843946  0.549607  1
  O  O30  1  0.000000  0.656054  0.049607  1
  O  O31  1  0.000000  0.343946  0.950393  1
