# generated using pymatgen
data_Eu3MgTa2O9
_symmetry_space_group_name_H-M   'P 1'
_cell_length_a   5.71150000
_cell_length_b   5.71149855
_cell_length_c   6.99873900
_cell_angle_alpha   90.00000000
_cell_angle_beta   90.00000000
_cell_angle_gamma   119.99999680
_symmetry_Int_Tables_number   1
_chemical_formula_structural   Eu3MgTa2O9
_chemical_formula_sum   'Eu3 Mg1 Ta2 O9'
_cell_volume   197.72004282
_cell_formula_units_Z   1
loop_
 _symmetry_equiv_pos_site_id
 _symmetry_equiv_pos_as_xyz
  1  'x, y, z'
loop_
 _atom_site_type_symbol
 _atom_site_label
 _atom_site_symmetry_multiplicity
 _atom_site_fract_x
 _atom_site_fract_y
 _atom_site_fract_z
 _atom_site_occupancy
  Eu  Eu0  1  0.333333  0.666667  0.659124  1
  Eu  Eu1  1  0.000000  0.000000  0.000000  1
  Eu  Eu2  1  0.666667  0.333333  0.340876  1
  Mg  Mg3  1  0.000000  0.000000  0.500000  1
  Ta  Ta4  1  0.333333  0.666667  0.177704  1
  Ta  Ta5  1  0.666667  0.333333  0.822296  1
  O  O6  1  0.831213  0.168787  0.671215  1
  O  O7  1  0.831213  0.662427  0.671215  1
  O  O8  1  0.337573  0.168787  0.671215  1
  O  O9  1  0.662427  0.831213  0.328785  1
  O  O10  1  0.168787  0.337573  0.328785  1
  O  O11  1  0.168787  0.831213  0.328785  1
  O  O12  1  0.500000  0.000000  0.000000  1
  O  O13  1  0.000000  0.500000  0.000000  1
  O  O14  1  0.500000  0.500000  0.000000  1
