# generated using pymatgen
data_Dy6Al24Ru2PtRh5
_symmetry_space_group_name_H-M   'P 1'
_cell_length_a   8.84100700
_cell_length_b   8.83238506
_cell_length_c   9.50007970
_cell_angle_alpha   89.96186623
_cell_angle_beta   90.00000000
_cell_angle_gamma   120.03229308
_symmetry_Int_Tables_number   1
_chemical_formula_structural   Dy6Al24Ru2PtRh5
_chemical_formula_sum   'Dy6 Al24 Ru2 Pt1 Rh5'
_cell_volume   642.23810120
_cell_formula_units_Z   1
loop_
 _symmetry_equiv_pos_site_id
 _symmetry_equiv_pos_as_xyz
  1  'x, y, z'
loop_
 _atom_site_type_symbol
 _atom_site_label
 _atom_site_symmetry_multiplicity
 _atom_site_fract_x
 _atom_site_fract_y
 _atom_site_fract_z
 _atom_site_occupancy
  Dy  Dy0  1  0.190860  0.808490  0.250663  1
  Dy  Dy1  1  0.191128  0.382256  0.249512  1
  Dy  Dy2  1  0.617630  0.808490  0.250663  1
  Dy  Dy3  1  0.809140  0.191510  0.749337  1
  Dy  Dy4  1  0.808872  0.617744  0.750488  1
  Dy  Dy5  1  0.382370  0.191510  0.749337  1
  Al  Al6  1  0.561918  0.438079  0.250276  1
  Al  Al7  1  0.562919  0.125837  0.247434  1
  Al  Al8  1  0.876162  0.438079  0.250276  1
  Al  Al9  1  0.438082  0.561921  0.749724  1
  Al  Al10  1  0.437081  0.874163  0.752566  1
  Al  Al11  1  0.123838  0.561921  0.749724  1
  Al  Al12  1  0.325671  0.165843  0.423718  1
  Al  Al13  1  0.840171  0.165843  0.423718  1
  Al  Al14  1  0.836819  0.673638  0.423565  1
  Al  Al15  1  0.674329  0.834157  0.576282  1
  Al  Al16  1  0.159829  0.834157  0.576282  1
  Al  Al17  1  0.163181  0.326362  0.576435  1
  Al  Al18  1  0.674001  0.836990  0.924464  1
  Al  Al19  1  0.162991  0.836990  0.924464  1
  Al  Al20  1  0.163448  0.326896  0.924359  1
  Al  Al21  1  0.325999  0.163010  0.075536  1
  Al  Al22  1  0.837009  0.163010  0.075536  1
  Al  Al23  1  0.836552  0.673104  0.075641  1
  Al  Al24  1  0.668434  0.336866  0.530446  1
  Al  Al25  1  0.331566  0.663134  0.469554  1
  Al  Al26  1  0.333032  0.666065  0.029211  1
  Al  Al27  1  0.666968  0.333935  0.970789  1
  Al  Al28  1  0.999610  0.999220  0.249856  1
  Al  Al29  1  0.000390  0.000780  0.750144  1
  Ru  Ru30  1  0.000000  0.000000  0.500000  1
  Ru  Ru31  1  0.000000  0.000000  0.000000  1
  Pt  Pt32  1  0.500000  0.000000  0.500000  1
  Rh  Rh33  1  0.500000  0.500000  0.500000  1
  Rh  Rh34  1  0.000000  0.500000  0.500000  1
  Rh  Rh35  1  0.500000  0.500000  0.000000  1
  Rh  Rh36  1  0.500000  0.000000  0.000000  1
  Rh  Rh37  1  0.000000  0.500000  0.000000  1
