# generated using pymatgen
data_PrAs12IrRu3
_symmetry_space_group_name_H-M   'P 1'
_cell_length_a   7.46409105
_cell_length_b   7.46409232
_cell_length_c   7.46409100
_cell_angle_alpha   109.44141343
_cell_angle_beta   109.44141892
_cell_angle_gamma   109.44140937
_symmetry_Int_Tables_number   1
_chemical_formula_structural   PrAs12IrRu3
_chemical_formula_sum   'Pr1 As12 Ir1 Ru3'
_cell_volume   320.46995109
_cell_formula_units_Z   1
loop_
 _symmetry_equiv_pos_site_id
 _symmetry_equiv_pos_as_xyz
  1  'x, y, z'
loop_
 _atom_site_type_symbol
 _atom_site_label
 _atom_site_symmetry_multiplicity
 _atom_site_fract_x
 _atom_site_fract_y
 _atom_site_fract_z
 _atom_site_occupancy
  Pr  Pr0  1  0.000000  0.000000  0.000000  1
  As  As1  1  0.150215  0.802841  0.652919  1
  As  As2  1  0.849785  0.197159  0.347081  1
  As  As3  1  0.146808  0.497390  0.346800  1
  As  As4  1  0.853192  0.502610  0.653200  1
  As  As5  1  0.652919  0.150215  0.802841  1
  As  As6  1  0.347081  0.849785  0.197159  1
  As  As7  1  0.346800  0.146808  0.497390  1
  As  As8  1  0.653200  0.853192  0.502610  1
  As  As9  1  0.802841  0.652919  0.150215  1
  As  As10  1  0.197159  0.347081  0.849785  1
  As  As11  1  0.497390  0.346800  0.146808  1
  As  As12  1  0.502610  0.653200  0.853192  1
  Ir  Ir13  1  0.500000  0.500000  0.500000  1
  Ru  Ru14  1  0.500000  0.000000  0.000000  1
  Ru  Ru15  1  0.000000  0.000000  0.500000  1
  Ru  Ru16  1  0.000000  0.500000  0.000000  1
