# generated using pymatgen
data_Tb10BiPb5
_symmetry_space_group_name_H-M   'P 1'
_cell_length_a   9.13878303
_cell_length_b   9.13878301
_cell_length_c   6.62240400
_cell_angle_alpha   90.00000000
_cell_angle_beta   90.00000000
_cell_angle_gamma   119.99110008
_symmetry_Int_Tables_number   1
_chemical_formula_structural   Tb10BiPb5
_chemical_formula_sum   'Tb10 Bi1 Pb5'
_cell_volume   479.02918790
_cell_formula_units_Z   1
loop_
 _symmetry_equiv_pos_site_id
 _symmetry_equiv_pos_as_xyz
  1  'x, y, z'
loop_
 _atom_site_type_symbol
 _atom_site_label
 _atom_site_symmetry_multiplicity
 _atom_site_fract_x
 _atom_site_fract_y
 _atom_site_fract_z
 _atom_site_occupancy
  Tb  Tb0  1  0.668555  0.332909  0.000886  1
  Tb  Tb1  1  0.332909  0.668555  0.000886  1
  Tb  Tb2  1  0.332909  0.668555  0.499114  1
  Tb  Tb3  1  0.668555  0.332909  0.499114  1
  Tb  Tb4  1  0.762986  0.762986  0.750000  1
  Tb  Tb5  1  0.237162  0.996188  0.750000  1
  Tb  Tb6  1  0.996188  0.237162  0.750000  1
  Tb  Tb7  1  0.238451  0.238451  0.250000  1
  Tb  Tb8  1  0.761636  0.000678  0.250000  1
  Tb  Tb9  1  0.000678  0.761636  0.250000  1
  Bi  Bi10  1  0.393087  0.393087  0.750000  1
  Pb  Pb11  1  0.605636  0.999966  0.750000  1
  Pb  Pb12  1  0.999966  0.605636  0.750000  1
  Pb  Pb13  1  0.606150  0.606150  0.250000  1
  Pb  Pb14  1  0.394170  0.000962  0.250000  1
  Pb  Pb15  1  0.000962  0.394170  0.250000  1
