# generated using pymatgen
data_Hf18Re8SiOs
_symmetry_space_group_name_H-M   'P 1'
_cell_length_a   8.58847100
_cell_length_b   8.58847119
_cell_length_c   8.63268400
_cell_angle_alpha   90.00000000
_cell_angle_beta   90.00000000
_cell_angle_gamma   120.00000311
_symmetry_Int_Tables_number   1
_chemical_formula_structural   Hf18Re8SiOs
_chemical_formula_sum   'Hf18 Re8 Si1 Os1'
_cell_volume   551.45258741
_cell_formula_units_Z   1
loop_
 _symmetry_equiv_pos_site_id
 _symmetry_equiv_pos_as_xyz
  1  'x, y, z'
loop_
 _atom_site_type_symbol
 _atom_site_label
 _atom_site_symmetry_multiplicity
 _atom_site_fract_x
 _atom_site_fract_y
 _atom_site_fract_z
 _atom_site_occupancy
  Hf  Hf0  1  0.197537  0.802463  0.448636  1
  Hf  Hf1  1  0.197537  0.395075  0.448636  1
  Hf  Hf2  1  0.604925  0.802463  0.448636  1
  Hf  Hf3  1  0.805602  0.194398  0.547191  1
  Hf  Hf4  1  0.805602  0.611204  0.547191  1
  Hf  Hf5  1  0.388796  0.194398  0.547191  1
  Hf  Hf6  1  0.805602  0.194398  0.952809  1
  Hf  Hf7  1  0.805602  0.611204  0.952809  1
  Hf  Hf8  1  0.388796  0.194398  0.952809  1
  Hf  Hf9  1  0.197537  0.802463  0.051364  1
  Hf  Hf10  1  0.197537  0.395075  0.051364  1
  Hf  Hf11  1  0.604925  0.802463  0.051364  1
  Hf  Hf12  1  0.540042  0.459958  0.250000  1
  Hf  Hf13  1  0.540042  0.080082  0.250000  1
  Hf  Hf14  1  0.919918  0.459958  0.250000  1
  Hf  Hf15  1  0.461439  0.538561  0.750000  1
  Hf  Hf16  1  0.461439  0.922880  0.750000  1
  Hf  Hf17  1  0.077120  0.538561  0.750000  1
  Re  Re18  1  0.889309  0.110691  0.250000  1
  Re  Re19  1  0.889309  0.778616  0.250000  1
  Re  Re20  1  0.221384  0.110691  0.250000  1
  Re  Re21  1  0.109569  0.890431  0.750000  1
  Re  Re22  1  0.109569  0.219139  0.750000  1
  Re  Re23  1  0.780861  0.890431  0.750000  1
  Re  Re24  1  0.000000  0.000000  0.498126  1
  Re  Re25  1  0.000000  0.000000  0.001874  1
  Si  Si26  1  0.666667  0.333333  0.750000  1
  Os  Os27  1  0.333333  0.666667  0.250000  1
