# generated using pymatgen
data_Hf6Zn19Ni4S
_symmetry_space_group_name_H-M   'P 1'
_cell_length_a   8.66556477
_cell_length_b   8.55710447
_cell_length_c   8.66556400
_cell_angle_alpha   60.41317619
_cell_angle_beta   59.17366006
_cell_angle_gamma   60.41317767
_symmetry_Int_Tables_number   1
_chemical_formula_structural   Hf6Zn19Ni4S
_chemical_formula_sum   'Hf6 Zn19 Ni4 S1'
_cell_volume   454.22515157
_cell_formula_units_Z   1
loop_
 _symmetry_equiv_pos_site_id
 _symmetry_equiv_pos_as_xyz
  1  'x, y, z'
loop_
 _atom_site_type_symbol
 _atom_site_label
 _atom_site_symmetry_multiplicity
 _atom_site_fract_x
 _atom_site_fract_y
 _atom_site_fract_z
 _atom_site_occupancy
  Hf  Hf0  1  0.707678  0.292322  0.292322  1
  Hf  Hf1  1  0.292322  0.707678  0.707678  1
  Hf  Hf2  1  0.300295  0.699705  0.300295  1
  Hf  Hf3  1  0.699705  0.300295  0.699705  1
  Hf  Hf4  1  0.292322  0.292322  0.707678  1
  Hf  Hf5  1  0.707678  0.707678  0.292322  1
  Zn  Zn6  1  0.129876  0.110178  0.129876  1
  Zn  Zn7  1  0.870124  0.889822  0.870124  1
  Zn  Zn8  1  0.110178  0.129876  0.630070  1
  Zn  Zn9  1  0.129876  0.630070  0.129876  1
  Zn  Zn10  1  0.889822  0.870124  0.369930  1
  Zn  Zn11  1  0.870124  0.369930  0.870124  1
  Zn  Zn12  1  0.630070  0.129876  0.110178  1
  Zn  Zn13  1  0.369930  0.870124  0.889822  1
  Zn  Zn14  1  0.000000  0.500000  0.000000  1
  Zn  Zn15  1  0.500000  0.000000  0.500000  1
  Zn  Zn16  1  0.333468  0.338721  0.333468  1
  Zn  Zn17  1  0.666532  0.661279  0.666532  1
  Zn  Zn18  1  0.338721  0.333468  0.994345  1
  Zn  Zn19  1  0.333468  0.994345  0.333468  1
  Zn  Zn20  1  0.661279  0.666532  0.005655  1
  Zn  Zn21  1  0.666532  0.005655  0.666532  1
  Zn  Zn22  1  0.994345  0.333468  0.338721  1
  Zn  Zn23  1  0.005655  0.666532  0.661279  1
  Zn  Zn24  1  0.000000  0.000000  0.000000  1
  Ni  Ni25  1  0.500000  0.000000  0.000000  1
  Ni  Ni26  1  0.000000  0.500000  0.500000  1
  Ni  Ni27  1  0.000000  0.000000  0.500000  1
  Ni  Ni28  1  0.500000  0.500000  0.000000  1
  S  S29  1  0.500000  0.500000  0.500000  1
