# generated using pymatgen
data_HoBeBOs
_symmetry_space_group_name_H-M   'P 1'
_cell_length_a   5.44833600
_cell_length_b   6.07955600
_cell_length_c   6.41440400
_cell_angle_alpha   90.00000000
_cell_angle_beta   90.00000000
_cell_angle_gamma   90.00000000
_symmetry_Int_Tables_number   1
_chemical_formula_structural   HoBeBOs
_chemical_formula_sum   'Ho4 Be4 B4 Os4'
_cell_volume   212.46727881
_cell_formula_units_Z   4
loop_
 _symmetry_equiv_pos_site_id
 _symmetry_equiv_pos_as_xyz
  1  'x, y, z'
loop_
 _atom_site_type_symbol
 _atom_site_label
 _atom_site_symmetry_multiplicity
 _atom_site_fract_x
 _atom_site_fract_y
 _atom_site_fract_z
 _atom_site_occupancy
  Ho  Ho0  1  0.257228  0.001187  0.349200  1
  Ho  Ho1  1  0.242772  0.501187  0.150800  1
  Ho  Ho2  1  0.757228  0.998813  0.650800  1
  Ho  Ho3  1  0.742772  0.498813  0.849200  1
  Be  Be4  1  0.063204  0.363730  0.542015  1
  Be  Be5  1  0.436796  0.863730  0.957985  1
  Be  Be6  1  0.563204  0.636270  0.457985  1
  Be  Be7  1  0.936796  0.136270  0.042015  1
  B  B8  1  0.932283  0.642937  0.446827  1
  B  B9  1  0.567717  0.142937  0.053173  1
  B  B10  1  0.432283  0.357063  0.553173  1
  B  B11  1  0.067717  0.857063  0.946827  1
  Os  Os12  1  0.266483  0.174748  0.812800  1
  Os  Os13  1  0.233517  0.674748  0.687200  1
  Os  Os14  1  0.766483  0.825252  0.187200  1
  Os  Os15  1  0.733517  0.325252  0.312800  1
