# generated using pymatgen
data_La3Th(CoSi3)2
_symmetry_space_group_name_H-M   'P 1'
_cell_length_a   8.12312123
_cell_length_b   8.12312068
_cell_length_c   4.29498600
_cell_angle_alpha   90.00000000
_cell_angle_beta   90.00000000
_cell_angle_gamma   119.52927537
_symmetry_Int_Tables_number   1
_chemical_formula_structural   La3Th(CoSi3)2
_chemical_formula_sum   'La3 Th1 Co2 Si6'
_cell_volume   246.59186582
_cell_formula_units_Z   1
loop_
 _symmetry_equiv_pos_site_id
 _symmetry_equiv_pos_as_xyz
  1  'x, y, z'
loop_
 _atom_site_type_symbol
 _atom_site_label
 _atom_site_symmetry_multiplicity
 _atom_site_fract_x
 _atom_site_fract_y
 _atom_site_fract_z
 _atom_site_occupancy
  La  La0  1  0.000000  0.500000  0.000000  1
  La  La1  1  0.500000  0.000000  0.000000  1
  La  La2  1  0.000000  0.000000  0.000000  1
  Th  Th3  1  0.500000  0.500000  0.000000  1
  Co  Co4  1  0.338093  0.661907  0.500000  1
  Co  Co5  1  0.661907  0.338093  0.500000  1
  Si  Si6  1  0.829995  0.659977  0.500000  1
  Si  Si7  1  0.172162  0.827838  0.500000  1
  Si  Si8  1  0.659977  0.829995  0.500000  1
  Si  Si9  1  0.170005  0.340023  0.500000  1
  Si  Si10  1  0.827838  0.172162  0.500000  1
  Si  Si11  1  0.340023  0.170005  0.500000  1
