# generated using pymatgen
data_YErTa4(B2Ru5)2
_symmetry_space_group_name_H-M   'P 1'
_cell_length_a   9.55091156
_cell_length_b   9.55091293
_cell_length_c   3.09178300
_cell_angle_alpha   90.00000000
_cell_angle_beta   90.00000000
_cell_angle_gamma   90.58334374
_symmetry_Int_Tables_number   1
_chemical_formula_structural   YErTa4(B2Ru5)2
_chemical_formula_sum   'Y1 Er1 Ta4 B4 Ru10'
_cell_volume   282.01759538
_cell_formula_units_Z   1
loop_
 _symmetry_equiv_pos_site_id
 _symmetry_equiv_pos_as_xyz
  1  'x, y, z'
loop_
 _atom_site_type_symbol
 _atom_site_label
 _atom_site_symmetry_multiplicity
 _atom_site_fract_x
 _atom_site_fract_y
 _atom_site_fract_z
 _atom_site_occupancy
  Y  Y0  1  0.823890  0.676110  0.000000  1
  Er  Er1  1  0.176390  0.323610  0.000000  1
  Ta  Ta2  1  0.323875  0.823933  0.000000  1
  Ta  Ta3  1  0.676067  0.176125  0.000000  1
  Ta  Ta4  1  0.499620  0.499833  0.000000  1
  Ta  Ta5  1  0.000167  0.000380  0.000000  1
  B  B6  1  0.620204  0.879796  0.000000  1
  B  B7  1  0.379327  0.120673  0.000000  1
  B  B8  1  0.121246  0.620824  0.000000  1
  B  B9  1  0.879176  0.378754  0.000000  1
  Ru  Ru10  1  0.558538  0.723453  0.500000  1
  Ru  Ru11  1  0.440145  0.277032  0.500000  1
  Ru  Ru12  1  0.082412  0.785609  0.500000  1
  Ru  Ru13  1  0.918688  0.214484  0.500000  1
  Ru  Ru14  1  0.285516  0.581312  0.500000  1
  Ru  Ru15  1  0.714391  0.417588  0.500000  1
  Ru  Ru16  1  0.222968  0.059855  0.500000  1
  Ru  Ru17  1  0.776547  0.941462  0.500000  1
  Ru  Ru18  1  0.499762  0.000238  0.500000  1
  Ru  Ru19  1  0.001072  0.498928  0.500000  1
