# generated using pymatgen
data_Rb2NpAs2O9
_symmetry_space_group_name_H-M   'P 1'
_cell_length_a   7.67062386
_cell_length_b   7.94650434
_cell_length_c   9.85808343
_cell_angle_alpha   109.57733913
_cell_angle_beta   102.94682274
_cell_angle_gamma   87.97274072
_symmetry_Int_Tables_number   1
_chemical_formula_structural   Rb2NpAs2O9
_chemical_formula_sum   'Rb4 Np2 As4 O18'
_cell_volume   551.24968990
_cell_formula_units_Z   2
loop_
 _symmetry_equiv_pos_site_id
 _symmetry_equiv_pos_as_xyz
  1  'x, y, z'
loop_
 _atom_site_type_symbol
 _atom_site_label
 _atom_site_symmetry_multiplicity
 _atom_site_fract_x
 _atom_site_fract_y
 _atom_site_fract_z
 _atom_site_occupancy
  Rb  Rb0  1  0.918974  0.246558  0.624423  1
  Rb  Rb1  1  0.188667  0.830504  0.870487  1
  Rb  Rb2  1  0.081026  0.753442  0.375577  1
  Rb  Rb3  1  0.811333  0.169496  0.129513  1
  Np  Np4  1  0.446809  0.238223  0.750323  1
  Np  Np5  1  0.553191  0.761777  0.249677  1
  As  As6  1  0.311522  0.333068  0.098195  1
  As  As7  1  0.688478  0.666932  0.901805  1
  As  As8  1  0.673763  0.822386  0.640126  1
  As  As9  1  0.326237  0.177614  0.359874  1
  O  O10  1  0.733743  0.945479  0.332589  1
  O  O11  1  0.480938  0.227473  0.524056  1
  O  O12  1  0.282106  0.418808  0.766344  1
  O  O13  1  0.717894  0.581192  0.233656  1
  O  O14  1  0.657586  0.046993  0.746239  1
  O  O15  1  0.325517  0.565820  0.157851  1
  O  O16  1  0.519062  0.772527  0.475944  1
  O  O17  1  0.575795  0.702789  0.732014  1
  O  O18  1  0.342414  0.953007  0.253761  1
  O  O19  1  0.105365  0.240969  0.031493  1
  O  O20  1  0.894635  0.759031  0.968507  1
  O  O21  1  0.885091  0.776120  0.630060  1
  O  O22  1  0.456692  0.243874  0.985696  1
  O  O23  1  0.424205  0.297211  0.267986  1
  O  O24  1  0.266257  0.054521  0.667411  1
  O  O25  1  0.674483  0.434180  0.842149  1
  O  O26  1  0.114909  0.223880  0.369940  1
  O  O27  1  0.543308  0.756126  0.014304  1
