# generated using pymatgen
data_Hf12Mn3Si12Ru
_symmetry_space_group_name_H-M   'P 1'
_cell_length_a   3.79598400
_cell_length_b   10.36674222
_cell_length_c   11.67374109
_cell_angle_alpha   89.92541460
_cell_angle_beta   90.00000000
_cell_angle_gamma   90.00000000
_symmetry_Int_Tables_number   1
_chemical_formula_structural   Hf12Mn3Si12Ru
_chemical_formula_sum   'Hf12 Mn3 Si12 Ru1'
_cell_volume   459.38452518
_cell_formula_units_Z   1
loop_
 _symmetry_equiv_pos_site_id
 _symmetry_equiv_pos_as_xyz
  1  'x, y, z'
loop_
 _atom_site_type_symbol
 _atom_site_label
 _atom_site_symmetry_multiplicity
 _atom_site_fract_x
 _atom_site_fract_y
 _atom_site_fract_z
 _atom_site_occupancy
  Hf  Hf0  1  0.250000  0.877891  0.021138  1
  Hf  Hf1  1  0.250000  0.622633  0.519346  1
  Hf  Hf2  1  0.750000  0.124040  0.981010  1
  Hf  Hf3  1  0.750000  0.377126  0.479648  1
  Hf  Hf4  1  0.250000  0.929117  0.598239  1
  Hf  Hf5  1  0.250000  0.571319  0.100070  1
  Hf  Hf6  1  0.750000  0.070613  0.400265  1
  Hf  Hf7  1  0.750000  0.429794  0.900393  1
  Hf  Hf8  1  0.250000  0.655912  0.801394  1
  Hf  Hf9  1  0.250000  0.839883  0.301377  1
  Hf  Hf10  1  0.750000  0.339547  0.199323  1
  Hf  Hf11  1  0.750000  0.160030  0.698711  1
  Mn  Mn12  1  0.250000  0.382365  0.677428  1
  Mn  Mn13  1  0.250000  0.118446  0.178143  1
  Mn  Mn14  1  0.750000  0.617501  0.322180  1
  Si  Si15  1  0.250000  0.019484  0.825918  1
  Si  Si16  1  0.250000  0.482674  0.325128  1
  Si  Si17  1  0.750000  0.982849  0.174754  1
  Si  Si18  1  0.750000  0.516145  0.674158  1
  Si  Si19  1  0.250000  0.253115  0.841315  1
  Si  Si20  1  0.250000  0.247536  0.341938  1
  Si  Si21  1  0.750000  0.747586  0.159150  1
  Si  Si22  1  0.750000  0.750028  0.657036  1
  Si  Si23  1  0.250000  0.193960  0.541806  1
  Si  Si24  1  0.250000  0.306919  0.041840  1
  Si  Si25  1  0.750000  0.805890  0.457991  1
  Si  Si26  1  0.750000  0.693457  0.958915  1
  Ru  Ru27  1  0.750000  0.884136  0.821386  1
