# generated using pymatgen
data_Tb7Y13Cd3Ru2Au3
_symmetry_space_group_name_H-M   'P 1'
_cell_length_a   9.65217672
_cell_length_b   9.64166940
_cell_length_c   9.63663544
_cell_angle_alpha   90.00008541
_cell_angle_beta   89.92940411
_cell_angle_gamma   119.96408236
_symmetry_Int_Tables_number   1
_chemical_formula_structural   Tb7Y13Cd3Ru2Au3
_chemical_formula_sum   'Tb7 Y13 Cd3 Ru2 Au3'
_cell_volume   776.94485354
_cell_formula_units_Z   1
loop_
 _symmetry_equiv_pos_site_id
 _symmetry_equiv_pos_as_xyz
  1  'x, y, z'
loop_
 _atom_site_type_symbol
 _atom_site_label
 _atom_site_symmetry_multiplicity
 _atom_site_fract_x
 _atom_site_fract_y
 _atom_site_fract_z
 _atom_site_occupancy
  Tb  Tb0  1  0.999605  0.999802  0.460517  1
  Tb  Tb1  1  0.999768  0.999884  0.039770  1
  Tb  Tb2  1  0.209322  0.790700  0.439456  1
  Tb  Tb3  1  0.209322  0.418623  0.439456  1
  Tb  Tb4  1  0.581002  0.790501  0.439389  1
  Tb  Tb5  1  0.791416  0.208386  0.559136  1
  Tb  Tb6  1  0.791416  0.583028  0.559135  1
  Y  Y7  1  0.416502  0.208250  0.558274  1
  Y  Y8  1  0.791725  0.208153  0.941409  1
  Y  Y9  1  0.791724  0.583571  0.941408  1
  Y  Y10  1  0.416735  0.208367  0.941464  1
  Y  Y11  1  0.209229  0.790778  0.059812  1
  Y  Y12  1  0.209229  0.418452  0.059813  1
  Y  Y13  1  0.581247  0.790624  0.059587  1
  Y  Y14  1  0.540154  0.459521  0.249886  1
  Y  Y15  1  0.540154  0.080633  0.249886  1
  Y  Y16  1  0.919131  0.459566  0.249889  1
  Y  Y17  1  0.458571  0.541400  0.750118  1
  Y  Y18  1  0.458571  0.917171  0.750118  1
  Y  Y19  1  0.082626  0.541313  0.749957  1
  Cd  Cd20  1  0.110241  0.890169  0.750482  1
  Cd  Cd21  1  0.110241  0.220071  0.750483  1
  Cd  Cd22  1  0.779872  0.889936  0.750617  1
  Ru  Ru23  1  0.333575  0.666786  0.251985  1
  Ru  Ru24  1  0.668172  0.334085  0.748353  1
  Au  Au25  1  0.869736  0.130775  0.249828  1
  Au  Au26  1  0.869736  0.738961  0.249829  1
  Au  Au27  1  0.260980  0.130491  0.249942  1
