# generated using pymatgen
data_NdAl7Cu5
_symmetry_space_group_name_H-M   'P 1'
_cell_length_a   6.70834160
_cell_length_b   6.70834046
_cell_length_c   6.70834069
_cell_angle_alpha   134.63354149
_cell_angle_beta   98.98151927
_cell_angle_gamma   98.12391056
_symmetry_Int_Tables_number   1
_chemical_formula_structural   NdAl7Cu5
_chemical_formula_sum   'Nd1 Al7 Cu5'
_cell_volume   198.20355465
_cell_formula_units_Z   1
loop_
 _symmetry_equiv_pos_site_id
 _symmetry_equiv_pos_as_xyz
  1  'x, y, z'
loop_
 _atom_site_type_symbol
 _atom_site_label
 _atom_site_symmetry_multiplicity
 _atom_site_fract_x
 _atom_site_fract_y
 _atom_site_fract_z
 _atom_site_occupancy
  Nd  Nd0  1  0.999739  0.000000  0.999739  1
  Al  Al1  1  0.350286  0.000000  0.350286  1
  Al  Al2  1  0.652814  0.000000  0.652814  1
  Al  Al3  1  0.658460  0.650269  0.008191  1
  Al  Al4  1  0.357922  0.349731  0.008191  1
  Al  Al5  1  0.229293  0.500000  0.729293  1
  Al  Al6  1  0.206491  0.713414  0.493078  1
  Al  Al7  1  0.779664  0.286586  0.493078  1
  Cu  Cu8  1  0.495589  0.996302  0.996090  1
  Cu  Cu9  1  0.495589  0.499499  0.499287  1
  Cu  Cu10  1  0.999788  0.500501  0.996090  1
  Cu  Cu11  1  0.999788  0.003698  0.499287  1
  Cu  Cu12  1  0.774576  0.500000  0.274576  1
