# generated using pymatgen
data_Er6Al12V4Os7
_symmetry_space_group_name_H-M   'P 1'
_cell_length_a   8.89257337
_cell_length_b   8.89233897
_cell_length_c   8.89366401
_cell_angle_alpha   59.99313479
_cell_angle_beta   59.99141329
_cell_angle_gamma   59.98753479
_symmetry_Int_Tables_number   1
_chemical_formula_structural   Er6Al12V4Os7
_chemical_formula_sum   'Er6 Al12 V4 Os7'
_cell_volume   497.18445358
_cell_formula_units_Z   1
loop_
 _symmetry_equiv_pos_site_id
 _symmetry_equiv_pos_as_xyz
  1  'x, y, z'
loop_
 _atom_site_type_symbol
 _atom_site_label
 _atom_site_symmetry_multiplicity
 _atom_site_fract_x
 _atom_site_fract_y
 _atom_site_fract_z
 _atom_site_occupancy
  Er  Er0  1  0.709977  0.709972  0.290000  1
  Er  Er1  1  0.290062  0.710049  0.289829  1
  Er  Er2  1  0.710069  0.290063  0.289795  1
  Er  Er3  1  0.289797  0.289837  0.710180  1
  Er  Er4  1  0.710088  0.290024  0.710084  1
  Er  Er5  1  0.290019  0.710072  0.710075  1
  Al  Al6  1  0.119854  0.119865  0.640519  1
  Al  Al7  1  0.119889  0.640508  0.119799  1
  Al  Al8  1  0.640516  0.119892  0.119789  1
  Al  Al9  1  0.119850  0.119852  0.119753  1
  Al  Al10  1  0.668140  0.668108  0.995469  1
  Al  Al11  1  0.668026  0.995606  0.668208  1
  Al  Al12  1  0.995599  0.668008  0.668219  1
  Al  Al13  1  0.668099  0.668062  0.668289  1
  Al  Al14  1  0.331814  0.331806  0.004560  1
  Al  Al15  1  0.331808  0.004593  0.331796  1
  Al  Al16  1  0.004596  0.331804  0.331800  1
  Al  Al17  1  0.331802  0.331801  0.331810  1
  V  V18  1  0.879587  0.879567  0.361226  1
  V  V19  1  0.879511  0.361327  0.879583  1
  V  V20  1  0.361249  0.879533  0.879609  1
  V  V21  1  0.879578  0.879559  0.879652  1
  Os  Os22  1  0.000178  0.000246  0.999764  1
  Os  Os23  1  0.996036  0.996039  0.503980  1
  Os  Os24  1  0.503947  0.995953  0.504108  1
  Os  Os25  1  0.995943  0.503936  0.504131  1
  Os  Os26  1  0.504044  0.504001  0.995976  1
  Os  Os27  1  0.995962  0.503946  0.995994  1
  Os  Os28  1  0.503960  0.995974  0.996001  1
