# generated using pymatgen
data_Dy6PtI10
_symmetry_space_group_name_H-M   'P 1'
_cell_length_a   7.72266594
_cell_length_b   9.72861739
_cell_length_c   9.75439727
_cell_angle_alpha   107.38900353
_cell_angle_beta   97.00952521
_cell_angle_gamma   104.91165542
_symmetry_Int_Tables_number   1
_chemical_formula_structural   Dy6PtI10
_chemical_formula_sum   'Dy6 Pt1 I10'
_cell_volume   659.89760660
_cell_formula_units_Z   1
loop_
 _symmetry_equiv_pos_site_id
 _symmetry_equiv_pos_as_xyz
  1  'x, y, z'
loop_
 _atom_site_type_symbol
 _atom_site_label
 _atom_site_symmetry_multiplicity
 _atom_site_fract_x
 _atom_site_fract_y
 _atom_site_fract_z
 _atom_site_occupancy
  Dy  Dy0  1  0.885865  0.960631  0.242463  1
  Dy  Dy1  1  0.114135  0.039369  0.757537  1
  Dy  Dy2  1  0.350340  0.126924  0.166460  1
  Dy  Dy3  1  0.649660  0.873076  0.833540  1
  Dy  Dy4  1  0.972416  0.287789  0.087202  1
  Dy  Dy5  1  0.027584  0.712211  0.912798  1
  Pt  Pt6  1  0.000000  0.000000  0.000000  1
  I  I7  1  0.358446  0.455901  0.273919  1
  I  I8  1  0.641554  0.544099  0.726081  1
  I  I9  1  0.913863  0.627502  0.180247  1
  I  I10  1  0.086137  0.372498  0.819753  1
  I  I11  1  0.452896  0.816847  0.092330  1
  I  I12  1  0.547104  0.183153  0.907670  1
  I  I13  1  0.261924  0.088576  0.464489  1
  I  I14  1  0.738076  0.911424  0.535511  1
  I  I15  1  0.782981  0.261461  0.350109  1
  I  I16  1  0.217019  0.738539  0.649891  1
