# generated using pymatgen
data_YCd3(IO6)2
_symmetry_space_group_name_H-M   'P 1'
_cell_length_a   5.03346301
_cell_length_b   5.02221501
_cell_length_c   9.98152000
_cell_angle_alpha   90.00000000
_cell_angle_beta   90.00000000
_cell_angle_gamma   90.00544738
_symmetry_Int_Tables_number   1
_chemical_formula_structural   YCd3(IO6)2
_chemical_formula_sum   'Y1 Cd3 I2 O12'
_cell_volume   252.32417485
_cell_formula_units_Z   1
loop_
 _symmetry_equiv_pos_site_id
 _symmetry_equiv_pos_as_xyz
  1  'x, y, z'
loop_
 _atom_site_type_symbol
 _atom_site_label
 _atom_site_symmetry_multiplicity
 _atom_site_fract_x
 _atom_site_fract_y
 _atom_site_fract_z
 _atom_site_occupancy
  Y  Y0  1  0.000000  0.000000  0.339136  1
  Cd  Cd1  1  0.500000  0.500000  0.162885  1
  Cd  Cd2  1  0.000000  0.000000  0.667205  1
  Cd  Cd3  1  0.500000  0.500000  0.833560  1
  I  I4  1  0.500000  0.500000  0.500871  1
  I  I5  1  0.000000  0.000000  0.999614  1
  O  O6  1  0.681445  0.681932  0.639543  1
  O  O7  1  0.318555  0.318068  0.639543  1
  O  O8  1  0.818135  0.182182  0.860464  1
  O  O9  1  0.181865  0.817818  0.860464  1
  O  O10  1  0.317188  0.316996  0.359431  1
  O  O11  1  0.682812  0.683004  0.359431  1
  O  O12  1  0.177965  0.821910  0.144819  1
  O  O13  1  0.822035  0.178090  0.144819  1
  O  O14  1  0.732955  0.732325  0.000199  1
  O  O15  1  0.267045  0.267675  0.000199  1
  O  O16  1  0.768729  0.231012  0.493909  1
  O  O17  1  0.231271  0.768988  0.493909  1
