# generated using pymatgen
data_CsSrZrF7
_symmetry_space_group_name_H-M   'P 1'
_cell_length_a   6.91246438
_cell_length_b   6.91246383
_cell_length_c   9.01293900
_cell_angle_alpha   90.00000000
_cell_angle_beta   90.00000000
_cell_angle_gamma   116.57186427
_symmetry_Int_Tables_number   1
_chemical_formula_structural   CsSrZrF7
_chemical_formula_sum   'Cs2 Sr2 Zr2 F14'
_cell_volume   385.16904695
_cell_formula_units_Z   2
loop_
 _symmetry_equiv_pos_site_id
 _symmetry_equiv_pos_as_xyz
  1  'x, y, z'
loop_
 _atom_site_type_symbol
 _atom_site_label
 _atom_site_symmetry_multiplicity
 _atom_site_fract_x
 _atom_site_fract_y
 _atom_site_fract_z
 _atom_site_occupancy
  Cs  Cs0  1  0.000000  0.000000  0.000000  1
  Cs  Cs1  1  0.000000  0.000000  0.500000  1
  Sr  Sr2  1  0.310491  0.689509  0.750000  1
  Sr  Sr3  1  0.689509  0.310491  0.250000  1
  Zr  Zr4  1  0.693575  0.306425  0.750000  1
  Zr  Zr5  1  0.306425  0.693575  0.250000  1
  F  F6  1  0.517004  0.482996  0.750000  1
  F  F7  1  0.482996  0.517004  0.250000  1
  F  F8  1  0.700711  0.299289  0.977886  1
  F  F9  1  0.299289  0.700711  0.022114  1
  F  F10  1  0.299289  0.700711  0.477886  1
  F  F11  1  0.700711  0.299289  0.522114  1
  F  F12  1  0.674323  0.988998  0.750000  1
  F  F13  1  0.325677  0.011002  0.250000  1
  F  F14  1  0.011002  0.325677  0.750000  1
  F  F15  1  0.988998  0.674323  0.250000  1
  F  F16  1  0.360823  0.074439  0.750000  1
  F  F17  1  0.639177  0.925561  0.250000  1
  F  F18  1  0.925561  0.639177  0.750000  1
  F  F19  1  0.074439  0.360823  0.250000  1
