# generated using pymatgen
data_Li2Ta2Nb6Fe5Si14Tc
_symmetry_space_group_name_H-M   'P 1'
_cell_length_a   9.31749249
_cell_length_b   9.29805523
_cell_length_c   9.29464900
_cell_angle_alpha   94.37235115
_cell_angle_beta   94.25316142
_cell_angle_gamma   148.00798950
_symmetry_Int_Tables_number   1
_chemical_formula_structural   Li2Ta2Nb6Fe5Si14Tc
_chemical_formula_sum   'Li2 Ta2 Nb6 Fe5 Si14 Tc1'
_cell_volume   410.42331511
_cell_formula_units_Z   1
loop_
 _symmetry_equiv_pos_site_id
 _symmetry_equiv_pos_as_xyz
  1  'x, y, z'
loop_
 _atom_site_type_symbol
 _atom_site_label
 _atom_site_symmetry_multiplicity
 _atom_site_fract_x
 _atom_site_fract_y
 _atom_site_fract_z
 _atom_site_occupancy
  Li  Li0  1  0.101459  0.602396  0.206205  1
  Li  Li1  1  0.100956  0.898183  0.500875  1
  Ta  Ta2  1  0.133313  0.135623  0.270667  1
  Ta  Ta3  1  0.866763  0.866956  0.732506  1
  Nb  Nb4  1  0.866287  0.134164  0.000998  1
  Nb  Nb5  1  0.134309  0.863708  0.999419  1
  Nb  Nb6  1  0.499987  0.688764  0.191764  1
  Nb  Nb7  1  0.496486  0.306407  0.809211  1
  Nb  Nb8  1  0.315419  0.503124  0.810870  1
  Nb  Nb9  1  0.696608  0.504029  0.194277  1
  Fe  Fe10  1  0.387889  0.617424  0.502948  1
  Fe  Fe11  1  0.594073  0.399818  0.500637  1
  Fe  Fe12  1  0.911291  0.094392  0.501406  1
  Fe  Fe13  1  0.910307  0.407133  0.815073  1
  Fe  Fe14  1  0.597308  0.094287  0.197399  1
  Si  Si15  1  0.313827  0.319826  0.583969  1
  Si  Si16  1  0.680993  0.687654  0.418671  1
  Si  Si17  1  0.690622  0.273485  0.998663  1
  Si  Si18  1  0.308359  0.722007  0.999828  1
  Si  Si19  1  0.983006  0.275605  0.297636  1
  Si  Si20  1  0.971176  0.681257  0.707424  1
  Si  Si21  1  0.742693  0.029963  0.706257  1
  Si  Si22  1  0.311257  0.019701  0.291836  1
  Si  Si23  1  0.554357  0.952097  0.407186  1
  Si  Si24  1  0.562749  0.156274  0.593840  1
  Si  Si25  1  0.035030  0.439318  0.586707  1
  Si  Si26  1  0.844488  0.443204  0.401830  1
  Si  Si27  1  0.753368  0.751504  0.002146  1
  Si  Si28  1  0.251002  0.249436  0.001723  1
  Tc  Tc29  1  0.384615  0.882255  0.768027  1
