# generated using pymatgen
data_LiHo19(Cd3Ru)2
_symmetry_space_group_name_H-M   'P 1'
_cell_length_a   9.50197700
_cell_length_b   9.50197634
_cell_length_c   9.72543600
_cell_angle_alpha   90.00000000
_cell_angle_beta   90.00000000
_cell_angle_gamma   119.99999880
_symmetry_Int_Tables_number   1
_chemical_formula_structural   LiHo19(Cd3Ru)2
_chemical_formula_sum   'Li1 Ho19 Cd6 Ru2'
_cell_volume   760.44469923
_cell_formula_units_Z   1
loop_
 _symmetry_equiv_pos_site_id
 _symmetry_equiv_pos_as_xyz
  1  'x, y, z'
loop_
 _atom_site_type_symbol
 _atom_site_label
 _atom_site_symmetry_multiplicity
 _atom_site_fract_x
 _atom_site_fract_y
 _atom_site_fract_z
 _atom_site_occupancy
  Li  Li0  1  0.000000  0.000000  0.500000  1
  Ho  Ho1  1  0.000000  0.000000  0.000000  1
  Ho  Ho2  1  0.208354  0.791646  0.440457  1
  Ho  Ho3  1  0.208354  0.416708  0.440457  1
  Ho  Ho4  1  0.583292  0.791646  0.440457  1
  Ho  Ho5  1  0.791646  0.208354  0.559543  1
  Ho  Ho6  1  0.791646  0.583292  0.559543  1
  Ho  Ho7  1  0.416708  0.208354  0.559543  1
  Ho  Ho8  1  0.789328  0.210672  0.941410  1
  Ho  Ho9  1  0.789328  0.578655  0.941410  1
  Ho  Ho10  1  0.421345  0.210672  0.941410  1
  Ho  Ho11  1  0.210672  0.789328  0.058590  1
  Ho  Ho12  1  0.210672  0.421345  0.058590  1
  Ho  Ho13  1  0.578655  0.789328  0.058590  1
  Ho  Ho14  1  0.541651  0.458349  0.251975  1
  Ho  Ho15  1  0.541651  0.083301  0.251975  1
  Ho  Ho16  1  0.916699  0.458349  0.251975  1
  Ho  Ho17  1  0.458349  0.541651  0.748025  1
  Ho  Ho18  1  0.458349  0.916699  0.748025  1
  Ho  Ho19  1  0.083301  0.541651  0.748025  1
  Cd  Cd20  1  0.888208  0.111792  0.257924  1
  Cd  Cd21  1  0.888208  0.776418  0.257924  1
  Cd  Cd22  1  0.223582  0.111792  0.257924  1
  Cd  Cd23  1  0.111792  0.888208  0.742076  1
  Cd  Cd24  1  0.111792  0.223582  0.742076  1
  Cd  Cd25  1  0.776418  0.888208  0.742076  1
  Ru  Ru26  1  0.333333  0.666667  0.250518  1
  Ru  Ru27  1  0.666667  0.333333  0.749482  1
