# generated using pymatgen
data_DyZn2CuAgRh
_symmetry_space_group_name_H-M   'P 1'
_cell_length_a   5.19954963
_cell_length_b   5.19954983
_cell_length_c   5.27320234
_cell_angle_alpha   58.87289409
_cell_angle_beta   58.87289192
_cell_angle_gamma   60.15615417
_symmetry_Int_Tables_number   1
_chemical_formula_structural   DyZn2CuAgRh
_chemical_formula_sum   'Dy1 Zn2 Cu1 Ag1 Rh1'
_cell_volume   99.16758280
_cell_formula_units_Z   1
loop_
 _symmetry_equiv_pos_site_id
 _symmetry_equiv_pos_as_xyz
  1  'x, y, z'
loop_
 _atom_site_type_symbol
 _atom_site_label
 _atom_site_symmetry_multiplicity
 _atom_site_fract_x
 _atom_site_fract_y
 _atom_site_fract_z
 _atom_site_occupancy
  Dy  Dy0  1  0.994609  0.994609  0.004002  1
  Zn  Zn1  1  0.626507  0.131474  0.620386  1
  Zn  Zn2  1  0.131474  0.626507  0.620386  1
  Cu  Cu3  1  0.625277  0.625277  0.621627  1
  Ag  Ag4  1  0.244558  0.244558  0.263866  1
  Rh  Rh5  1  0.627576  0.627576  0.119735  1
