# generated using pymatgen
data_SmV(Sb4Os)3
_symmetry_space_group_name_H-M   'P 1'
_cell_length_a   8.20502347
_cell_length_b   8.20502364
_cell_length_c   8.20502382
_cell_angle_alpha   109.58349729
_cell_angle_beta   109.58350458
_cell_angle_gamma   109.58350511
_symmetry_Int_Tables_number   1
_chemical_formula_structural   SmV(Sb4Os)3
_chemical_formula_sum   'Sm1 V1 Sb12 Os3'
_cell_volume   423.44692447
_cell_formula_units_Z   1
loop_
 _symmetry_equiv_pos_site_id
 _symmetry_equiv_pos_as_xyz
  1  'x, y, z'
loop_
 _atom_site_type_symbol
 _atom_site_label
 _atom_site_symmetry_multiplicity
 _atom_site_fract_x
 _atom_site_fract_y
 _atom_site_fract_z
 _atom_site_occupancy
  Sm  Sm0  1  0.000000  0.000000  0.000000  1
  V  V1  1  0.500000  0.500000  0.500000  1
  Sb  Sb2  1  0.337462  0.180710  0.843729  1
  Sb  Sb3  1  0.662538  0.819290  0.156271  1
  Sb  Sb4  1  0.664051  0.505504  0.846855  1
  Sb  Sb5  1  0.335949  0.494496  0.153145  1
  Sb  Sb6  1  0.180710  0.843729  0.337462  1
  Sb  Sb7  1  0.819290  0.156271  0.662538  1
  Sb  Sb8  1  0.505504  0.846855  0.664051  1
  Sb  Sb9  1  0.494496  0.153145  0.335949  1
  Sb  Sb10  1  0.843729  0.337462  0.180710  1
  Sb  Sb11  1  0.156271  0.662538  0.819290  1
  Sb  Sb12  1  0.846855  0.664051  0.505504  1
  Sb  Sb13  1  0.153145  0.335949  0.494496  1
  Os  Os14  1  0.000000  0.000000  0.500000  1
  Os  Os15  1  0.500000  0.000000  0.000000  1
  Os  Os16  1  0.000000  0.500000  0.000000  1
