# generated using pymatgen
data_Tb5Ga3P9Ir19
_symmetry_space_group_name_H-M   'P 1'
_cell_length_a   12.86482700
_cell_length_b   12.86482712
_cell_length_c   3.97157900
_cell_angle_alpha   90.00000000
_cell_angle_beta   90.00000000
_cell_angle_gamma   119.99999198
_symmetry_Int_Tables_number   1
_chemical_formula_structural   Tb5Ga3P9Ir19
_chemical_formula_sum   'Tb5 Ga3 P9 Ir19'
_cell_volume   569.24834580
_cell_formula_units_Z   1
loop_
 _symmetry_equiv_pos_site_id
 _symmetry_equiv_pos_as_xyz
  1  'x, y, z'
loop_
 _atom_site_type_symbol
 _atom_site_label
 _atom_site_symmetry_multiplicity
 _atom_site_fract_x
 _atom_site_fract_y
 _atom_site_fract_z
 _atom_site_occupancy
  Tb  Tb0  1  0.333333  0.666667  0.500000  1
  Tb  Tb1  1  0.666667  0.333333  0.500000  1
  Tb  Tb2  1  0.182001  0.182001  0.000000  1
  Tb  Tb3  1  0.817999  0.000000  0.000000  1
  Tb  Tb4  1  0.000000  0.817999  0.000000  1
  Ga  Ga5  1  0.357884  0.357884  0.500000  1
  Ga  Ga6  1  0.642116  0.000000  0.500000  1
  Ga  Ga7  1  0.000000  0.642116  0.500000  1
  P  P8  1  0.309050  0.825994  0.000000  1
  P  P9  1  0.174006  0.483057  0.000000  1
  P  P10  1  0.516943  0.690950  0.000000  1
  P  P11  1  0.825994  0.309050  0.000000  1
  P  P12  1  0.483057  0.174006  0.000000  1
  P  P13  1  0.690950  0.516943  0.000000  1
  P  P14  1  0.820568  0.820568  0.500000  1
  P  P15  1  0.179432  0.000000  0.500000  1
  P  P16  1  0.000000  0.179432  0.500000  1
  Ir  Ir17  1  0.205622  0.825989  0.500000  1
  Ir  Ir18  1  0.174011  0.379633  0.500000  1
  Ir  Ir19  1  0.620367  0.794378  0.500000  1
  Ir  Ir20  1  0.825989  0.205622  0.500000  1
  Ir  Ir21  1  0.379633  0.174011  0.500000  1
  Ir  Ir22  1  0.794378  0.620367  0.500000  1
  Ir  Ir23  1  0.132744  0.636600  0.000000  1
  Ir  Ir24  1  0.363400  0.496144  0.000000  1
  Ir  Ir25  1  0.503856  0.867256  0.000000  1
  Ir  Ir26  1  0.636600  0.132744  0.000000  1
  Ir  Ir27  1  0.496144  0.363400  0.000000  1
  Ir  Ir28  1  0.867256  0.503856  0.000000  1
  Ir  Ir29  1  0.550144  0.550144  0.500000  1
  Ir  Ir30  1  0.449856  0.000000  0.500000  1
  Ir  Ir31  1  0.000000  0.449856  0.500000  1
  Ir  Ir32  1  0.715843  0.715843  0.000000  1
  Ir  Ir33  1  0.284157  0.000000  0.000000  1
  Ir  Ir34  1  0.000000  0.284157  0.000000  1
  Ir  Ir35  1  0.000000  0.000000  0.500000  1
