# generated using pymatgen
data_Ac8Si13Pt3
_symmetry_space_group_name_H-M   'P 1'
_cell_length_a   8.40170100
_cell_length_b   8.40170118
_cell_length_c   9.29121100
_cell_angle_alpha   90.00000000
_cell_angle_beta   90.00000000
_cell_angle_gamma   119.99999535
_symmetry_Int_Tables_number   1
_chemical_formula_structural   Ac8Si13Pt3
_chemical_formula_sum   'Ac8 Si13 Pt3'
_cell_volume   567.98573422
_cell_formula_units_Z   1
loop_
 _symmetry_equiv_pos_site_id
 _symmetry_equiv_pos_as_xyz
  1  'x, y, z'
loop_
 _atom_site_type_symbol
 _atom_site_label
 _atom_site_symmetry_multiplicity
 _atom_site_fract_x
 _atom_site_fract_y
 _atom_site_fract_z
 _atom_site_occupancy
  Ac  Ac0  1  0.000000  0.000000  0.748094  1
  Ac  Ac1  1  0.000000  0.000000  0.251932  1
  Ac  Ac2  1  0.498870  0.501130  0.749789  1
  Ac  Ac3  1  0.498870  0.997742  0.749789  1
  Ac  Ac4  1  0.002258  0.501130  0.749789  1
  Ac  Ac5  1  0.499182  0.500818  0.250261  1
  Ac  Ac6  1  0.001635  0.500818  0.250261  1
  Ac  Ac7  1  0.499182  0.998365  0.250261  1
  Si  Si8  1  0.831477  0.168523  0.999680  1
  Si  Si9  1  0.831477  0.662956  0.999680  1
  Si  Si10  1  0.337044  0.168523  0.999680  1
  Si  Si11  1  0.834649  0.165351  0.500382  1
  Si  Si12  1  0.834649  0.669297  0.500382  1
  Si  Si13  1  0.330703  0.165351  0.500382  1
  Si  Si14  1  0.165822  0.834178  0.499652  1
  Si  Si15  1  0.668356  0.834178  0.499652  1
  Si  Si16  1  0.165822  0.331644  0.499652  1
  Si  Si17  1  0.164131  0.835869  0.000225  1
  Si  Si18  1  0.671739  0.835869  0.000225  1
  Si  Si19  1  0.164131  0.328261  0.000225  1
  Si  Si20  1  0.333333  0.666667  0.000683  1
  Pt  Pt21  1  0.666667  0.333333  0.999574  1
  Pt  Pt22  1  0.666667  0.333333  0.500239  1
  Pt  Pt23  1  0.333333  0.666667  0.499515  1
