# generated using pymatgen
data_NdGa4(Fe3Ge)2
_symmetry_space_group_name_H-M   'P 1'
_cell_length_a   5.04681840
_cell_length_b   6.59138717
_cell_length_c   6.59138663
_cell_angle_alpha   80.33901579
_cell_angle_beta   67.49062391
_cell_angle_gamma   67.49062934
_symmetry_Int_Tables_number   1
_chemical_formula_structural   NdGa4(Fe3Ge)2
_chemical_formula_sum   'Nd1 Ga4 Fe6 Ge2'
_cell_volume   187.07181711
_cell_formula_units_Z   1
loop_
 _symmetry_equiv_pos_site_id
 _symmetry_equiv_pos_as_xyz
  1  'x, y, z'
loop_
 _atom_site_type_symbol
 _atom_site_label
 _atom_site_symmetry_multiplicity
 _atom_site_fract_x
 _atom_site_fract_y
 _atom_site_fract_z
 _atom_site_occupancy
  Nd  Nd0  1  0.000000  0.000000  0.000000  1
  Ga  Ga1  1  0.343677  0.656323  0.656323  1
  Ga  Ga2  1  0.656323  0.343677  0.343677  1
  Ga  Ga3  1  0.319106  0.180894  0.180894  1
  Ga  Ga4  1  0.680894  0.819106  0.819106  1
  Fe  Fe5  1  0.500000  0.248292  0.751708  1
  Fe  Fe6  1  0.500000  0.751708  0.248292  1
  Fe  Fe7  1  0.000000  0.500000  0.000000  1
  Fe  Fe8  1  0.500000  0.500000  0.000000  1
  Fe  Fe9  1  0.000000  0.000000  0.500000  1
  Fe  Fe10  1  0.500000  0.000000  0.500000  1
  Ge  Ge11  1  0.000000  0.654156  0.345844  1
  Ge  Ge12  1  0.000000  0.345844  0.654156  1
