# generated using pymatgen
data_LaInGa2Au3
_symmetry_space_group_name_H-M   'P 1'
_cell_length_a   4.56900900
_cell_length_b   7.35108300
_cell_length_c   8.92633000
_cell_angle_alpha   90.00000000
_cell_angle_beta   90.00000000
_cell_angle_gamma   90.00000000
_symmetry_Int_Tables_number   1
_chemical_formula_structural   LaInGa2Au3
_chemical_formula_sum   'La2 In2 Ga4 Au6'
_cell_volume   299.81011308
_cell_formula_units_Z   2
loop_
 _symmetry_equiv_pos_site_id
 _symmetry_equiv_pos_as_xyz
  1  'x, y, z'
loop_
 _atom_site_type_symbol
 _atom_site_label
 _atom_site_symmetry_multiplicity
 _atom_site_fract_x
 _atom_site_fract_y
 _atom_site_fract_z
 _atom_site_occupancy
  La  La0  1  0.000000  0.500000  0.251452  1
  La  La1  1  0.500000  0.000000  0.748548  1
  In  In2  1  0.500000  0.500000  0.635232  1
  In  In3  1  0.000000  0.000000  0.364768  1
  Ga  Ga4  1  0.000000  0.307544  0.892828  1
  Ga  Ga5  1  0.000000  0.692456  0.892828  1
  Ga  Ga6  1  0.500000  0.807544  0.107172  1
  Ga  Ga7  1  0.500000  0.192456  0.107172  1
  Au  Au8  1  0.000000  0.742113  0.605263  1
  Au  Au9  1  0.500000  0.500000  0.954259  1
  Au  Au10  1  0.000000  0.257887  0.605263  1
  Au  Au11  1  0.500000  0.757887  0.394737  1
  Au  Au12  1  0.000000  0.000000  0.045741  1
  Au  Au13  1  0.500000  0.242113  0.394737  1
