# generated using pymatgen
data_SnGe3(Sb4Pt3)2
_symmetry_space_group_name_H-M   'P 1'
_cell_length_a   3.88889800
_cell_length_b   8.52879724
_cell_length_c   12.59057301
_cell_angle_alpha   98.30359286
_cell_angle_beta   90.00000000
_cell_angle_gamma   90.00000000
_symmetry_Int_Tables_number   1
_chemical_formula_structural   SnGe3(Sb4Pt3)2
_chemical_formula_sum   'Sn1 Ge3 Sb8 Pt6'
_cell_volume   413.22156796
_cell_formula_units_Z   1
loop_
 _symmetry_equiv_pos_site_id
 _symmetry_equiv_pos_as_xyz
  1  'x, y, z'
loop_
 _atom_site_type_symbol
 _atom_site_label
 _atom_site_symmetry_multiplicity
 _atom_site_fract_x
 _atom_site_fract_y
 _atom_site_fract_z
 _atom_site_occupancy
  Sn  Sn0  1  0.500000  0.684002  0.189112  1
  Ge  Ge1  1  0.500000  0.324596  0.808435  1
  Ge  Ge2  1  0.500000  0.990899  0.143493  1
  Ge  Ge3  1  0.500000  0.659485  0.478602  1
  Sb  Sb4  1  0.500000  0.352247  0.522185  1
  Sb  Sb5  1  0.500000  0.018301  0.855737  1
  Sb  Sb6  1  0.000000  0.310886  0.051836  1
  Sb  Sb7  1  0.000000  0.975491  0.383457  1
  Sb  Sb8  1  0.000000  0.642853  0.719800  1
  Sb  Sb9  1  0.000000  0.687809  0.948952  1
  Sb  Sb10  1  0.000000  0.355637  0.279840  1
  Sb  Sb11  1  0.000000  0.019481  0.612806  1
  Pt  Pt12  1  0.500000  0.827903  0.663174  1
  Pt  Pt13  1  0.500000  0.493344  0.993318  1
  Pt  Pt14  1  0.500000  0.162859  0.328626  1
  Pt  Pt15  1  0.000000  0.330294  0.671988  1
  Pt  Pt16  1  0.000000  0.999609  0.005680  1
  Pt  Pt17  1  0.000000  0.664302  0.342960  1
