# generated using pymatgen
data_Rb7Pa6F32
_symmetry_space_group_name_H-M   'P 1'
_cell_length_a   9.55318285
_cell_length_b   9.55136935
_cell_length_c   9.54831700
_cell_angle_alpha   106.59323278
_cell_angle_beta   106.66478398
_cell_angle_gamma   106.62464700
_symmetry_Int_Tables_number   1
_chemical_formula_structural   Rb7Pa6F32
_chemical_formula_sum   'Rb7 Pa6 F32'
_cell_volume   732.82826132
_cell_formula_units_Z   1
loop_
 _symmetry_equiv_pos_site_id
 _symmetry_equiv_pos_as_xyz
  1  'x, y, z'
loop_
 _atom_site_type_symbol
 _atom_site_label
 _atom_site_symmetry_multiplicity
 _atom_site_fract_x
 _atom_site_fract_y
 _atom_site_fract_z
 _atom_site_occupancy
  Rb  Rb0  1  0.922998  0.784689  0.320383  1
  Rb  Rb1  1  0.784294  0.319997  0.922257  1
  Rb  Rb2  1  0.319662  0.922587  0.784527  1
  Rb  Rb3  1  0.076880  0.215427  0.679685  1
  Rb  Rb4  1  0.215571  0.680160  0.077536  1
  Rb  Rb5  1  0.680116  0.077432  0.215352  1
  Rb  Rb6  1  0.999953  0.999888  0.999879  1
  Pa  Pa7  1  0.377439  0.141281  0.448886  1
  Pa  Pa8  1  0.141124  0.448690  0.377227  1
  Pa  Pa9  1  0.448626  0.377234  0.141062  1
  Pa  Pa10  1  0.622556  0.858578  0.551053  1
  Pa  Pa11  1  0.858743  0.551319  0.622688  1
  Pa  Pa12  1  0.551338  0.622828  0.858958  1
  F  F13  1  0.226912  0.025545  0.552495  1
  F  F14  1  0.025867  0.552635  0.227269  1
  F  F15  1  0.552340  0.227561  0.025572  1
  F  F16  1  0.772992  0.974200  0.447604  1
  F  F17  1  0.974289  0.447669  0.772733  1
  F  F18  1  0.447679  0.772541  0.974506  1
  F  F19  1  0.172576  0.944332  0.241549  1
  F  F20  1  0.944889  0.241934  0.172051  1
  F  F21  1  0.241560  0.172281  0.944850  1
  F  F22  1  0.827325  0.055396  0.758160  1
  F  F23  1  0.055009  0.758057  0.827791  1
  F  F24  1  0.758457  0.827729  0.055273  1
  F  F25  1  0.466720  0.939741  0.357736  1
  F  F26  1  0.938948  0.357354  0.465409  1
  F  F27  1  0.357056  0.465995  0.939359  1
  F  F28  1  0.533375  0.059919  0.642575  1
  F  F29  1  0.060909  0.642347  0.534475  1
  F  F30  1  0.642862  0.534057  0.060616  1
  F  F31  1  0.532983  0.654079  0.302755  1
  F  F32  1  0.653586  0.303075  0.532607  1
  F  F33  1  0.302743  0.532484  0.653770  1
  F  F34  1  0.467734  0.346470  0.697746  1
  F  F35  1  0.346496  0.696714  0.466957  1
  F  F36  1  0.697229  0.467406  0.346444  1
  F  F37  1  0.781436  0.580852  0.844985  1
  F  F38  1  0.580688  0.845025  0.781258  1
  F  F39  1  0.845542  0.781649  0.581011  1
  F  F40  1  0.218545  0.419366  0.155155  1
  F  F41  1  0.419446  0.154933  0.218749  1
  F  F42  1  0.154520  0.218361  0.419002  1
  F  F43  1  0.621352  0.621572  0.620961  1
  F  F44  1  0.378734  0.378609  0.379085  1
