# generated using pymatgen
data_Nd4ErSn3
_symmetry_space_group_name_H-M   'P 1'
_cell_length_a   9.21409600
_cell_length_b   9.21409632
_cell_length_c   6.77261300
_cell_angle_alpha   90.00000000
_cell_angle_beta   90.00000000
_cell_angle_gamma   120.00000603
_symmetry_Int_Tables_number   1
_chemical_formula_structural   Nd4ErSn3
_chemical_formula_sum   'Nd8 Er2 Sn6'
_cell_volume   497.95757784
_cell_formula_units_Z   2
loop_
 _symmetry_equiv_pos_site_id
 _symmetry_equiv_pos_as_xyz
  1  'x, y, z'
loop_
 _atom_site_type_symbol
 _atom_site_label
 _atom_site_symmetry_multiplicity
 _atom_site_fract_x
 _atom_site_fract_y
 _atom_site_fract_z
 _atom_site_occupancy
  Nd  Nd0  1  0.666667  0.333333  0.000000  1
  Nd  Nd1  1  0.333333  0.666667  0.000000  1
  Nd  Nd2  1  0.758401  0.758401  0.747773  1
  Nd  Nd3  1  0.241599  0.000000  0.747773  1
  Nd  Nd4  1  0.000000  0.241599  0.747773  1
  Nd  Nd5  1  0.241599  0.241599  0.252227  1
  Nd  Nd6  1  0.758401  0.000000  0.252227  1
  Nd  Nd7  1  0.000000  0.758401  0.252227  1
  Er  Er8  1  0.333333  0.666667  0.500000  1
  Er  Er9  1  0.666667  0.333333  0.500000  1
  Sn  Sn10  1  0.397218  0.397218  0.740839  1
  Sn  Sn11  1  0.602782  0.000000  0.740839  1
  Sn  Sn12  1  0.000000  0.602782  0.740839  1
  Sn  Sn13  1  0.602782  0.602782  0.259161  1
  Sn  Sn14  1  0.397218  0.000000  0.259161  1
  Sn  Sn15  1  0.000000  0.397218  0.259161  1
