# generated using pymatgen
data_Tm7In(CoSi3)4
_symmetry_space_group_name_H-M   'P 1'
_cell_length_a   10.04509100
_cell_length_b   10.04509100
_cell_length_c   4.04945700
_cell_angle_alpha   90.00000000
_cell_angle_beta   90.00000000
_cell_angle_gamma   90.00000000
_symmetry_Int_Tables_number   1
_chemical_formula_structural   Tm7In(CoSi3)4
_chemical_formula_sum   'Tm7 In1 Co4 Si12'
_cell_volume   408.60581466
_cell_formula_units_Z   1
loop_
 _symmetry_equiv_pos_site_id
 _symmetry_equiv_pos_as_xyz
  1  'x, y, z'
loop_
 _atom_site_type_symbol
 _atom_site_label
 _atom_site_symmetry_multiplicity
 _atom_site_fract_x
 _atom_site_fract_y
 _atom_site_fract_z
 _atom_site_occupancy
  Tm  Tm0  1  0.322651  0.680035  0.500002  1
  Tm  Tm1  1  0.677348  0.319964  0.500002  1
  Tm  Tm2  1  0.680035  0.677348  0.500002  1
  Tm  Tm3  1  0.319964  0.322651  0.500002  1
  Tm  Tm4  1  0.500000  0.000000  0.500002  1
  Tm  Tm5  1  0.000000  0.500000  0.500002  1
  Tm  Tm6  1  0.000000  0.000000  0.000000  1
  In  In7  1  0.500000  0.500000  0.000000  1
  Co  Co8  1  0.119123  0.722293  0.000000  1
  Co  Co9  1  0.880877  0.277706  0.000000  1
  Co  Co10  1  0.722293  0.880877  0.000000  1
  Co  Co11  1  0.277706  0.119123  0.000000  1
  Si  Si12  1  0.510241  0.791997  0.000000  1
  Si  Si13  1  0.489760  0.208003  0.000000  1
  Si  Si14  1  0.791997  0.489760  0.000000  1
  Si  Si15  1  0.208003  0.510241  0.000000  1
  Si  Si16  1  0.284754  0.889943  0.000000  1
  Si  Si17  1  0.715246  0.110057  0.000000  1
  Si  Si18  1  0.889943  0.715246  0.000000  1
  Si  Si19  1  0.110057  0.284754  0.000000  1
  Si  Si20  1  0.199947  0.055059  0.500002  1
  Si  Si21  1  0.800052  0.944942  0.500002  1
  Si  Si22  1  0.055059  0.800052  0.500002  1
  Si  Si23  1  0.944942  0.199947  0.500002  1
