# generated using pymatgen
data_YbPr6CoCl12
_symmetry_space_group_name_H-M   'P 1'
_cell_length_a   9.33733876
_cell_length_b   9.35271005
_cell_length_c   9.17475738
_cell_angle_alpha   107.16039212
_cell_angle_beta   106.97539749
_cell_angle_gamma   107.36763836
_symmetry_Int_Tables_number   1
_chemical_formula_structural   YbPr6CoCl12
_chemical_formula_sum   'Yb1 Pr6 Co1 Cl12'
_cell_volume   664.18468656
_cell_formula_units_Z   1
loop_
 _symmetry_equiv_pos_site_id
 _symmetry_equiv_pos_as_xyz
  1  'x, y, z'
loop_
 _atom_site_type_symbol
 _atom_site_label
 _atom_site_symmetry_multiplicity
 _atom_site_fract_x
 _atom_site_fract_y
 _atom_site_fract_z
 _atom_site_occupancy
  Yb  Yb0  1  0.500000  0.500000  0.500000  1
  Pr  Pr1  1  0.114547  0.321560  0.022713  1
  Pr  Pr2  1  0.321673  0.024459  0.115188  1
  Pr  Pr3  1  0.023333  0.109383  0.309211  1
  Pr  Pr4  1  0.976668  0.890617  0.690790  1
  Pr  Pr5  1  0.678327  0.975542  0.884812  1
  Pr  Pr6  1  0.885453  0.678440  0.977287  1
  Co  Co7  1  0.000000  0.000000  0.000000  1
  Cl  Cl8  1  0.209123  0.686132  0.070946  1
  Cl  Cl9  1  0.455002  0.373696  0.174332  1
  Cl  Cl10  1  0.685300  0.070744  0.210463  1
  Cl  Cl11  1  0.930895  0.792369  0.318009  1
  Cl  Cl12  1  0.177833  0.454923  0.375060  1
  Cl  Cl13  1  0.375440  0.179207  0.457749  1
  Cl  Cl14  1  0.624560  0.820793  0.542252  1
  Cl  Cl15  1  0.822168  0.545077  0.624940  1
  Cl  Cl16  1  0.069106  0.207631  0.681992  1
  Cl  Cl17  1  0.314701  0.929257  0.789537  1
  Cl  Cl18  1  0.544998  0.626304  0.825669  1
  Cl  Cl19  1  0.790877  0.313868  0.929054  1
