# generated using pymatgen
data_ScPa4Co(P2Ru3)6
_symmetry_space_group_name_H-M   'P 1'
_cell_length_a   12.50981159
_cell_length_b   12.50981123
_cell_length_c   3.92539000
_cell_angle_alpha   90.00000000
_cell_angle_beta   90.00000000
_cell_angle_gamma   119.72879904
_symmetry_Int_Tables_number   1
_chemical_formula_structural   ScPa4Co(P2Ru3)6
_chemical_formula_sum   'Sc1 Pa4 Co1 P12 Ru18'
_cell_volume   533.45198293
_cell_formula_units_Z   1
loop_
 _symmetry_equiv_pos_site_id
 _symmetry_equiv_pos_as_xyz
  1  'x, y, z'
loop_
 _atom_site_type_symbol
 _atom_site_label
 _atom_site_symmetry_multiplicity
 _atom_site_fract_x
 _atom_site_fract_y
 _atom_site_fract_z
 _atom_site_occupancy
  Sc  Sc0  1  0.195382  0.195382  0.500000  1
  Pa  Pa1  1  0.666961  0.332053  0.000000  1
  Pa  Pa2  1  0.332053  0.666961  0.000000  1
  Pa  Pa3  1  0.814878  0.001473  0.500000  1
  Pa  Pa4  1  0.001473  0.814878  0.500000  1
  Co  Co5  1  0.996260  0.996260  0.000000  1
  P  P6  1  0.369568  0.369568  0.000000  1
  P  P7  1  0.627304  0.999617  0.000000  1
  P  P8  1  0.999617  0.627304  0.000000  1
  P  P9  1  0.832542  0.305325  0.500000  1
  P  P10  1  0.692133  0.523093  0.500000  1
  P  P11  1  0.474757  0.168891  0.500000  1
  P  P12  1  0.305325  0.832542  0.500000  1
  P  P13  1  0.523093  0.692133  0.500000  1
  P  P14  1  0.168891  0.474757  0.500000  1
  P  P15  1  0.823780  0.823780  0.000000  1
  P  P16  1  0.175455  0.007440  0.000000  1
  P  P17  1  0.007440  0.175455  0.000000  1
  Ru  Ru18  1  0.818944  0.188140  0.000000  1
  Ru  Ru19  1  0.810043  0.627426  0.000000  1
  Ru  Ru20  1  0.373910  0.184065  0.000000  1
  Ru  Ru21  1  0.188140  0.818944  0.000000  1
  Ru  Ru22  1  0.627426  0.810043  0.000000  1
  Ru  Ru23  1  0.184065  0.373910  0.000000  1
  Ru  Ru24  1  0.554799  0.554799  0.000000  1
  Ru  Ru25  1  0.442828  0.999219  0.000000  1
  Ru  Ru26  1  0.999219  0.442828  0.000000  1
  Ru  Ru27  1  0.634558  0.127385  0.500000  1
  Ru  Ru28  1  0.870467  0.504568  0.500000  1
  Ru  Ru29  1  0.493547  0.365252  0.500000  1
  Ru  Ru30  1  0.127385  0.634558  0.500000  1
  Ru  Ru31  1  0.504568  0.870467  0.500000  1
  Ru  Ru32  1  0.365252  0.493547  0.500000  1
  Ru  Ru33  1  0.720395  0.720395  0.500000  1
  Ru  Ru34  1  0.275955  0.001580  0.500000  1
  Ru  Ru35  1  0.001580  0.275955  0.500000  1
