# generated using pymatgen
data_Li4PrNd3Pd4
_symmetry_space_group_name_H-M   'P 1'
_cell_length_a   4.13125600
_cell_length_b   7.34976287
_cell_length_c   8.64861942
_cell_angle_alpha   89.89605614
_cell_angle_beta   90.00000000
_cell_angle_gamma   90.00000000
_symmetry_Int_Tables_number   1
_chemical_formula_structural   Li4PrNd3Pd4
_chemical_formula_sum   'Li4 Pr1 Nd3 Pd4'
_cell_volume   262.60410269
_cell_formula_units_Z   1
loop_
 _symmetry_equiv_pos_site_id
 _symmetry_equiv_pos_as_xyz
  1  'x, y, z'
loop_
 _atom_site_type_symbol
 _atom_site_label
 _atom_site_symmetry_multiplicity
 _atom_site_fract_x
 _atom_site_fract_y
 _atom_site_fract_z
 _atom_site_occupancy
  Li  Li0  1  0.250000  0.130126  0.056936  1
  Li  Li1  1  0.250000  0.628286  0.443229  1
  Li  Li2  1  0.750000  0.869979  0.944584  1
  Li  Li3  1  0.750000  0.371588  0.555836  1
  Pr  Pr4  1  0.250000  0.045432  0.686237  1
  Nd  Nd5  1  0.250000  0.546309  0.814700  1
  Nd  Nd6  1  0.750000  0.953827  0.313787  1
  Nd  Nd7  1  0.750000  0.454398  0.185527  1
  Pd  Pd8  1  0.250000  0.247130  0.378710  1
  Pd  Pd9  1  0.250000  0.747274  0.120100  1
  Pd  Pd10  1  0.750000  0.751057  0.619078  1
  Pd  Pd11  1  0.750000  0.254593  0.881277  1
