# generated using pymatgen
data_Nd3ZrSn2Ir3
_symmetry_space_group_name_H-M   'P 1'
_cell_length_a   7.37285400
_cell_length_b   7.49704493
_cell_length_c   4.30384000
_cell_angle_alpha   90.00000000
_cell_angle_beta   90.00000000
_cell_angle_gamma   119.45351129
_symmetry_Int_Tables_number   1
_chemical_formula_structural   Nd3ZrSn2Ir3
_chemical_formula_sum   'Nd3 Zr1 Sn2 Ir3'
_cell_volume   207.14660420
_cell_formula_units_Z   1
loop_
 _symmetry_equiv_pos_site_id
 _symmetry_equiv_pos_as_xyz
  1  'x, y, z'
loop_
 _atom_site_type_symbol
 _atom_site_label
 _atom_site_symmetry_multiplicity
 _atom_site_fract_x
 _atom_site_fract_y
 _atom_site_fract_z
 _atom_site_occupancy
  Nd  Nd0  1  0.600003  0.000000  0.000000  1
  Nd  Nd1  1  0.993587  0.580224  0.000000  1
  Nd  Nd2  1  0.413363  0.419776  0.000000  1
  Zr  Zr3  1  0.246540  0.000000  0.500000  1
  Sn  Sn4  1  0.001493  0.250221  0.500000  1
  Sn  Sn5  1  0.751272  0.749779  0.500000  1
  Ir  Ir6  1  0.326968  0.679720  0.500000  1
  Ir  Ir7  1  0.647249  0.320280  0.500000  1
  Ir  Ir8  1  0.019526  0.000000  0.000000  1
