# generated using pymatgen
data_Tb3In3NiHg2
_symmetry_space_group_name_H-M   'P 1'
_cell_length_a   7.77188600
_cell_length_b   7.77188575
_cell_length_c   4.03881600
_cell_angle_alpha   90.00000000
_cell_angle_beta   90.00000000
_cell_angle_gamma   119.99999255
_symmetry_Int_Tables_number   1
_chemical_formula_structural   Tb3In3NiHg2
_chemical_formula_sum   'Tb3 In3 Ni1 Hg2'
_cell_volume   211.26986834
_cell_formula_units_Z   1
loop_
 _symmetry_equiv_pos_site_id
 _symmetry_equiv_pos_as_xyz
  1  'x, y, z'
loop_
 _atom_site_type_symbol
 _atom_site_label
 _atom_site_symmetry_multiplicity
 _atom_site_fract_x
 _atom_site_fract_y
 _atom_site_fract_z
 _atom_site_occupancy
  Tb  Tb0  1  0.000000  0.608858  0.500000  1
  Tb  Tb1  1  0.608858  0.000000  0.500000  1
  Tb  Tb2  1  0.391142  0.391142  0.500000  1
  In  In3  1  0.760659  0.760659  0.000000  1
  In  In4  1  0.000000  0.239341  0.000000  1
  In  In5  1  0.239341  0.000000  0.000000  1
  Ni  Ni6  1  0.000000  0.000000  0.500000  1
  Hg  Hg7  1  0.666667  0.333333  0.000000  1
  Hg  Hg8  1  0.333333  0.666667  0.000000  1
