# generated using pymatgen
data_Tm2IrRhO7
_symmetry_space_group_name_H-M   'P 1'
_cell_length_a   7.18639157
_cell_length_b   7.17847358
_cell_length_c   7.17847367
_cell_angle_alpha   59.90463474
_cell_angle_beta   59.96348646
_cell_angle_gamma   59.96350349
_symmetry_Int_Tables_number   1
_chemical_formula_structural   Tm2IrRhO7
_chemical_formula_sum   'Tm4 Ir2 Rh2 O14'
_cell_volume   261.52102314
_cell_formula_units_Z   2
loop_
 _symmetry_equiv_pos_site_id
 _symmetry_equiv_pos_as_xyz
  1  'x, y, z'
loop_
 _atom_site_type_symbol
 _atom_site_label
 _atom_site_symmetry_multiplicity
 _atom_site_fract_x
 _atom_site_fract_y
 _atom_site_fract_z
 _atom_site_occupancy
  Tm  Tm0  1  0.625000  0.125000  0.125000  1
  Tm  Tm1  1  0.125000  0.625000  0.125000  1
  Tm  Tm2  1  0.125000  0.125000  0.625000  1
  Tm  Tm3  1  0.125000  0.125000  0.125000  1
  Ir  Ir4  1  0.125000  0.625000  0.625000  1
  Ir  Ir5  1  0.625000  0.625000  0.625000  1
  Rh  Rh6  1  0.625000  0.125000  0.625000  1
  Rh  Rh7  1  0.625000  0.625000  0.125000  1
  O  O8  1  0.717843  0.711114  0.287602  1
  O  O9  1  0.283442  0.287602  0.711114  1
  O  O10  1  0.717843  0.287602  0.711114  1
  O  O11  1  0.283442  0.711114  0.287602  1
  O  O12  1  0.288413  0.711587  0.711587  1
  O  O13  1  0.718217  0.281783  0.281783  1
  O  O14  1  0.532157  0.538886  0.962398  1
  O  O15  1  0.966558  0.962398  0.538886  1
  O  O16  1  0.532157  0.962398  0.538886  1
  O  O17  1  0.966558  0.538886  0.962398  1
  O  O18  1  0.961587  0.538413  0.538413  1
  O  O19  1  0.531783  0.968217  0.968217  1
  O  O20  1  0.248929  0.251071  0.251071  1
  O  O21  1  0.001071  0.998929  0.998929  1
