# generated using pymatgen
data_U4Fe5(ReSi3)2
_symmetry_space_group_name_H-M   'P 1'
_cell_length_a   6.91345462
_cell_length_b   6.91345343
_cell_length_c   6.92540862
_cell_angle_alpha   109.68542687
_cell_angle_beta   109.68542925
_cell_angle_gamma   108.98354855
_symmetry_Int_Tables_number   1
_chemical_formula_structural   U4Fe5(ReSi3)2
_chemical_formula_sum   'U4 Fe5 Re2 Si6'
_cell_volume   254.98498330
_cell_formula_units_Z   1
loop_
 _symmetry_equiv_pos_site_id
 _symmetry_equiv_pos_as_xyz
  1  'x, y, z'
loop_
 _atom_site_type_symbol
 _atom_site_label
 _atom_site_symmetry_multiplicity
 _atom_site_fract_x
 _atom_site_fract_y
 _atom_site_fract_z
 _atom_site_occupancy
  U  U0  1  0.499322  0.500678  0.500000  1
  U  U1  1  0.000956  0.999044  0.500000  1
  U  U2  1  0.499287  0.999361  0.998630  1
  U  U3  1  0.000639  0.500713  0.001370  1
  Fe  Fe4  1  0.750170  0.249830  0.500000  1
  Fe  Fe5  1  0.503016  0.253284  0.750032  1
  Fe  Fe6  1  0.503321  0.753042  0.249942  1
  Fe  Fe7  1  0.246958  0.496679  0.750058  1
  Fe  Fe8  1  0.746716  0.496984  0.249968  1
  Re  Re9  1  0.249703  0.750297  0.500000  1
  Re  Re10  1  0.000032  0.999968  0.000000  1
  Si  Si11  1  0.328304  0.328312  0.000034  1
  Si  Si12  1  0.992694  0.314228  0.321250  1
  Si  Si13  1  0.992858  0.671435  0.678639  1
  Si  Si14  1  0.685772  0.007306  0.678750  1
  Si  Si15  1  0.328565  0.007142  0.321361  1
  Si  Si16  1  0.671688  0.671696  0.999966  1
