# generated using pymatgen
data_Rb4Sn(TeSe)2
_symmetry_space_group_name_H-M   'P 1'
_cell_length_a   8.89831700
_cell_length_b   11.12362100
_cell_length_c   15.90769000
_cell_angle_alpha   90.00000000
_cell_angle_beta   90.00000000
_cell_angle_gamma   90.00000000
_symmetry_Int_Tables_number   1
_chemical_formula_structural   Rb4Sn(TeSe)2
_chemical_formula_sum   'Rb16 Sn4 Te8 Se8'
_cell_volume   1574.56711073
_cell_formula_units_Z   4
loop_
 _symmetry_equiv_pos_site_id
 _symmetry_equiv_pos_as_xyz
  1  'x, y, z'
loop_
 _atom_site_type_symbol
 _atom_site_label
 _atom_site_symmetry_multiplicity
 _atom_site_fract_x
 _atom_site_fract_y
 _atom_site_fract_z
 _atom_site_occupancy
  Rb  Rb0  1  0.500000  0.500000  0.500000  1
  Rb  Rb1  1  0.145876  0.461776  0.271773  1
  Rb  Rb2  1  0.145876  0.038224  0.271773  1
  Rb  Rb3  1  0.986184  0.750000  0.434922  1
  Rb  Rb4  1  0.013816  0.250000  0.565078  1
  Rb  Rb5  1  0.645876  0.961776  0.228227  1
  Rb  Rb6  1  0.354124  0.038224  0.771773  1
  Rb  Rb7  1  0.854124  0.961776  0.728227  1
  Rb  Rb8  1  0.354124  0.461776  0.771773  1
  Rb  Rb9  1  0.000000  0.500000  0.000000  1
  Rb  Rb10  1  0.486184  0.250000  0.065078  1
  Rb  Rb11  1  0.645876  0.538224  0.228227  1
  Rb  Rb12  1  0.513816  0.750000  0.934922  1
  Rb  Rb13  1  0.000000  0.000000  0.000000  1
  Rb  Rb14  1  0.854124  0.538224  0.728227  1
  Rb  Rb15  1  0.500000  0.000000  0.500000  1
  Sn  Sn16  1  0.735485  0.250000  0.838988  1
  Sn  Sn17  1  0.764515  0.250000  0.338988  1
  Sn  Sn18  1  0.235485  0.750000  0.661012  1
  Sn  Sn19  1  0.264515  0.750000  0.161012  1
  Te  Te20  1  0.550929  0.750000  0.667843  1
  Te  Te21  1  0.449071  0.250000  0.332157  1
  Te  Te22  1  0.367844  0.750000  0.328707  1
  Te  Te23  1  0.132156  0.750000  0.828707  1
  Te  Te24  1  0.050929  0.250000  0.832157  1
  Te  Te25  1  0.949071  0.750000  0.167843  1
  Te  Te26  1  0.632156  0.250000  0.671293  1
  Te  Te27  1  0.867844  0.250000  0.171293  1
  Se  Se28  1  0.853716  0.440212  0.414183  1
  Se  Se29  1  0.646284  0.059788  0.914183  1
  Se  Se30  1  0.353716  0.940212  0.085817  1
  Se  Se31  1  0.353716  0.559788  0.085817  1
  Se  Se32  1  0.146284  0.559788  0.585817  1
  Se  Se33  1  0.853716  0.059788  0.414183  1
  Se  Se34  1  0.146284  0.940212  0.585817  1
  Se  Se35  1  0.646284  0.440212  0.914183  1
