# generated using pymatgen
data_Rb3TeAuO6
_symmetry_space_group_name_H-M   'P 1'
_cell_length_a   7.57914499
_cell_length_b   7.57914396
_cell_length_c   7.55864500
_cell_angle_alpha   84.86604025
_cell_angle_beta   84.86604095
_cell_angle_gamma   96.93430151
_symmetry_Int_Tables_number   1
_chemical_formula_structural   Rb3TeAuO6
_chemical_formula_sum   'Rb6 Te2 Au2 O12'
_cell_volume   427.07515078
_cell_formula_units_Z   2
loop_
 _symmetry_equiv_pos_site_id
 _symmetry_equiv_pos_as_xyz
  1  'x, y, z'
loop_
 _atom_site_type_symbol
 _atom_site_label
 _atom_site_symmetry_multiplicity
 _atom_site_fract_x
 _atom_site_fract_y
 _atom_site_fract_z
 _atom_site_occupancy
  Rb  Rb0  1  0.074570  0.925430  0.750000  1
  Rb  Rb1  1  0.925430  0.074570  0.250000  1
  Rb  Rb2  1  0.763239  0.597337  0.114546  1
  Rb  Rb3  1  0.402663  0.236761  0.385454  1
  Rb  Rb4  1  0.236761  0.402663  0.885454  1
  Rb  Rb5  1  0.597337  0.763239  0.614546  1
  Te  Te6  1  0.000000  0.500000  0.500000  1
  Te  Te7  1  0.500000  0.000000  0.000000  1
  Au  Au8  1  0.693354  0.306646  0.750000  1
  Au  Au9  1  0.306646  0.693354  0.250000  1
  O  O10  1  0.248277  0.627424  0.519480  1
  O  O11  1  0.372576  0.751723  0.980520  1
  O  O12  1  0.751723  0.372576  0.480520  1
  O  O13  1  0.627424  0.248277  0.019480  1
  O  O14  1  0.075085  0.275057  0.566689  1
  O  O15  1  0.724943  0.924915  0.933311  1
  O  O16  1  0.924915  0.724943  0.433311  1
  O  O17  1  0.275057  0.075085  0.066689  1
  O  O18  1  0.103410  0.490536  0.243451  1
  O  O19  1  0.509464  0.896590  0.256549  1
  O  O20  1  0.490536  0.103410  0.743451  1
  O  O21  1  0.896590  0.509464  0.756549  1
