# generated using pymatgen
data_ThGaCu5
_symmetry_space_group_name_H-M   'P 1'
_cell_length_a   5.11717600
_cell_length_b   8.13923200
_cell_length_c   10.31098900
_cell_angle_alpha   90.00000000
_cell_angle_beta   90.00000000
_cell_angle_gamma   90.00000000
_symmetry_Int_Tables_number   1
_chemical_formula_structural   ThGaCu5
_chemical_formula_sum   'Th4 Ga4 Cu20'
_cell_volume   429.45148184
_cell_formula_units_Z   4
loop_
 _symmetry_equiv_pos_site_id
 _symmetry_equiv_pos_as_xyz
  1  'x, y, z'
loop_
 _atom_site_type_symbol
 _atom_site_label
 _atom_site_symmetry_multiplicity
 _atom_site_fract_x
 _atom_site_fract_y
 _atom_site_fract_z
 _atom_site_occupancy
  Th  Th0  1  0.250000  0.259303  0.558565  1
  Th  Th1  1  0.750000  0.740697  0.441435  1
  Th  Th2  1  0.250000  0.759303  0.941435  1
  Th  Th3  1  0.750000  0.240697  0.058565  1
  Ga  Ga4  1  0.750000  0.353458  0.358419  1
  Ga  Ga5  1  0.250000  0.646542  0.641581  1
  Ga  Ga6  1  0.750000  0.853458  0.141581  1
  Ga  Ga7  1  0.250000  0.146542  0.858419  1
  Cu  Cu8  1  0.505165  0.565172  0.192338  1
  Cu  Cu9  1  0.005165  0.434828  0.807662  1
  Cu  Cu10  1  0.994835  0.065172  0.307662  1
  Cu  Cu11  1  0.494835  0.934828  0.692338  1
  Cu  Cu12  1  0.750000  0.679882  0.745818  1
  Cu  Cu13  1  0.250000  0.320118  0.254182  1
  Cu  Cu14  1  0.750000  0.179882  0.754182  1
  Cu  Cu15  1  0.250000  0.820118  0.245818  1
  Cu  Cu16  1  0.750000  0.930523  0.903561  1
  Cu  Cu17  1  0.250000  0.069477  0.096439  1
  Cu  Cu18  1  0.750000  0.430523  0.596439  1
  Cu  Cu19  1  0.250000  0.569477  0.403561  1
  Cu  Cu20  1  0.750000  0.591058  0.984239  1
  Cu  Cu21  1  0.250000  0.408942  0.015761  1
  Cu  Cu22  1  0.750000  0.091058  0.515761  1
  Cu  Cu23  1  0.250000  0.908942  0.484239  1
  Cu  Cu24  1  0.505165  0.065172  0.307662  1
  Cu  Cu25  1  0.005165  0.934828  0.692338  1
  Cu  Cu26  1  0.994835  0.565172  0.192338  1
  Cu  Cu27  1  0.494835  0.434828  0.807662  1
