# generated using pymatgen
data_Tb2Yb3Y(Si3Ru)8
_symmetry_space_group_name_H-M   'P 1'
_cell_length_a   10.15616908
_cell_length_b   10.15616886
_cell_length_c   8.14091402
_cell_angle_alpha   89.99878896
_cell_angle_beta   89.99879948
_cell_angle_gamma   132.74439879
_symmetry_Int_Tables_number   1
_chemical_formula_structural   Tb2Yb3Y(Si3Ru)8
_chemical_formula_sum   'Tb2 Yb3 Y1 Si24 Ru8'
_cell_volume   616.67889542
_cell_formula_units_Z   1
loop_
 _symmetry_equiv_pos_site_id
 _symmetry_equiv_pos_as_xyz
  1  'x, y, z'
loop_
 _atom_site_type_symbol
 _atom_site_label
 _atom_site_symmetry_multiplicity
 _atom_site_fract_x
 _atom_site_fract_y
 _atom_site_fract_z
 _atom_site_occupancy
  Tb  Tb0  1  0.498523  0.998510  0.250268  1
  Tb  Tb1  1  0.001490  0.501477  0.749732  1
  Yb  Yb2  1  0.499941  0.500059  0.500000  1
  Yb  Yb3  1  0.501020  0.000980  0.749776  1
  Yb  Yb4  1  0.999020  0.498980  0.250224  1
  Y  Y5  1  0.000079  0.999921  0.000000  1
  Si  Si6  1  0.795017  0.204983  0.500000  1
  Si  Si7  1  0.294530  0.705470  0.000000  1
  Si  Si8  1  0.205346  0.794654  0.500000  1
  Si  Si9  1  0.705128  0.294872  0.000000  1
  Si  Si10  1  0.333059  0.337668  0.830987  1
  Si  Si11  1  0.662332  0.666941  0.169013  1
  Si  Si12  1  0.169676  0.165115  0.333848  1
  Si  Si13  1  0.834885  0.830324  0.666152  1
  Si  Si14  1  0.123309  0.889365  0.728071  1
  Si  Si15  1  0.110635  0.876691  0.271929  1
  Si  Si16  1  0.609486  0.376830  0.229710  1
  Si  Si17  1  0.623170  0.390514  0.770290  1
  Si  Si18  1  0.876308  0.110032  0.272035  1
  Si  Si19  1  0.889968  0.123692  0.727965  1
  Si  Si20  1  0.390014  0.623057  0.770099  1
  Si  Si21  1  0.376943  0.609986  0.229901  1
  Si  Si22  1  0.346505  0.113153  0.506208  1
  Si  Si23  1  0.886847  0.653495  0.493792  1
  Si  Si24  1  0.389164  0.155180  0.006313  1
  Si  Si25  1  0.844820  0.610836  0.993687  1
  Si  Si26  1  0.653661  0.886511  0.493240  1
  Si  Si27  1  0.113489  0.346339  0.506760  1
  Si  Si28  1  0.610540  0.844906  0.994600  1
  Si  Si29  1  0.155094  0.389460  0.005400  1
  Ru  Ru30  1  0.670676  0.329324  0.500000  1
  Ru  Ru31  1  0.169323  0.830677  0.000000  1
  Ru  Ru32  1  0.329937  0.670063  0.500000  1
  Ru  Ru33  1  0.830069  0.169931  0.000000  1
  Ru  Ru34  1  0.125731  0.126491  0.626490  1
  Ru  Ru35  1  0.873509  0.874269  0.373510  1
  Ru  Ru36  1  0.372021  0.371263  0.124239  1
  Ru  Ru37  1  0.628737  0.627979  0.875761  1
