# generated using pymatgen
data_Sr2ZnNiBr
_symmetry_space_group_name_H-M   'P 1'
_cell_length_a   4.24049700
_cell_length_b   4.24049851
_cell_length_c   18.15384900
_cell_angle_alpha   90.00000000
_cell_angle_beta   90.00000000
_cell_angle_gamma   120.00001165
_symmetry_Int_Tables_number   1
_chemical_formula_structural   Sr2ZnNiBr
_chemical_formula_sum   'Sr4 Zn2 Ni2 Br2'
_cell_volume   282.70466457
_cell_formula_units_Z   2
loop_
 _symmetry_equiv_pos_site_id
 _symmetry_equiv_pos_as_xyz
  1  'x, y, z'
loop_
 _atom_site_type_symbol
 _atom_site_label
 _atom_site_symmetry_multiplicity
 _atom_site_fract_x
 _atom_site_fract_y
 _atom_site_fract_z
 _atom_site_occupancy
  Sr  Sr0  1  0.000000  0.000000  0.385048  1
  Sr  Sr1  1  0.000000  0.000000  0.885048  1
  Sr  Sr2  1  0.000000  0.000000  0.614681  1
  Sr  Sr3  1  0.000000  0.000000  0.114681  1
  Zn  Zn4  1  0.666667  0.333333  0.499367  1
  Zn  Zn5  1  0.333333  0.666667  0.999367  1
  Ni  Ni6  1  0.333333  0.666667  0.500665  1
  Ni  Ni7  1  0.666667  0.333333  0.000665  1
  Br  Br8  1  0.333333  0.666667  0.250238  1
  Br  Br9  1  0.666667  0.333333  0.750238  1
