# generated using pymatgen
data_LiDy5Y11Cd3Pt4
_symmetry_space_group_name_H-M   'P 1'
_cell_length_a   9.71114086
_cell_length_b   9.72399252
_cell_length_c   9.72399294
_cell_angle_alpha   59.91908173
_cell_angle_beta   59.95786033
_cell_angle_gamma   59.95785476
_symmetry_Int_Tables_number   1
_chemical_formula_structural   LiDy5Y11Cd3Pt4
_chemical_formula_sum   'Li1 Dy5 Y11 Cd3 Pt4'
_cell_volume   648.48751716
_cell_formula_units_Z   1
loop_
 _symmetry_equiv_pos_site_id
 _symmetry_equiv_pos_as_xyz
  1  'x, y, z'
loop_
 _atom_site_type_symbol
 _atom_site_label
 _atom_site_symmetry_multiplicity
 _atom_site_fract_x
 _atom_site_fract_y
 _atom_site_fract_z
 _atom_site_occupancy
  Li  Li0  1  0.571424  0.571319  0.571319  1
  Dy  Dy1  1  0.351126  0.351240  0.351240  1
  Dy  Dy2  1  0.352032  0.351832  0.945322  1
  Dy  Dy3  1  0.352032  0.945322  0.351832  1
  Dy  Dy4  1  0.944720  0.352125  0.352125  1
  Dy  Dy5  1  0.809959  0.191959  0.191959  1
  Y  Y6  1  0.188430  0.812068  0.812068  1
  Y  Y7  1  0.192264  0.809355  0.192352  1
  Y  Y8  1  0.812227  0.188314  0.812015  1
  Y  Y9  1  0.192264  0.192352  0.809355  1
  Y  Y10  1  0.812227  0.812015  0.188314  1
  Y  Y11  1  0.936726  0.564580  0.564580  1
  Y  Y12  1  0.563452  0.936287  0.936287  1
  Y  Y13  1  0.564770  0.937196  0.564207  1
  Y  Y14  1  0.936533  0.562967  0.936551  1
  Y  Y15  1  0.564770  0.564207  0.937196  1
  Y  Y16  1  0.936533  0.936551  0.562967  1
  Cd  Cd17  1  0.582200  0.582490  0.253816  1
  Cd  Cd18  1  0.582200  0.253816  0.582490  1
  Cd  Cd19  1  0.253710  0.582274  0.582274  1
  Pt  Pt20  1  0.143084  0.144969  0.144969  1
  Pt  Pt21  1  0.143561  0.143422  0.569403  1
  Pt  Pt22  1  0.143561  0.569403  0.143422  1
  Pt  Pt23  1  0.570192  0.143939  0.143939  1
