# generated using pymatgen
data_Ho4Lu4Fe(B8W)3
_symmetry_space_group_name_H-M   'P 1'
_cell_length_a   3.54585100
_cell_length_b   9.19588044
_cell_length_c   11.59749462
_cell_angle_alpha   90.15514981
_cell_angle_beta   90.00000000
_cell_angle_gamma   90.00000000
_symmetry_Int_Tables_number   1
_chemical_formula_structural   Ho4Lu4Fe(B8W)3
_chemical_formula_sum   'Ho4 Lu4 Fe1 B24 W3'
_cell_volume   378.16069343
_cell_formula_units_Z   1
loop_
 _symmetry_equiv_pos_site_id
 _symmetry_equiv_pos_as_xyz
  1  'x, y, z'
loop_
 _atom_site_type_symbol
 _atom_site_label
 _atom_site_symmetry_multiplicity
 _atom_site_fract_x
 _atom_site_fract_y
 _atom_site_fract_z
 _atom_site_occupancy
  Ho  Ho0  1  0.000000  0.820933  0.086288  1
  Ho  Ho1  1  0.000000  0.178819  0.913778  1
  Ho  Ho2  1  0.000000  0.321489  0.416257  1
  Ho  Ho3  1  0.000000  0.676420  0.586797  1
  Lu  Lu4  1  0.000000  0.444368  0.126484  1
  Lu  Lu5  1  0.000000  0.552364  0.868098  1
  Lu  Lu6  1  0.000000  0.945641  0.373832  1
  Lu  Lu7  1  0.000000  0.061634  0.629412  1
  Fe  Fe8  1  0.000000  0.360197  0.680433  1
  B  B9  1  0.500000  0.051398  0.064877  1
  B  B10  1  0.500000  0.948301  0.934010  1
  B  B11  1  0.500000  0.549932  0.437132  1
  B  B12  1  0.500000  0.443276  0.570020  1
  B  B13  1  0.500000  0.252732  0.077506  1
  B  B14  1  0.500000  0.745833  0.920307  1
  B  B15  1  0.500000  0.753946  0.422786  1
  B  B16  1  0.500000  0.253048  0.583944  1
  B  B17  1  0.500000  0.296250  0.235582  1
  B  B18  1  0.500000  0.702388  0.762030  1
  B  B19  1  0.500000  0.795614  0.264532  1
  B  B20  1  0.500000  0.211205  0.733773  1
  B  B21  1  0.500000  0.132018  0.318396  1
  B  B22  1  0.500000  0.869814  0.681072  1
  B  B23  1  0.500000  0.630233  0.182606  1
  B  B24  1  0.500000  0.368686  0.812746  1
  B  B25  1  0.500000  0.477732  0.286826  1
  B  B26  1  0.500000  0.512441  0.711592  1
  B  B27  1  0.500000  0.978196  0.214266  1
  B  B28  1  0.500000  0.023506  0.786353  1
  B  B29  1  0.500000  0.102986  0.474155  1
  B  B30  1  0.500000  0.902419  0.528467  1
  B  B31  1  0.500000  0.599197  0.026023  1
  B  B32  1  0.500000  0.398767  0.969703  1
  W  W33  1  0.000000  0.139523  0.180064  1
  W  W34  1  0.000000  0.859797  0.818349  1
  W  W35  1  0.000000  0.638896  0.321504  1
