# generated using pymatgen
data_Tb(HoCu6)2
_symmetry_space_group_name_H-M   'P 1'
_cell_length_a   5.04529006
_cell_length_b   5.04528985
_cell_length_c   10.62364100
_cell_angle_alpha   94.78280356
_cell_angle_beta   94.78280337
_cell_angle_gamma   119.97293905
_symmetry_Int_Tables_number   1
_chemical_formula_structural   Tb(HoCu6)2
_chemical_formula_sum   'Tb1 Ho2 Cu12'
_cell_volume   230.98071605
_cell_formula_units_Z   1
loop_
 _symmetry_equiv_pos_site_id
 _symmetry_equiv_pos_as_xyz
  1  'x, y, z'
loop_
 _atom_site_type_symbol
 _atom_site_label
 _atom_site_symmetry_multiplicity
 _atom_site_fract_x
 _atom_site_fract_y
 _atom_site_fract_z
 _atom_site_occupancy
  Tb  Tb0  1  0.000000  0.000000  0.000000  1
  Ho  Ho1  1  0.134380  0.134380  0.358212  1
  Ho  Ho2  1  0.865620  0.865620  0.641788  1
  Cu  Cu3  1  0.662745  0.337256  0.000000  1
  Cu  Cu4  1  0.337256  0.662745  0.000000  1
  Cu  Cu5  1  0.568768  0.067758  0.196277  1
  Cu  Cu6  1  0.067758  0.568768  0.196277  1
  Cu  Cu7  1  0.571571  0.571571  0.202912  1
  Cu  Cu8  1  0.809591  0.472377  0.405666  1
  Cu  Cu9  1  0.472377  0.809591  0.405666  1
  Cu  Cu10  1  0.527625  0.190410  0.594334  1
  Cu  Cu11  1  0.190410  0.527625  0.594334  1
  Cu  Cu12  1  0.428428  0.428428  0.797088  1
  Cu  Cu13  1  0.932241  0.431231  0.803724  1
  Cu  Cu14  1  0.431231  0.932241  0.803724  1
