# generated using pymatgen
data_SmFeCoO5
_symmetry_space_group_name_H-M   'P 1'
_cell_length_a   5.78116200
_cell_length_b   7.45044500
_cell_length_c   8.63137000
_cell_angle_alpha   90.00000000
_cell_angle_beta   90.00000000
_cell_angle_gamma   90.00000000
_symmetry_Int_Tables_number   1
_chemical_formula_structural   SmFeCoO5
_chemical_formula_sum   'Sm4 Fe4 Co4 O20'
_cell_volume   371.77234969
_cell_formula_units_Z   4
loop_
 _symmetry_equiv_pos_site_id
 _symmetry_equiv_pos_as_xyz
  1  'x, y, z'
loop_
 _atom_site_type_symbol
 _atom_site_label
 _atom_site_symmetry_multiplicity
 _atom_site_fract_x
 _atom_site_fract_y
 _atom_site_fract_z
 _atom_site_occupancy
  Sm  Sm0  1  0.000000  0.637464  0.328472  1
  Sm  Sm1  1  0.000000  0.362536  0.671528  1
  Sm  Sm2  1  0.000000  0.137464  0.171528  1
  Sm  Sm3  1  0.000000  0.862536  0.828472  1
  Fe  Fe4  1  0.500000  0.888439  0.144339  1
  Fe  Fe5  1  0.500000  0.111561  0.855661  1
  Fe  Fe6  1  0.500000  0.388439  0.355661  1
  Fe  Fe7  1  0.500000  0.611561  0.644339  1
  Co  Co8  1  0.251612  0.500000  0.000000  1
  Co  Co9  1  0.748388  0.000000  0.500000  1
  Co  Co10  1  0.748388  0.500000  0.000000  1
  Co  Co11  1  0.251612  0.000000  0.500000  1
  O  O12  1  0.000000  0.655364  0.052348  1
  O  O13  1  0.000000  0.344636  0.947652  1
  O  O14  1  0.000000  0.155364  0.447652  1
  O  O15  1  0.000000  0.844636  0.552348  1
  O  O16  1  0.268952  0.500000  0.500000  1
  O  O17  1  0.731048  0.000000  0.000000  1
  O  O18  1  0.731048  0.500000  0.500000  1
  O  O19  1  0.268952  0.000000  0.000000  1
  O  O20  1  0.500000  0.649077  0.063574  1
  O  O21  1  0.500000  0.350923  0.936426  1
  O  O22  1  0.500000  0.149077  0.436426  1
  O  O23  1  0.500000  0.850923  0.563574  1
  O  O24  1  0.245485  0.901364  0.297216  1
  O  O25  1  0.245485  0.098636  0.702784  1
  O  O26  1  0.754515  0.401364  0.202784  1
  O  O27  1  0.754515  0.598636  0.797216  1
  O  O28  1  0.754515  0.098636  0.702784  1
  O  O29  1  0.754515  0.901364  0.297216  1
  O  O30  1  0.245485  0.598636  0.797216  1
  O  O31  1  0.245485  0.401364  0.202784  1
