# generated using pymatgen
data_DyHo(NiIr)2
_symmetry_space_group_name_H-M   'P 1'
_cell_length_a   5.20253768
_cell_length_b   5.20253741
_cell_length_c   5.04887400
_cell_angle_alpha   60.97233446
_cell_angle_beta   60.97233608
_cell_angle_gamma   62.25787620
_symmetry_Int_Tables_number   1
_chemical_formula_structural   DyHo(NiIr)2
_chemical_formula_sum   'Dy1 Ho1 Ni2 Ir2'
_cell_volume   99.63786632
_cell_formula_units_Z   1
loop_
 _symmetry_equiv_pos_site_id
 _symmetry_equiv_pos_as_xyz
  1  'x, y, z'
loop_
 _atom_site_type_symbol
 _atom_site_label
 _atom_site_symmetry_multiplicity
 _atom_site_fract_x
 _atom_site_fract_y
 _atom_site_fract_z
 _atom_site_occupancy
  Dy  Dy0  1  0.002684  0.002684  0.997316  1
  Ho  Ho1  1  0.747144  0.747144  0.752856  1
  Ni  Ni2  1  0.375232  0.375232  0.374449  1
  Ni  Ni3  1  0.375232  0.375232  0.875091  1
  Ir  Ir4  1  0.874674  0.375038  0.375145  1
  Ir  Ir5  1  0.375038  0.874674  0.375145  1
