# generated using pymatgen
data_MnCr(NiP)2
_symmetry_space_group_name_H-M   'P 1'
_cell_length_a   3.49214400
_cell_length_b   5.80645700
_cell_length_c   6.77405700
_cell_angle_alpha   90.00000000
_cell_angle_beta   90.00000000
_cell_angle_gamma   90.00000000
_symmetry_Int_Tables_number   1
_chemical_formula_structural   MnCr(NiP)2
_chemical_formula_sum   'Mn2 Cr2 Ni4 P4'
_cell_volume   137.35744523
_cell_formula_units_Z   2
loop_
 _symmetry_equiv_pos_site_id
 _symmetry_equiv_pos_as_xyz
  1  'x, y, z'
loop_
 _atom_site_type_symbol
 _atom_site_label
 _atom_site_symmetry_multiplicity
 _atom_site_fract_x
 _atom_site_fract_y
 _atom_site_fract_z
 _atom_site_occupancy
  Mn  Mn0  1  0.750000  0.467188  0.164978  1
  Mn  Mn1  1  0.750000  0.967188  0.335022  1
  Cr  Cr2  1  0.250000  0.531217  0.833152  1
  Cr  Cr3  1  0.250000  0.031217  0.666848  1
  Ni  Ni4  1  0.750000  0.360576  0.562522  1
  Ni  Ni5  1  0.750000  0.860576  0.937478  1
  Ni  Ni6  1  0.250000  0.641691  0.435198  1
  Ni  Ni7  1  0.250000  0.141691  0.064802  1
  P  P8  1  0.750000  0.241903  0.871064  1
  P  P9  1  0.750000  0.741903  0.628936  1
  P  P10  1  0.250000  0.757425  0.126604  1
  P  P11  1  0.250000  0.257425  0.373396  1
