# generated using pymatgen
data_U4Re6Si2Ge4Mo
_symmetry_space_group_name_H-M   'P 1'
_cell_length_a   7.23488720
_cell_length_b   7.23809297
_cell_length_c   7.23809389
_cell_angle_alpha   109.33807757
_cell_angle_beta   109.54683893
_cell_angle_gamma   109.54685010
_symmetry_Int_Tables_number   1
_chemical_formula_structural   U4Re6Si2Ge4Mo
_chemical_formula_sum   'U4 Re6 Si2 Ge4 Mo1'
_cell_volume   291.71564885
_cell_formula_units_Z   1
loop_
 _symmetry_equiv_pos_site_id
 _symmetry_equiv_pos_as_xyz
  1  'x, y, z'
loop_
 _atom_site_type_symbol
 _atom_site_label
 _atom_site_symmetry_multiplicity
 _atom_site_fract_x
 _atom_site_fract_y
 _atom_site_fract_z
 _atom_site_occupancy
  U  U0  1  0.500000  0.498115  0.501885  1
  U  U1  1  0.000000  0.998182  0.489937  1
  U  U2  1  0.500000  0.998115  0.001885  1
  U  U3  1  0.000000  0.510063  0.001818  1
  Re  Re4  1  0.748591  0.250423  0.498169  1
  Re  Re5  1  0.500000  0.251690  0.748310  1
  Re  Re6  1  0.500000  0.751690  0.248310  1
  Re  Re7  1  0.251409  0.501831  0.749577  1
  Re  Re8  1  0.748595  0.501811  0.246784  1
  Re  Re9  1  0.251405  0.753216  0.498189  1
  Si  Si10  1  0.317749  0.001564  0.316184  1
  Si  Si11  1  0.682251  0.683816  0.998436  1
  Ge  Ge12  1  0.301473  0.303381  0.998092  1
  Ge  Ge13  1  0.000000  0.309903  0.306036  1
  Ge  Ge14  1  0.000000  0.693964  0.690097  1
  Ge  Ge15  1  0.698527  0.001908  0.696619  1
  Mo  Mo16  1  0.000000  0.990326  0.009674  1
