# generated using pymatgen
data_DyEr3Ga4Co3Ni
_symmetry_space_group_name_H-M   'P 1'
_cell_length_a   4.39034400
_cell_length_b   6.91131397
_cell_length_c   6.94887904
_cell_angle_alpha   90.21627554
_cell_angle_beta   90.00000000
_cell_angle_gamma   90.00000000
_symmetry_Int_Tables_number   1
_chemical_formula_structural   DyEr3Ga4Co3Ni
_chemical_formula_sum   'Dy1 Er3 Ga4 Co3 Ni1'
_cell_volume   210.84865312
_cell_formula_units_Z   1
loop_
 _symmetry_equiv_pos_site_id
 _symmetry_equiv_pos_as_xyz
  1  'x, y, z'
loop_
 _atom_site_type_symbol
 _atom_site_label
 _atom_site_symmetry_multiplicity
 _atom_site_fract_x
 _atom_site_fract_y
 _atom_site_fract_z
 _atom_site_occupancy
  Dy  Dy0  1  0.750000  0.805669  0.478372  1
  Er  Er1  1  0.250000  0.198475  0.517584  1
  Er  Er2  1  0.250000  0.306256  0.022738  1
  Er  Er3  1  0.750000  0.693000  0.980165  1
  Ga  Ga4  1  0.250000  0.895205  0.197261  1
  Ga  Ga5  1  0.750000  0.395296  0.303071  1
  Ga  Ga6  1  0.250000  0.600526  0.697419  1
  Ga  Ga7  1  0.750000  0.109779  0.805529  1
  Co  Co8  1  0.250000  0.563319  0.343026  1
  Co  Co9  1  0.750000  0.063568  0.155902  1
  Co  Co10  1  0.750000  0.434843  0.657364  1
  Ni  Ni11  1  0.250000  0.934062  0.841569  1
