# generated using pymatgen
data_Y6Er2CdCo2Ag
_symmetry_space_group_name_H-M   'P 1'
_cell_length_a   9.48309772
_cell_length_b   9.48309719
_cell_length_c   9.49610500
_cell_angle_alpha   59.95462517
_cell_angle_beta   59.95462700
_cell_angle_gamma   59.95852044
_symmetry_Int_Tables_number   1
_chemical_formula_structural   Y6Er2CdCo2Ag
_chemical_formula_sum   'Y12 Er4 Cd2 Co4 Ag2'
_cell_volume   603.24899198
_cell_formula_units_Z   2
loop_
 _symmetry_equiv_pos_site_id
 _symmetry_equiv_pos_as_xyz
  1  'x, y, z'
loop_
 _atom_site_type_symbol
 _atom_site_label
 _atom_site_symmetry_multiplicity
 _atom_site_fract_x
 _atom_site_fract_y
 _atom_site_fract_z
 _atom_site_occupancy
  Y  Y0  1  0.060932  0.437368  0.439981  1
  Y  Y1  1  0.437368  0.060932  0.061718  1
  Y  Y2  1  0.437368  0.060932  0.439981  1
  Y  Y3  1  0.060932  0.437368  0.061718  1
  Y  Y4  1  0.438757  0.438757  0.061243  1
  Y  Y5  1  0.059990  0.059990  0.440010  1
  Y  Y6  1  0.185788  0.811209  0.812758  1
  Y  Y7  1  0.811209  0.185788  0.190244  1
  Y  Y8  1  0.811209  0.185788  0.812758  1
  Y  Y9  1  0.185788  0.811209  0.190244  1
  Y  Y10  1  0.809960  0.809960  0.190040  1
  Y  Y11  1  0.186918  0.186918  0.813082  1
  Er  Er12  1  0.595955  0.595955  0.595404  1
  Er  Er13  1  0.595955  0.595955  0.212688  1
  Er  Er14  1  0.595978  0.212652  0.595686  1
  Er  Er15  1  0.212652  0.595978  0.595686  1
  Cd  Cd16  1  0.831553  0.512759  0.827843  1
  Cd  Cd17  1  0.512759  0.831553  0.827843  1
  Co  Co18  1  0.393266  0.393266  0.390297  1
  Co  Co19  1  0.393266  0.393266  0.823174  1
  Co  Co20  1  0.393727  0.823848  0.391212  1
  Co  Co21  1  0.823848  0.393727  0.391212  1
  Ag  Ag22  1  0.832411  0.832411  0.830391  1
  Ag  Ag23  1  0.832411  0.832411  0.504787  1
