# generated using pymatgen
data_Y12Co4BiRu
_symmetry_space_group_name_H-M   'P 1'
_cell_length_a   8.37557065
_cell_length_b   8.37557121
_cell_length_c   8.37557080
_cell_angle_alpha   110.47930271
_cell_angle_beta   111.38114239
_cell_angle_gamma   106.59236501
_symmetry_Int_Tables_number   1
_chemical_formula_structural   Y12Co4BiRu
_chemical_formula_sum   'Y12 Co4 Bi1 Ru1'
_cell_volume   451.41409560
_cell_formula_units_Z   1
loop_
 _symmetry_equiv_pos_site_id
 _symmetry_equiv_pos_as_xyz
  1  'x, y, z'
loop_
 _atom_site_type_symbol
 _atom_site_label
 _atom_site_symmetry_multiplicity
 _atom_site_fract_x
 _atom_site_fract_y
 _atom_site_fract_z
 _atom_site_occupancy
  Y  Y0  1  0.287663  0.183414  0.471078  1
  Y  Y1  1  0.712337  0.816586  0.528922  1
  Y  Y2  1  0.287663  0.816586  0.104250  1
  Y  Y3  1  0.712337  0.183414  0.895750  1
  Y  Y4  1  0.618693  0.310809  0.307883  1
  Y  Y5  1  0.381307  0.689191  0.692117  1
  Y  Y6  1  0.002926  0.310809  0.692117  1
  Y  Y7  1  0.997074  0.689191  0.307883  1
  Y  Y8  1  0.209660  0.405279  0.195619  1
  Y  Y9  1  0.790340  0.594721  0.804381  1
  Y  Y10  1  0.209660  0.014042  0.804381  1
  Y  Y11  1  0.790340  0.985958  0.195619  1
  Co  Co12  1  0.000000  0.380389  0.380389  1
  Co  Co13  1  0.000000  0.619611  0.619611  1
  Co  Co14  1  0.390337  0.890337  0.500000  1
  Co  Co15  1  0.609663  0.109663  0.500000  1
  Bi  Bi16  1  0.500000  0.500000  0.000000  1
  Ru  Ru17  1  0.000000  0.000000  0.000000  1
