# generated using pymatgen
data_Nd2SmNi5Sb5Pd
_symmetry_space_group_name_H-M   'P 1'
_cell_length_a   4.32612400
_cell_length_b   9.95206906
_cell_length_c   13.06213540
_cell_angle_alpha   89.94700230
_cell_angle_beta   90.00000000
_cell_angle_gamma   90.00000000
_symmetry_Int_Tables_number   1
_chemical_formula_structural   Nd2SmNi5Sb5Pd
_chemical_formula_sum   'Nd4 Sm2 Ni10 Sb10 Pd2'
_cell_volume   562.37543242
_cell_formula_units_Z   2
loop_
 _symmetry_equiv_pos_site_id
 _symmetry_equiv_pos_as_xyz
  1  'x, y, z'
loop_
 _atom_site_type_symbol
 _atom_site_label
 _atom_site_symmetry_multiplicity
 _atom_site_fract_x
 _atom_site_fract_y
 _atom_site_fract_z
 _atom_site_occupancy
  Nd  Nd0  1  0.000000  0.241344  0.000303  1
  Nd  Nd1  1  0.500000  0.758656  0.499697  1
  Nd  Nd2  1  0.000000  0.244373  0.675036  1
  Nd  Nd3  1  0.500000  0.755627  0.824964  1
  Sm  Sm4  1  0.000000  0.243931  0.324485  1
  Sm  Sm5  1  0.500000  0.756069  0.175515  1
  Ni  Ni6  1  0.000000  0.992946  0.160986  1
  Ni  Ni7  1  0.500000  0.007054  0.339014  1
  Ni  Ni8  1  0.000000  0.993134  0.839516  1
  Ni  Ni9  1  0.500000  0.006866  0.660484  1
  Ni  Ni10  1  0.500000  0.985631  0.000554  1
  Ni  Ni11  1  0.000000  0.014369  0.499446  1
  Ni  Ni12  1  0.000000  0.617525  0.320630  1
  Ni  Ni13  1  0.500000  0.382475  0.179370  1
  Ni  Ni14  1  0.000000  0.617239  0.678785  1
  Ni  Ni15  1  0.500000  0.382761  0.821215  1
  Sb  Sb16  1  0.000000  0.513305  0.139251  1
  Sb  Sb17  1  0.500000  0.486695  0.360749  1
  Sb  Sb18  1  0.000000  0.512274  0.860863  1
  Sb  Sb19  1  0.500000  0.487726  0.639137  1
  Sb  Sb20  1  0.000000  0.871497  0.335152  1
  Sb  Sb21  1  0.500000  0.128503  0.164848  1
  Sb  Sb22  1  0.000000  0.871977  0.664145  1
  Sb  Sb23  1  0.500000  0.128023  0.835855  1
  Sb  Sb24  1  0.000000  0.845287  0.000888  1
  Sb  Sb25  1  0.500000  0.154713  0.499112  1
  Pd  Pd26  1  0.500000  0.512678  0.000425  1
  Pd  Pd27  1  0.000000  0.487322  0.499575  1
