# generated using pymatgen
data_La3Nd5Se12
_symmetry_space_group_name_H-M   'P 1'
_cell_length_a   4.25248600
_cell_length_b   7.88735743
_cell_length_c   16.44576589
_cell_angle_alpha   89.96220969
_cell_angle_beta   90.00000000
_cell_angle_gamma   90.00000000
_symmetry_Int_Tables_number   1
_chemical_formula_structural   La3Nd5Se12
_chemical_formula_sum   'La3 Nd5 Se12'
_cell_volume   551.60529176
_cell_formula_units_Z   1
loop_
 _symmetry_equiv_pos_site_id
 _symmetry_equiv_pos_as_xyz
  1  'x, y, z'
loop_
 _atom_site_type_symbol
 _atom_site_label
 _atom_site_symmetry_multiplicity
 _atom_site_fract_x
 _atom_site_fract_y
 _atom_site_fract_z
 _atom_site_occupancy
  La  La0  1  0.499999  0.732486  0.042293  1
  La  La1  1  0.000000  0.142851  0.203554  1
  La  La2  1  0.000000  0.642562  0.296996  1
  Nd  Nd3  1  0.499999  0.233895  0.457265  1
  Nd  Nd4  1  0.000000  0.766302  0.544445  1
  Nd  Nd5  1  0.499999  0.356819  0.703785  1
  Nd  Nd6  1  0.499999  0.857605  0.794724  1
  Nd  Nd7  1  0.000000  0.264643  0.955282  1
  Se  Se8  1  0.499999  0.127592  0.065506  1
  Se  Se9  1  0.000000  0.505189  0.109314  1
  Se  Se10  1  0.499999  0.853893  0.219384  1
  Se  Se11  1  0.499999  0.352196  0.282473  1
  Se  Se12  1  0.000000  0.009130  0.392872  1
  Se  Se13  1  0.499999  0.624869  0.434985  1
  Se  Se14  1  0.000000  0.376033  0.567527  1
  Se  Se15  1  0.499999  0.992008  0.609419  1
  Se  Se16  1  0.000000  0.647037  0.718938  1
  Se  Se17  1  0.000000  0.147874  0.780735  1
  Se  Se18  1  0.499999  0.490783  0.889644  1
  Se  Se19  1  0.000000  0.876219  0.930856  1
