# generated using pymatgen
data_Lu12Mn(CdFe)2
_symmetry_space_group_name_H-M   'P 1'
_cell_length_a   8.17129684
_cell_length_b   8.17129749
_cell_length_c   8.17129704
_cell_angle_alpha   108.20489609
_cell_angle_beta   108.20489627
_cell_angle_gamma   112.03468102
_symmetry_Int_Tables_number   1
_chemical_formula_structural   Lu12Mn(CdFe)2
_chemical_formula_sum   'Lu12 Mn1 Cd2 Fe2'
_cell_volume   419.36813254
_cell_formula_units_Z   1
loop_
 _symmetry_equiv_pos_site_id
 _symmetry_equiv_pos_as_xyz
  1  'x, y, z'
loop_
 _atom_site_type_symbol
 _atom_site_label
 _atom_site_symmetry_multiplicity
 _atom_site_fract_x
 _atom_site_fract_y
 _atom_site_fract_z
 _atom_site_occupancy
  Lu  Lu0  1  0.307819  0.307819  0.616613  1
  Lu  Lu1  1  0.691206  0.691206  0.383387  1
  Lu  Lu2  1  0.691206  0.307819  0.000000  1
  Lu  Lu3  1  0.307819  0.691206  0.000000  1
  Lu  Lu4  1  0.190510  0.426856  0.236346  1
  Lu  Lu5  1  0.809419  0.573399  0.763979  1
  Lu  Lu6  1  0.190510  0.954164  0.763654  1
  Lu  Lu7  1  0.954164  0.190510  0.763654  1
  Lu  Lu8  1  0.809419  0.045441  0.236021  1
  Lu  Lu9  1  0.045441  0.809419  0.236021  1
  Lu  Lu10  1  0.426856  0.190510  0.236346  1
  Lu  Lu11  1  0.573399  0.809419  0.763979  1
  Mn  Mn12  1  0.383853  0.383853  0.000000  1
  Cd  Cd13  1  0.000001  0.500001  0.500000  1
  Cd  Cd14  1  0.500001  0.000001  0.500000  1
  Fe  Fe15  1  0.618335  0.618335  0.000000  1
  Fe  Fe16  1  0.000044  0.000044  0.000000  1
