# generated using pymatgen
data_La3Ce(ZrSe5)2
_symmetry_space_group_name_H-M   'P 1'
_cell_length_a   7.78381208
_cell_length_b   8.54960739
_cell_length_c   12.12577600
_cell_angle_alpha   90.00000000
_cell_angle_beta   90.00000000
_cell_angle_gamma   89.88327064
_symmetry_Int_Tables_number   1
_chemical_formula_structural   La3Ce(ZrSe5)2
_chemical_formula_sum   'La6 Ce2 Zr4 Se20'
_cell_volume   806.95098156
_cell_formula_units_Z   2
loop_
 _symmetry_equiv_pos_site_id
 _symmetry_equiv_pos_as_xyz
  1  'x, y, z'
loop_
 _atom_site_type_symbol
 _atom_site_label
 _atom_site_symmetry_multiplicity
 _atom_site_fract_x
 _atom_site_fract_y
 _atom_site_fract_z
 _atom_site_occupancy
  La  La0  1  0.451541  0.498777  0.174613  1
  La  La1  1  0.048459  0.001223  0.674613  1
  La  La2  1  0.548383  0.999057  0.825626  1
  La  La3  1  0.951617  0.500943  0.325626  1
  La  La4  1  0.548446  0.500853  0.825724  1
  La  La5  1  0.951554  0.999147  0.325724  1
  Ce  Ce6  1  0.452581  0.000988  0.174728  1
  Ce  Ce7  1  0.047419  0.499012  0.674728  1
  Zr  Zr8  1  0.922728  0.749976  0.009549  1
  Zr  Zr9  1  0.577272  0.750024  0.509549  1
  Zr  Zr10  1  0.077721  0.249983  0.990580  1
  Zr  Zr11  1  0.422279  0.250017  0.490580  1
  Se  Se12  1  0.149494  0.751037  0.187784  1
  Se  Se13  1  0.350506  0.748963  0.687784  1
  Se  Se14  1  0.852208  0.251107  0.811539  1
  Se  Se15  1  0.647792  0.248893  0.311539  1
  Se  Se16  1  0.667732  0.751534  0.291203  1
  Se  Se17  1  0.832268  0.748466  0.791203  1
  Se  Se18  1  0.330576  0.251473  0.708461  1
  Se  Se19  1  0.169424  0.248527  0.208461  1
  Se  Se20  1  0.553976  0.751494  0.005619  1
  Se  Se21  1  0.946024  0.748506  0.505619  1
  Se  Se22  1  0.445540  0.248818  0.995897  1
  Se  Se23  1  0.054460  0.251182  0.495897  1
  Se  Se24  1  0.827209  0.463656  0.078284  1
  Se  Se25  1  0.672791  0.036344  0.578284  1
  Se  Se26  1  0.172721  0.963299  0.921629  1
  Se  Se27  1  0.327279  0.536701  0.421629  1
  Se  Se28  1  0.172625  0.536338  0.920363  1
  Se  Se29  1  0.327375  0.963662  0.420363  1
  Se  Se30  1  0.825722  0.036618  0.078403  1
  Se  Se31  1  0.674278  0.463382  0.578403  1
