# generated using pymatgen
data_Cs6SmHoLu2Br18
_symmetry_space_group_name_H-M   'P 1'
_cell_length_a   10.47243166
_cell_length_b   10.47243081
_cell_length_c   10.47243157
_cell_angle_alpha   83.19425798
_cell_angle_beta   83.19426121
_cell_angle_gamma   83.19426788
_symmetry_Int_Tables_number   1
_chemical_formula_structural   Cs6SmHoLu2Br18
_chemical_formula_sum   'Cs6 Sm1 Ho1 Lu2 Br18'
_cell_volume   1126.02815702
_cell_formula_units_Z   1
loop_
 _symmetry_equiv_pos_site_id
 _symmetry_equiv_pos_as_xyz
  1  'x, y, z'
loop_
 _atom_site_type_symbol
 _atom_site_label
 _atom_site_symmetry_multiplicity
 _atom_site_fract_x
 _atom_site_fract_y
 _atom_site_fract_z
 _atom_site_occupancy
  Cs  Cs0  1  0.587651  0.912259  0.250420  1
  Cs  Cs1  1  0.250420  0.587651  0.912259  1
  Cs  Cs2  1  0.912259  0.250420  0.587651  1
  Cs  Cs3  1  0.749930  0.410873  0.088894  1
  Cs  Cs4  1  0.088894  0.749930  0.410873  1
  Cs  Cs5  1  0.410873  0.088894  0.749930  1
  Sm  Sm6  1  0.848590  0.848590  0.848590  1
  Ho  Ho7  1  0.652605  0.652605  0.652605  1
  Lu  Lu8  1  0.345140  0.345140  0.345140  1
  Lu  Lu9  1  0.154940  0.154940  0.154940  1
  Br  Br10  1  0.097400  0.402484  0.250022  1
  Br  Br11  1  0.250022  0.097400  0.402484  1
  Br  Br12  1  0.402484  0.250022  0.097400  1
  Br  Br13  1  0.748290  0.904762  0.591534  1
  Br  Br14  1  0.591534  0.748290  0.904762  1
  Br  Br15  1  0.904762  0.591534  0.748290  1
  Br  Br16  1  0.237129  0.413133  0.574707  1
  Br  Br17  1  0.574707  0.237129  0.413133  1
  Br  Br18  1  0.413133  0.574707  0.237129  1
  Br  Br19  1  0.085794  0.916930  0.731545  1
  Br  Br20  1  0.731545  0.085794  0.916930  1
  Br  Br21  1  0.916930  0.731545  0.085794  1
  Br  Br22  1  0.764904  0.584750  0.420397  1
  Br  Br23  1  0.420397  0.764904  0.584750  1
  Br  Br24  1  0.584750  0.420397  0.764904  1
  Br  Br25  1  0.925278  0.086815  0.262825  1
  Br  Br26  1  0.262825  0.925278  0.086815  1
  Br  Br27  1  0.086815  0.262825  0.925278  1
