# generated using pymatgen
data_Y3LuCrOsC4
_symmetry_space_group_name_H-M   'P 1'
_cell_length_a   5.03839400
_cell_length_b   6.48852115
_cell_length_c   9.74930804
_cell_angle_alpha   90.42683332
_cell_angle_beta   90.00000000
_cell_angle_gamma   90.00000000
_symmetry_Int_Tables_number   1
_chemical_formula_structural   Y3LuCrOsC4
_chemical_formula_sum   'Y6 Lu2 Cr2 Os2 C8'
_cell_volume   318.71286365
_cell_formula_units_Z   2
loop_
 _symmetry_equiv_pos_site_id
 _symmetry_equiv_pos_as_xyz
  1  'x, y, z'
loop_
 _atom_site_type_symbol
 _atom_site_label
 _atom_site_symmetry_multiplicity
 _atom_site_fract_x
 _atom_site_fract_y
 _atom_site_fract_z
 _atom_site_occupancy
  Y  Y0  1  0.750000  0.822439  0.055491  1
  Y  Y1  1  0.250000  0.177561  0.944509  1
  Y  Y2  1  0.250000  0.532240  0.216961  1
  Y  Y3  1  0.750000  0.467760  0.783039  1
  Y  Y4  1  0.750000  0.970161  0.711627  1
  Y  Y5  1  0.250000  0.029839  0.288373  1
  Lu  Lu6  1  0.250000  0.676763  0.559065  1
  Lu  Lu7  1  0.750000  0.323237  0.440935  1
  Cr  Cr8  1  0.250000  0.724825  0.858791  1
  Cr  Cr9  1  0.750000  0.275175  0.141209  1
  Os  Os10  1  0.750000  0.775730  0.365716  1
  Os  Os11  1  0.250000  0.224270  0.634284  1
  C  C12  1  0.250000  0.463231  0.760741  1
  C  C13  1  0.750000  0.536769  0.239259  1
  C  C14  1  0.750000  0.049240  0.260512  1
  C  C15  1  0.250000  0.950760  0.739488  1
  C  C16  1  0.250000  0.811723  0.036826  1
  C  C17  1  0.750000  0.188277  0.963174  1
  C  C18  1  0.750000  0.671277  0.549319  1
  C  C19  1  0.250000  0.328723  0.450681  1
