# generated using pymatgen
data_MnFe7(As2O5)4
_symmetry_space_group_name_H-M   'P 1'
_cell_length_a   6.48048721
_cell_length_b   9.58764406
_cell_length_c   9.60250259
_cell_angle_alpha   66.52658615
_cell_angle_beta   81.70586216
_cell_angle_gamma   78.85733191
_symmetry_Int_Tables_number   1
_chemical_formula_structural   MnFe7(As2O5)4
_chemical_formula_sum   'Mn1 Fe7 As8 O20'
_cell_volume   535.43575222
_cell_formula_units_Z   1
loop_
 _symmetry_equiv_pos_site_id
 _symmetry_equiv_pos_as_xyz
  1  'x, y, z'
loop_
 _atom_site_type_symbol
 _atom_site_label
 _atom_site_symmetry_multiplicity
 _atom_site_fract_x
 _atom_site_fract_y
 _atom_site_fract_z
 _atom_site_occupancy
  Mn  Mn0  1  0.322269  0.260091  0.471999  1
  Fe  Fe1  1  0.145156  0.932680  0.630205  1
  Fe  Fe2  1  0.595957  0.414852  0.159735  1
  Fe  Fe3  1  0.895727  0.608714  0.848175  1
  Fe  Fe4  1  0.104790  0.392202  0.152479  1
  Fe  Fe5  1  0.405102  0.585993  0.840059  1
  Fe  Fe6  1  0.853577  0.062887  0.368321  1
  Fe  Fe7  1  0.679551  0.728501  0.533810  1
  As  As8  1  0.787103  0.396601  0.480735  1
  As  As9  1  0.253734  0.281552  0.837664  1
  As  As10  1  0.388509  0.039773  0.255793  1
  As  As11  1  0.746561  0.721556  0.161293  1
  As  As12  1  0.211668  0.606279  0.516422  1
  As  As13  1  0.772423  0.225892  0.992251  1
  As  As14  1  0.615368  0.956143  0.745676  1
  As  As15  1  0.229416  0.773287  0.008673  1
  O  O16  1  0.823052  0.015894  0.596520  1
  O  O17  1  0.398205  0.646629  0.610636  1
  O  O18  1  0.973749  0.661229  0.614293  1
  O  O19  1  0.761790  0.613485  0.369916  1
  O  O20  1  0.826334  0.570237  0.088750  1
  O  O21  1  0.617956  0.949439  0.363731  1
  O  O22  1  0.379045  0.045020  0.644617  1
  O  O23  1  0.879547  0.232948  0.155102  1
  O  O24  1  0.022877  0.341836  0.382647  1
  O  O25  1  0.123333  0.766512  0.845060  1
  O  O26  1  0.175503  0.985160  0.402523  1
  O  O27  1  0.007406  0.206595  0.869197  1
  O  O28  1  0.679865  0.432982  0.917637  1
  O  O29  1  0.383002  0.235948  0.243589  1
  O  O30  1  0.173648  0.433067  0.909150  1
  O  O31  1  0.597653  0.361207  0.386217  1
  O  O32  1  0.619927  0.761448  0.754864  1
  O  O33  1  0.317921  0.565977  0.084051  1
  O  O34  1  0.238934  0.391040  0.628855  1
  O  O35  1  0.993341  0.796344  0.129357  1
