# generated using pymatgen
data_Tb3HoMn16(CoP3)4
_symmetry_space_group_name_H-M   'P 1'
_cell_length_a   3.60830100
_cell_length_b   10.54144112
_cell_length_c   12.18008014
_cell_angle_alpha   89.98283602
_cell_angle_beta   90.00000000
_cell_angle_gamma   90.00000000
_symmetry_Int_Tables_number   1
_chemical_formula_structural   Tb3HoMn16(CoP3)4
_chemical_formula_sum   'Tb3 Ho1 Mn16 Co4 P12'
_cell_volume   463.28994234
_cell_formula_units_Z   1
loop_
 _symmetry_equiv_pos_site_id
 _symmetry_equiv_pos_as_xyz
  1  'x, y, z'
loop_
 _atom_site_type_symbol
 _atom_site_label
 _atom_site_symmetry_multiplicity
 _atom_site_fract_x
 _atom_site_fract_y
 _atom_site_fract_z
 _atom_site_occupancy
  Tb  Tb0  1  0.250000  0.915698  0.208025  1
  Tb  Tb1  1  0.750000  0.415724  0.292037  1
  Tb  Tb2  1  0.750000  0.084309  0.791933  1
  Ho  Ho3  1  0.250000  0.584194  0.707964  1
  Mn  Mn4  1  0.250000  0.712281  0.987958  1
  Mn  Mn5  1  0.250000  0.787580  0.488103  1
  Mn  Mn6  1  0.750000  0.287757  0.012067  1
  Mn  Mn7  1  0.750000  0.212538  0.512234  1
  Mn  Mn8  1  0.250000  0.407456  0.493438  1
  Mn  Mn9  1  0.250000  0.092819  0.993060  1
  Mn  Mn10  1  0.750000  0.592744  0.507485  1
  Mn  Mn11  1  0.750000  0.907142  0.006859  1
  Mn  Mn12  1  0.250000  0.216475  0.176727  1
  Mn  Mn13  1  0.250000  0.283992  0.676682  1
  Mn  Mn14  1  0.750000  0.783059  0.823050  1
  Mn  Mn15  1  0.750000  0.716378  0.323310  1
  Mn  Mn16  1  0.250000  0.877583  0.697387  1
  Mn  Mn17  1  0.250000  0.621706  0.197350  1
  Mn  Mn18  1  0.750000  0.121765  0.302597  1
  Mn  Mn19  1  0.750000  0.378833  0.802396  1
  Co  Co20  1  0.250000  0.464924  0.933605  1
  Co  Co21  1  0.250000  0.035406  0.434117  1
  Co  Co22  1  0.750000  0.535501  0.065521  1
  Co  Co23  1  0.750000  0.964088  0.566141  1
  P  P24  1  0.250000  0.420268  0.111092  1
  P  P25  1  0.250000  0.079759  0.611292  1
  P  P26  1  0.750000  0.579831  0.887867  1
  P  P27  1  0.750000  0.920155  0.388769  1
  P  P28  1  0.250000  0.267022  0.872438  1
  P  P29  1  0.250000  0.233173  0.372493  1
  P  P30  1  0.750000  0.733072  0.127480  1
  P  P31  1  0.750000  0.765816  0.627947  1
  P  P32  1  0.250000  0.593787  0.386668  1
  P  P33  1  0.250000  0.906123  0.886526  1
  P  P34  1  0.750000  0.407284  0.613921  1
  P  P35  1  0.750000  0.093758  0.113460  1
