# generated using pymatgen
data_Er12Tc3Au2
_symmetry_space_group_name_H-M   'P 1'
_cell_length_a   8.23082217
_cell_length_b   8.23082222
_cell_length_c   8.23082164
_cell_angle_alpha   110.36997078
_cell_angle_beta   110.36996770
_cell_angle_gamma   107.68830392
_symmetry_Int_Tables_number   1
_chemical_formula_structural   Er12Tc3Au2
_chemical_formula_sum   'Er12 Tc3 Au2'
_cell_volume   428.93690913
_cell_formula_units_Z   1
loop_
 _symmetry_equiv_pos_site_id
 _symmetry_equiv_pos_as_xyz
  1  'x, y, z'
loop_
 _atom_site_type_symbol
 _atom_site_label
 _atom_site_symmetry_multiplicity
 _atom_site_fract_x
 _atom_site_fract_y
 _atom_site_fract_z
 _atom_site_occupancy
  Er  Er0  1  0.183476  0.434349  0.250873  1
  Er  Er1  1  0.816524  0.565651  0.749127  1
  Er  Er2  1  0.183476  0.932604  0.749127  1
  Er  Er3  1  0.932604  0.183476  0.749127  1
  Er  Er4  1  0.816524  0.067396  0.250873  1
  Er  Er5  1  0.067396  0.816524  0.250873  1
  Er  Er6  1  0.434349  0.183476  0.250873  1
  Er  Er7  1  0.565651  0.816524  0.749127  1
  Er  Er8  1  0.318902  0.318902  0.637805  1
  Er  Er9  1  0.681098  0.681098  0.362195  1
  Er  Er10  1  0.681098  0.318902  0.000000  1
  Er  Er11  1  0.318902  0.681098  0.000000  1
  Tc  Tc12  1  0.337955  0.337955  0.000000  1
  Tc  Tc13  1  0.662045  0.662045  0.000000  1
  Tc  Tc14  1  0.000000  0.000000  0.000000  1
  Au  Au15  1  0.000000  0.500000  0.500000  1
  Au  Au16  1  0.500000  0.000000  0.500000  1
