# generated using pymatgen
data_Er6Th2MgCdIr2
_symmetry_space_group_name_H-M   'P 1'
_cell_length_a   9.71210857
_cell_length_b   9.71210894
_cell_length_c   9.72621000
_cell_angle_alpha   59.95195973
_cell_angle_beta   59.95195846
_cell_angle_gamma   59.87596531
_symmetry_Int_Tables_number   1
_chemical_formula_structural   Er6Th2MgCdIr2
_chemical_formula_sum   'Er12 Th4 Mg2 Cd2 Ir4'
_cell_volume   647.63723642
_cell_formula_units_Z   2
loop_
 _symmetry_equiv_pos_site_id
 _symmetry_equiv_pos_as_xyz
  1  'x, y, z'
loop_
 _atom_site_type_symbol
 _atom_site_label
 _atom_site_symmetry_multiplicity
 _atom_site_fract_x
 _atom_site_fract_y
 _atom_site_fract_z
 _atom_site_occupancy
  Er  Er0  1  0.063604  0.437818  0.435865  1
  Er  Er1  1  0.437818  0.063604  0.062713  1
  Er  Er2  1  0.437818  0.063604  0.435865  1
  Er  Er3  1  0.063604  0.437818  0.062713  1
  Er  Er4  1  0.438894  0.438894  0.061106  1
  Er  Er5  1  0.064050  0.064050  0.435950  1
  Er  Er6  1  0.187379  0.815987  0.814435  1
  Er  Er7  1  0.815987  0.187379  0.182200  1
  Er  Er8  1  0.815987  0.187379  0.814435  1
  Er  Er9  1  0.187379  0.815987  0.182200  1
  Er  Er10  1  0.817000  0.817000  0.183000  1
  Er  Er11  1  0.186210  0.186210  0.813790  1
  Th  Th12  1  0.599806  0.599806  0.598680  1
  Th  Th13  1  0.599806  0.599806  0.201709  1
  Th  Th14  1  0.600668  0.199735  0.599799  1
  Th  Th15  1  0.199735  0.600668  0.599799  1
  Mg  Mg16  1  0.826145  0.826145  0.833175  1
  Mg  Mg17  1  0.826145  0.826145  0.514536  1
  Cd  Cd18  1  0.832474  0.499887  0.833820  1
  Cd  Cd19  1  0.499887  0.832474  0.833820  1
  Ir  Ir20  1  0.392856  0.392856  0.393604  1
  Ir  Ir21  1  0.392856  0.392856  0.820681  1
  Ir  Ir22  1  0.391599  0.822294  0.393053  1
  Ir  Ir23  1  0.822294  0.391599  0.393053  1
