# generated using pymatgen
data_Pr7Sm(Si3Ir)4
_symmetry_space_group_name_H-M   'P 1'
_cell_length_a   8.27934200
_cell_length_b   8.27968798
_cell_length_c   8.54990700
_cell_angle_alpha   90.00000000
_cell_angle_beta   90.00000000
_cell_angle_gamma   119.99861772
_symmetry_Int_Tables_number   1
_chemical_formula_structural   Pr7Sm(Si3Ir)4
_chemical_formula_sum   'Pr7 Sm1 Si12 Ir4'
_cell_volume   507.58393110
_cell_formula_units_Z   1
loop_
 _symmetry_equiv_pos_site_id
 _symmetry_equiv_pos_as_xyz
  1  'x, y, z'
loop_
 _atom_site_type_symbol
 _atom_site_label
 _atom_site_symmetry_multiplicity
 _atom_site_fract_x
 _atom_site_fract_y
 _atom_site_fract_z
 _atom_site_occupancy
  Pr  Pr0  1  0.000010  0.000020  0.750000  1
  Pr  Pr1  1  0.000003  0.000009  0.250000  1
  Pr  Pr2  1  0.499266  0.500750  0.750000  1
  Pr  Pr3  1  0.499287  0.998577  0.750000  1
  Pr  Pr4  1  0.001483  0.500750  0.750000  1
  Pr  Pr5  1  0.500735  0.499253  0.250000  1
  Pr  Pr6  1  0.998521  0.499252  0.250000  1
  Sm  Sm7  1  0.500623  0.001243  0.250000  1
  Si  Si8  1  0.832367  0.166595  0.000761  1
  Si  Si9  1  0.833020  0.666040  0.999599  1
  Si  Si10  1  0.334228  0.166595  0.000761  1
  Si  Si11  1  0.832367  0.166595  0.499239  1
  Si  Si12  1  0.833020  0.666040  0.500401  1
  Si  Si13  1  0.334228  0.166595  0.499239  1
  Si  Si14  1  0.167636  0.833397  0.498670  1
  Si  Si15  1  0.665761  0.833397  0.498670  1
  Si  Si16  1  0.167001  0.334001  0.499775  1
  Si  Si17  1  0.167636  0.833397  0.001330  1
  Si  Si18  1  0.665761  0.833397  0.001330  1
  Si  Si19  1  0.167001  0.334001  0.000225  1
  Ir  Ir20  1  0.666306  0.332611  0.999844  1
  Ir  Ir21  1  0.666306  0.332611  0.500156  1
  Ir  Ir22  1  0.333718  0.667436  0.496893  1
  Ir  Ir23  1  0.333718  0.667436  0.003107  1
