# generated using pymatgen
data_TiCr2B4W3
_symmetry_space_group_name_H-M   'P 1'
_cell_length_a   5.81927550
_cell_length_b   5.81927536
_cell_length_c   3.15955700
_cell_angle_alpha   90.00000000
_cell_angle_beta   90.00000000
_cell_angle_gamma   89.38428589
_symmetry_Int_Tables_number   1
_chemical_formula_structural   TiCr2B4W3
_chemical_formula_sum   'Ti1 Cr2 B4 W3'
_cell_volume   106.98895445
_cell_formula_units_Z   1
loop_
 _symmetry_equiv_pos_site_id
 _symmetry_equiv_pos_as_xyz
  1  'x, y, z'
loop_
 _atom_site_type_symbol
 _atom_site_label
 _atom_site_symmetry_multiplicity
 _atom_site_fract_x
 _atom_site_fract_y
 _atom_site_fract_z
 _atom_site_occupancy
  Ti  Ti0  1  0.678666  0.178666  0.500000  1
  Cr  Cr1  1  0.501398  0.498611  0.000000  1
  Cr  Cr2  1  0.998611  0.001398  0.000000  1
  B  B3  1  0.114258  0.614258  0.000000  1
  B  B4  1  0.885334  0.385334  0.000000  1
  B  B5  1  0.613386  0.887925  0.000000  1
  B  B6  1  0.387925  0.113386  0.000000  1
  W  W7  1  0.321261  0.821261  0.500000  1
  W  W8  1  0.177633  0.321530  0.500000  1
  W  W9  1  0.821530  0.677633  0.500000  1
