# generated using pymatgen
data_BaVBF10
_symmetry_space_group_name_H-M   'P 1'
_cell_length_a   6.49185900
_cell_length_b   10.70630300
_cell_length_c   12.13367400
_cell_angle_alpha   90.00000000
_cell_angle_beta   90.00000000
_cell_angle_gamma   90.00000000
_symmetry_Int_Tables_number   1
_chemical_formula_structural   BaVBF10
_chemical_formula_sum   'Ba4 V4 B4 F40'
_cell_volume   843.33656608
_cell_formula_units_Z   4
loop_
 _symmetry_equiv_pos_site_id
 _symmetry_equiv_pos_as_xyz
  1  'x, y, z'
loop_
 _atom_site_type_symbol
 _atom_site_label
 _atom_site_symmetry_multiplicity
 _atom_site_fract_x
 _atom_site_fract_y
 _atom_site_fract_z
 _atom_site_occupancy
  Ba  Ba0  1  0.750000  0.264435  0.610448  1
  Ba  Ba1  1  0.750000  0.764435  0.889552  1
  Ba  Ba2  1  0.250000  0.735565  0.389552  1
  Ba  Ba3  1  0.250000  0.235565  0.110448  1
  V  V4  1  0.250000  0.982566  0.699067  1
  V  V5  1  0.250000  0.482566  0.800933  1
  V  V6  1  0.750000  0.017434  0.300933  1
  V  V7  1  0.750000  0.517434  0.199067  1
  B  B8  1  0.750000  0.641716  0.571246  1
  B  B9  1  0.750000  0.141716  0.928754  1
  B  B10  1  0.250000  0.358284  0.428754  1
  B  B11  1  0.250000  0.858284  0.071246  1
  F  F12  1  0.572755  0.686068  0.516182  1
  F  F13  1  0.927245  0.186068  0.983818  1
  F  F14  1  0.072755  0.313932  0.483818  1
  F  F15  1  0.427245  0.813932  0.016182  1
  F  F16  1  0.427245  0.313932  0.483818  1
  F  F17  1  0.072755  0.813932  0.016182  1
  F  F18  1  0.927245  0.686068  0.516182  1
  F  F19  1  0.572755  0.186068  0.983818  1
  F  F20  1  0.750000  0.509665  0.571919  1
  F  F21  1  0.750000  0.009665  0.928081  1
  F  F22  1  0.250000  0.490335  0.428081  1
  F  F23  1  0.250000  0.990335  0.071919  1
  F  F24  1  0.750000  0.685473  0.681272  1
  F  F25  1  0.750000  0.185473  0.818728  1
  F  F26  1  0.250000  0.314527  0.318728  1
  F  F27  1  0.250000  0.814527  0.181272  1
  F  F28  1  0.250000  0.887085  0.574162  1
  F  F29  1  0.250000  0.387085  0.925838  1
  F  F30  1  0.750000  0.112915  0.425838  1
  F  F31  1  0.750000  0.612915  0.074162  1
  F  F32  1  0.448045  0.882434  0.758016  1
  F  F33  1  0.051955  0.382434  0.741984  1
  F  F34  1  0.948045  0.117566  0.241984  1
  F  F35  1  0.551955  0.617566  0.258016  1
  F  F36  1  0.551955  0.117566  0.241984  1
  F  F37  1  0.948045  0.617566  0.258016  1
  F  F38  1  0.051955  0.882434  0.758016  1
  F  F39  1  0.448045  0.382434  0.741984  1
  F  F40  1  0.250000  0.078097  0.818980  1
  F  F41  1  0.250000  0.578097  0.681020  1
  F  F42  1  0.750000  0.921903  0.181020  1
  F  F43  1  0.750000  0.421903  0.318980  1
  F  F44  1  0.050404  0.080255  0.637286  1
  F  F45  1  0.449596  0.580255  0.862714  1
  F  F46  1  0.550404  0.919745  0.362714  1
  F  F47  1  0.949596  0.419745  0.137286  1
  F  F48  1  0.949596  0.919745  0.362714  1
  F  F49  1  0.550404  0.419745  0.137286  1
  F  F50  1  0.449596  0.080255  0.637286  1
  F  F51  1  0.050404  0.580255  0.862714  1
