# generated using pymatgen
data_Yb4Ga18Ir5Pd
_symmetry_space_group_name_H-M   'P 1'
_cell_length_a   7.55225252
_cell_length_b   7.55225265
_cell_length_c   9.65793615
_cell_angle_alpha   90.07480269
_cell_angle_beta   90.07480194
_cell_angle_gamma   119.30322795
_symmetry_Int_Tables_number   1
_chemical_formula_structural   Yb4Ga18Ir5Pd
_chemical_formula_sum   'Yb4 Ga18 Ir5 Pd1'
_cell_volume   480.36697910
_cell_formula_units_Z   1
loop_
 _symmetry_equiv_pos_site_id
 _symmetry_equiv_pos_as_xyz
  1  'x, y, z'
loop_
 _atom_site_type_symbol
 _atom_site_label
 _atom_site_symmetry_multiplicity
 _atom_site_fract_x
 _atom_site_fract_y
 _atom_site_fract_z
 _atom_site_occupancy
  Yb  Yb0  1  0.998484  0.670259  0.251194  1
  Yb  Yb1  1  0.001516  0.329741  0.748806  1
  Yb  Yb2  1  0.670259  0.998484  0.251194  1
  Yb  Yb3  1  0.329741  0.001516  0.748806  1
  Ga  Ga4  1  0.128261  0.128261  0.251178  1
  Ga  Ga5  1  0.871739  0.871739  0.748822  1
  Ga  Ga6  1  0.001404  0.338186  0.077902  1
  Ga  Ga7  1  0.998596  0.661814  0.922098  1
  Ga  Ga8  1  0.999316  0.664897  0.575802  1
  Ga  Ga9  1  0.335103  0.000684  0.424198  1
  Ga  Ga10  1  0.000684  0.335103  0.424198  1
  Ga  Ga11  1  0.664897  0.999316  0.575802  1
  Ga  Ga12  1  0.661814  0.998596  0.922098  1
  Ga  Ga13  1  0.338186  0.001404  0.077902  1
  Ga  Ga14  1  0.333000  0.333000  0.562413  1
  Ga  Ga15  1  0.667000  0.667000  0.437587  1
  Ga  Ga16  1  0.663385  0.663385  0.064019  1
  Ga  Ga17  1  0.336615  0.336615  0.935981  1
  Ga  Ga18  1  0.335976  0.545634  0.249989  1
  Ga  Ga19  1  0.664024  0.454366  0.750011  1
  Ga  Ga20  1  0.545634  0.335976  0.249989  1
  Ga  Ga21  1  0.454366  0.664024  0.750011  1
  Ir  Ir22  1  0.671896  0.328104  0.000000  1
  Ir  Ir23  1  0.328104  0.671896  0.000000  1
  Ir  Ir24  1  0.328697  0.671303  0.500000  1
  Ir  Ir25  1  0.671303  0.328697  0.500000  1
  Ir  Ir26  1  0.000000  0.000000  0.500000  1
  Pd  Pd27  1  0.000000  0.000000  0.000000  1
