# generated using pymatgen
data_Nd2Mn7Ni(MoP3)2
_symmetry_space_group_name_H-M   'P 1'
_cell_length_a   3.80686300
_cell_length_b   10.72669200
_cell_length_c   12.31127300
_cell_angle_alpha   90.00000000
_cell_angle_beta   90.00000000
_cell_angle_gamma   90.00000000
_symmetry_Int_Tables_number   1
_chemical_formula_structural   Nd2Mn7Ni(MoP3)2
_chemical_formula_sum   'Nd4 Mn14 Ni2 Mo4 P12'
_cell_volume   502.73141020
_cell_formula_units_Z   2
loop_
 _symmetry_equiv_pos_site_id
 _symmetry_equiv_pos_as_xyz
  1  'x, y, z'
loop_
 _atom_site_type_symbol
 _atom_site_label
 _atom_site_symmetry_multiplicity
 _atom_site_fract_x
 _atom_site_fract_y
 _atom_site_fract_z
 _atom_site_occupancy
  Nd  Nd0  1  0.250000  0.588671  0.707366  1
  Nd  Nd1  1  0.250000  0.911329  0.207366  1
  Nd  Nd2  1  0.750000  0.409863  0.293652  1
  Nd  Nd3  1  0.750000  0.090137  0.793652  1
  Mn  Mn4  1  0.750000  0.593779  0.504761  1
  Mn  Mn5  1  0.750000  0.906221  0.004761  1
  Mn  Mn6  1  0.250000  0.207694  0.181964  1
  Mn  Mn7  1  0.250000  0.292306  0.681964  1
  Mn  Mn8  1  0.750000  0.792314  0.820085  1
  Mn  Mn9  1  0.750000  0.707686  0.320085  1
  Mn  Mn10  1  0.250000  0.885731  0.690295  1
  Mn  Mn11  1  0.250000  0.614269  0.190295  1
  Mn  Mn12  1  0.750000  0.114915  0.308607  1
  Mn  Mn13  1  0.750000  0.385085  0.808607  1
  Mn  Mn14  1  0.250000  0.468108  0.936632  1
  Mn  Mn15  1  0.250000  0.031892  0.436632  1
  Mn  Mn16  1  0.750000  0.531985  0.064793  1
  Mn  Mn17  1  0.750000  0.968015  0.564793  1
  Ni  Ni18  1  0.250000  0.408740  0.490795  1
  Ni  Ni19  1  0.250000  0.091260  0.990795  1
  Mo  Mo20  1  0.250000  0.711810  0.983212  1
  Mo  Mo21  1  0.250000  0.788190  0.483212  1
  Mo  Mo22  1  0.750000  0.291177  0.017713  1
  Mo  Mo23  1  0.750000  0.208823  0.517713  1
  P  P24  1  0.250000  0.411239  0.114406  1
  P  P25  1  0.250000  0.088761  0.614406  1
  P  P26  1  0.750000  0.587316  0.886684  1
  P  P27  1  0.750000  0.912684  0.386684  1
  P  P28  1  0.250000  0.272533  0.873575  1
  P  P29  1  0.250000  0.227467  0.373575  1
  P  P30  1  0.750000  0.729724  0.128203  1
  P  P31  1  0.750000  0.770276  0.628203  1
  P  P32  1  0.250000  0.592321  0.383511  1
  P  P33  1  0.250000  0.907679  0.883511  1
  P  P34  1  0.750000  0.405521  0.613747  1
  P  P35  1  0.750000  0.094479  0.113747  1
