# generated using pymatgen
data_Rb3YbOs2O9
_symmetry_space_group_name_H-M   'P 1'
_cell_length_a   6.15582300
_cell_length_b   6.15578236
_cell_length_c   14.53912800
_cell_angle_alpha   90.00025095
_cell_angle_beta   90.00008989
_cell_angle_gamma   59.99966667
_symmetry_Int_Tables_number   1
_chemical_formula_structural   Rb3YbOs2O9
_chemical_formula_sum   'Rb6 Yb2 Os4 O18'
_cell_volume   477.13020854
_cell_formula_units_Z   2
loop_
 _symmetry_equiv_pos_site_id
 _symmetry_equiv_pos_as_xyz
  1  'x, y, z'
loop_
 _atom_site_type_symbol
 _atom_site_label
 _atom_site_symmetry_multiplicity
 _atom_site_fract_x
 _atom_site_fract_y
 _atom_site_fract_z
 _atom_site_occupancy
  Rb  Rb0  1  0.333332  0.333331  0.103324  1
  Rb  Rb1  1  0.999998  0.000000  0.250007  1
  Rb  Rb2  1  0.333333  0.333331  0.396708  1
  Rb  Rb3  1  0.666667  0.666664  0.603284  1
  Rb  Rb4  1  0.000001  0.999998  0.749973  1
  Rb  Rb5  1  0.666666  0.666663  0.896730  1
  Yb  Yb6  1  0.000001  0.000010  0.999993  1
  Yb  Yb7  1  0.000002  0.000011  0.499988  1
  Os  Os8  1  0.666665  0.666672  0.149943  1
  Os  Os9  1  0.666667  0.666670  0.350084  1
  Os  Os10  1  0.333334  0.333334  0.649928  1
  Os  Os11  1  0.333334  0.333332  0.850049  1
  O  O12  1  0.817798  0.364387  0.087334  1
  O  O13  1  0.817815  0.817808  0.087334  1
  O  O14  1  0.364381  0.817798  0.087334  1
  O  O15  1  0.929451  0.535276  0.249978  1
  O  O16  1  0.535275  0.535279  0.249978  1
  O  O17  1  0.535271  0.929459  0.249978  1
  O  O18  1  0.817785  0.364415  0.412697  1
  O  O19  1  0.817801  0.817794  0.412697  1
  O  O20  1  0.364411  0.817785  0.412697  1
  O  O21  1  0.635549  0.182215  0.587325  1
  O  O22  1  0.182235  0.182222  0.587324  1
  O  O23  1  0.182220  0.635551  0.587325  1
  O  O24  1  0.464736  0.070530  0.750003  1
  O  O25  1  0.070532  0.464736  0.750003  1
  O  O26  1  0.464735  0.464737  0.750004  1
  O  O27  1  0.635660  0.182155  0.912661  1
  O  O28  1  0.182177  0.182165  0.912661  1
  O  O29  1  0.182159  0.635663  0.912661  1
