# generated using pymatgen
data_Tm5Lu3(Ga3Pt)4
_symmetry_space_group_name_H-M   'P 1'
_cell_length_a   8.81402400
_cell_length_b   8.81402466
_cell_length_c   6.93624200
_cell_angle_alpha   90.00000000
_cell_angle_beta   90.00000000
_cell_angle_gamma   120.00286363
_symmetry_Int_Tables_number   1
_chemical_formula_structural   Tm5Lu3(Ga3Pt)4
_chemical_formula_sum   'Tm5 Lu3 Ga12 Pt4'
_cell_volume   466.64952278
_cell_formula_units_Z   1
loop_
 _symmetry_equiv_pos_site_id
 _symmetry_equiv_pos_as_xyz
  1  'x, y, z'
loop_
 _atom_site_type_symbol
 _atom_site_label
 _atom_site_symmetry_multiplicity
 _atom_site_fract_x
 _atom_site_fract_y
 _atom_site_fract_z
 _atom_site_occupancy
  Tm  Tm0  1  0.000119  0.999881  0.250000  1
  Tm  Tm1  1  0.999884  0.000116  0.750000  1
  Tm  Tm2  1  0.520238  0.040556  0.250000  1
  Tm  Tm3  1  0.520119  0.479881  0.250000  1
  Tm  Tm4  1  0.959444  0.479762  0.250000  1
  Lu  Lu5  1  0.479448  0.958815  0.750000  1
  Lu  Lu6  1  0.479583  0.520417  0.750000  1
  Lu  Lu7  1  0.041185  0.520552  0.750000  1
  Ga  Ga8  1  0.166516  0.333169  0.046997  1
  Ga  Ga9  1  0.166726  0.833274  0.453006  1
  Ga  Ga10  1  0.666831  0.833484  0.453003  1
  Ga  Ga11  1  0.666831  0.833484  0.046997  1
  Ga  Ga12  1  0.166726  0.833274  0.046994  1
  Ga  Ga13  1  0.833418  0.666698  0.952320  1
  Ga  Ga14  1  0.833203  0.166797  0.952327  1
  Ga  Ga15  1  0.333302  0.166582  0.952320  1
  Ga  Ga16  1  0.166516  0.333169  0.453003  1
  Ga  Ga17  1  0.333302  0.166582  0.547680  1
  Ga  Ga18  1  0.833418  0.666698  0.547680  1
  Ga  Ga19  1  0.833203  0.166797  0.547673  1
  Pt  Pt20  1  0.333405  0.666595  0.027264  1
  Pt  Pt21  1  0.333405  0.666595  0.472736  1
  Pt  Pt22  1  0.666590  0.333410  0.970260  1
  Pt  Pt23  1  0.666590  0.333410  0.529740  1
