# generated using pymatgen
data_Ta12Al8FeB4Au3
_symmetry_space_group_name_H-M   'P 1'
_cell_length_a   8.41137884
_cell_length_b   8.47664766
_cell_length_c   8.41137700
_cell_angle_alpha   60.25438668
_cell_angle_beta   60.00000331
_cell_angle_gamma   60.25439233
_symmetry_Int_Tables_number   1
_chemical_formula_structural   Ta12Al8FeB4Au3
_chemical_formula_sum   'Ta12 Al8 Fe1 B4 Au3'
_cell_volume   425.69905184
_cell_formula_units_Z   1
loop_
 _symmetry_equiv_pos_site_id
 _symmetry_equiv_pos_as_xyz
  1  'x, y, z'
loop_
 _atom_site_type_symbol
 _atom_site_label
 _atom_site_symmetry_multiplicity
 _atom_site_fract_x
 _atom_site_fract_y
 _atom_site_fract_z
 _atom_site_occupancy
  Ta  Ta0  1  0.567529  0.930894  0.567529  1
  Ta  Ta1  1  0.311891  0.681114  0.695104  1
  Ta  Ta2  1  0.682471  0.319106  0.315954  1
  Ta  Ta3  1  0.311891  0.681114  0.311891  1
  Ta  Ta4  1  0.695104  0.681114  0.311891  1
  Ta  Ta5  1  0.315954  0.319106  0.682471  1
  Ta  Ta6  1  0.554896  0.568886  0.938109  1
  Ta  Ta7  1  0.938109  0.568886  0.554896  1
  Ta  Ta8  1  0.567529  0.930894  0.934046  1
  Ta  Ta9  1  0.934046  0.930894  0.567529  1
  Ta  Ta10  1  0.682471  0.319106  0.682471  1
  Ta  Ta11  1  0.938109  0.568886  0.938109  1
  Al  Al12  1  0.922267  0.902771  0.922267  1
  Al  Al13  1  0.997305  0.347229  0.327733  1
  Al  Al14  1  0.338830  0.983510  0.338830  1
  Al  Al15  1  0.327733  0.347229  0.997305  1
  Al  Al16  1  0.911170  0.266490  0.911170  1
  Al  Al17  1  0.922267  0.902771  0.252695  1
  Al  Al18  1  0.252695  0.902771  0.922267  1
  Al  Al19  1  0.327733  0.347229  0.327733  1
  Fe  Fe20  1  0.125000  0.625000  0.125000  1
  B  B21  1  0.625000  0.625000  0.625000  1
  B  B22  1  0.125000  0.625000  0.625000  1
  B  B23  1  0.625000  0.125000  0.625000  1
  B  B24  1  0.625000  0.625000  0.125000  1
  Au  Au25  1  0.125000  0.125000  0.125000  1
  Au  Au26  1  0.625000  0.125000  0.125000  1
  Au  Au27  1  0.125000  0.125000  0.625000  1
