# generated using pymatgen
data_Ti8Ga14Co7As
_symmetry_space_group_name_H-M   'P 1'
_cell_length_a   8.43756489
_cell_length_b   8.43756314
_cell_length_c   8.43756400
_cell_angle_alpha   120.19059916
_cell_angle_beta   119.88722762
_cell_angle_gamma   89.93281392
_symmetry_Int_Tables_number   1
_chemical_formula_structural   Ti8Ga14Co7As
_chemical_formula_sum   'Ti8 Ga14 Co7 As1'
_cell_volume   424.49892480
_cell_formula_units_Z   1
loop_
 _symmetry_equiv_pos_site_id
 _symmetry_equiv_pos_as_xyz
  1  'x, y, z'
loop_
 _atom_site_type_symbol
 _atom_site_label
 _atom_site_symmetry_multiplicity
 _atom_site_fract_x
 _atom_site_fract_y
 _atom_site_fract_z
 _atom_site_occupancy
  Ti  Ti0  1  0.796419  0.288187  0.077531  1
  Ti  Ti1  1  0.210657  0.288187  0.491767  1
  Ti  Ti2  1  0.207050  0.707050  0.500000  1
  Ti  Ti3  1  0.210657  0.718889  0.922469  1
  Ti  Ti4  1  0.796419  0.718889  0.508233  1
  Ti  Ti5  1  0.787118  0.287118  0.500000  1
  Ti  Ti6  1  0.379872  0.122475  0.742603  1
  Ti  Ti7  1  0.379872  0.637270  0.257397  1
  Ga  Ga8  1  0.160260  0.343762  0.183501  1
  Ga  Ga9  1  0.160260  0.976759  0.816499  1
  Ga  Ga10  1  0.157568  0.344282  0.813287  1
  Ga  Ga11  1  0.530993  0.344282  0.186713  1
  Ga  Ga12  1  0.841085  0.657183  0.816101  1
  Ga  Ga13  1  0.841085  0.024984  0.183899  1
  Ga  Ga14  1  0.842114  0.656791  0.185323  1
  Ga  Ga15  1  0.471469  0.656791  0.814677  1
  Ga  Ga16  1  0.381226  0.121408  0.259818  1
  Ga  Ga17  1  0.861591  0.121408  0.740182  1
  Ga  Ga18  1  0.616573  0.873329  0.256756  1
  Ga  Ga19  1  0.616573  0.359818  0.743244  1
  Ga  Ga20  1  0.613305  0.877485  0.735821  1
  Ga  Ga21  1  0.141662  0.877485  0.264179  1
  Co  Co22  1  0.003328  0.001395  0.502969  1
  Co  Co23  1  0.498425  0.001395  0.998067  1
  Co  Co24  1  0.497236  0.497236  0.000000  1
  Co  Co25  1  0.498425  0.500359  0.497031  1
  Co  Co26  1  0.003328  0.500359  0.001933  1
  Co  Co27  1  0.001125  0.001125  0.000000  1
  Co  Co28  1  0.496929  0.996929  0.500000  1
  As  As29  1  0.997377  0.497377  0.500000  1
