# generated using pymatgen
data_Na4H11W2
_symmetry_space_group_name_H-M   'P 1'
_cell_length_a   5.74679805
_cell_length_b   8.02350000
_cell_length_c   9.75454138
_cell_angle_alpha   67.79887703
_cell_angle_beta   86.88293181
_cell_angle_gamma   86.43069196
_symmetry_Int_Tables_number   1
_chemical_formula_structural   Na4H11W2
_chemical_formula_sum   'Na8 H22 W4'
_cell_volume   415.39188929
_cell_formula_units_Z   2
loop_
 _symmetry_equiv_pos_site_id
 _symmetry_equiv_pos_as_xyz
  1  'x, y, z'
loop_
 _atom_site_type_symbol
 _atom_site_label
 _atom_site_symmetry_multiplicity
 _atom_site_fract_x
 _atom_site_fract_y
 _atom_site_fract_z
 _atom_site_occupancy
  Na  Na0  1  0.747283  0.367493  0.495137  1
  Na  Na1  1  0.252722  0.632450  0.504778  1
  Na  Na2  1  0.799822  0.384408  0.099341  1
  Na  Na3  1  0.200168  0.615638  0.900671  1
  Na  Na4  1  0.768642  0.957667  0.391687  1
  Na  Na5  1  0.231363  0.042338  0.608346  1
  Na  Na6  1  0.515592  0.200361  0.875299  1
  Na  Na7  1  0.484469  0.799544  0.124700  1
  H  H8  1  0.531046  0.805980  0.646211  1
  H  H9  1  0.468927  0.194148  0.353840  1
  H  H10  1  0.493049  0.478477  0.700811  1
  H  H11  1  0.506887  0.521436  0.299184  1
  H  H12  1  0.701487  0.078990  0.639765  1
  H  H13  1  0.298485  0.920924  0.360296  1
  H  H14  1  0.611604  0.623365  0.879038  1
  H  H15  1  0.388374  0.376753  0.120998  1
  H  H16  1  0.944159  0.791699  0.662438  1
  H  H17  1  0.055799  0.208431  0.337593  1
  H  H18  1  0.778503  0.649157  0.509468  1
  H  H19  1  0.221588  0.350849  0.490449  1
  H  H20  1  0.982443  0.942624  0.806236  1
  H  H21  1  0.017308  0.057437  0.193770  1
  H  H22  1  0.783964  0.788802  0.972886  1
  H  H23  1  0.215953  0.211280  0.027010  1
  H  H24  1  0.802618  0.391207  0.855446  1
  H  H25  1  0.197410  0.608696  0.144642  1
  H  H26  1  0.030979  0.505184  0.697543  1
  H  H27  1  0.969242  0.494829  0.302529  1
  H  H28  1  0.440647  0.919434  0.856252  1
  H  H29  1  0.559458  0.080530  0.143704  1
  W  W30  1  0.718525  0.857235  0.785247  1
  W  W31  1  0.281424  0.142738  0.214700  1
  W  W32  1  0.748875  0.596712  0.707115  1
  W  W33  1  0.251189  0.403186  0.292865  1
