# generated using pymatgen
data_TaTiCo6B
_symmetry_space_group_name_H-M   'P 1'
_cell_length_a   5.22498994
_cell_length_b   5.22499052
_cell_length_c   5.22498900
_cell_angle_alpha   60.00000330
_cell_angle_beta   59.99999959
_cell_angle_gamma   59.99999978
_symmetry_Int_Tables_number   1
_chemical_formula_structural   TaTiCo6B
_chemical_formula_sum   'Ta1 Ti1 Co6 B1'
_cell_volume   100.86520060
_cell_formula_units_Z   1
loop_
 _symmetry_equiv_pos_site_id
 _symmetry_equiv_pos_as_xyz
  1  'x, y, z'
loop_
 _atom_site_type_symbol
 _atom_site_label
 _atom_site_symmetry_multiplicity
 _atom_site_fract_x
 _atom_site_fract_y
 _atom_site_fract_z
 _atom_site_occupancy
  Ta  Ta0  1  0.750000  0.750000  0.750000  1
  Ti  Ti1  1  0.250000  0.250000  0.250000  1
  Co  Co2  1  0.760928  0.760928  0.239072  1
  Co  Co3  1  0.760928  0.239072  0.239072  1
  Co  Co4  1  0.239072  0.760928  0.239072  1
  Co  Co5  1  0.239072  0.239072  0.760928  1
  Co  Co6  1  0.760928  0.239072  0.760928  1
  Co  Co7  1  0.239072  0.760928  0.760928  1
  B  B8  1  0.500000  0.500000  0.500000  1
