# generated using pymatgen
data_Tb19Dy(IrRh3)3
_symmetry_space_group_name_H-M   'P 1'
_cell_length_a   10.94053114
_cell_length_b   10.94050043
_cell_length_c   6.38961600
_cell_angle_alpha   90.00002857
_cell_angle_beta   89.99662343
_cell_angle_gamma   89.96184296
_symmetry_Int_Tables_number   1
_chemical_formula_structural   Tb19Dy(IrRh3)3
_chemical_formula_sum   'Tb19 Dy1 Ir3 Rh9'
_cell_volume   764.80418559
_cell_formula_units_Z   1
loop_
 _symmetry_equiv_pos_site_id
 _symmetry_equiv_pos_as_xyz
  1  'x, y, z'
loop_
 _atom_site_type_symbol
 _atom_site_label
 _atom_site_symmetry_multiplicity
 _atom_site_fract_x
 _atom_site_fract_y
 _atom_site_fract_z
 _atom_site_occupancy
  Tb  Tb0  1  0.291183  0.090043  0.378675  1
  Tb  Tb1  1  0.291270  0.909794  0.878604  1
  Tb  Tb2  1  0.708955  0.088782  0.878705  1
  Tb  Tb3  1  0.708656  0.909906  0.378511  1
  Tb  Tb4  1  0.588031  0.789884  0.879662  1
  Tb  Tb5  1  0.587650  0.209401  0.378661  1
  Tb  Tb6  1  0.411962  0.789961  0.379286  1
  Tb  Tb7  1  0.410674  0.209432  0.879831  1
  Tb  Tb8  1  0.210179  0.411967  0.620287  1
  Tb  Tb9  1  0.209975  0.588040  0.120774  1
  Tb  Tb10  1  0.790667  0.412348  0.121396  1
  Tb  Tb11  1  0.790508  0.589325  0.620111  1
  Tb  Tb12  1  0.909986  0.708817  0.121305  1
  Tb  Tb13  1  0.911195  0.291042  0.621317  1
  Tb  Tb14  1  0.090233  0.708730  0.621417  1
  Tb  Tb15  1  0.090069  0.291347  0.121472  1
  Tb  Tb16  1  0.999874  0.999951  0.499921  1
  Tb  Tb17  1  0.000044  0.000126  0.000073  1
  Tb  Tb18  1  0.499761  0.500032  0.999913  1
  Dy  Dy19  1  0.499927  0.500279  0.500037  1
  Ir  Ir20  1  0.654494  0.653961  0.250287  1
  Ir  Ir21  1  0.346037  0.345514  0.250167  1
  Ir  Ir22  1  0.345477  0.654524  0.749766  1
  Rh  Rh23  1  0.846193  0.153816  0.250000  1
  Rh  Rh24  1  0.846566  0.846854  0.750176  1
  Rh  Rh25  1  0.153150  0.153421  0.749846  1
  Rh  Rh26  1  0.153236  0.846753  0.249991  1
  Rh  Rh27  1  0.654580  0.345419  0.749830  1
  Rh  Rh28  1  0.500243  0.000419  0.123927  1
  Rh  Rh29  1  0.500296  0.000651  0.624459  1
  Rh  Rh30  1  0.999347  0.499705  0.875545  1
  Rh  Rh31  1  0.999583  0.499755  0.376051  1
