# generated using pymatgen
data_Zr8Al14PRh7
_symmetry_space_group_name_H-M   'P 1'
_cell_length_a   8.89228983
_cell_length_b   8.89227032
_cell_length_c   8.89228943
_cell_angle_alpha   120.07236452
_cell_angle_beta   119.81358422
_cell_angle_gamma   90.09901604
_symmetry_Int_Tables_number   1
_chemical_formula_structural   Zr8Al14PRh7
_chemical_formula_sum   'Zr8 Al14 P1 Rh7'
_cell_volume   497.61710660
_cell_formula_units_Z   1
loop_
 _symmetry_equiv_pos_site_id
 _symmetry_equiv_pos_as_xyz
  1  'x, y, z'
loop_
 _atom_site_type_symbol
 _atom_site_label
 _atom_site_symmetry_multiplicity
 _atom_site_fract_x
 _atom_site_fract_y
 _atom_site_fract_z
 _atom_site_occupancy
  Zr  Zr0  1  0.805648  0.300234  0.095161  1
  Zr  Zr1  1  0.205071  0.300234  0.494585  1
  Zr  Zr2  1  0.196017  0.696017  0.500000  1
  Zr  Zr3  1  0.205075  0.710486  0.904841  1
  Zr  Zr4  1  0.805646  0.710486  0.505411  1
  Zr  Zr5  1  0.792702  0.292702  0.500000  1
  Zr  Zr6  1  0.380144  0.120779  0.740635  1
  Zr  Zr7  1  0.380145  0.639510  0.259364  1
  Al  Al8  1  0.163190  0.328953  0.165763  1
  Al  Al9  1  0.163190  0.997425  0.834234  1
  Al  Al10  1  0.155101  0.334689  0.820414  1
  Al  Al11  1  0.514274  0.334689  0.179588  1
  Al  Al12  1  0.833237  0.663647  0.830410  1
  Al  Al13  1  0.833237  0.002825  0.169587  1
  Al  Al14  1  0.832719  0.665922  0.166799  1
  Al  Al15  1  0.499124  0.665922  0.833203  1
  Al  Al16  1  0.380931  0.119807  0.261124  1
  Al  Al17  1  0.858685  0.119807  0.738875  1
  Al  Al18  1  0.622324  0.880409  0.258085  1
  Al  Al19  1  0.622324  0.364237  0.741913  1
  Al  Al20  1  0.623951  0.879953  0.743996  1
  Al  Al21  1  0.135956  0.879953  0.256001  1
  P  P22  1  0.994820  0.494821  0.500001  1
  Rh  Rh23  1  0.997449  0.998488  0.500246  1
  Rh  Rh24  1  0.498242  0.998488  0.001039  1
  Rh  Rh25  1  0.499418  0.499417  0.999999  1
  Rh  Rh26  1  0.498232  0.497210  0.499749  1
  Rh  Rh27  1  0.997461  0.497210  0.998978  1
  Rh  Rh28  1  0.999109  0.999108  0.999999  1
  Rh  Rh29  1  0.506570  0.006570  0.499999  1
