# generated using pymatgen
data_TbYPa2(CoB4)4
_symmetry_space_group_name_H-M   'P 1'
_cell_length_a   3.41152700
_cell_length_b   5.93294549
_cell_length_c   11.50558300
_cell_angle_alpha   89.94666732
_cell_angle_beta   90.00000000
_cell_angle_gamma   90.00000000
_symmetry_Int_Tables_number   1
_chemical_formula_structural   TbYPa2(CoB4)4
_chemical_formula_sum   'Tb1 Y1 Pa2 Co4 B16'
_cell_volume   232.87754427
_cell_formula_units_Z   1
loop_
 _symmetry_equiv_pos_site_id
 _symmetry_equiv_pos_as_xyz
  1  'x, y, z'
loop_
 _atom_site_type_symbol
 _atom_site_label
 _atom_site_symmetry_multiplicity
 _atom_site_fract_x
 _atom_site_fract_y
 _atom_site_fract_z
 _atom_site_occupancy
  Tb  Tb0  1  0.500000  0.127742  0.648093  1
  Y  Y1  1  0.500000  0.872296  0.351921  1
  Pa  Pa2  1  0.500000  0.372624  0.151591  1
  Pa  Pa3  1  0.500000  0.627389  0.848439  1
  Co  Co4  1  0.500000  0.366417  0.409653  1
  Co  Co5  1  0.500000  0.633548  0.590318  1
  Co  Co6  1  0.500000  0.134642  0.910195  1
  Co  Co7  1  0.500000  0.865351  0.089868  1
  B  B8  1  0.000000  0.111175  0.046039  1
  B  B9  1  0.000000  0.888797  0.953943  1
  B  B10  1  0.000000  0.387494  0.544963  1
  B  B11  1  0.000000  0.612718  0.454959  1
  B  B12  1  0.000000  0.138555  0.466886  1
  B  B13  1  0.000000  0.861358  0.532979  1
  B  B14  1  0.000000  0.361602  0.965649  1
  B  B15  1  0.000000  0.638404  0.034353  1
  B  B16  1  0.000000  0.021020  0.190679  1
  B  B17  1  0.000000  0.978963  0.809431  1
  B  B18  1  0.000000  0.476734  0.688734  1
  B  B19  1  0.000000  0.523428  0.311264  1
  B  B20  1  0.000000  0.217289  0.316195  1
  B  B21  1  0.000000  0.782488  0.683794  1
  B  B22  1  0.000000  0.281904  0.814610  1
  B  B23  1  0.000000  0.718063  0.185442  1
