# generated using pymatgen
data_Gd5Th3C14
_symmetry_space_group_name_H-M   'P 1'
_cell_length_a   13.96211624
_cell_length_b   3.77973615
_cell_length_c   6.65353164
_cell_angle_alpha   75.15649524
_cell_angle_beta   89.69715304
_cell_angle_gamma   90.11710297
_symmetry_Int_Tables_number   1
_chemical_formula_structural   Gd5Th3C14
_chemical_formula_sum   'Gd5 Th3 C14'
_cell_volume   339.40332881
_cell_formula_units_Z   1
loop_
 _symmetry_equiv_pos_site_id
 _symmetry_equiv_pos_as_xyz
  1  'x, y, z'
loop_
 _atom_site_type_symbol
 _atom_site_label
 _atom_site_symmetry_multiplicity
 _atom_site_fract_x
 _atom_site_fract_y
 _atom_site_fract_z
 _atom_site_occupancy
  Gd  Gd0  1  0.558333  0.366287  0.761046  1
  Gd  Gd1  1  0.661032  0.072216  0.330368  1
  Gd  Gd2  1  0.163535  0.923429  0.175759  1
  Gd  Gd3  1  0.338881  0.931932  0.675019  1
  Gd  Gd4  1  0.835936  0.071457  0.826350  1
  Th  Th5  1  0.939998  0.363226  0.263087  1
  Th  Th6  1  0.441060  0.638122  0.238087  1
  Th  Th7  1  0.060068  0.634898  0.738837  1
  C  C8  1  0.497870  0.009041  0.488381  1
  C  C9  1  0.999954  0.000271  0.999213  1
  C  C10  1  0.781868  0.482210  0.066119  1
  C  C11  1  0.281666  0.514491  0.438218  1
  C  C12  1  0.220022  0.512319  0.937029  1
  C  C13  1  0.716959  0.484963  0.564918  1
  C  C14  1  0.194655  0.362500  0.464066  1
  C  C15  1  0.694910  0.629244  0.038391  1
  C  C16  1  0.399934  0.282964  0.939266  1
  C  C17  1  0.897098  0.714869  0.564569  1
  C  C18  1  0.603048  0.721285  0.054294  1
  C  C19  1  0.101768  0.285875  0.435863  1
  C  C20  1  0.307281  0.365581  0.960009  1
  C  C21  1  0.804126  0.632820  0.541111  1
