# generated using pymatgen
data_Sc3Mn8CoP6
_symmetry_space_group_name_H-M   'P 1'
_cell_length_a   3.52321300
_cell_length_b   10.75576000
_cell_length_c   12.41043200
_cell_angle_alpha   90.00000000
_cell_angle_beta   90.00000000
_cell_angle_gamma   90.00000000
_symmetry_Int_Tables_number   1
_chemical_formula_structural   Sc3Mn8CoP6
_chemical_formula_sum   'Sc6 Mn16 Co2 P12'
_cell_volume   470.29125377
_cell_formula_units_Z   2
loop_
 _symmetry_equiv_pos_site_id
 _symmetry_equiv_pos_as_xyz
  1  'x, y, z'
loop_
 _atom_site_type_symbol
 _atom_site_label
 _atom_site_symmetry_multiplicity
 _atom_site_fract_x
 _atom_site_fract_y
 _atom_site_fract_z
 _atom_site_occupancy
  Sc  Sc0  1  0.000000  0.500000  0.531983  1
  Sc  Sc1  1  0.500000  0.000000  0.468017  1
  Sc  Sc2  1  0.500000  0.824190  0.207235  1
  Sc  Sc3  1  0.500000  0.175810  0.207235  1
  Sc  Sc4  1  0.000000  0.675810  0.792765  1
  Sc  Sc5  1  0.000000  0.324190  0.792765  1
  Mn  Mn6  1  0.500000  0.500000  0.165621  1
  Mn  Mn7  1  0.000000  0.000000  0.834379  1
  Mn  Mn8  1  0.000000  0.500000  0.992545  1
  Mn  Mn9  1  0.500000  0.000000  0.007455  1
  Mn  Mn10  1  0.500000  0.332705  0.995217  1
  Mn  Mn11  1  0.500000  0.667295  0.995217  1
  Mn  Mn12  1  0.000000  0.167295  0.004783  1
  Mn  Mn13  1  0.000000  0.832705  0.004783  1
  Mn  Mn14  1  0.500000  0.298622  0.433575  1
  Mn  Mn15  1  0.500000  0.701378  0.433575  1
  Mn  Mn16  1  0.000000  0.201378  0.566425  1
  Mn  Mn17  1  0.000000  0.798622  0.566425  1
  Mn  Mn18  1  0.500000  0.878290  0.701319  1
  Mn  Mn19  1  0.500000  0.121710  0.701319  1
  Mn  Mn20  1  0.000000  0.621710  0.298681  1
  Mn  Mn21  1  0.000000  0.378290  0.298681  1
  Co  Co22  1  0.500000  0.500000  0.703897  1
  Co  Co23  1  0.000000  0.000000  0.296103  1
  P  P24  1  0.500000  0.500000  0.876566  1
  P  P25  1  0.000000  0.000000  0.123434  1
  P  P26  1  0.500000  0.500000  0.363586  1
  P  P27  1  0.000000  0.000000  0.636414  1
  P  P28  1  0.500000  0.321870  0.620337  1
  P  P29  1  0.500000  0.678130  0.620337  1
  P  P30  1  0.000000  0.178130  0.379663  1
  P  P31  1  0.000000  0.821870  0.379663  1
  P  P32  1  0.500000  0.841366  0.882370  1
  P  P33  1  0.500000  0.158634  0.882370  1
  P  P34  1  0.000000  0.658634  0.117630  1
  P  P35  1  0.000000  0.341366  0.117630  1
