# generated using pymatgen
data_Ce11Dy(CoSi)8
_symmetry_space_group_name_H-M   'P 1'
_cell_length_a   5.48203803
_cell_length_b   7.85910704
_cell_length_c   12.30211300
_cell_angle_alpha   90.00000000
_cell_angle_beta   90.00000000
_cell_angle_gamma   90.01187910
_symmetry_Int_Tables_number   1
_chemical_formula_structural   Ce11Dy(CoSi)8
_chemical_formula_sum   'Ce11 Dy1 Co8 Si8'
_cell_volume   530.02328624
_cell_formula_units_Z   1
loop_
 _symmetry_equiv_pos_site_id
 _symmetry_equiv_pos_as_xyz
  1  'x, y, z'
loop_
 _atom_site_type_symbol
 _atom_site_label
 _atom_site_symmetry_multiplicity
 _atom_site_fract_x
 _atom_site_fract_y
 _atom_site_fract_z
 _atom_site_occupancy
  Ce  Ce0  1  0.345624  0.752567  0.250000  1
  Ce  Ce1  1  0.656666  0.246506  0.750000  1
  Ce  Ce2  1  0.653822  0.252977  0.250000  1
  Ce  Ce3  1  0.158310  0.400464  0.407736  1
  Ce  Ce4  1  0.157762  0.101728  0.592017  1
  Ce  Ce5  1  0.839723  0.900210  0.092462  1
  Ce  Ce6  1  0.838618  0.598141  0.907742  1
  Ce  Ce7  1  0.838618  0.598141  0.592258  1
  Ce  Ce8  1  0.839723  0.900210  0.407538  1
  Ce  Ce9  1  0.157762  0.101728  0.907983  1
  Ce  Ce10  1  0.158310  0.400464  0.092264  1
  Dy  Dy11  1  0.347825  0.747161  0.750000  1
  Co  Co12  1  0.378724  0.039668  0.412520  1
  Co  Co13  1  0.381870  0.457044  0.587625  1
  Co  Co14  1  0.617995  0.542134  0.088153  1
  Co  Co15  1  0.623649  0.960564  0.912549  1
  Co  Co16  1  0.378724  0.039668  0.087480  1
  Co  Co17  1  0.381870  0.457044  0.912375  1
  Co  Co18  1  0.617995  0.542134  0.411847  1
  Co  Co19  1  0.623649  0.960564  0.587451  1
  Si  Si20  1  0.646969  0.249392  0.499609  1
  Si  Si21  1  0.352399  0.750389  0.997521  1
  Si  Si22  1  0.352399  0.750389  0.502479  1
  Si  Si23  1  0.646969  0.249392  0.000391  1
  Si  Si24  1  0.842203  0.892072  0.750000  1
  Si  Si25  1  0.840753  0.604883  0.250000  1
  Si  Si26  1  0.162330  0.400589  0.750000  1
  Si  Si27  1  0.158742  0.103771  0.250000  1
