# generated using pymatgen
data_Rb6ScAlTe6
_symmetry_space_group_name_H-M   'P 1'
_cell_length_a   14.78527500
_cell_length_b   9.14178392
_cell_length_c   11.75417240
_cell_angle_alpha   52.41591033
_cell_angle_beta   90.00000000
_cell_angle_gamma   90.00000000
_symmetry_Int_Tables_number   1
_chemical_formula_structural   Rb6ScAlTe6
_chemical_formula_sum   'Rb12 Sc2 Al2 Te12'
_cell_volume   1259.01017494
_cell_formula_units_Z   2
loop_
 _symmetry_equiv_pos_site_id
 _symmetry_equiv_pos_as_xyz
  1  'x, y, z'
loop_
 _atom_site_type_symbol
 _atom_site_label
 _atom_site_symmetry_multiplicity
 _atom_site_fract_x
 _atom_site_fract_y
 _atom_site_fract_z
 _atom_site_occupancy
  Rb  Rb0  1  0.311675  0.148224  0.076377  1
  Rb  Rb1  1  0.689289  0.851637  0.924312  1
  Rb  Rb2  1  0.811675  0.851776  0.423623  1
  Rb  Rb3  1  0.898231  0.322610  0.399137  1
  Rb  Rb4  1  0.617713  0.373291  0.471755  1
  Rb  Rb5  1  0.117713  0.626709  0.028245  1
  Rb  Rb6  1  0.382061  0.625442  0.528718  1
  Rb  Rb7  1  0.882061  0.374558  0.971282  1
  Rb  Rb8  1  0.602393  0.321297  0.898649  1
  Rb  Rb9  1  0.102393  0.678703  0.601351  1
  Rb  Rb10  1  0.398231  0.677390  0.100863  1
  Rb  Rb11  1  0.189289  0.148363  0.575688  1
  Sc  Sc12  1  0.061467  0.942909  0.156099  1
  Sc  Sc13  1  0.561467  0.057091  0.343901  1
  Al  Al14  1  0.437652  0.943382  0.656450  1
  Al  Al15  1  0.937652  0.056618  0.843550  1
  Te  Te16  1  0.392645  0.171297  0.374424  1
  Te  Te17  1  0.892645  0.828703  0.125576  1
  Te  Te18  1  0.600547  0.823064  0.640229  1
  Te  Te19  1  0.100547  0.176936  0.859771  1
  Te  Te20  1  0.690378  0.332900  0.193567  1
  Te  Te21  1  0.190378  0.667100  0.306433  1
  Te  Te22  1  0.316143  0.677380  0.799354  1
  Te  Te23  1  0.816143  0.322620  0.700646  1
  Te  Te24  1  0.547892  0.865795  0.233082  1
  Te  Te25  1  0.047892  0.134205  0.266918  1
  Te  Te26  1  0.451916  0.126004  0.761076  1
  Te  Te27  1  0.951916  0.873996  0.738924  1
