# generated using pymatgen
data_Li3DyY2Si2Ge
_symmetry_space_group_name_H-M   'P 1'
_cell_length_a   7.02992601
_cell_length_b   7.02939642
_cell_length_c   4.24176500
_cell_angle_alpha   90.00000000
_cell_angle_beta   90.00000000
_cell_angle_gamma   119.99749587
_symmetry_Int_Tables_number   1
_chemical_formula_structural   Li3DyY2Si2Ge
_chemical_formula_sum   'Li3 Dy1 Y2 Si2 Ge1'
_cell_volume   181.53358493
_cell_formula_units_Z   1
loop_
 _symmetry_equiv_pos_site_id
 _symmetry_equiv_pos_as_xyz
  1  'x, y, z'
loop_
 _atom_site_type_symbol
 _atom_site_label
 _atom_site_symmetry_multiplicity
 _atom_site_fract_x
 _atom_site_fract_y
 _atom_site_fract_z
 _atom_site_occupancy
  Li  Li0  1  0.233701  0.999972  0.500000  1
  Li  Li1  1  0.766299  0.766271  0.500000  1
  Li  Li2  1  0.000000  0.233747  0.500000  1
  Dy  Dy3  1  0.000000  0.575057  0.000000  1
  Y  Y4  1  0.574918  0.000010  0.000000  1
  Y  Y5  1  0.425082  0.425092  0.000000  1
  Si  Si6  1  0.333165  0.666611  0.500000  1
  Si  Si7  1  0.666835  0.333445  0.500000  1
  Ge  Ge8  1  0.000000  0.999794  0.000000  1
