# generated using pymatgen
data_CaTb5TmNiI12
_symmetry_space_group_name_H-M   'P 1'
_cell_length_a   9.75381668
_cell_length_b   9.74581261
_cell_length_c   9.74072167
_cell_angle_alpha   106.82485114
_cell_angle_beta   106.71764234
_cell_angle_gamma   106.85004037
_symmetry_Int_Tables_number   1
_chemical_formula_structural   CaTb5TmNiI12
_chemical_formula_sum   'Ca1 Tb5 Tm1 Ni1 I12'
_cell_volume   775.35249506
_cell_formula_units_Z   1
loop_
 _symmetry_equiv_pos_site_id
 _symmetry_equiv_pos_as_xyz
  1  'x, y, z'
loop_
 _atom_site_type_symbol
 _atom_site_label
 _atom_site_symmetry_multiplicity
 _atom_site_fract_x
 _atom_site_fract_y
 _atom_site_fract_z
 _atom_site_occupancy
  Ca  Ca0  1  0.499806  0.499947  0.499616  1
  Tb  Tb1  1  0.705428  0.904150  0.975765  1
  Tb  Tb2  1  0.975289  0.705186  0.903242  1
  Tb  Tb3  1  0.095711  0.024623  0.295217  1
  Tb  Tb4  1  0.294791  0.096011  0.023833  1
  Tb  Tb5  1  0.024346  0.294791  0.094911  1
  Tm  Tm6  1  0.906023  0.975532  0.711118  1
  Ni  Ni7  1  0.000530  0.000396  0.000791  1
  I  I8  1  0.925780  0.318462  0.772891  1
  I  I9  1  0.776035  0.927154  0.324195  1
  I  I10  1  0.322084  0.775189  0.926330  1
  I  I11  1  0.072952  0.677619  0.223827  1
  I  I12  1  0.219960  0.071728  0.676767  1
  I  I13  1  0.677660  0.224361  0.073095  1
  I  I14  1  0.545592  0.851723  0.619976  1
  I  I15  1  0.620075  0.541211  0.849721  1
  I  I16  1  0.850109  0.623376  0.541371  1
  I  I17  1  0.458094  0.149920  0.379519  1
  I  I18  1  0.379869  0.458602  0.149650  1
  I  I19  1  0.149867  0.380018  0.458166  1
