# generated using pymatgen
data_DyErSc3P12Ru19
_symmetry_space_group_name_H-M   'P 1'
_cell_length_a   12.45715100
_cell_length_b   12.45715106
_cell_length_c   3.95062300
_cell_angle_alpha   90.00000000
_cell_angle_beta   90.00000000
_cell_angle_gamma   120.00000251
_symmetry_Int_Tables_number   1
_chemical_formula_structural   DyErSc3P12Ru19
_chemical_formula_sum   'Dy1 Er1 Sc3 P12 Ru19'
_cell_volume   530.92560189
_cell_formula_units_Z   1
loop_
 _symmetry_equiv_pos_site_id
 _symmetry_equiv_pos_as_xyz
  1  'x, y, z'
loop_
 _atom_site_type_symbol
 _atom_site_label
 _atom_site_symmetry_multiplicity
 _atom_site_fract_x
 _atom_site_fract_y
 _atom_site_fract_z
 _atom_site_occupancy
  Dy  Dy0  1  0.333333  0.666667  0.000000  1
  Er  Er1  1  0.666667  0.333333  0.000000  1
  Sc  Sc2  1  0.817814  0.999837  0.500000  1
  Sc  Sc3  1  0.182023  0.182186  0.500000  1
  Sc  Sc4  1  0.000163  0.817977  0.500000  1
  P  P5  1  0.627128  0.999808  0.000000  1
  P  P6  1  0.372680  0.372872  0.000000  1
  P  P7  1  0.000192  0.627320  0.000000  1
  P  P8  1  0.693889  0.523191  0.500000  1
  P  P9  1  0.829303  0.306111  0.500000  1
  P  P10  1  0.306603  0.830662  0.500000  1
  P  P11  1  0.524058  0.693397  0.500000  1
  P  P12  1  0.181545  0.000900  0.000000  1
  P  P13  1  0.819355  0.818455  0.000000  1
  P  P14  1  0.999100  0.180645  0.000000  1
  P  P15  1  0.476809  0.170697  0.500000  1
  P  P16  1  0.169338  0.475942  0.500000  1
  Ru  Ru17  1  0.628177  0.812454  0.000000  1
  Ru  Ru18  1  0.184277  0.371823  0.000000  1
  Ru  Ru19  1  0.373189  0.185316  0.000000  1
  Ru  Ru20  1  0.187546  0.815723  0.000000  1
  Ru  Ru21  1  0.812126  0.626811  0.000000  1
  Ru  Ru22  1  0.873619  0.507806  0.500000  1
  Ru  Ru23  1  0.492194  0.365814  0.500000  1
  Ru  Ru24  1  0.634186  0.126381  0.500000  1
  Ru  Ru25  1  0.126121  0.635007  0.500000  1
  Ru  Ru26  1  0.364993  0.491114  0.500000  1
  Ru  Ru27  1  0.508886  0.873879  0.500000  1
  Ru  Ru28  1  0.000000  0.000000  0.000000  1
  Ru  Ru29  1  0.721845  0.721234  0.500000  1
  Ru  Ru30  1  0.999388  0.278155  0.500000  1
  Ru  Ru31  1  0.443540  0.999728  0.000000  1
  Ru  Ru32  1  0.556187  0.556460  0.000000  1
  Ru  Ru33  1  0.000272  0.443813  0.000000  1
  Ru  Ru34  1  0.814684  0.187874  0.000000  1
  Ru  Ru35  1  0.278766  0.000612  0.500000  1
