# generated using pymatgen
data_Eu3Ni6B2Ir
_symmetry_space_group_name_H-M   'P 1'
_cell_length_a   7.90739321
_cell_length_b   7.90739354
_cell_length_c   7.90739392
_cell_angle_alpha   38.54637100
_cell_angle_beta   38.54636790
_cell_angle_gamma   38.54636894
_symmetry_Int_Tables_number   1
_chemical_formula_structural   Eu3Ni6B2Ir
_chemical_formula_sum   'Eu3 Ni6 B2 Ir1'
_cell_volume   172.51456272
_cell_formula_units_Z   1
loop_
 _symmetry_equiv_pos_site_id
 _symmetry_equiv_pos_as_xyz
  1  'x, y, z'
loop_
 _atom_site_type_symbol
 _atom_site_label
 _atom_site_symmetry_multiplicity
 _atom_site_fract_x
 _atom_site_fract_y
 _atom_site_fract_z
 _atom_site_occupancy
  Eu  Eu0  1  0.854077  0.854077  0.854077  1
  Eu  Eu1  1  0.145923  0.145923  0.145923  1
  Eu  Eu2  1  0.000000  0.000000  0.000000  1
  Ni  Ni3  1  0.441822  0.927915  0.441822  1
  Ni  Ni4  1  0.441822  0.441822  0.927915  1
  Ni  Ni5  1  0.927915  0.441822  0.441822  1
  Ni  Ni6  1  0.558178  0.072085  0.558178  1
  Ni  Ni7  1  0.558178  0.558178  0.072085  1
  Ni  Ni8  1  0.072085  0.558178  0.558178  1
  B  B9  1  0.669540  0.669540  0.669540  1
  B  B10  1  0.330460  0.330460  0.330460  1
  Ir  Ir11  1  0.500000  0.500000  0.500000  1
