# generated using pymatgen
data_Dy3Y(Hf3Si4)2
_symmetry_space_group_name_H-M   'P 1'
_cell_length_a   7.28192802
_cell_length_b   7.28198802
_cell_length_c   13.37740700
_cell_angle_alpha   90.00000000
_cell_angle_beta   90.00000000
_cell_angle_gamma   90.00807276
_symmetry_Int_Tables_number   1
_chemical_formula_structural   Dy3Y(Hf3Si4)2
_chemical_formula_sum   'Dy6 Y2 Hf12 Si16'
_cell_volume   709.36258444
_cell_formula_units_Z   2
loop_
 _symmetry_equiv_pos_site_id
 _symmetry_equiv_pos_as_xyz
  1  'x, y, z'
loop_
 _atom_site_type_symbol
 _atom_site_label
 _atom_site_symmetry_multiplicity
 _atom_site_fract_x
 _atom_site_fract_y
 _atom_site_fract_z
 _atom_site_occupancy
  Dy  Dy0  1  0.653898  0.004519  0.285103  1
  Dy  Dy1  1  0.346102  0.995481  0.785103  1
  Dy  Dy2  1  0.846225  0.504436  0.964890  1
  Dy  Dy3  1  0.153775  0.495564  0.464890  1
  Dy  Dy4  1  0.004576  0.653894  0.714931  1
  Dy  Dy5  1  0.995424  0.346106  0.214931  1
  Y  Y6  1  0.495313  0.153971  0.534990  1
  Y  Y7  1  0.504687  0.846029  0.034990  1
  Hf  Hf8  1  0.675956  0.324184  0.750141  1
  Hf  Hf9  1  0.324044  0.675816  0.250141  1
  Hf  Hf10  1  0.824190  0.823942  0.499974  1
  Hf  Hf11  1  0.175810  0.176058  0.999974  1
  Hf  Hf12  1  0.496211  0.352412  0.124866  1
  Hf  Hf13  1  0.503789  0.647588  0.624866  1
  Hf  Hf14  1  0.852493  0.003916  0.874719  1
  Hf  Hf15  1  0.147507  0.996084  0.374719  1
  Hf  Hf16  1  0.647678  0.503927  0.375062  1
  Hf  Hf17  1  0.352322  0.496073  0.875062  1
  Hf  Hf18  1  0.003882  0.852416  0.125156  1
  Hf  Hf19  1  0.996118  0.147584  0.625156  1
  Si  Si20  1  0.795819  0.139833  0.067410  1
  Si  Si21  1  0.204181  0.860167  0.567410  1
  Si  Si22  1  0.639711  0.704298  0.817355  1
  Si  Si23  1  0.360289  0.295702  0.317355  1
  Si  Si24  1  0.860608  0.204448  0.432548  1
  Si  Si25  1  0.139392  0.795552  0.932548  1
  Si  Si26  1  0.704480  0.639412  0.182705  1
  Si  Si27  1  0.295520  0.360588  0.682705  1
  Si  Si28  1  0.550690  0.206034  0.935815  1
  Si  Si29  1  0.449310  0.793966  0.435815  1
  Si  Si30  1  0.706049  0.949145  0.686000  1
  Si  Si31  1  0.293951  0.050855  0.186000  1
  Si  Si32  1  0.794371  0.449499  0.564167  1
  Si  Si33  1  0.205629  0.550501  0.064167  1
  Si  Si34  1  0.949316  0.705864  0.314168  1
  Si  Si35  1  0.050684  0.294136  0.814168  1
