# generated using pymatgen
data_Cs2Be3S4
_symmetry_space_group_name_H-M   'P 1'
_cell_length_a   9.16270223
_cell_length_b   9.16270244
_cell_length_c   9.16270214
_cell_angle_alpha   145.90582715
_cell_angle_beta   109.25627534
_cell_angle_gamma   80.91431452
_symmetry_Int_Tables_number   1
_chemical_formula_structural   Cs2Be3S4
_chemical_formula_sum   'Cs4 Be6 S8'
_cell_volume   397.32285240
_cell_formula_units_Z   2
loop_
 _symmetry_equiv_pos_site_id
 _symmetry_equiv_pos_as_xyz
  1  'x, y, z'
loop_
 _atom_site_type_symbol
 _atom_site_label
 _atom_site_symmetry_multiplicity
 _atom_site_fract_x
 _atom_site_fract_y
 _atom_site_fract_z
 _atom_site_occupancy
  Cs  Cs0  1  0.123078  0.240710  0.363789  1
  Cs  Cs1  1  0.623078  0.259290  0.882369  1
  Cs  Cs2  1  0.376922  0.740710  0.117631  1
  Cs  Cs3  1  0.876922  0.759290  0.636211  1
  Be  Be4  1  0.013579  0.250000  0.763579  1
  Be  Be5  1  0.486421  0.250000  0.236421  1
  Be  Be6  1  0.513579  0.750000  0.763579  1
  Be  Be7  1  0.250000  0.750000  0.500000  1
  Be  Be8  1  0.986421  0.750000  0.236421  1
  Be  Be9  1  0.750000  0.250000  0.500000  1
  S  S10  1  0.463833  0.607468  0.410284  1
  S  S11  1  0.697183  0.107468  0.143636  1
  S  S12  1  0.036167  0.446453  0.143636  1
  S  S13  1  0.536167  0.392532  0.589716  1
  S  S14  1  0.302817  0.892532  0.856364  1
  S  S15  1  0.963833  0.553547  0.856364  1
  S  S16  1  0.802817  0.946453  0.410284  1
  S  S17  1  0.197183  0.053547  0.589716  1
