# generated using pymatgen
data_Tb6ScCo14(NiP4)3
_symmetry_space_group_name_H-M   'P 1'
_cell_length_a   3.73629500
_cell_length_b   10.62078600
_cell_length_c   12.36522800
_cell_angle_alpha   90.00000000
_cell_angle_beta   90.00000000
_cell_angle_gamma   90.00000000
_symmetry_Int_Tables_number   1
_chemical_formula_structural   Tb6ScCo14(NiP4)3
_chemical_formula_sum   'Tb6 Sc1 Co14 Ni3 P12'
_cell_volume   490.68179533
_cell_formula_units_Z   1
loop_
 _symmetry_equiv_pos_site_id
 _symmetry_equiv_pos_as_xyz
  1  'x, y, z'
loop_
 _atom_site_type_symbol
 _atom_site_label
 _atom_site_symmetry_multiplicity
 _atom_site_fract_x
 _atom_site_fract_y
 _atom_site_fract_z
 _atom_site_occupancy
  Tb  Tb0  1  0.000000  0.500000  0.525024  1
  Tb  Tb1  1  0.500000  0.000000  0.478860  1
  Tb  Tb2  1  0.500000  0.818403  0.206956  1
  Tb  Tb3  1  0.500000  0.181597  0.206956  1
  Tb  Tb4  1  0.000000  0.683982  0.796711  1
  Tb  Tb5  1  0.000000  0.316018  0.796711  1
  Sc  Sc6  1  0.500000  0.500000  0.152525  1
  Co  Co7  1  0.000000  0.500000  0.984939  1
  Co  Co8  1  0.500000  0.000000  0.013525  1
  Co  Co9  1  0.500000  0.327904  0.990378  1
  Co  Co10  1  0.500000  0.672096  0.990378  1
  Co  Co11  1  0.000000  0.162186  0.000867  1
  Co  Co12  1  0.000000  0.837814  0.000867  1
  Co  Co13  1  0.500000  0.295602  0.434475  1
  Co  Co14  1  0.500000  0.704398  0.434475  1
  Co  Co15  1  0.000000  0.201608  0.570267  1
  Co  Co16  1  0.000000  0.798392  0.570267  1
  Co  Co17  1  0.500000  0.879537  0.708094  1
  Co  Co18  1  0.500000  0.120463  0.708094  1
  Co  Co19  1  0.000000  0.622531  0.295833  1
  Co  Co20  1  0.000000  0.377469  0.295833  1
  Ni  Ni21  1  0.000000  0.000000  0.837040  1
  Ni  Ni22  1  0.500000  0.500000  0.703384  1
  Ni  Ni23  1  0.000000  0.000000  0.296945  1
  P  P24  1  0.500000  0.500000  0.883960  1
  P  P25  1  0.000000  0.000000  0.115043  1
  P  P26  1  0.500000  0.500000  0.356949  1
  P  P27  1  0.000000  0.000000  0.655406  1
  P  P28  1  0.500000  0.307877  0.616836  1
  P  P29  1  0.500000  0.692123  0.616836  1
  P  P30  1  0.000000  0.191091  0.387153  1
  P  P31  1  0.000000  0.808909  0.387153  1
  P  P32  1  0.500000  0.850826  0.890258  1
  P  P33  1  0.500000  0.149174  0.890258  1
  P  P34  1  0.000000  0.663229  0.100373  1
  P  P35  1  0.000000  0.336771  0.100373  1
