# generated using pymatgen
data_Sc2Tc3Mo
_symmetry_space_group_name_H-M   'P 1'
_cell_length_a   5.32076200
_cell_length_b   5.32076245
_cell_length_c   8.49285100
_cell_angle_alpha   90.00000000
_cell_angle_beta   90.00000000
_cell_angle_gamma   120.00000965
_symmetry_Int_Tables_number   1
_chemical_formula_structural   Sc2Tc3Mo
_chemical_formula_sum   'Sc4 Tc6 Mo2'
_cell_volume   208.22448531
_cell_formula_units_Z   2
loop_
 _symmetry_equiv_pos_site_id
 _symmetry_equiv_pos_as_xyz
  1  'x, y, z'
loop_
 _atom_site_type_symbol
 _atom_site_label
 _atom_site_symmetry_multiplicity
 _atom_site_fract_x
 _atom_site_fract_y
 _atom_site_fract_z
 _atom_site_occupancy
  Sc  Sc0  1  0.333333  0.666667  0.437740  1
  Sc  Sc1  1  0.666667  0.333333  0.562260  1
  Sc  Sc2  1  0.666667  0.333333  0.937740  1
  Sc  Sc3  1  0.333333  0.666667  0.062260  1
  Tc  Tc4  1  0.827266  0.172734  0.250000  1
  Tc  Tc5  1  0.827266  0.654534  0.250000  1
  Tc  Tc6  1  0.345466  0.172734  0.250000  1
  Tc  Tc7  1  0.172734  0.827266  0.750000  1
  Tc  Tc8  1  0.172734  0.345466  0.750000  1
  Tc  Tc9  1  0.654534  0.827266  0.750000  1
  Mo  Mo10  1  0.000000  0.000000  0.500000  1
  Mo  Mo11  1  0.000000  0.000000  0.000000  1
