# generated using pymatgen
data_Li6Dy5Y(WO6)4
_symmetry_space_group_name_H-M   'P 1'
_cell_length_a   10.67921727
_cell_length_b   10.68048958
_cell_length_c   10.67981602
_cell_angle_alpha   109.47676138
_cell_angle_beta   109.47193853
_cell_angle_gamma   109.46509995
_symmetry_Int_Tables_number   1
_chemical_formula_structural   Li6Dy5Y(WO6)4
_chemical_formula_sum   'Li12 Dy10 Y2 W8 O48'
_cell_volume   937.71685220
_cell_formula_units_Z   2
loop_
 _symmetry_equiv_pos_site_id
 _symmetry_equiv_pos_as_xyz
  1  'x, y, z'
loop_
 _atom_site_type_symbol
 _atom_site_label
 _atom_site_symmetry_multiplicity
 _atom_site_fract_x
 _atom_site_fract_y
 _atom_site_fract_z
 _atom_site_occupancy
  Li  Li0  1  0.750014  0.375054  0.125051  1
  Li  Li1  1  0.875038  0.749998  0.125051  1
  Li  Li2  1  0.125047  0.375065  0.250066  1
  Li  Li3  1  0.625018  0.875001  0.250066  1
  Li  Li4  1  0.249999  0.125008  0.375018  1
  Li  Li5  1  0.625019  0.250010  0.375018  1
  Li  Li6  1  0.374894  0.749935  0.624887  1
  Li  Li7  1  0.749993  0.874952  0.624887  1
  Li  Li8  1  0.374942  0.125004  0.749995  1
  Li  Li9  1  0.875053  0.624991  0.749995  1
  Li  Li10  1  0.249936  0.624989  0.874984  1
  Li  Li11  1  0.125047  0.249995  0.874984  1
  Dy  Dy12  1  0.375011  0.250026  0.125001  1
  Dy  Dy13  1  0.249990  0.874975  0.125001  1
  Dy  Dy14  1  0.875051  0.125051  0.250103  1
  Dy  Dy15  1  0.375014  0.625014  0.250028  1
  Dy  Dy16  1  0.750038  0.625037  0.375023  1
  Dy  Dy17  1  0.124985  0.749986  0.375023  1
  Dy  Dy18  1  0.875008  0.250024  0.624959  1
  Dy  Dy19  1  0.249951  0.374935  0.624959  1
  Dy  Dy20  1  0.624973  0.374973  0.749947  1
  Dy  Dy21  1  0.124963  0.874963  0.749927  1
  Y  Y22  1  0.624987  0.749940  0.875017  1
  Y  Y23  1  0.750030  0.125077  0.875017  1
  W  W24  1  0.000196  0.000058  0.000117  1
  W  W25  1  0.499921  0.000059  0.000117  1
  W  W26  1  0.000061  0.500119  0.000007  1
  W  W27  1  0.499946  0.499888  0.000007  1
  W  W28  1  0.999996  0.000011  0.499997  1
  W  W29  1  0.499938  0.999996  0.499885  1
  W  W30  1  0.000001  0.499986  0.499997  1
  W  W31  1  0.499947  0.499889  0.499885  1
  O  O32  1  0.201662  0.619054  0.027835  1
  O  O33  1  0.326173  0.408781  0.027835  1
  O  O34  1  0.701530  0.173929  0.083058  1
  O  O35  1  0.881527  0.909129  0.083058  1
  O  O36  1  0.618938  0.917705  0.091568  1
  O  O37  1  0.972630  0.173863  0.091568  1
  O  O38  1  0.027858  0.701690  0.118993  1
  O  O39  1  0.591135  0.417303  0.118993  1
  O  O40  1  0.201766  0.082678  0.173882  1
  O  O41  1  0.472115  0.091204  0.173882  1
  O  O42  1  0.118962  0.527800  0.201578  1
  O  O43  1  0.582616  0.673778  0.201578  1
  O  O44  1  0.326165  0.417306  0.298305  1
  O  O45  1  0.472141  0.880999  0.298305  1
  O  O46  1  0.917378  0.798417  0.326214  1
  O  O47  1  0.908836  0.527797  0.326214  1
  O  O48  1  0.582611  0.408764  0.380940  1
  O  O49  1  0.298329  0.972176  0.380940  1
  O  O50  1  0.826223  0.027787  0.408838  1
  O  O51  1  0.082615  0.381051  0.408838  1
  O  O52  1  0.091191  0.118960  0.417402  1
  O  O53  1  0.826212  0.298442  0.417402  1
  O  O54  1  0.591140  0.673756  0.472194  1
  O  O55  1  0.381054  0.798438  0.472194  1
  O  O56  1  0.618953  0.201588  0.527759  1
  O  O57  1  0.408807  0.326171  0.527759  1
  O  O58  1  0.173764  0.701571  0.582621  1
  O  O59  1  0.908857  0.881048  0.582621  1
  O  O60  1  0.917377  0.618967  0.591169  1
  O  O61  1  0.173792  0.972202  0.591169  1
  O  O62  1  0.701503  0.027617  0.618450  1
  O  O63  1  0.416946  0.590832  0.618450  1
  O  O64  1  0.082632  0.201567  0.673789  1
  O  O65  1  0.091157  0.472222  0.673790  1
  O  O66  1  0.527380  0.118943  0.701200  1
  O  O67  1  0.673819  0.582257  0.701200  1
  O  O68  1  0.881058  0.472224  0.798405  1
  O  O69  1  0.417346  0.326180  0.798405  1
  O  O70  1  0.527208  0.908760  0.826060  1
  O  O71  1  0.798853  0.917300  0.826060  1
  O  O72  1  0.972628  0.298800  0.881072  1
  O  O73  1  0.408443  0.582272  0.881072  1
  O  O74  1  0.381007  0.082689  0.908866  1
  O  O75  1  0.027860  0.826177  0.908866  1
  O  O76  1  0.298353  0.826188  0.917399  1
  O  O77  1  0.119046  0.091211  0.917399  1
  O  O78  1  0.798506  0.381526  0.972391  1
  O  O79  1  0.673886  0.590866  0.972392  1
