# generated using pymatgen
data_Pr11NdIr2(RhBr6)2
_symmetry_space_group_name_H-M   'P 1'
_cell_length_a   10.58297568
_cell_length_b   10.57751459
_cell_length_c   10.57332211
_cell_angle_alpha   109.49555870
_cell_angle_beta   109.45632199
_cell_angle_gamma   109.48270996
_symmetry_Int_Tables_number   1
_chemical_formula_structural   Pr11NdIr2(RhBr6)2
_chemical_formula_sum   'Pr11 Nd1 Ir2 Rh2 Br12'
_cell_volume   910.89588392
_cell_formula_units_Z   1
loop_
 _symmetry_equiv_pos_site_id
 _symmetry_equiv_pos_as_xyz
  1  'x, y, z'
loop_
 _atom_site_type_symbol
 _atom_site_label
 _atom_site_symmetry_multiplicity
 _atom_site_fract_x
 _atom_site_fract_y
 _atom_site_fract_z
 _atom_site_occupancy
  Pr  Pr0  1  0.749052  0.233849  0.265370  1
  Pr  Pr1  1  0.749009  0.015174  0.483705  1
  Pr  Pr2  1  0.234863  0.468501  0.483555  1
  Pr  Pr3  1  0.266298  0.750551  0.234477  1
  Pr  Pr4  1  0.031923  0.265626  0.016380  1
  Pr  Pr5  1  0.016297  0.031784  0.265646  1
  Pr  Pr6  1  0.484639  0.750560  0.016312  1
  Pr  Pr7  1  0.484001  0.234247  0.467905  1
  Pr  Pr8  1  0.015603  0.484169  0.749761  1
  Pr  Pr9  1  0.266163  0.016344  0.032114  1
  Pr  Pr10  1  0.234593  0.265921  0.750515  1
  Nd  Nd11  1  0.467106  0.482981  0.233972  1
  Ir  Ir12  1  0.250092  0.251115  0.249970  1
  Ir  Ir13  1  0.500499  0.999467  0.249988  1
  Rh  Rh14  1  0.000744  0.250676  0.501329  1
  Rh  Rh15  1  0.250112  0.499385  0.999462  1
  Br  Br16  1  0.249525  0.753887  0.745362  1
  Br  Br17  1  0.508612  0.504205  0.754649  1
  Br  Br18  1  0.990809  0.745088  0.995509  1
  Br  Br19  1  0.746105  0.250505  0.754662  1
  Br  Br20  1  0.995858  0.991427  0.745429  1
  Br  Br21  1  0.249547  0.995304  0.504542  1
  Br  Br22  1  0.754168  0.509285  0.503685  1
  Br  Br23  1  0.504944  0.251593  0.996524  1
  Br  Br24  1  0.753437  0.744884  0.250035  1
  Br  Br25  1  0.745477  0.995425  0.990846  1
  Br  Br26  1  0.995718  0.504369  0.249978  1
  Br  Br27  1  0.504810  0.753678  0.508317  1
