# generated using pymatgen
data_Lu2Hf2Al7Tc
_symmetry_space_group_name_H-M   'P 1'
_cell_length_a   5.38264000
_cell_length_b   5.38264125
_cell_length_c   8.73029700
_cell_angle_alpha   90.00000000
_cell_angle_beta   90.00000000
_cell_angle_gamma   119.99998003
_symmetry_Int_Tables_number   1
_chemical_formula_structural   Lu2Hf2Al7Tc
_chemical_formula_sum   'Lu2 Hf2 Al7 Tc1'
_cell_volume   219.05365666
_cell_formula_units_Z   1
loop_
 _symmetry_equiv_pos_site_id
 _symmetry_equiv_pos_as_xyz
  1  'x, y, z'
loop_
 _atom_site_type_symbol
 _atom_site_label
 _atom_site_symmetry_multiplicity
 _atom_site_fract_x
 _atom_site_fract_y
 _atom_site_fract_z
 _atom_site_occupancy
  Lu  Lu0  1  0.333333  0.666667  0.443458  1
  Lu  Lu1  1  0.666667  0.333333  0.556542  1
  Hf  Hf2  1  0.666667  0.333333  0.939938  1
  Hf  Hf3  1  0.333333  0.666667  0.060062  1
  Al  Al4  1  0.000000  0.000000  0.500000  1
  Al  Al5  1  0.830308  0.169692  0.235775  1
  Al  Al6  1  0.830308  0.660617  0.235775  1
  Al  Al7  1  0.339383  0.169692  0.235775  1
  Al  Al8  1  0.169692  0.830308  0.764225  1
  Al  Al9  1  0.169692  0.339383  0.764225  1
  Al  Al10  1  0.660617  0.830308  0.764225  1
  Tc  Tc11  1  0.000000  0.000000  0.000000  1
