# generated using pymatgen
data_Ho3Er5(RuI4)2
_symmetry_space_group_name_H-M   'P 1'
_cell_length_a   10.95528557
_cell_length_b   10.95616933
_cell_length_c   6.16654000
_cell_angle_alpha   89.38689737
_cell_angle_beta   89.39806159
_cell_angle_gamma   88.81960692
_symmetry_Int_Tables_number   1
_chemical_formula_structural   Ho3Er5(RuI4)2
_chemical_formula_sum   'Ho3 Er5 Ru2 I8'
_cell_volume   739.91864552
_cell_formula_units_Z   1
loop_
 _symmetry_equiv_pos_site_id
 _symmetry_equiv_pos_as_xyz
  1  'x, y, z'
loop_
 _atom_site_type_symbol
 _atom_site_label
 _atom_site_symmetry_multiplicity
 _atom_site_fract_x
 _atom_site_fract_y
 _atom_site_fract_z
 _atom_site_occupancy
  Ho  Ho0  1  0.204449  0.915471  0.997462  1
  Ho  Ho1  1  0.795581  0.084741  0.002501  1
  Ho  Ho2  1  0.084537  0.795633  0.502575  1
  Er  Er3  1  0.915996  0.202863  0.497371  1
  Er  Er4  1  0.798797  0.920168  0.506077  1
  Er  Er5  1  0.201111  0.079937  0.493914  1
  Er  Er6  1  0.079773  0.201308  0.993917  1
  Er  Er7  1  0.920023  0.798838  0.006095  1
  Ru  Ru8  1  0.999987  0.999997  0.249992  1
  Ru  Ru9  1  0.000006  0.000003  0.749962  1
  I  I10  1  0.366296  0.841382  0.501818  1
  I  I11  1  0.634240  0.159161  0.498204  1
  I  I12  1  0.158680  0.633768  0.998182  1
  I  I13  1  0.841289  0.366441  0.001963  1
  I  I14  1  0.362202  0.152687  0.004723  1
  I  I15  1  0.637737  0.847509  0.995290  1
  I  I16  1  0.847395  0.637957  0.495307  1
  I  I17  1  0.151901  0.362137  0.504649  1
