# generated using pymatgen
data_Pr7NdZrPd24
_symmetry_space_group_name_H-M   'P 1'
_cell_length_a   8.59651610
_cell_length_b   8.59651621
_cell_length_c   8.59651600
_cell_angle_alpha   89.99112222
_cell_angle_beta   90.00887778
_cell_angle_gamma   90.00887916
_symmetry_Int_Tables_number   1
_chemical_formula_structural   Pr7NdZrPd24
_chemical_formula_sum   'Pr7 Nd1 Zr1 Pd24'
_cell_volume   635.28328320
_cell_formula_units_Z   1
loop_
 _symmetry_equiv_pos_site_id
 _symmetry_equiv_pos_as_xyz
  1  'x, y, z'
loop_
 _atom_site_type_symbol
 _atom_site_label
 _atom_site_symmetry_multiplicity
 _atom_site_fract_x
 _atom_site_fract_y
 _atom_site_fract_z
 _atom_site_occupancy
  Pr  Pr0  1  0.252305  0.252412  0.252412  1
  Pr  Pr1  1  0.747669  0.747602  0.747602  1
  Pr  Pr2  1  0.747588  0.747695  0.252412  1
  Pr  Pr3  1  0.747588  0.252412  0.747695  1
  Pr  Pr4  1  0.252398  0.252331  0.747602  1
  Pr  Pr5  1  0.252398  0.747602  0.252331  1
  Pr  Pr6  1  0.252381  0.747619  0.747619  1
  Nd  Nd7  1  0.747580  0.252420  0.252420  1
  Zr  Zr8  1  0.999786  0.000214  0.000214  1
  Pd  Pd9  1  0.267304  0.499829  0.000002  1
  Pd  Pd10  1  0.732748  0.499590  0.000765  1
  Pd  Pd11  1  0.999235  0.267252  0.499590  1
  Pd  Pd12  1  0.500410  0.267252  0.000765  1
  Pd  Pd13  1  0.999998  0.732696  0.499829  1
  Pd  Pd14  1  0.500171  0.732696  0.000002  1
  Pd  Pd15  1  0.500410  0.000765  0.267252  1
  Pd  Pd16  1  0.267304  0.000002  0.499829  1
  Pd  Pd17  1  0.500171  0.000002  0.732696  1
  Pd  Pd18  1  0.732748  0.000765  0.499590  1
  Pd  Pd19  1  0.999235  0.499590  0.267252  1
  Pd  Pd20  1  0.999998  0.499829  0.732696  1
  Pd  Pd21  1  0.254747  0.499905  0.499905  1
  Pd  Pd22  1  0.745233  0.499408  0.499408  1
  Pd  Pd23  1  0.500592  0.254767  0.499408  1
  Pd  Pd24  1  0.500095  0.745253  0.499905  1
  Pd  Pd25  1  0.500592  0.499408  0.254767  1
  Pd  Pd26  1  0.500095  0.499905  0.745253  1
  Pd  Pd27  1  0.312614  0.000008  0.000008  1
  Pd  Pd28  1  0.687495  0.000435  0.000435  1
  Pd  Pd29  1  0.999565  0.312505  0.000435  1
  Pd  Pd30  1  0.999992  0.687386  0.000008  1
  Pd  Pd31  1  0.999565  0.000435  0.312505  1
  Pd  Pd32  1  0.999992  0.000008  0.687386  1
