# generated using pymatgen
data_Th(Ga3Ni)3
_symmetry_space_group_name_H-M   'P 1'
_cell_length_a   10.16594675
_cell_length_b   10.16594677
_cell_length_c   10.16594548
_cell_angle_alpha   42.59793630
_cell_angle_beta   42.59794381
_cell_angle_gamma   42.59793919
_symmetry_Int_Tables_number   1
_chemical_formula_structural   Th(Ga3Ni)3
_chemical_formula_sum   'Th2 Ga18 Ni6'
_cell_volume   435.90628602
_cell_formula_units_Z   2
loop_
 _symmetry_equiv_pos_site_id
 _symmetry_equiv_pos_as_xyz
  1  'x, y, z'
loop_
 _atom_site_type_symbol
 _atom_site_label
 _atom_site_symmetry_multiplicity
 _atom_site_fract_x
 _atom_site_fract_y
 _atom_site_fract_z
 _atom_site_occupancy
  Th  Th0  1  0.167025  0.167025  0.167025  1
  Th  Th1  1  0.832975  0.832975  0.832975  1
  Ga  Ga2  1  0.049434  0.049434  0.049434  1
  Ga  Ga3  1  0.703522  0.500000  0.296478  1
  Ga  Ga4  1  0.665613  0.334387  0.000000  1
  Ga  Ga5  1  0.105672  0.431387  0.757141  1
  Ga  Ga6  1  0.431387  0.757141  0.105672  1
  Ga  Ga7  1  0.384281  0.384281  0.384281  1
  Ga  Ga8  1  0.334387  0.000000  0.665613  1
  Ga  Ga9  1  0.615719  0.615719  0.615719  1
  Ga  Ga10  1  0.242859  0.568613  0.894328  1
  Ga  Ga11  1  0.568613  0.894328  0.242859  1
  Ga  Ga12  1  0.500000  0.296478  0.703522  1
  Ga  Ga13  1  0.757141  0.105672  0.431387  1
  Ga  Ga14  1  0.950566  0.950566  0.950566  1
  Ga  Ga15  1  0.296478  0.703522  0.500000  1
  Ga  Ga16  1  0.000000  0.665613  0.334387  1
  Ga  Ga17  1  0.715451  0.715451  0.715451  1
  Ga  Ga18  1  0.284549  0.284549  0.284549  1
  Ga  Ga19  1  0.894328  0.242859  0.568613  1
  Ni  Ni20  1  0.240359  0.922199  0.581905  1
  Ni  Ni21  1  0.922199  0.581905  0.240359  1
  Ni  Ni22  1  0.759641  0.418095  0.077801  1
  Ni  Ni23  1  0.077801  0.759641  0.418095  1
  Ni  Ni24  1  0.418095  0.077801  0.759641  1
  Ni  Ni25  1  0.581905  0.240359  0.922199  1
