# generated using pymatgen
data_Er20SnBi7Ru4
_symmetry_space_group_name_H-M   'P 1'
_cell_length_a   7.87476652
_cell_length_b   8.99601111
_cell_length_c   12.36442538
_cell_angle_alpha   90.01575375
_cell_angle_beta   90.07757903
_cell_angle_gamma   90.04323686
_symmetry_Int_Tables_number   1
_chemical_formula_structural   Er20SnBi7Ru4
_chemical_formula_sum   'Er20 Sn1 Bi7 Ru4'
_cell_volume   875.91319586
_cell_formula_units_Z   1
loop_
 _symmetry_equiv_pos_site_id
 _symmetry_equiv_pos_as_xyz
  1  'x, y, z'
loop_
 _atom_site_type_symbol
 _atom_site_label
 _atom_site_symmetry_multiplicity
 _atom_site_fract_x
 _atom_site_fract_y
 _atom_site_fract_z
 _atom_site_occupancy
  Er  Er0  1  0.659350  0.753966  0.707413  1
  Er  Er1  1  0.344964  0.249109  0.295843  1
  Er  Er2  1  0.153028  0.246008  0.791019  1
  Er  Er3  1  0.844661  0.749265  0.206400  1
  Er  Er4  1  0.117765  0.753942  0.807122  1
  Er  Er5  1  0.878781  0.250238  0.189604  1
  Er  Er6  1  0.628526  0.246296  0.690872  1
  Er  Er7  1  0.378600  0.750527  0.310314  1
  Er  Er8  1  0.552674  0.749395  0.995657  1
  Er  Er9  1  0.445684  0.250516  0.003963  1
  Er  Er10  1  0.049568  0.246280  0.506771  1
  Er  Er11  1  0.947760  0.753446  0.497834  1
  Er  Er12  1  0.823739  0.459482  0.934608  1
  Er  Er13  1  0.174971  0.540940  0.064094  1
  Er  Er14  1  0.325252  0.539138  0.565210  1
  Er  Er15  1  0.174782  0.960157  0.064572  1
  Er  Er16  1  0.677143  0.461019  0.435731  1
  Er  Er17  1  0.825350  0.039945  0.930528  1
  Er  Er18  1  0.677131  0.039493  0.437682  1
  Er  Er19  1  0.320826  0.961161  0.565912  1
  Sn  Sn20  1  0.930142  0.005559  0.670801  1
  Bi  Bi21  1  0.069268  0.993141  0.326323  1
  Bi  Bi22  1  0.429941  0.993185  0.828301  1
  Bi  Bi23  1  0.070062  0.506511  0.328895  1
  Bi  Bi24  1  0.569755  0.006981  0.172359  1
  Bi  Bi25  1  0.930937  0.494024  0.672144  1
  Bi  Bi26  1  0.568682  0.492793  0.173038  1
  Bi  Bi27  1  0.430300  0.506268  0.826295  1
  Ru  Ru28  1  0.927454  0.750232  0.990407  1
  Ru  Ru29  1  0.071536  0.250443  0.008083  1
  Ru  Ru30  1  0.430838  0.250159  0.510355  1
  Ru  Ru31  1  0.570532  0.750380  0.491850  1
