# generated using pymatgen
data_TbYbHo(AgGe)3
_symmetry_space_group_name_H-M   'P 1'
_cell_length_a   7.19841350
_cell_length_b   7.18997065
_cell_length_c   4.23254400
_cell_angle_alpha   90.00000000
_cell_angle_beta   90.00000000
_cell_angle_gamma   119.99592037
_symmetry_Int_Tables_number   1
_chemical_formula_structural   TbYbHo(AgGe)3
_chemical_formula_sum   'Tb1 Yb1 Ho1 Ag3 Ge3'
_cell_volume   189.72033077
_cell_formula_units_Z   1
loop_
 _symmetry_equiv_pos_site_id
 _symmetry_equiv_pos_as_xyz
  1  'x, y, z'
loop_
 _atom_site_type_symbol
 _atom_site_label
 _atom_site_symmetry_multiplicity
 _atom_site_fract_x
 _atom_site_fract_y
 _atom_site_fract_z
 _atom_site_occupancy
  Tb  Tb0  1  0.000701  0.582922  0.000000  1
  Yb  Yb1  1  0.580842  0.999962  0.000000  1
  Ho  Ho2  1  0.417642  0.416839  0.000000  1
  Ag  Ag3  1  0.254678  0.000250  0.500000  1
  Ag  Ag4  1  0.750655  0.755393  0.500000  1
  Ag  Ag5  1  0.995454  0.244301  0.500000  1
  Ge  Ge6  1  0.003155  0.000651  0.000000  1
  Ge  Ge7  1  0.668502  0.341255  0.500000  1
  Ge  Ge8  1  0.328370  0.658428  0.500000  1
