# generated using pymatgen
data_Ce2Hf3SbF22
_symmetry_space_group_name_H-M   'P 1'
_cell_length_a   8.47448879
_cell_length_b   8.47448957
_cell_length_c   8.48432747
_cell_angle_alpha   124.61683177
_cell_angle_beta   106.18282244
_cell_angle_gamma   98.75607139
_symmetry_Int_Tables_number   1
_chemical_formula_structural   Ce2Hf3SbF22
_chemical_formula_sum   'Ce2 Hf3 Sb1 F22'
_cell_volume   442.84777486
_cell_formula_units_Z   1
loop_
 _symmetry_equiv_pos_site_id
 _symmetry_equiv_pos_as_xyz
  1  'x, y, z'
loop_
 _atom_site_type_symbol
 _atom_site_label
 _atom_site_symmetry_multiplicity
 _atom_site_fract_x
 _atom_site_fract_y
 _atom_site_fract_z
 _atom_site_occupancy
  Ce  Ce0  1  0.749404  0.251672  0.503999  1
  Ce  Ce1  1  0.252327  0.754595  0.503999  1
  Hf  Hf2  1  0.314141  0.362749  0.676890  1
  Hf  Hf3  1  0.181301  0.865114  0.046417  1
  Hf  Hf4  1  0.822163  0.136512  0.958674  1
  Sb  Sb5  1  0.684005  0.639762  0.323768  1
  F  F6  1  0.707015  0.922986  0.351342  1
  F  F7  1  0.289434  0.096632  0.644454  1
  F  F8  1  0.547820  0.355019  0.644454  1
  F  F9  1  0.947284  0.605795  0.815799  1
  F  F10  1  0.428357  0.644327  0.351342  1
  F  F11  1  0.055965  0.394258  0.190215  1
  F  F12  1  0.795955  0.134249  0.190215  1
  F  F13  1  0.210004  0.868515  0.815799  1
  F  F14  1  0.483551  0.485280  0.968831  1
  F  F15  1  0.004151  0.000554  0.004705  1
  F  F16  1  0.787508  0.876481  0.663989  1
  F  F17  1  0.218922  0.127229  0.346149  1
  F  F18  1  0.273073  0.628716  0.901790  1
  F  F19  1  0.721292  0.355474  0.076765  1
  F  F20  1  0.970772  0.742248  0.430401  1
  F  F21  1  0.045644  0.262007  0.580866  1
  F  F22  1  0.318859  0.535221  0.580866  1
  F  F23  1  0.177202  0.762431  0.212461  1
  F  F24  1  0.688152  0.459629  0.430401  1
  F  F25  1  0.826211  0.237018  0.786477  1
  F  F26  1  0.549460  0.960266  0.786477  1
  F  F27  1  0.450031  0.035259  0.212461  1
