# generated using pymatgen
data_Zr3TiRh2N
_symmetry_space_group_name_H-M   'P 1'
_cell_length_a   8.65129504
_cell_length_b   8.65129550
_cell_length_c   8.65129600
_cell_angle_alpha   59.99999807
_cell_angle_beta   59.99999632
_cell_angle_gamma   59.99999709
_symmetry_Int_Tables_number   1
_chemical_formula_structural   Zr3TiRh2N
_chemical_formula_sum   'Zr12 Ti4 Rh8 N4'
_cell_volume   457.85547827
_cell_formula_units_Z   4
loop_
 _symmetry_equiv_pos_site_id
 _symmetry_equiv_pos_as_xyz
  1  'x, y, z'
loop_
 _atom_site_type_symbol
 _atom_site_label
 _atom_site_symmetry_multiplicity
 _atom_site_fract_x
 _atom_site_fract_y
 _atom_site_fract_z
 _atom_site_occupancy
  Zr  Zr0  1  0.812460  0.812460  0.187540  1
  Zr  Zr1  1  0.187540  0.187540  0.812460  1
  Zr  Zr2  1  0.812460  0.187540  0.812460  1
  Zr  Zr3  1  0.187540  0.812460  0.187540  1
  Zr  Zr4  1  0.187540  0.812460  0.812460  1
  Zr  Zr5  1  0.812460  0.187540  0.187540  1
  Zr  Zr6  1  0.437540  0.437540  0.062460  1
  Zr  Zr7  1  0.062460  0.062460  0.437540  1
  Zr  Zr8  1  0.437540  0.062460  0.437540  1
  Zr  Zr9  1  0.062460  0.437540  0.062460  1
  Zr  Zr10  1  0.062460  0.437540  0.437540  1
  Zr  Zr11  1  0.437540  0.062460  0.062460  1
  Ti  Ti12  1  0.125000  0.625000  0.625000  1
  Ti  Ti13  1  0.625000  0.125000  0.625000  1
  Ti  Ti14  1  0.625000  0.625000  0.125000  1
  Ti  Ti15  1  0.625000  0.625000  0.625000  1
  Rh  Rh16  1  0.752107  0.415964  0.415964  1
  Rh  Rh17  1  0.415964  0.752107  0.415964  1
  Rh  Rh18  1  0.415964  0.415964  0.752107  1
  Rh  Rh19  1  0.415964  0.415964  0.415964  1
  Rh  Rh20  1  0.497893  0.834036  0.834036  1
  Rh  Rh21  1  0.834036  0.497893  0.834036  1
  Rh  Rh22  1  0.834036  0.834036  0.497893  1
  Rh  Rh23  1  0.834036  0.834036  0.834036  1
  N  N24  1  0.625000  0.125000  0.125000  1
  N  N25  1  0.125000  0.625000  0.125000  1
  N  N26  1  0.125000  0.125000  0.625000  1
  N  N27  1  0.125000  0.125000  0.125000  1
