# generated using pymatgen
data_Dy19HoIrRu11
_symmetry_space_group_name_H-M   'P 1'
_cell_length_a   10.82426262
_cell_length_b   10.82417456
_cell_length_c   6.37353300
_cell_angle_alpha   89.97115154
_cell_angle_beta   89.96911973
_cell_angle_gamma   90.00350882
_symmetry_Int_Tables_number   1
_chemical_formula_structural   Dy19HoIrRu11
_chemical_formula_sum   'Dy19 Ho1 Ir1 Ru11'
_cell_volume   746.74655527
_cell_formula_units_Z   1
loop_
 _symmetry_equiv_pos_site_id
 _symmetry_equiv_pos_as_xyz
  1  'x, y, z'
loop_
 _atom_site_type_symbol
 _atom_site_label
 _atom_site_symmetry_multiplicity
 _atom_site_fract_x
 _atom_site_fract_y
 _atom_site_fract_z
 _atom_site_occupancy
  Dy  Dy0  1  0.292060  0.086345  0.376524  1
  Dy  Dy1  1  0.292033  0.914578  0.876744  1
  Dy  Dy2  1  0.708120  0.086543  0.876590  1
  Dy  Dy3  1  0.708162  0.913498  0.376516  1
  Dy  Dy4  1  0.586585  0.792461  0.876670  1
  Dy  Dy5  1  0.586379  0.207476  0.376433  1
  Dy  Dy6  1  0.413991  0.792726  0.376453  1
  Dy  Dy7  1  0.413559  0.208301  0.876588  1
  Dy  Dy8  1  0.207565  0.413418  0.623312  1
  Dy  Dy9  1  0.207245  0.586014  0.123568  1
  Dy  Dy10  1  0.792555  0.413619  0.123598  1
  Dy  Dy11  1  0.791667  0.586434  0.623379  1
  Dy  Dy12  1  0.913661  0.707940  0.123484  1
  Dy  Dy13  1  0.913450  0.291882  0.623410  1
  Dy  Dy14  1  0.085432  0.707963  0.623261  1
  Dy  Dy15  1  0.086491  0.291833  0.123484  1
  Dy  Dy16  1  0.000149  0.000190  0.499991  1
  Dy  Dy17  1  0.999813  0.999853  0.000010  1
  Dy  Dy18  1  0.501258  0.499497  0.000894  1
  Ho  Ho19  1  0.500494  0.498759  0.499124  1
  Ir  Ir20  1  0.346169  0.653834  0.749907  1
  Ru  Ru21  1  0.847010  0.152990  0.249993  1
  Ru  Ru22  1  0.846911  0.846672  0.749722  1
  Ru  Ru23  1  0.153329  0.153089  0.750296  1
  Ru  Ru24  1  0.154124  0.845873  0.249994  1
  Ru  Ru25  1  0.652725  0.347275  0.749938  1
  Ru  Ru26  1  0.652063  0.653312  0.250372  1
  Ru  Ru27  1  0.346689  0.347938  0.249749  1
  Ru  Ru28  1  0.500025  0.999554  0.124144  1
  Ru  Ru29  1  0.499997  0.000156  0.624719  1
  Ru  Ru30  1  0.999844  0.500003  0.875291  1
  Ru  Ru31  1  0.000446  0.499976  0.375841  1
