# generated using pymatgen
data_SmHo2ZnGa7Ag3
_symmetry_space_group_name_H-M   'P 1'
_cell_length_a   4.32463027
_cell_length_b   8.34984669
_cell_length_c   8.37609816
_cell_angle_alpha   70.11447516
_cell_angle_beta   75.03950041
_cell_angle_gamma   74.99136354
_symmetry_Int_Tables_number   1
_chemical_formula_structural   SmHo2ZnGa7Ag3
_chemical_formula_sum   'Sm1 Ho2 Zn1 Ga7 Ag3'
_cell_volume   269.86504057
_cell_formula_units_Z   1
loop_
 _symmetry_equiv_pos_site_id
 _symmetry_equiv_pos_as_xyz
  1  'x, y, z'
loop_
 _atom_site_type_symbol
 _atom_site_label
 _atom_site_symmetry_multiplicity
 _atom_site_fract_x
 _atom_site_fract_y
 _atom_site_fract_z
 _atom_site_occupancy
  Sm  Sm0  1  0.498700  0.500359  0.502241  1
  Ho  Ho1  1  0.201748  0.796571  0.799933  1
  Ho  Ho2  1  0.799683  0.202516  0.198120  1
  Zn  Zn3  1  0.356210  0.365373  0.922206  1
  Ga  Ga4  1  0.643870  0.638288  0.073972  1
  Ga  Ga5  1  0.355812  0.927295  0.361082  1
  Ga  Ga6  1  0.642702  0.074427  0.640169  1
  Ga  Ga7  1  0.162139  0.469641  0.206081  1
  Ga  Ga8  1  0.841731  0.525196  0.791342  1
  Ga  Ga9  1  0.158308  0.210569  0.472813  1
  Ga  Ga10  1  0.841063  0.789091  0.528784  1
  Ag  Ag11  1  0.498697  0.001661  0.000946  1
  Ag  Ag12  1  0.000303  0.804197  0.195195  1
  Ag  Ag13  1  0.999034  0.194814  0.807117  1
