# generated using pymatgen
data_Ce3Ho(CuSi3)2
_symmetry_space_group_name_H-M   'P 1'
_cell_length_a   8.12677411
_cell_length_b   8.06658176
_cell_length_c   5.79468620
_cell_angle_alpha   69.58897686
_cell_angle_beta   68.47745267
_cell_angle_gamma   41.93355955
_symmetry_Int_Tables_number   1
_chemical_formula_structural   Ce3Ho(CuSi3)2
_chemical_formula_sum   'Ce3 Ho1 Cu2 Si6'
_cell_volume   234.39255717
_cell_formula_units_Z   1
loop_
 _symmetry_equiv_pos_site_id
 _symmetry_equiv_pos_as_xyz
  1  'x, y, z'
loop_
 _atom_site_type_symbol
 _atom_site_label
 _atom_site_symmetry_multiplicity
 _atom_site_fract_x
 _atom_site_fract_y
 _atom_site_fract_z
 _atom_site_occupancy
  Ce  Ce0  1  0.243958  0.756042  0.243958  1
  Ce  Ce1  1  0.249393  0.250607  0.249393  1
  Ce  Ce2  1  0.749393  0.750608  0.749392  1
  Ho  Ho3  1  0.756474  0.243526  0.756474  1
  Cu  Cu4  1  0.667721  0.663734  0.336266  1
  Cu  Cu5  1  0.336267  0.332279  0.667720  1
  Si  Si6  1  0.829795  0.833073  0.166926  1
  Si  Si7  1  0.829711  0.338498  0.170324  1
  Si  Si8  1  0.661503  0.170289  0.338533  1
  Si  Si9  1  0.338533  0.829676  0.661502  1
  Si  Si10  1  0.170325  0.661467  0.829711  1
  Si  Si11  1  0.166927  0.170206  0.829794  1
