# generated using pymatgen
data_Y7ZrSiPd24
_symmetry_space_group_name_H-M   'P 1'
_cell_length_a   8.32887130
_cell_length_b   8.32887130
_cell_length_c   8.32887130
_cell_angle_alpha   89.84459055
_cell_angle_beta   89.84459055
_cell_angle_gamma   89.84459055
_symmetry_Int_Tables_number   1
_chemical_formula_structural   Y7ZrSiPd24
_chemical_formula_sum   'Y7 Zr1 Si1 Pd24'
_cell_volume   577.76824611
_cell_formula_units_Z   1
loop_
 _symmetry_equiv_pos_site_id
 _symmetry_equiv_pos_as_xyz
  1  'x, y, z'
loop_
 _atom_site_type_symbol
 _atom_site_label
 _atom_site_symmetry_multiplicity
 _atom_site_fract_x
 _atom_site_fract_y
 _atom_site_fract_z
 _atom_site_occupancy
  Y  Y0  1  0.745737  0.745737  0.745737  1
  Y  Y1  1  0.746705  0.746705  0.253462  1
  Y  Y2  1  0.746705  0.253462  0.746705  1
  Y  Y3  1  0.253765  0.253765  0.747268  1
  Y  Y4  1  0.253765  0.747268  0.253765  1
  Y  Y5  1  0.253462  0.746705  0.746705  1
  Y  Y6  1  0.747268  0.253765  0.253765  1
  Zr  Zr7  1  0.257017  0.257017  0.257017  1
  Si  Si8  1  0.996882  0.996882  0.996882  1
  Pd  Pd9  1  0.257132  0.496346  0.005469  1
  Pd  Pd10  1  0.743135  0.498522  0.000641  1
  Pd  Pd11  1  0.005469  0.257132  0.496346  1
  Pd  Pd12  1  0.496346  0.257132  0.005469  1
  Pd  Pd13  1  0.000641  0.743135  0.498522  1
  Pd  Pd14  1  0.498522  0.743135  0.000641  1
  Pd  Pd15  1  0.496346  0.005469  0.257132  1
  Pd  Pd16  1  0.257132  0.005469  0.496346  1
  Pd  Pd17  1  0.498522  0.000641  0.743135  1
  Pd  Pd18  1  0.743135  0.000641  0.498522  1
  Pd  Pd19  1  0.005469  0.496346  0.257132  1
  Pd  Pd20  1  0.000641  0.498522  0.743135  1
  Pd  Pd21  1  0.252451  0.496393  0.496393  1
  Pd  Pd22  1  0.748342  0.499103  0.499103  1
  Pd  Pd23  1  0.496393  0.252451  0.496393  1
  Pd  Pd24  1  0.499103  0.748342  0.499103  1
  Pd  Pd25  1  0.496393  0.496393  0.252451  1
  Pd  Pd26  1  0.499103  0.499103  0.748342  1
  Pd  Pd27  1  0.277118  0.004780  0.004780  1
  Pd  Pd28  1  0.717626  0.000056  0.000056  1
  Pd  Pd29  1  0.004780  0.277118  0.004780  1
  Pd  Pd30  1  0.000056  0.717626  0.000056  1
  Pd  Pd31  1  0.004780  0.004780  0.277118  1
  Pd  Pd32  1  0.000056  0.000056  0.717626  1
