# generated using pymatgen
data_YPa(NiP)2
_symmetry_space_group_name_H-M   'P 1'
_cell_length_a   3.89880800
_cell_length_b   3.89880956
_cell_length_c   15.44729600
_cell_angle_alpha   90.00000000
_cell_angle_beta   90.00000000
_cell_angle_gamma   120.00000371
_symmetry_Int_Tables_number   1
_chemical_formula_structural   YPa(NiP)2
_chemical_formula_sum   'Y2 Pa2 Ni4 P4'
_cell_volume   203.35130096
_cell_formula_units_Z   2
loop_
 _symmetry_equiv_pos_site_id
 _symmetry_equiv_pos_as_xyz
  1  'x, y, z'
loop_
 _atom_site_type_symbol
 _atom_site_label
 _atom_site_symmetry_multiplicity
 _atom_site_fract_x
 _atom_site_fract_y
 _atom_site_fract_z
 _atom_site_occupancy
  Y  Y0  1  0.000000  0.000000  0.250000  1
  Y  Y1  1  0.000000  0.000000  0.750000  1
  Pa  Pa2  1  0.000000  0.000000  0.500000  1
  Pa  Pa3  1  0.000000  0.000000  0.000000  1
  Ni  Ni4  1  0.333333  0.666667  0.383447  1
  Ni  Ni5  1  0.666667  0.333333  0.616553  1
  Ni  Ni6  1  0.666667  0.333333  0.883447  1
  Ni  Ni7  1  0.333333  0.666667  0.116553  1
  P  P8  1  0.333333  0.666667  0.875042  1
  P  P9  1  0.666667  0.333333  0.124958  1
  P  P10  1  0.666667  0.333333  0.375042  1
  P  P11  1  0.333333  0.666667  0.624958  1
