# generated using pymatgen
data_NaSrFeCo3As4
_symmetry_space_group_name_H-M   'P 1'
_cell_length_a   6.69871801
_cell_length_b   6.68071052
_cell_length_c   5.41727900
_cell_angle_alpha   90.00000000
_cell_angle_beta   90.00000000
_cell_angle_gamma   132.25564858
_symmetry_Int_Tables_number   1
_chemical_formula_structural   NaSrFeCo3As4
_chemical_formula_sum   'Na1 Sr1 Fe1 Co3 As4'
_cell_volume   179.43880768
_cell_formula_units_Z   1
loop_
 _symmetry_equiv_pos_site_id
 _symmetry_equiv_pos_as_xyz
  1  'x, y, z'
loop_
 _atom_site_type_symbol
 _atom_site_label
 _atom_site_symmetry_multiplicity
 _atom_site_fract_x
 _atom_site_fract_y
 _atom_site_fract_z
 _atom_site_occupancy
  Na  Na0  1  0.000000  0.000000  0.000559  1
  Sr  Sr1  1  0.500000  0.500000  0.497986  1
  Fe  Fe2  1  0.000000  0.500000  0.751681  1
  Co  Co3  1  0.500000  0.000000  0.750707  1
  Co  Co4  1  0.000000  0.500000  0.248203  1
  Co  Co5  1  0.500000  0.000000  0.249404  1
  As  As6  1  0.355269  0.640482  0.998171  1
  As  As7  1  0.857608  0.146052  0.502559  1
  As  As8  1  0.142392  0.853948  0.502559  1
  As  As9  1  0.644731  0.359518  0.998171  1
