# generated using pymatgen
data_Rb2SrFe3F12
_symmetry_space_group_name_H-M   'P 1'
_cell_length_a   7.46417148
_cell_length_b   7.63187014
_cell_length_c   10.40274800
_cell_angle_alpha   90.41928656
_cell_angle_beta   87.67293948
_cell_angle_gamma   88.81767895
_symmetry_Int_Tables_number   1
_chemical_formula_structural   Rb2SrFe3F12
_chemical_formula_sum   'Rb4 Sr2 Fe6 F24'
_cell_volume   591.96416139
_cell_formula_units_Z   2
loop_
 _symmetry_equiv_pos_site_id
 _symmetry_equiv_pos_as_xyz
  1  'x, y, z'
loop_
 _atom_site_type_symbol
 _atom_site_label
 _atom_site_symmetry_multiplicity
 _atom_site_fract_x
 _atom_site_fract_y
 _atom_site_fract_z
 _atom_site_occupancy
  Rb  Rb0  1  0.523634  0.752078  0.607288  1
  Rb  Rb1  1  0.476366  0.247922  0.392712  1
  Rb  Rb2  1  0.018759  0.261937  0.141539  1
  Rb  Rb3  1  0.981241  0.738063  0.858461  1
  Sr  Sr4  1  0.726778  0.244695  0.740201  1
  Sr  Sr5  1  0.273222  0.755305  0.259799  1
  Fe  Fe6  1  0.803366  0.749146  0.213623  1
  Fe  Fe7  1  0.196634  0.250854  0.786377  1
  Fe  Fe8  1  0.000000  0.500000  0.500000  1
  Fe  Fe9  1  0.000000  0.000000  0.500000  1
  Fe  Fe10  1  0.500000  0.000000  0.000000  1
  Fe  Fe11  1  0.500000  0.500000  0.000000  1
  F  F12  1  0.034928  0.734555  0.110749  1
  F  F13  1  0.965072  0.265445  0.889251  1
  F  F14  1  0.583802  0.759966  0.325417  1
  F  F15  1  0.416198  0.240034  0.674583  1
  F  F16  1  0.753254  0.445754  0.547852  1
  F  F17  1  0.246746  0.554246  0.452148  1
  F  F18  1  0.749090  0.057451  0.534408  1
  F  F19  1  0.250910  0.942549  0.465592  1
  F  F20  1  0.637347  0.954924  0.838767  1
  F  F21  1  0.362653  0.045076  0.161233  1
  F  F22  1  0.633928  0.538477  0.838025  1
  F  F23  1  0.366072  0.461523  0.161975  1
  F  F24  1  0.570235  0.248135  0.975422  1
  F  F25  1  0.429765  0.751865  0.024578  1
  F  F26  1  0.286085  0.462024  0.904742  1
  F  F27  1  0.713915  0.537976  0.095258  1
  F  F28  1  0.284525  0.040229  0.904786  1
  F  F29  1  0.715475  0.959771  0.095214  1
  F  F30  1  0.033869  0.060714  0.679361  1
  F  F31  1  0.966131  0.939286  0.320639  1
  F  F32  1  0.950535  0.751959  0.554473  1
  F  F33  1  0.049465  0.248041  0.445527  1
  F  F34  1  0.058481  0.449430  0.675158  1
  F  F35  1  0.941519  0.550570  0.324842  1
