# generated using pymatgen
data_HoLu5Hf2(Co4P3)4
_symmetry_space_group_name_H-M   'P 1'
_cell_length_a   3.68499000
_cell_length_b   10.61629000
_cell_length_c   12.29763900
_cell_angle_alpha   90.00000000
_cell_angle_beta   90.00000000
_cell_angle_gamma   90.00000000
_symmetry_Int_Tables_number   1
_chemical_formula_structural   HoLu5Hf2(Co4P3)4
_chemical_formula_sum   'Ho1 Lu5 Hf2 Co16 P12'
_cell_volume   481.09498209
_cell_formula_units_Z   1
loop_
 _symmetry_equiv_pos_site_id
 _symmetry_equiv_pos_as_xyz
  1  'x, y, z'
loop_
 _atom_site_type_symbol
 _atom_site_label
 _atom_site_symmetry_multiplicity
 _atom_site_fract_x
 _atom_site_fract_y
 _atom_site_fract_z
 _atom_site_occupancy
  Ho  Ho0  1  0.500000  0.000000  0.470800  1
  Lu  Lu1  1  0.000000  0.500000  0.528975  1
  Lu  Lu2  1  0.500000  0.822294  0.204470  1
  Lu  Lu3  1  0.500000  0.177706  0.204470  1
  Lu  Lu4  1  0.000000  0.677549  0.795350  1
  Lu  Lu5  1  0.000000  0.322451  0.795350  1
  Hf  Hf6  1  0.500000  0.500000  0.158051  1
  Hf  Hf7  1  0.000000  0.000000  0.842494  1
  Co  Co8  1  0.000000  0.500000  0.986068  1
  Co  Co9  1  0.500000  0.000000  0.013901  1
  Co  Co10  1  0.500000  0.295832  0.433148  1
  Co  Co11  1  0.500000  0.704168  0.433148  1
  Co  Co12  1  0.000000  0.205421  0.567071  1
  Co  Co13  1  0.000000  0.794579  0.567071  1
  Co  Co14  1  0.500000  0.876603  0.703418  1
  Co  Co15  1  0.500000  0.123397  0.703418  1
  Co  Co16  1  0.000000  0.623071  0.296870  1
  Co  Co17  1  0.000000  0.376929  0.296870  1
  Co  Co18  1  0.500000  0.332067  0.992987  1
  Co  Co19  1  0.500000  0.667933  0.992987  1
  Co  Co20  1  0.000000  0.168038  0.007004  1
  Co  Co21  1  0.000000  0.831962  0.007004  1
  Co  Co22  1  0.500000  0.500000  0.702670  1
  Co  Co23  1  0.000000  0.000000  0.296152  1
  P  P24  1  0.500000  0.311965  0.616457  1
  P  P25  1  0.500000  0.688035  0.616457  1
  P  P26  1  0.000000  0.188979  0.383192  1
  P  P27  1  0.000000  0.811021  0.383192  1
  P  P28  1  0.500000  0.500000  0.881842  1
  P  P29  1  0.000000  0.000000  0.117886  1
  P  P30  1  0.500000  0.837347  0.891868  1
  P  P31  1  0.500000  0.162653  0.891868  1
  P  P32  1  0.000000  0.662539  0.108149  1
  P  P33  1  0.000000  0.337461  0.108149  1
  P  P34  1  0.500000  0.500000  0.363671  1
  P  P35  1  0.000000  0.000000  0.637520  1
