# generated using pymatgen
data_La3NdCo8(PRu)12
_symmetry_space_group_name_H-M   'P 1'
_cell_length_a   3.82743600
_cell_length_b   10.75552015
_cell_length_c   12.29518316
_cell_angle_alpha   90.01881565
_cell_angle_beta   90.00000000
_cell_angle_gamma   90.00000000
_symmetry_Int_Tables_number   1
_chemical_formula_structural   La3NdCo8(PRu)12
_chemical_formula_sum   'La3 Nd1 Co8 P12 Ru12'
_cell_volume   506.14428213
_cell_formula_units_Z   1
loop_
 _symmetry_equiv_pos_site_id
 _symmetry_equiv_pos_as_xyz
  1  'x, y, z'
loop_
 _atom_site_type_symbol
 _atom_site_label
 _atom_site_symmetry_multiplicity
 _atom_site_fract_x
 _atom_site_fract_y
 _atom_site_fract_z
 _atom_site_occupancy
  La  La0  1  0.250000  0.584348  0.706682  1
  La  La1  1  0.250000  0.915864  0.206762  1
  La  La2  1  0.750000  0.415572  0.293308  1
  Nd  Nd3  1  0.750000  0.084430  0.793323  1
  Co  Co4  1  0.250000  0.887803  0.693967  1
  Co  Co5  1  0.250000  0.613224  0.192704  1
  Co  Co6  1  0.750000  0.112953  0.307490  1
  Co  Co7  1  0.750000  0.386037  0.806472  1
  Co  Co8  1  0.250000  0.462969  0.935382  1
  Co  Co9  1  0.250000  0.036433  0.437170  1
  Co  Co10  1  0.750000  0.536087  0.063657  1
  Co  Co11  1  0.750000  0.964174  0.565200  1
  P  P12  1  0.250000  0.424522  0.108482  1
  P  P13  1  0.250000  0.075002  0.610867  1
  P  P14  1  0.750000  0.575296  0.890826  1
  P  P15  1  0.750000  0.924792  0.392031  1
  P  P16  1  0.250000  0.275532  0.870001  1
  P  P17  1  0.250000  0.222298  0.370705  1
  P  P18  1  0.750000  0.722928  0.128917  1
  P  P19  1  0.750000  0.777452  0.629444  1
  P  P20  1  0.250000  0.606178  0.390413  1
  P  P21  1  0.250000  0.895735  0.889265  1
  P  P22  1  0.750000  0.393752  0.609810  1
  P  P23  1  0.750000  0.106073  0.109442  1
  Ru  Ru24  1  0.250000  0.705224  0.985151  1
  Ru  Ru25  1  0.250000  0.795534  0.486225  1
  Ru  Ru26  1  0.750000  0.295004  0.013643  1
  Ru  Ru27  1  0.750000  0.204678  0.514347  1
  Ru  Ru28  1  0.250000  0.403862  0.487063  1
  Ru  Ru29  1  0.250000  0.096256  0.985603  1
  Ru  Ru30  1  0.750000  0.596021  0.513400  1
  Ru  Ru31  1  0.750000  0.904859  0.012616  1
  Ru  Ru32  1  0.250000  0.221457  0.178302  1
  Ru  Ru33  1  0.250000  0.276688  0.678878  1
  Ru  Ru34  1  0.750000  0.778780  0.821138  1
  Ru  Ru35  1  0.750000  0.722185  0.321313  1
