# generated using pymatgen
data_Nd20Si9Sb7
_symmetry_space_group_name_H-M   'P 1'
_cell_length_a   8.05804436
_cell_length_b   8.11985678
_cell_length_c   15.57221531
_cell_angle_alpha   90.10047345
_cell_angle_beta   89.73079782
_cell_angle_gamma   90.00604765
_symmetry_Int_Tables_number   1
_chemical_formula_structural   Nd20Si9Sb7
_chemical_formula_sum   'Nd20 Si9 Sb7'
_cell_volume   1018.87981644
_cell_formula_units_Z   1
loop_
 _symmetry_equiv_pos_site_id
 _symmetry_equiv_pos_as_xyz
  1  'x, y, z'
loop_
 _atom_site_type_symbol
 _atom_site_label
 _atom_site_symmetry_multiplicity
 _atom_site_fract_x
 _atom_site_fract_y
 _atom_site_fract_z
 _atom_site_occupancy
  Nd  Nd0  1  0.217488  0.991779  0.751232  1
  Nd  Nd1  1  0.784842  0.009391  0.247187  1
  Nd  Nd2  1  0.282131  0.488121  0.243385  1
  Nd  Nd3  1  0.717597  0.510281  0.751128  1
  Nd  Nd4  1  0.043721  0.679376  0.613359  1
  Nd  Nd5  1  0.957412  0.320383  0.385031  1
  Nd  Nd6  1  0.456927  0.180122  0.384473  1
  Nd  Nd7  1  0.971041  0.322124  0.108146  1
  Nd  Nd8  1  0.542906  0.821134  0.615312  1
  Nd  Nd9  1  0.045179  0.677021  0.892842  1
  Nd  Nd10  1  0.539709  0.821179  0.887244  1
  Nd  Nd11  1  0.461670  0.184991  0.111210  1
  Nd  Nd12  1  0.392638  0.330397  0.625919  1
  Nd  Nd13  1  0.606307  0.670503  0.373597  1
  Nd  Nd14  1  0.105844  0.829107  0.373246  1
  Nd  Nd15  1  0.597793  0.667869  0.122878  1
  Nd  Nd16  1  0.893229  0.170413  0.626841  1
  Nd  Nd17  1  0.382327  0.341633  0.882279  1
  Nd  Nd18  1  0.890766  0.170559  0.873974  1
  Nd  Nd19  1  0.112079  0.817037  0.123719  1
  Si  Si20  1  0.098780  0.394142  0.751136  1
  Si  Si21  1  0.898252  0.606159  0.249342  1
  Si  Si22  1  0.400749  0.893488  0.249499  1
  Si  Si23  1  0.597077  0.109890  0.751653  1
  Si  Si24  1  0.330651  0.624006  0.751565  1
  Si  Si25  1  0.672264  0.377949  0.248460  1
  Si  Si26  1  0.170433  0.119144  0.248759  1
  Si  Si27  1  0.832954  0.876025  0.750884  1
  Si  Si28  1  0.270450  0.518512  0.048527  1
  Sb  Sb29  1  0.229848  0.019984  0.541695  1
  Sb  Sb30  1  0.769306  0.981446  0.457617  1
  Sb  Sb31  1  0.270300  0.519540  0.456810  1
  Sb  Sb32  1  0.774468  0.974334  0.040191  1
  Sb  Sb33  1  0.729611  0.480529  0.541896  1
  Sb  Sb34  1  0.227306  0.024096  0.960015  1
  Sb  Sb35  1  0.725947  0.477338  0.958955  1
