# generated using pymatgen
data_Dy2HoInSi2Ag3
_symmetry_space_group_name_H-M   'P 1'
_cell_length_a   7.21652513
_cell_length_b   7.21652596
_cell_length_c   4.25374900
_cell_angle_alpha   90.00000000
_cell_angle_beta   90.00000000
_cell_angle_gamma   119.97809793
_symmetry_Int_Tables_number   1
_chemical_formula_structural   Dy2HoInSi2Ag3
_chemical_formula_sum   'Dy2 Ho1 In1 Si2 Ag3'
_cell_volume   191.89099939
_cell_formula_units_Z   1
loop_
 _symmetry_equiv_pos_site_id
 _symmetry_equiv_pos_as_xyz
  1  'x, y, z'
loop_
 _atom_site_type_symbol
 _atom_site_label
 _atom_site_symmetry_multiplicity
 _atom_site_fract_x
 _atom_site_fract_y
 _atom_site_fract_z
 _atom_site_occupancy
  Dy  Dy0  1  0.567386  0.999979  0.500000  1
  Dy  Dy1  1  0.999979  0.567386  0.500000  1
  Ho  Ho2  1  0.432659  0.432659  0.500000  1
  In  In3  1  0.000129  0.000129  0.500000  1
  Si  Si4  1  0.666556  0.333368  0.000000  1
  Si  Si5  1  0.333368  0.666556  0.000000  1
  Ag  Ag6  1  0.736491  0.736491  0.000000  1
  Ag  Ag7  1  0.263377  0.000055  0.000000  1
  Ag  Ag8  1  0.000055  0.263377  0.000000  1
