# generated using pymatgen
data_Nd8Y12Si15Pt
_symmetry_space_group_name_H-M   'P 1'
_cell_length_a   7.78570267
_cell_length_b   7.79701841
_cell_length_c   14.41640641
_cell_angle_alpha   89.62429122
_cell_angle_beta   89.74905617
_cell_angle_gamma   89.96277758
_symmetry_Int_Tables_number   1
_chemical_formula_structural   Nd8Y12Si15Pt
_chemical_formula_sum   'Nd8 Y12 Si15 Pt1'
_cell_volume   875.12442408
_cell_formula_units_Z   1
loop_
 _symmetry_equiv_pos_site_id
 _symmetry_equiv_pos_as_xyz
  1  'x, y, z'
loop_
 _atom_site_type_symbol
 _atom_site_label
 _atom_site_symmetry_multiplicity
 _atom_site_fract_x
 _atom_site_fract_y
 _atom_site_fract_z
 _atom_site_occupancy
  Nd  Nd0  1  0.638898  0.988151  0.459502  1
  Nd  Nd1  1  0.365636  0.007705  0.955660  1
  Nd  Nd2  1  0.986356  0.634133  0.540311  1
  Nd  Nd3  1  0.489931  0.861643  0.207143  1
  Nd  Nd4  1  0.510709  0.139491  0.706689  1
  Nd  Nd5  1  0.864711  0.493792  0.794541  1
  Nd  Nd6  1  0.136229  0.507400  0.293164  1
  Nd  Nd7  1  0.011587  0.362043  0.043038  1
  Y  Y8  1  0.487755  0.363497  0.124362  1
  Y  Y9  1  0.988325  0.140761  0.629162  1
  Y  Y10  1  0.862271  0.009925  0.874259  1
  Y  Y11  1  0.134879  0.981683  0.375174  1
  Y  Y12  1  0.511346  0.637241  0.621797  1
  Y  Y13  1  0.365362  0.491011  0.876086  1
  Y  Y14  1  0.635543  0.509084  0.376288  1
  Y  Y15  1  0.012288  0.865422  0.125023  1
  Y  Y16  1  0.310959  0.304429  0.502468  1
  Y  Y17  1  0.190836  0.823626  0.744050  1
  Y  Y18  1  0.815881  0.184865  0.250968  1
  Y  Y19  1  0.685309  0.686303  0.000106  1
  Si  Si20  1  0.712043  0.068297  0.061634  1
  Si  Si21  1  0.932246  0.288236  0.438218  1
  Si  Si22  1  0.432195  0.209905  0.311177  1
  Si  Si23  1  0.568911  0.787539  0.810614  1
  Si  Si24  1  0.210955  0.436691  0.690108  1
  Si  Si25  1  0.788820  0.567388  0.188347  1
  Si  Si26  1  0.065793  0.711394  0.937499  1
  Si  Si27  1  0.797386  0.844086  0.689950  1
  Si  Si28  1  0.201443  0.155747  0.191737  1
  Si  Si29  1  0.841522  0.796330  0.306907  1
  Si  Si30  1  0.342317  0.696337  0.440283  1
  Si  Si31  1  0.657932  0.299735  0.943804  1
  Si  Si32  1  0.703439  0.344413  0.558338  1
  Si  Si33  1  0.299104  0.657357  0.057772  1
  Si  Si34  1  0.153968  0.208419  0.812364  1
  Pt  Pt35  1  0.287116  0.935923  0.561457  1
