# generated using pymatgen
data_NaSr3PdO6
_symmetry_space_group_name_H-M   'P 1'
_cell_length_a   6.69068143
_cell_length_b   6.69068050
_cell_length_c   6.69067640
_cell_angle_alpha   90.58005251
_cell_angle_beta   90.58001611
_cell_angle_gamma   90.58003234
_symmetry_Int_Tables_number   1
_chemical_formula_structural   NaSr3PdO6
_chemical_formula_sum   'Na2 Sr6 Pd2 O12'
_cell_volume   299.46319005
_cell_formula_units_Z   2
loop_
 _symmetry_equiv_pos_site_id
 _symmetry_equiv_pos_as_xyz
  1  'x, y, z'
loop_
 _atom_site_type_symbol
 _atom_site_label
 _atom_site_symmetry_multiplicity
 _atom_site_fract_x
 _atom_site_fract_y
 _atom_site_fract_z
 _atom_site_occupancy
  Na  Na0  1  0.250000  0.250000  0.250000  1
  Na  Na1  1  0.750000  0.750000  0.750000  1
  Sr  Sr2  1  0.749999  0.387320  0.112680  1
  Sr  Sr3  1  0.112681  0.749999  0.387320  1
  Sr  Sr4  1  0.250001  0.612680  0.887320  1
  Sr  Sr5  1  0.387320  0.112681  0.749999  1
  Sr  Sr6  1  0.612680  0.887319  0.250001  1
  Sr  Sr7  1  0.887319  0.250001  0.612680  1
  Pd  Pd8  1  0.500000  0.500000  0.500000  1
  Pd  Pd9  1  0.000000  0.000000  0.000000  1
  O  O10  1  0.079723  0.285395  0.942481  1
  O  O11  1  0.942481  0.079723  0.285395  1
  O  O12  1  0.285395  0.942481  0.079723  1
  O  O13  1  0.420277  0.557518  0.214607  1
  O  O14  1  0.214607  0.420277  0.557518  1
  O  O15  1  0.557518  0.214607  0.420277  1
  O  O16  1  0.920277  0.714605  0.057519  1
  O  O17  1  0.057519  0.920277  0.714605  1
  O  O18  1  0.714605  0.057519  0.920277  1
  O  O19  1  0.579723  0.442482  0.785393  1
  O  O20  1  0.442482  0.785393  0.579723  1
  O  O21  1  0.785393  0.579723  0.442482  1
