# generated using pymatgen
data_Zr4In(B7Ir6)2
_symmetry_space_group_name_H-M   'P 1'
_cell_length_a   3.45434996
_cell_length_b   7.88398180
_cell_length_c   13.62732498
_cell_angle_alpha   89.95983407
_cell_angle_beta   90.06239282
_cell_angle_gamma   90.12457156
_symmetry_Int_Tables_number   1
_chemical_formula_structural   Zr4In(B7Ir6)2
_chemical_formula_sum   'Zr4 In1 B14 Ir12'
_cell_volume   371.12581985
_cell_formula_units_Z   1
loop_
 _symmetry_equiv_pos_site_id
 _symmetry_equiv_pos_as_xyz
  1  'x, y, z'
loop_
 _atom_site_type_symbol
 _atom_site_label
 _atom_site_symmetry_multiplicity
 _atom_site_fract_x
 _atom_site_fract_y
 _atom_site_fract_z
 _atom_site_occupancy
  Zr  Zr0  1  0.250712  0.496746  0.837238  1
  Zr  Zr1  1  0.252870  0.002139  0.329424  1
  Zr  Zr2  1  0.747130  0.997861  0.670576  1
  Zr  Zr3  1  0.749288  0.503254  0.162762  1
  In  In4  1  0.500000  0.500000  0.500000  1
  B  B5  1  0.500000  0.000000  0.000000  1
  B  B6  1  0.000000  0.000000  0.000000  1
  B  B7  1  0.746653  0.326471  0.730341  1
  B  B8  1  0.751163  0.831767  0.217602  1
  B  B9  1  0.750298  0.753721  0.807378  1
  B  B10  1  0.748329  0.246366  0.297212  1
  B  B11  1  0.751089  0.423308  0.974338  1
  B  B12  1  0.747384  0.917901  0.472936  1
  B  B13  1  0.248837  0.168233  0.782398  1
  B  B14  1  0.253347  0.673529  0.269659  1
  B  B15  1  0.251671  0.753634  0.702788  1
  B  B16  1  0.249702  0.246279  0.192622  1
  B  B17  1  0.252616  0.082099  0.527064  1
  B  B18  1  0.248911  0.576692  0.025662  1
  Ir  Ir19  1  0.753834  0.595830  0.681150  1
  Ir  Ir20  1  0.749710  0.089995  0.160597  1
  Ir  Ir21  1  0.749757  0.702031  0.963602  1
  Ir  Ir22  1  0.757012  0.189453  0.457446  1
  Ir  Ir23  1  0.749940  0.201373  0.876053  1
  Ir  Ir24  1  0.755905  0.716616  0.359539  1
  Ir  Ir25  1  0.250290  0.910005  0.839403  1
  Ir  Ir26  1  0.246166  0.404170  0.318850  1
  Ir  Ir27  1  0.242988  0.810547  0.542554  1
  Ir  Ir28  1  0.250243  0.297969  0.036398  1
  Ir  Ir29  1  0.244095  0.283384  0.640461  1
  Ir  Ir30  1  0.250060  0.798627  0.123947  1
