# generated using pymatgen
data_NaTc3Mo3Se8
_symmetry_space_group_name_H-M   'P 1'
_cell_length_a   6.82744211
_cell_length_b   6.82744146
_cell_length_c   6.82743993
_cell_angle_alpha   90.65123722
_cell_angle_beta   90.65123399
_cell_angle_gamma   90.65123619
_symmetry_Int_Tables_number   1
_chemical_formula_structural   NaTc3Mo3Se8
_chemical_formula_sum   'Na1 Tc3 Mo3 Se8'
_cell_volume   318.19187687
_cell_formula_units_Z   1
loop_
 _symmetry_equiv_pos_site_id
 _symmetry_equiv_pos_as_xyz
  1  'x, y, z'
loop_
 _atom_site_type_symbol
 _atom_site_label
 _atom_site_symmetry_multiplicity
 _atom_site_fract_x
 _atom_site_fract_y
 _atom_site_fract_z
 _atom_site_occupancy
  Na  Na0  1  0.999608  0.999608  0.999608  1
  Tc  Tc1  1  0.760117  0.443084  0.581815  1
  Tc  Tc2  1  0.581815  0.760117  0.443084  1
  Tc  Tc3  1  0.443084  0.581815  0.760117  1
  Mo  Mo4  1  0.240463  0.556701  0.418177  1
  Mo  Mo5  1  0.418177  0.240463  0.556701  1
  Mo  Mo6  1  0.556701  0.418177  0.240463  1
  Se  Se7  1  0.875956  0.620413  0.268569  1
  Se  Se8  1  0.268569  0.875956  0.620413  1
  Se  Se9  1  0.620413  0.268569  0.875956  1
  Se  Se10  1  0.122364  0.378067  0.740022  1
  Se  Se11  1  0.740022  0.122364  0.378067  1
  Se  Se12  1  0.378067  0.740022  0.122364  1
  Se  Se13  1  0.760562  0.760562  0.760562  1
  Se  Se14  1  0.234080  0.234080  0.234080  1
