# generated using pymatgen
data_Ta2Ti10Sn4N
_symmetry_space_group_name_H-M   'P 1'
_cell_length_a   6.16218500
_cell_length_b   4.77655259
_cell_length_c   9.93192589
_cell_angle_alpha   88.98517558
_cell_angle_beta   90.00000000
_cell_angle_gamma   90.00000000
_symmetry_Int_Tables_number   1
_chemical_formula_structural   Ta2Ti10Sn4N
_chemical_formula_sum   'Ta2 Ti10 Sn4 N1'
_cell_volume   292.29046003
_cell_formula_units_Z   1
loop_
 _symmetry_equiv_pos_site_id
 _symmetry_equiv_pos_as_xyz
  1  'x, y, z'
loop_
 _atom_site_type_symbol
 _atom_site_label
 _atom_site_symmetry_multiplicity
 _atom_site_fract_x
 _atom_site_fract_y
 _atom_site_fract_z
 _atom_site_occupancy
  Ta  Ta0  1  0.500000  0.750097  0.632735  1
  Ta  Ta1  1  0.500000  0.249903  0.367265  1
  Ti  Ti2  1  0.000000  0.783910  0.150470  1
  Ti  Ti3  1  0.752542  0.750187  0.403520  1
  Ti  Ti4  1  0.243692  0.738854  0.904790  1
  Ti  Ti5  1  0.247458  0.750187  0.403520  1
  Ti  Ti6  1  0.756308  0.738854  0.904790  1
  Ti  Ti7  1  0.000000  0.216090  0.849530  1
  Ti  Ti8  1  0.756308  0.261146  0.095210  1
  Ti  Ti9  1  0.247458  0.249813  0.596480  1
  Ti  Ti10  1  0.243692  0.261146  0.095210  1
  Ti  Ti11  1  0.752542  0.249813  0.596480  1
  Sn  Sn12  1  0.500000  0.757754  0.160379  1
  Sn  Sn13  1  0.000000  0.745819  0.659851  1
  Sn  Sn14  1  0.000000  0.254181  0.340149  1
  Sn  Sn15  1  0.500000  0.242246  0.839620  1
  N  N16  1  0.000000  0.500000  0.000000  1
