# generated using pymatgen
data_Gd7YIn3Rh
_symmetry_space_group_name_H-M   'P 1'
_cell_length_a   10.49436100
_cell_length_b   10.49436242
_cell_length_c   7.12461300
_cell_angle_alpha   90.00000000
_cell_angle_beta   90.00000000
_cell_angle_gamma   120.00000497
_symmetry_Int_Tables_number   1
_chemical_formula_structural   Gd7YIn3Rh
_chemical_formula_sum   'Gd14 Y2 In6 Rh2'
_cell_volume   679.52266523
_cell_formula_units_Z   2
loop_
 _symmetry_equiv_pos_site_id
 _symmetry_equiv_pos_as_xyz
  1  'x, y, z'
loop_
 _atom_site_type_symbol
 _atom_site_label
 _atom_site_symmetry_multiplicity
 _atom_site_fract_x
 _atom_site_fract_y
 _atom_site_fract_z
 _atom_site_occupancy
  Gd  Gd0  1  0.466599  0.533401  0.480921  1
  Gd  Gd1  1  0.066802  0.533401  0.480921  1
  Gd  Gd2  1  0.466599  0.933198  0.480921  1
  Gd  Gd3  1  0.533401  0.466599  0.980921  1
  Gd  Gd4  1  0.933198  0.466599  0.980921  1
  Gd  Gd5  1  0.533401  0.066802  0.980921  1
  Gd  Gd6  1  0.823953  0.176047  0.275935  1
  Gd  Gd7  1  0.352093  0.176047  0.275935  1
  Gd  Gd8  1  0.823953  0.647907  0.275935  1
  Gd  Gd9  1  0.176047  0.823953  0.775935  1
  Gd  Gd10  1  0.647907  0.823953  0.775935  1
  Gd  Gd11  1  0.176047  0.352093  0.775935  1
  Gd  Gd12  1  0.333333  0.666667  0.099581  1
  Gd  Gd13  1  0.666667  0.333333  0.599581  1
  Y  Y14  1  0.000000  0.000000  0.496009  1
  Y  Y15  1  0.000000  0.000000  0.996009  1
  In  In16  1  0.161379  0.838621  0.234720  1
  In  In17  1  0.677241  0.838621  0.234720  1
  In  In18  1  0.161379  0.322759  0.234720  1
  In  In19  1  0.838621  0.161379  0.734720  1
  In  In20  1  0.322759  0.161379  0.734720  1
  In  In21  1  0.838621  0.677241  0.734720  1
  Rh  Rh22  1  0.333333  0.666667  0.701960  1
  Rh  Rh23  1  0.666667  0.333333  0.201960  1
