# generated using pymatgen
data_Ho8InAgIrRh
_symmetry_space_group_name_H-M   'P 1'
_cell_length_a   9.55428622
_cell_length_b   9.58934041
_cell_length_c   9.56570268
_cell_angle_alpha   59.81353689
_cell_angle_beta   59.71155422
_cell_angle_gamma   59.91811939
_symmetry_Int_Tables_number   1
_chemical_formula_structural   Ho8InAgIrRh
_chemical_formula_sum   'Ho16 In2 Ag2 Ir2 Rh2'
_cell_volume   617.09574789
_cell_formula_units_Z   2
loop_
 _symmetry_equiv_pos_site_id
 _symmetry_equiv_pos_as_xyz
  1  'x, y, z'
loop_
 _atom_site_type_symbol
 _atom_site_label
 _atom_site_symmetry_multiplicity
 _atom_site_fract_x
 _atom_site_fract_y
 _atom_site_fract_z
 _atom_site_occupancy
  Ho  Ho0  1  0.186660  0.186685  0.812648  1
  Ho  Ho1  1  0.600011  0.600191  0.198614  1
  Ho  Ho2  1  0.439691  0.059444  0.440581  1
  Ho  Ho3  1  0.441354  0.441891  0.058089  1
  Ho  Ho4  1  0.812680  0.183177  0.814881  1
  Ho  Ho5  1  0.183719  0.810367  0.191965  1
  Ho  Ho6  1  0.438572  0.060253  0.059446  1
  Ho  Ho7  1  0.183783  0.813019  0.813365  1
  Ho  Ho8  1  0.060559  0.438796  0.059475  1
  Ho  Ho9  1  0.809093  0.811206  0.189799  1
  Ho  Ho10  1  0.198604  0.601961  0.600860  1
  Ho  Ho11  1  0.059471  0.439805  0.440346  1
  Ho  Ho12  1  0.061462  0.060707  0.436840  1
  Ho  Ho13  1  0.810917  0.182868  0.191352  1
  Ho  Ho14  1  0.601880  0.197784  0.601002  1
  Ho  Ho15  1  0.600119  0.600390  0.600555  1
  In  In16  1  0.507337  0.833500  0.829101  1
  In  In17  1  0.833511  0.507138  0.829024  1
  Ag  Ag18  1  0.833951  0.834355  0.831319  1
  Ag  Ag19  1  0.834017  0.834195  0.499835  1
  Ir  Ir20  1  0.393633  0.823706  0.392635  1
  Ir  Ir21  1  0.392564  0.392930  0.391669  1
  Rh  Rh22  1  0.823419  0.393000  0.392756  1
  Rh  Rh23  1  0.392994  0.392632  0.823846  1
