# generated using pymatgen
data_LiTb6BCl12
_symmetry_space_group_name_H-M   'P 1'
_cell_length_a   8.64420371
_cell_length_b   8.64420301
_cell_length_c   8.64420400
_cell_angle_alpha   107.27700313
_cell_angle_beta   107.27700168
_cell_angle_gamma   107.27700547
_symmetry_Int_Tables_number   1
_chemical_formula_structural   LiTb6BCl12
_chemical_formula_sum   'Li1 Tb6 B1 Cl12'
_cell_volume   533.80678916
_cell_formula_units_Z   1
loop_
 _symmetry_equiv_pos_site_id
 _symmetry_equiv_pos_as_xyz
  1  'x, y, z'
loop_
 _atom_site_type_symbol
 _atom_site_label
 _atom_site_symmetry_multiplicity
 _atom_site_fract_x
 _atom_site_fract_y
 _atom_site_fract_z
 _atom_site_occupancy
  Li  Li0  1  0.499491  0.499491  0.499491  1
  Tb  Tb1  1  0.891826  0.969108  0.678464  1
  Tb  Tb2  1  0.969108  0.678464  0.891826  1
  Tb  Tb3  1  0.678464  0.891826  0.969108  1
  Tb  Tb4  1  0.035382  0.326221  0.112820  1
  Tb  Tb5  1  0.326221  0.112820  0.035382  1
  Tb  Tb6  1  0.112820  0.035382  0.326221  1
  B  B7  1  0.002439  0.002439  0.002439  1
  Cl  Cl8  1  0.229132  0.078756  0.690214  1
  Cl  Cl9  1  0.078756  0.690214  0.229132  1
  Cl  Cl10  1  0.690214  0.229132  0.078756  1
  Cl  Cl11  1  0.545186  0.837978  0.622820  1
  Cl  Cl12  1  0.837978  0.622820  0.545186  1
  Cl  Cl13  1  0.622820  0.545186  0.837978  1
  Cl  Cl14  1  0.925810  0.314487  0.775710  1
  Cl  Cl15  1  0.314487  0.775710  0.925810  1
  Cl  Cl16  1  0.775710  0.925810  0.314487  1
  Cl  Cl17  1  0.381906  0.459722  0.166728  1
  Cl  Cl18  1  0.459722  0.166728  0.381906  1
  Cl  Cl19  1  0.166728  0.381906  0.459722  1
