# generated using pymatgen
data_TmLuFeSi2
_symmetry_space_group_name_H-M   'P 1'
_cell_length_a   5.52015875
_cell_length_b   5.52015837
_cell_length_c   9.77171407
_cell_angle_alpha   63.44094163
_cell_angle_beta   63.44094302
_cell_angle_gamma   43.58371652
_symmetry_Int_Tables_number   1
_chemical_formula_structural   TmLuFeSi2
_chemical_formula_sum   'Tm2 Lu2 Fe2 Si4'
_cell_volume   179.91632112
_cell_formula_units_Z   2
loop_
 _symmetry_equiv_pos_site_id
 _symmetry_equiv_pos_as_xyz
  1  'x, y, z'
loop_
 _atom_site_type_symbol
 _atom_site_label
 _atom_site_symmetry_multiplicity
 _atom_site_fract_x
 _atom_site_fract_y
 _atom_site_fract_z
 _atom_site_occupancy
  Tm  Tm0  1  0.811548  0.811548  0.108994  1
  Tm  Tm1  1  0.188452  0.188452  0.891006  1
  Lu  Lu2  1  0.999269  0.999269  0.328961  1
  Lu  Lu3  1  0.000731  0.000731  0.671039  1
  Fe  Fe4  1  0.729814  0.729814  0.624959  1
  Fe  Fe5  1  0.270186  0.270186  0.375041  1
  Si  Si6  1  0.650330  0.650330  0.436998  1
  Si  Si7  1  0.349670  0.349670  0.563002  1
  Si  Si8  1  0.502427  0.502427  0.126791  1
  Si  Si9  1  0.497573  0.497573  0.873209  1
