# generated using pymatgen
data_Dy3Al12CuOs3
_symmetry_space_group_name_H-M   'P 1'
_cell_length_a   8.84848550
_cell_length_b   8.79798604
_cell_length_c   9.52950624
_cell_angle_alpha   90.00000238
_cell_angle_beta   90.10357507
_cell_angle_gamma   119.81138180
_symmetry_Int_Tables_number   1
_chemical_formula_structural   Dy3Al12CuOs3
_chemical_formula_sum   'Dy6 Al24 Cu2 Os6'
_cell_volume   643.68680214
_cell_formula_units_Z   2
loop_
 _symmetry_equiv_pos_site_id
 _symmetry_equiv_pos_as_xyz
  1  'x, y, z'
loop_
 _atom_site_type_symbol
 _atom_site_label
 _atom_site_symmetry_multiplicity
 _atom_site_fract_x
 _atom_site_fract_y
 _atom_site_fract_z
 _atom_site_occupancy
  Dy  Dy0  1  0.190688  0.387796  0.251704  1
  Dy  Dy1  1  0.809312  0.612204  0.748296  1
  Dy  Dy2  1  0.615347  0.807674  0.248220  1
  Dy  Dy3  1  0.384653  0.192326  0.751780  1
  Dy  Dy4  1  0.190688  0.802893  0.251704  1
  Dy  Dy5  1  0.809312  0.197107  0.748296  1
  Al  Al6  1  0.330945  0.665473  0.024443  1
  Al  Al7  1  0.669055  0.334527  0.975557  1
  Al  Al8  1  0.665914  0.332956  0.522724  1
  Al  Al9  1  0.334086  0.667044  0.477276  1
  Al  Al10  1  0.165495  0.328089  0.575223  1
  Al  Al11  1  0.834505  0.671911  0.424777  1
  Al  Al12  1  0.672548  0.836274  0.572730  1
  Al  Al13  1  0.841793  0.673527  0.078751  1
  Al  Al14  1  0.327452  0.163726  0.427270  1
  Al  Al15  1  0.158207  0.326473  0.921249  1
  Al  Al16  1  0.165495  0.837407  0.575223  1
  Al  Al17  1  0.323744  0.161871  0.080690  1
  Al  Al18  1  0.834505  0.162593  0.424777  1
  Al  Al19  1  0.676256  0.838129  0.919310  1
  Al  Al20  1  0.841793  0.168265  0.078751  1
  Al  Al21  1  0.158207  0.831735  0.921249  1
  Al  Al22  1  0.561852  0.123014  0.249770  1
  Al  Al23  1  0.438148  0.876986  0.750230  1
  Al  Al24  1  0.875558  0.437779  0.249155  1
  Al  Al25  1  0.124442  0.562221  0.750845  1
  Al  Al26  1  0.561852  0.438838  0.249770  1
  Al  Al27  1  0.438148  0.561162  0.750230  1
  Al  Al28  1  0.997151  0.998575  0.250622  1
  Al  Al29  1  0.002849  0.001425  0.749378  1
  Cu  Cu30  1  0.500000  0.000000  0.000000  1
  Cu  Cu31  1  0.500000  0.500000  0.000000  1
  Os  Os32  1  0.000000  0.500000  0.000000  1
  Os  Os33  1  0.500000  0.000000  0.500000  1
  Os  Os34  1  0.000000  0.500000  0.500000  1
  Os  Os35  1  0.500000  0.500000  0.500000  1
  Os  Os36  1  0.000000  0.000000  0.000000  1
  Os  Os37  1  0.000000  0.000000  0.500000  1
