# generated using pymatgen
data_LaSbAsIrPd
_symmetry_space_group_name_H-M   'P 1'
_cell_length_a   4.53429500
_cell_length_b   4.53429500
_cell_length_c   10.27464600
_cell_angle_alpha   90.00000000
_cell_angle_beta   90.00000000
_cell_angle_gamma   90.00000000
_symmetry_Int_Tables_number   1
_chemical_formula_structural   LaSbAsIrPd
_chemical_formula_sum   'La2 Sb2 As2 Ir2 Pd2'
_cell_volume   211.24498686
_cell_formula_units_Z   2
loop_
 _symmetry_equiv_pos_site_id
 _symmetry_equiv_pos_as_xyz
  1  'x, y, z'
loop_
 _atom_site_type_symbol
 _atom_site_label
 _atom_site_symmetry_multiplicity
 _atom_site_fract_x
 _atom_site_fract_y
 _atom_site_fract_z
 _atom_site_occupancy
  La  La0  1  0.000000  0.500000  0.231913  1
  La  La1  1  0.500000  0.000000  0.768087  1
  Sb  Sb2  1  0.000000  0.500000  0.642897  1
  Sb  Sb3  1  0.500000  0.000000  0.357103  1
  As  As4  1  0.000000  0.000000  0.000000  1
  As  As5  1  0.500000  0.500000  0.000000  1
  Ir  Ir6  1  0.000000  0.500000  0.899757  1
  Ir  Ir7  1  0.500000  0.000000  0.100243  1
  Pd  Pd8  1  0.000000  0.000000  0.500000  1
  Pd  Pd9  1  0.500000  0.500000  0.500000  1
