# generated using pymatgen
data_Pr6Mn3MoC12
_symmetry_space_group_name_H-M   'P 1'
_cell_length_a   8.37289300
_cell_length_b   8.37289171
_cell_length_c   5.27301200
_cell_angle_alpha   90.00000000
_cell_angle_beta   90.00000000
_cell_angle_gamma   119.99999217
_symmetry_Int_Tables_number   1
_chemical_formula_structural   Pr6Mn3MoC12
_chemical_formula_sum   'Pr6 Mn3 Mo1 C12'
_cell_volume   320.14036920
_cell_formula_units_Z   1
loop_
 _symmetry_equiv_pos_site_id
 _symmetry_equiv_pos_as_xyz
  1  'x, y, z'
loop_
 _atom_site_type_symbol
 _atom_site_label
 _atom_site_symmetry_multiplicity
 _atom_site_fract_x
 _atom_site_fract_y
 _atom_site_fract_z
 _atom_site_occupancy
  Pr  Pr0  1  0.613292  0.683765  0.750717  1
  Pr  Pr1  1  0.929525  0.613292  0.249283  1
  Pr  Pr2  1  0.683765  0.070475  0.249283  1
  Pr  Pr3  1  0.316235  0.929525  0.750717  1
  Pr  Pr4  1  0.070475  0.386708  0.750717  1
  Pr  Pr5  1  0.386708  0.316235  0.249283  1
  Mn  Mn6  1  0.000000  0.000000  0.000000  1
  Mn  Mn7  1  0.666667  0.333333  0.753103  1
  Mn  Mn8  1  0.333333  0.666667  0.246897  1
  Mo  Mo9  1  0.000000  0.000000  0.500000  1
  C  C10  1  0.955341  0.762849  0.745202  1
  C  C11  1  0.192492  0.955341  0.254798  1
  C  C12  1  0.762849  0.807508  0.254798  1
  C  C13  1  0.237151  0.192492  0.745202  1
  C  C14  1  0.807508  0.044659  0.745202  1
  C  C15  1  0.044659  0.237151  0.254798  1
  C  C16  1  0.856309  0.574316  0.750334  1
  C  C17  1  0.281992  0.856309  0.249666  1
  C  C18  1  0.574316  0.718008  0.249666  1
  C  C19  1  0.425684  0.281992  0.750334  1
  C  C20  1  0.143691  0.425684  0.249666  1
  C  C21  1  0.718008  0.143691  0.750334  1
