# generated using pymatgen
data_Ho5Tm11(InPt)4
_symmetry_space_group_name_H-M   'P 1'
_cell_length_a   9.62446213
_cell_length_b   9.62617789
_cell_length_c   9.62617801
_cell_angle_alpha   60.01543378
_cell_angle_beta   59.97968194
_cell_angle_gamma   59.97968996
_symmetry_Int_Tables_number   1
_chemical_formula_structural   Ho5Tm11(InPt)4
_chemical_formula_sum   'Ho5 Tm11 In4 Pt4'
_cell_volume   630.50193579
_cell_formula_units_Z   1
loop_
 _symmetry_equiv_pos_site_id
 _symmetry_equiv_pos_as_xyz
  1  'x, y, z'
loop_
 _atom_site_type_symbol
 _atom_site_label
 _atom_site_symmetry_multiplicity
 _atom_site_fract_x
 _atom_site_fract_y
 _atom_site_fract_z
 _atom_site_occupancy
  Ho  Ho0  1  0.062209  0.062623  0.437605  1
  Ho  Ho1  1  0.437742  0.062216  0.437840  1
  Ho  Ho2  1  0.062209  0.437605  0.062623  1
  Ho  Ho3  1  0.052221  0.649258  0.649258  1
  Ho  Ho4  1  0.437742  0.437840  0.062216  1
  Tm  Tm5  1  0.649454  0.051418  0.649603  1
  Tm  Tm6  1  0.189315  0.810820  0.189059  1
  Tm  Tm7  1  0.189315  0.189059  0.810820  1
  Tm  Tm8  1  0.810557  0.810483  0.189493  1
  Tm  Tm9  1  0.438777  0.061184  0.061184  1
  Tm  Tm10  1  0.810641  0.189392  0.189392  1
  Tm  Tm11  1  0.061185  0.438600  0.438600  1
  Tm  Tm12  1  0.810557  0.189493  0.810483  1
  Tm  Tm13  1  0.189235  0.810917  0.810917  1
  Tm  Tm14  1  0.649454  0.649603  0.051418  1
  Tm  Tm15  1  0.649500  0.649552  0.649552  1
  In  In16  1  0.416880  0.416812  0.416812  1
  In  In17  1  0.749515  0.416941  0.416941  1
  In  In18  1  0.417783  0.749325  0.416139  1
  In  In19  1  0.417783  0.416139  0.749325  1
  Pt  Pt20  1  0.856917  0.857620  0.427179  1
  Pt  Pt21  1  0.856229  0.858307  0.858307  1
  Pt  Pt22  1  0.427860  0.857616  0.857616  1
  Pt  Pt23  1  0.856917  0.427179  0.857620  1
