# generated using pymatgen
data_Sc11Os2PtRh
_symmetry_space_group_name_H-M   'P 1'
_cell_length_a   9.51629321
_cell_length_b   9.48076406
_cell_length_c   9.53636566
_cell_angle_alpha   60.05294268
_cell_angle_beta   59.68369292
_cell_angle_gamma   60.26337389
_symmetry_Int_Tables_number   1
_chemical_formula_structural   Sc11Os2PtRh
_chemical_formula_sum   'Sc22 Os4 Pt2 Rh2'
_cell_volume   608.35395155
_cell_formula_units_Z   2
loop_
 _symmetry_equiv_pos_site_id
 _symmetry_equiv_pos_as_xyz
  1  'x, y, z'
loop_
 _atom_site_type_symbol
 _atom_site_label
 _atom_site_symmetry_multiplicity
 _atom_site_fract_x
 _atom_site_fract_y
 _atom_site_fract_z
 _atom_site_occupancy
  Sc  Sc0  1  0.840546  0.846832  0.841857  1
  Sc  Sc1  1  0.529234  0.158143  0.153168  1
  Sc  Sc2  1  0.153168  0.159454  0.529234  1
  Sc  Sc3  1  0.158143  0.529234  0.159454  1
  Sc  Sc4  1  0.846832  0.840546  0.470766  1
  Sc  Sc5  1  0.841857  0.470766  0.840546  1
  Sc  Sc6  1  0.470766  0.841857  0.846832  1
  Sc  Sc7  1  0.159454  0.153168  0.158143  1
  Sc  Sc8  1  0.196283  0.803717  0.196283  1
  Sc  Sc9  1  0.196461  0.803539  0.803539  1
  Sc  Sc10  1  0.803539  0.196461  0.196461  1
  Sc  Sc11  1  0.803405  0.803405  0.196595  1
  Sc  Sc12  1  0.196595  0.196595  0.803405  1
  Sc  Sc13  1  0.803717  0.196283  0.803717  1
  Sc  Sc14  1  0.379365  0.385871  0.385363  1
  Sc  Sc15  1  0.150600  0.614637  0.614129  1
  Sc  Sc16  1  0.614637  0.150600  0.620635  1
  Sc  Sc17  1  0.614129  0.620635  0.150600  1
  Sc  Sc18  1  0.385363  0.849400  0.379365  1
  Sc  Sc19  1  0.385871  0.379365  0.849400  1
  Sc  Sc20  1  0.849400  0.385363  0.385871  1
  Sc  Sc21  1  0.620635  0.614129  0.614637  1
  Os  Os22  1  0.000000  0.500000  0.500000  1
  Os  Os23  1  0.500000  0.000000  0.000000  1
  Os  Os24  1  0.500000  0.500000  0.500000  1
  Os  Os25  1  0.000000  0.000000  0.000000  1
  Pt  Pt26  1  0.500000  0.000000  0.500000  1
  Pt  Pt27  1  0.000000  0.500000  0.000000  1
  Rh  Rh28  1  0.500000  0.500000  0.000000  1
  Rh  Rh29  1  0.000000  0.000000  0.500000  1
