# generated using pymatgen
data_DyHoAl20IrOs3
_symmetry_space_group_name_H-M   'P 1'
_cell_length_a   6.86196531
_cell_length_b   6.86199355
_cell_length_c   9.16081334
_cell_angle_alpha   90.19007153
_cell_angle_beta   90.08833100
_cell_angle_gamma   96.52974384
_symmetry_Int_Tables_number   1
_chemical_formula_structural   DyHoAl20IrOs3
_chemical_formula_sum   'Dy1 Ho1 Al20 Ir1 Os3'
_cell_volume   428.55167045
_cell_formula_units_Z   1
loop_
 _symmetry_equiv_pos_site_id
 _symmetry_equiv_pos_as_xyz
  1  'x, y, z'
loop_
 _atom_site_type_symbol
 _atom_site_label
 _atom_site_symmetry_multiplicity
 _atom_site_fract_x
 _atom_site_fract_y
 _atom_site_fract_z
 _atom_site_occupancy
  Dy  Dy0  1  0.368947  0.628184  0.250221  1
  Ho  Ho1  1  0.631476  0.372078  0.749632  1
  Al  Al2  1  0.280610  0.018377  0.747852  1
  Al  Al3  1  0.017671  0.282119  0.249381  1
  Al  Al4  1  0.719192  0.981948  0.252295  1
  Al  Al5  1  0.982146  0.718557  0.750511  1
  Al  Al6  1  0.879131  0.123938  0.949132  1
  Al  Al7  1  0.120988  0.875914  0.048022  1
  Al  Al8  1  0.876923  0.123536  0.549017  1
  Al  Al9  1  0.123191  0.876152  0.453638  1
  Al  Al10  1  0.646920  0.916770  0.749239  1
  Al  Al11  1  0.915432  0.646920  0.250335  1
  Al  Al12  1  0.351881  0.083654  0.250883  1
  Al  Al13  1  0.084529  0.354530  0.749662  1
  Al  Al14  1  0.342756  0.655090  0.896502  1
  Al  Al15  1  0.658438  0.343270  0.103401  1
  Al  Al16  1  0.344749  0.656008  0.601339  1
  Al  Al17  1  0.656622  0.342494  0.398639  1
  Al  Al18  1  0.723780  0.722479  0.998648  1
  Al  Al19  1  0.722667  0.722458  0.500579  1
  Al  Al20  1  0.276022  0.277617  0.000784  1
  Al  Al21  1  0.277073  0.277541  0.500042  1
  Ir  Ir22  1  0.499738  0.000007  0.999981  1
  Os  Os23  1  0.999626  0.500075  0.999759  1
  Os  Os24  1  0.499856  0.000239  0.500247  1
  Os  Os25  1  0.999634  0.500044  0.500259  1
