# generated using pymatgen
data_GdYZr4Pd2F30
_symmetry_space_group_name_H-M   'P 1'
_cell_length_a   8.18443111
_cell_length_b   8.18443124
_cell_length_c   8.17513693
_cell_angle_alpha   79.38144948
_cell_angle_beta   79.38145401
_cell_angle_gamma   99.33764763
_symmetry_Int_Tables_number   1
_chemical_formula_structural   GdYZr4Pd2F30
_chemical_formula_sum   'Gd1 Y1 Zr4 Pd2 F30'
_cell_volume   517.99037477
_cell_formula_units_Z   1
loop_
 _symmetry_equiv_pos_site_id
 _symmetry_equiv_pos_as_xyz
  1  'x, y, z'
loop_
 _atom_site_type_symbol
 _atom_site_label
 _atom_site_symmetry_multiplicity
 _atom_site_fract_x
 _atom_site_fract_y
 _atom_site_fract_z
 _atom_site_occupancy
  Gd  Gd0  1  0.178230  0.821770  0.250000  1
  Y  Y1  1  0.821952  0.178048  0.750000  1
  Zr  Zr2  1  0.741167  0.678811  0.671242  1
  Zr  Zr3  1  0.321189  0.258833  0.828758  1
  Zr  Zr4  1  0.258427  0.320780  0.329940  1
  Zr  Zr5  1  0.679220  0.741573  0.170060  1
  Pd  Pd6  1  0.749791  0.250209  0.250000  1
  Pd  Pd7  1  0.250574  0.749426  0.750000  1
  F  F8  1  0.312197  0.350267  0.058212  1
  F  F9  1  0.932796  0.809620  0.153602  1
  F  F10  1  0.838328  0.461348  0.689170  1
  F  F11  1  0.464498  0.840344  0.187904  1
  F  F12  1  0.808646  0.933744  0.655721  1
  F  F13  1  0.350473  0.312303  0.558036  1
  F  F14  1  0.687697  0.649527  0.941963  1
  F  F15  1  0.066256  0.191354  0.844279  1
  F  F16  1  0.159656  0.535502  0.312096  1
  F  F17  1  0.538652  0.161672  0.810830  1
  F  F18  1  0.190380  0.067204  0.346398  1
  F  F19  1  0.649733  0.687803  0.441788  1
  F  F20  1  0.769996  0.283795  0.003901  1
  F  F21  1  0.994877  0.272221  0.209550  1
  F  F22  1  0.787005  0.501182  0.221917  1
  F  F23  1  0.501337  0.786934  0.722032  1
  F  F24  1  0.272533  0.994778  0.709603  1
  F  F25  1  0.284585  0.769827  0.504247  1
  F  F26  1  0.230173  0.715415  0.995753  1
  F  F27  1  0.005222  0.727467  0.790397  1
  F  F28  1  0.213066  0.498663  0.777968  1
  F  F29  1  0.498818  0.212995  0.278083  1
  F  F30  1  0.727779  0.005123  0.290450  1
  F  F31  1  0.716205  0.230004  0.496099  1
  F  F32  1  0.473487  0.526513  0.250000  1
  F  F33  1  0.746785  0.954594  0.973969  1
  F  F34  1  0.045406  0.253215  0.526031  1
  F  F35  1  0.254157  0.047548  0.023627  1
  F  F36  1  0.952452  0.745843  0.476373  1
  F  F37  1  0.526257  0.473743  0.750000  1
