# generated using pymatgen
data_Pr3Mn2W3O14
_symmetry_space_group_name_H-M   'P 1'
_cell_length_a   7.32940911
_cell_length_b   7.32945156
_cell_length_c   7.32941780
_cell_angle_alpha   62.83981554
_cell_angle_beta   62.83951646
_cell_angle_gamma   62.83936797
_symmetry_Int_Tables_number   1
_chemical_formula_structural   Pr3Mn2W3O14
_chemical_formula_sum   'Pr3 Mn2 W3 O14'
_cell_volume   295.98951491
_cell_formula_units_Z   1
loop_
 _symmetry_equiv_pos_site_id
 _symmetry_equiv_pos_as_xyz
  1  'x, y, z'
loop_
 _atom_site_type_symbol
 _atom_site_label
 _atom_site_symmetry_multiplicity
 _atom_site_fract_x
 _atom_site_fract_y
 _atom_site_fract_z
 _atom_site_occupancy
  Pr  Pr0  1  0.000023  0.999978  0.499994  1
  Pr  Pr1  1  0.500014  0.999994  0.000049  1
  Pr  Pr2  1  0.500015  0.500070  0.500018  1
  Mn  Mn3  1  0.000059  0.499875  0.999993  1
  Mn  Mn4  1  0.499721  0.000278  0.499999  1
  W  W5  1  0.499989  0.499977  0.999967  1
  W  W6  1  0.000000  0.499988  0.499976  1
  W  W7  1  0.000014  0.999967  0.999998  1
  O  O8  1  0.616928  0.116947  0.616938  1
  O  O9  1  0.383068  0.883099  0.383083  1
  O  O10  1  0.079803  0.179980  0.679974  1
  O  O11  1  0.680001  0.179996  0.079737  1
  O  O12  1  0.680013  0.579688  0.680009  1
  O  O13  1  0.920281  0.819993  0.320003  1
  O  O14  1  0.320015  0.820009  0.920242  1
  O  O15  1  0.320014  0.420228  0.320011  1
  O  O16  1  0.648009  0.590641  0.090652  1
  O  O17  1  0.090646  0.590631  0.648014  1
  O  O18  1  0.090643  0.148000  0.090630  1
  O  O19  1  0.351976  0.409368  0.909377  1
  O  O20  1  0.909384  0.409355  0.351961  1
  O  O21  1  0.909384  0.851936  0.909377  1
