# generated using pymatgen
data_Os2Cl8O
_symmetry_space_group_name_H-M   'P 1'
_cell_length_a   6.65097684
_cell_length_b   6.68908788
_cell_length_c   6.75583729
_cell_angle_alpha   90.72606526
_cell_angle_beta   96.95694523
_cell_angle_gamma   96.56483383
_symmetry_Int_Tables_number   1
_chemical_formula_structural   Os2Cl8O
_chemical_formula_sum   'Os2 Cl8 O1'
_cell_volume   296.28391948
_cell_formula_units_Z   1
loop_
 _symmetry_equiv_pos_site_id
 _symmetry_equiv_pos_as_xyz
  1  'x, y, z'
loop_
 _atom_site_type_symbol
 _atom_site_label
 _atom_site_symmetry_multiplicity
 _atom_site_fract_x
 _atom_site_fract_y
 _atom_site_fract_z
 _atom_site_occupancy
  Os  Os0  1  0.052586  0.408700  0.759591  1
  Os  Os1  1  0.947414  0.591300  0.240409  1
  Cl  Cl2  1  0.641378  0.390200  0.226339  1
  Cl  Cl3  1  0.894268  0.680982  0.578870  1
  Cl  Cl4  1  0.258486  0.785014  0.305385  1
  Cl  Cl5  1  0.791209  0.859657  0.131489  1
  Cl  Cl6  1  0.208791  0.140343  0.868511  1
  Cl  Cl7  1  0.358622  0.609800  0.773661  1
  Cl  Cl8  1  0.105732  0.319018  0.421130  1
  Cl  Cl9  1  0.741514  0.214986  0.694615  1
  O  O10  1  0.000000  0.500000  0.000000  1
