# generated using pymatgen
data_Ho9LuSn5Bi
_symmetry_space_group_name_H-M   'P 1'
_cell_length_a   8.95262003
_cell_length_b   8.94571743
_cell_length_c   6.47266208
_cell_angle_alpha   89.98220468
_cell_angle_beta   90.00884190
_cell_angle_gamma   120.02539793
_symmetry_Int_Tables_number   1
_chemical_formula_structural   Ho9LuSn5Bi
_chemical_formula_sum   'Ho9 Lu1 Sn5 Bi1'
_cell_volume   448.81531575
_cell_formula_units_Z   1
loop_
 _symmetry_equiv_pos_site_id
 _symmetry_equiv_pos_as_xyz
  1  'x, y, z'
loop_
 _atom_site_type_symbol
 _atom_site_label
 _atom_site_symmetry_multiplicity
 _atom_site_fract_x
 _atom_site_fract_y
 _atom_site_fract_z
 _atom_site_occupancy
  Ho  Ho0  1  0.994559  0.757619  0.749865  1
  Ho  Ho1  1  0.000534  0.239154  0.250118  1
  Ho  Ho2  1  0.761254  0.760941  0.250176  1
  Ho  Ho3  1  0.764846  0.999942  0.749895  1
  Ho  Ho4  1  0.236866  0.242459  0.749888  1
  Ho  Ho5  1  0.237624  0.999945  0.250106  1
  Ho  Ho6  1  0.669933  0.337404  0.001694  1
  Ho  Ho7  1  0.669907  0.337351  0.498328  1
  Ho  Ho8  1  0.332563  0.662622  0.001705  1
  Lu  Lu9  1  0.332523  0.662359  0.498100  1
  Sn  Sn10  1  0.395376  0.394588  0.250530  1
  Sn  Sn11  1  0.001952  0.606011  0.250544  1
  Sn  Sn12  1  0.000193  0.396346  0.749482  1
  Sn  Sn13  1  0.603277  0.604330  0.749477  1
  Sn  Sn14  1  0.604818  0.999432  0.250478  1
  Bi  Bi15  1  0.393776  0.999498  0.749613  1
