# generated using pymatgen
data_DyTm2Th(Al3Rh)6
_symmetry_space_group_name_H-M   'P 1'
_cell_length_a   7.56230302
_cell_length_b   7.57779013
_cell_length_c   9.45584100
_cell_angle_alpha   90.00000000
_cell_angle_beta   90.00000000
_cell_angle_gamma   119.35604309
_symmetry_Int_Tables_number   1
_chemical_formula_structural   DyTm2Th(Al3Rh)6
_chemical_formula_sum   'Dy1 Tm2 Th1 Al18 Rh6'
_cell_volume   472.29041774
_cell_formula_units_Z   1
loop_
 _symmetry_equiv_pos_site_id
 _symmetry_equiv_pos_as_xyz
  1  'x, y, z'
loop_
 _atom_site_type_symbol
 _atom_site_label
 _atom_site_symmetry_multiplicity
 _atom_site_fract_x
 _atom_site_fract_y
 _atom_site_fract_z
 _atom_site_occupancy
  Dy  Dy0  1  0.672468  0.994318  0.250000  1
  Tm  Tm1  1  0.004090  0.327409  0.750000  1
  Tm  Tm2  1  0.327415  0.005302  0.750000  1
  Th  Th3  1  0.994372  0.671451  0.250000  1
  Al  Al4  1  0.131344  0.132933  0.250000  1
  Al  Al5  1  0.872583  0.875148  0.750000  1
  Al  Al6  1  0.001342  0.331199  0.072161  1
  Al  Al7  1  0.999838  0.663967  0.916905  1
  Al  Al8  1  0.999838  0.663967  0.583095  1
  Al  Al9  1  0.340340  0.005144  0.427718  1
  Al  Al10  1  0.001342  0.331199  0.427839  1
  Al  Al11  1  0.664249  0.001187  0.577272  1
  Al  Al12  1  0.664249  0.001187  0.922728  1
  Al  Al13  1  0.340340  0.005144  0.072282  1
  Al  Al14  1  0.331703  0.331864  0.555901  1
  Al  Al15  1  0.663213  0.666586  0.456841  1
  Al  Al16  1  0.663213  0.666586  0.043159  1
  Al  Al17  1  0.331703  0.331864  0.944099  1
  Al  Al18  1  0.344641  0.549059  0.250000  1
  Al  Al19  1  0.657968  0.447110  0.750000  1
  Al  Al20  1  0.545166  0.336258  0.250000  1
  Al  Al21  1  0.447970  0.660973  0.750000  1
  Rh  Rh22  1  0.673092  0.329014  0.999684  1
  Rh  Rh23  1  0.326511  0.671775  0.999840  1
  Rh  Rh24  1  0.326511  0.671775  0.500160  1
  Rh  Rh25  1  0.673092  0.329014  0.500316  1
  Rh  Rh26  1  0.000704  0.999285  0.999709  1
  Rh  Rh27  1  0.000704  0.999285  0.500291  1
