# generated using pymatgen
data_SmSb5(IO4)2
_symmetry_space_group_name_H-M   'P 1'
_cell_length_a   5.81676100
_cell_length_b   5.75953193
_cell_length_c   9.62298970
_cell_angle_alpha   86.43646125
_cell_angle_beta   90.00000000
_cell_angle_gamma   90.00000000
_symmetry_Int_Tables_number   1
_chemical_formula_structural   SmSb5(IO4)2
_chemical_formula_sum   'Sm1 Sb5 I2 O8'
_cell_volume   321.76433394
_cell_formula_units_Z   1
loop_
 _symmetry_equiv_pos_site_id
 _symmetry_equiv_pos_as_xyz
  1  'x, y, z'
loop_
 _atom_site_type_symbol
 _atom_site_label
 _atom_site_symmetry_multiplicity
 _atom_site_fract_x
 _atom_site_fract_y
 _atom_site_fract_z
 _atom_site_occupancy
  Sm  Sm0  1  0.772157  0.750000  0.500000  1
  Sb  Sb1  1  0.685714  0.293455  0.771200  1
  Sb  Sb2  1  0.155782  0.250000  0.500000  1
  Sb  Sb3  1  0.685714  0.206545  0.228800  1
  Sb  Sb4  1  0.313395  0.696446  0.231565  1
  Sb  Sb5  1  0.313395  0.803554  0.768435  1
  I  I6  1  0.775136  0.750000  0.000000  1
  I  I7  1  0.236370  0.250000  0.000000  1
  O  O8  1  0.079758  0.911919  0.624845  1
  O  O9  1  0.079758  0.588081  0.375155  1
  O  O10  1  0.911429  0.101998  0.381236  1
  O  O11  1  0.911429  0.398002  0.618764  1
  O  O12  1  0.489167  0.550816  0.665578  1
  O  O13  1  0.550814  0.475890  0.330965  1
  O  O14  1  0.489167  0.949184  0.334422  1
  O  O15  1  0.550814  0.024110  0.669035  1
