# generated using pymatgen
data_Hf4Al4V2PdW
_symmetry_space_group_name_H-M   'P 1'
_cell_length_a   5.24238163
_cell_length_b   5.24238107
_cell_length_c   8.66769800
_cell_angle_alpha   90.00000000
_cell_angle_beta   90.00000000
_cell_angle_gamma   119.51282956
_symmetry_Int_Tables_number   1
_chemical_formula_structural   Hf4Al4V2PdW
_chemical_formula_sum   'Hf4 Al4 V2 Pd1 W1'
_cell_volume   207.30163798
_cell_formula_units_Z   1
loop_
 _symmetry_equiv_pos_site_id
 _symmetry_equiv_pos_as_xyz
  1  'x, y, z'
loop_
 _atom_site_type_symbol
 _atom_site_label
 _atom_site_symmetry_multiplicity
 _atom_site_fract_x
 _atom_site_fract_y
 _atom_site_fract_z
 _atom_site_occupancy
  Hf  Hf0  1  0.665422  0.334578  0.304941  1
  Hf  Hf1  1  0.333796  0.666204  0.178721  1
  Hf  Hf2  1  0.333796  0.666204  0.821279  1
  Hf  Hf3  1  0.665422  0.334578  0.695059  1
  Al  Al4  1  0.005045  0.994955  0.249124  1
  Al  Al5  1  0.005045  0.994955  0.750876  1
  Al  Al6  1  0.652459  0.832626  0.500000  1
  Al  Al7  1  0.167374  0.347541  0.500000  1
  V  V8  1  0.349707  0.170167  0.000000  1
  V  V9  1  0.829833  0.650293  0.000000  1
  Pd  Pd10  1  0.165527  0.834473  0.500000  1
  W  W11  1  0.826733  0.173267  0.000000  1
