# generated using pymatgen
data_TbPa3Fe3CoB16
_symmetry_space_group_name_H-M   'P 1'
_cell_length_a   3.44764300
_cell_length_b   5.92745426
_cell_length_c   11.50186902
_cell_angle_alpha   89.97987379
_cell_angle_beta   90.00000000
_cell_angle_gamma   90.00000000
_symmetry_Int_Tables_number   1
_chemical_formula_structural   TbPa3Fe3CoB16
_chemical_formula_sum   'Tb1 Pa3 Fe3 Co1 B16'
_cell_volume   235.04926129
_cell_formula_units_Z   1
loop_
 _symmetry_equiv_pos_site_id
 _symmetry_equiv_pos_as_xyz
  1  'x, y, z'
loop_
 _atom_site_type_symbol
 _atom_site_label
 _atom_site_symmetry_multiplicity
 _atom_site_fract_x
 _atom_site_fract_y
 _atom_site_fract_z
 _atom_site_occupancy
  Tb  Tb0  1  0.500000  0.871835  0.350293  1
  Pa  Pa1  1  0.500000  0.372874  0.150314  1
  Pa  Pa2  1  0.500000  0.627052  0.850052  1
  Pa  Pa3  1  0.500000  0.126842  0.649968  1
  Fe  Fe4  1  0.500000  0.633726  0.592411  1
  Fe  Fe5  1  0.500000  0.136996  0.907249  1
  Fe  Fe6  1  0.500000  0.866082  0.088097  1
  Co  Co7  1  0.500000  0.363177  0.409744  1
  B  B8  1  0.000000  0.110438  0.045693  1
  B  B9  1  0.000000  0.887814  0.955067  1
  B  B10  1  0.000000  0.389906  0.545716  1
  B  B11  1  0.000000  0.613218  0.455064  1
  B  B12  1  0.000000  0.140026  0.465962  1
  B  B13  1  0.000000  0.860764  0.533471  1
  B  B14  1  0.000000  0.360618  0.966050  1
  B  B15  1  0.000000  0.638365  0.034637  1
  B  B16  1  0.000000  0.022967  0.189459  1
  B  B17  1  0.000000  0.976482  0.810633  1
  B  B18  1  0.000000  0.477325  0.689510  1
  B  B19  1  0.000000  0.524225  0.311246  1
  B  B20  1  0.000000  0.217966  0.315244  1
  B  B21  1  0.000000  0.781364  0.684875  1
  B  B22  1  0.000000  0.282132  0.814641  1
  B  B23  1  0.000000  0.717806  0.184602  1
