# generated using pymatgen
data_Dy11Tm(Si3Ir)4
_symmetry_space_group_name_H-M   'P 1'
_cell_length_a   4.24012700
_cell_length_b   10.64947396
_cell_length_c   12.30757300
_cell_angle_alpha   89.95057793
_cell_angle_beta   90.00000000
_cell_angle_gamma   90.00000000
_symmetry_Int_Tables_number   1
_chemical_formula_structural   Dy11Tm(Si3Ir)4
_chemical_formula_sum   'Dy11 Tm1 Si12 Ir4'
_cell_volume   555.74975459
_cell_formula_units_Z   1
loop_
 _symmetry_equiv_pos_site_id
 _symmetry_equiv_pos_as_xyz
  1  'x, y, z'
loop_
 _atom_site_type_symbol
 _atom_site_label
 _atom_site_symmetry_multiplicity
 _atom_site_fract_x
 _atom_site_fract_y
 _atom_site_fract_z
 _atom_site_occupancy
  Dy  Dy0  1  0.250000  0.880832  0.020308  1
  Dy  Dy1  1  0.250000  0.619267  0.520345  1
  Dy  Dy2  1  0.750000  0.119712  0.978921  1
  Dy  Dy3  1  0.750000  0.379641  0.480017  1
  Dy  Dy4  1  0.250000  0.918809  0.603452  1
  Dy  Dy5  1  0.250000  0.581637  0.103624  1
  Dy  Dy6  1  0.750000  0.081221  0.397299  1
  Dy  Dy7  1  0.750000  0.418493  0.896251  1
  Dy  Dy8  1  0.250000  0.659008  0.800991  1
  Dy  Dy9  1  0.250000  0.841655  0.301078  1
  Dy  Dy10  1  0.750000  0.340415  0.199044  1
  Tm  Tm11  1  0.750000  0.159061  0.699624  1
  Si  Si12  1  0.250000  0.010484  0.820377  1
  Si  Si13  1  0.250000  0.489799  0.321022  1
  Si  Si14  1  0.750000  0.990915  0.179118  1
  Si  Si15  1  0.750000  0.509953  0.678821  1
  Si  Si16  1  0.250000  0.245883  0.839983  1
  Si  Si17  1  0.250000  0.253374  0.341244  1
  Si  Si18  1  0.750000  0.754273  0.159444  1
  Si  Si19  1  0.750000  0.745942  0.659059  1
  Si  Si20  1  0.250000  0.200501  0.545182  1
  Si  Si21  1  0.250000  0.298640  0.043230  1
  Si  Si22  1  0.750000  0.798138  0.456442  1
  Si  Si23  1  0.750000  0.702009  0.956270  1
  Ir  Ir24  1  0.250000  0.388621  0.681329  1
  Ir  Ir25  1  0.250000  0.110890  0.181247  1
  Ir  Ir26  1  0.750000  0.610568  0.318597  1
  Ir  Ir27  1  0.750000  0.890264  0.817682  1
