# generated using pymatgen
data_Pr8Y12Sn13Au3
_symmetry_space_group_name_H-M   'P 1'
_cell_length_a   7.88716016
_cell_length_b   8.48677538
_cell_length_c   15.64411700
_cell_angle_alpha   90.00000000
_cell_angle_beta   90.00000000
_cell_angle_gamma   89.91468071
_symmetry_Int_Tables_number   1
_chemical_formula_structural   Pr8Y12Sn13Au3
_chemical_formula_sum   'Pr8 Y12 Sn13 Au3'
_cell_volume   1047.16216311
_cell_formula_units_Z   1
loop_
 _symmetry_equiv_pos_site_id
 _symmetry_equiv_pos_as_xyz
  1  'x, y, z'
loop_
 _atom_site_type_symbol
 _atom_site_label
 _atom_site_symmetry_multiplicity
 _atom_site_fract_x
 _atom_site_fract_y
 _atom_site_fract_z
 _atom_site_occupancy
  Pr  Pr0  1  0.502205  0.317014  0.906389  1
  Pr  Pr1  1  0.001191  0.185750  0.594284  1
  Pr  Pr2  1  0.498325  0.684269  0.410736  1
  Pr  Pr3  1  0.998695  0.817153  0.093433  1
  Pr  Pr4  1  0.498325  0.684269  0.089264  1
  Pr  Pr5  1  0.998695  0.817153  0.406567  1
  Pr  Pr6  1  0.502205  0.317014  0.593611  1
  Pr  Pr7  1  0.001191  0.185750  0.905716  1
  Y  Y8  1  0.334684  0.829163  0.868966  1
  Y  Y9  1  0.833879  0.669384  0.630570  1
  Y  Y10  1  0.654847  0.171874  0.374373  1
  Y  Y11  1  0.173691  0.333753  0.125170  1
  Y  Y12  1  0.654847  0.171874  0.125627  1
  Y  Y13  1  0.173691  0.333753  0.374830  1
  Y  Y14  1  0.334684  0.829163  0.631034  1
  Y  Y15  1  0.833879  0.669384  0.869430  1
  Y  Y16  1  0.186275  0.494893  0.750000  1
  Y  Y17  1  0.685925  0.005559  0.750000  1
  Y  Y18  1  0.811076  0.500823  0.250000  1
  Y  Y19  1  0.325738  0.995899  0.250000  1
  Sn  Sn20  1  0.318866  0.035433  0.037762  1
  Sn  Sn21  1  0.821970  0.463410  0.459143  1
  Sn  Sn22  1  0.683425  0.963199  0.541747  1
  Sn  Sn23  1  0.179689  0.537120  0.957806  1
  Sn  Sn24  1  0.683425  0.963199  0.958253  1
  Sn  Sn25  1  0.179689  0.537120  0.542194  1
  Sn  Sn26  1  0.318866  0.035433  0.462238  1
  Sn  Sn27  1  0.821970  0.463410  0.040857  1
  Sn  Sn28  1  0.960813  0.122923  0.250000  1
  Sn  Sn29  1  0.296503  0.133103  0.750000  1
  Sn  Sn30  1  0.795332  0.366541  0.750000  1
  Sn  Sn31  1  0.697719  0.860856  0.250000  1
  Sn  Sn32  1  0.205914  0.635718  0.250000  1
  Au  Au33  1  0.537600  0.622555  0.750000  1
  Au  Au34  1  0.036247  0.876478  0.750000  1
  Au  Au35  1  0.457923  0.369608  0.250000  1
