# generated using pymatgen
data_Tb3Ho3Co11P12Ir7
_symmetry_space_group_name_H-M   'P 1'
_cell_length_a   3.77704500
_cell_length_b   10.78569938
_cell_length_c   12.50211132
_cell_angle_alpha   89.82471423
_cell_angle_beta   90.00000000
_cell_angle_gamma   90.00000000
_symmetry_Int_Tables_number   1
_chemical_formula_structural   Tb3Ho3Co11P12Ir7
_chemical_formula_sum   'Tb3 Ho3 Co11 P12 Ir7'
_cell_volume   509.30952655
_cell_formula_units_Z   1
loop_
 _symmetry_equiv_pos_site_id
 _symmetry_equiv_pos_as_xyz
  1  'x, y, z'
loop_
 _atom_site_type_symbol
 _atom_site_label
 _atom_site_symmetry_multiplicity
 _atom_site_fract_x
 _atom_site_fract_y
 _atom_site_fract_z
 _atom_site_occupancy
  Tb  Tb0  1  0.000000  0.501063  0.522805  1
  Tb  Tb1  1  0.500000  0.995007  0.481277  1
  Tb  Tb2  1  0.000000  0.687203  0.798036  1
  Ho  Ho3  1  0.500000  0.815032  0.199792  1
  Ho  Ho4  1  0.500000  0.184411  0.197664  1
  Ho  Ho5  1  0.000000  0.316310  0.802584  1
  Co  Co6  1  0.000000  0.500792  0.991182  1
  Co  Co7  1  0.500000  0.000341  0.008975  1
  Co  Co8  1  0.000000  0.796193  0.570442  1
  Co  Co9  1  0.500000  0.881117  0.712846  1
  Co  Co10  1  0.500000  0.120970  0.717762  1
  Co  Co11  1  0.000000  0.620322  0.284219  1
  Co  Co12  1  0.000000  0.378688  0.283649  1
  Co  Co13  1  0.500000  0.333006  0.995078  1
  Co  Co14  1  0.500000  0.668904  0.994997  1
  Co  Co15  1  0.000000  0.166970  0.004778  1
  Co  Co16  1  0.000000  0.833651  0.005101  1
  P  P17  1  0.500000  0.308967  0.625756  1
  P  P18  1  0.500000  0.698137  0.621095  1
  P  P19  1  0.000000  0.188909  0.375797  1
  P  P20  1  0.000000  0.811204  0.381690  1
  P  P21  1  0.500000  0.501280  0.893564  1
  P  P22  1  0.000000  0.999698  0.106515  1
  P  P23  1  0.500000  0.844899  0.896014  1
  P  P24  1  0.500000  0.157269  0.896704  1
  P  P25  1  0.000000  0.657394  0.103132  1
  P  P26  1  0.000000  0.343087  0.102750  1
  P  P27  1  0.500000  0.499546  0.344536  1
  P  P28  1  0.000000  0.990521  0.653347  1
  Ir  Ir29  1  0.500000  0.297263  0.426451  1
  Ir  Ir30  1  0.500000  0.700854  0.427503  1
  Ir  Ir31  1  0.000000  0.198566  0.575571  1
  Ir  Ir32  1  0.500000  0.500876  0.159589  1
  Ir  Ir33  1  0.000000  0.000966  0.839871  1
  Ir  Ir34  1  0.500000  0.501158  0.707626  1
  Ir  Ir35  1  0.000000  0.999425  0.291302  1
