# generated using pymatgen
data_AsIrI18
_symmetry_space_group_name_H-M   'P 1'
_cell_length_a   10.09724920
_cell_length_b   10.15026906
_cell_length_c   10.08305075
_cell_angle_alpha   93.74017135
_cell_angle_beta   93.77595012
_cell_angle_gamma   93.66900168
_symmetry_Int_Tables_number   1
_chemical_formula_structural   AsIrI18
_chemical_formula_sum   'As1 Ir1 I18'
_cell_volume   1026.54744519
_cell_formula_units_Z   1
loop_
 _symmetry_equiv_pos_site_id
 _symmetry_equiv_pos_as_xyz
  1  'x, y, z'
loop_
 _atom_site_type_symbol
 _atom_site_label
 _atom_site_symmetry_multiplicity
 _atom_site_fract_x
 _atom_site_fract_y
 _atom_site_fract_z
 _atom_site_occupancy
  As  As0  1  0.500000  0.500000  0.500000  1
  Ir  Ir1  1  0.000000  0.000000  0.000000  1
  I  I2  1  0.786603  0.480352  0.523714  1
  I  I3  1  0.523358  0.784927  0.479780  1
  I  I4  1  0.480681  0.524412  0.787013  1
  I  I5  1  0.213397  0.519648  0.476286  1
  I  I6  1  0.476642  0.215073  0.520220  1
  I  I7  1  0.519319  0.475588  0.212987  1
  I  I8  1  0.897135  0.364032  0.764454  1
  I  I9  1  0.763935  0.895713  0.364545  1
  I  I10  1  0.364722  0.764238  0.896972  1
  I  I11  1  0.102865  0.635968  0.235546  1
  I  I12  1  0.236065  0.104287  0.635455  1
  I  I13  1  0.635278  0.235762  0.103028  1
  I  I14  1  0.000975  0.967154  0.733001  1
  I  I15  1  0.733426  0.001293  0.966215  1
  I  I16  1  0.966011  0.734835  0.000086  1
  I  I17  1  0.999025  0.032846  0.266999  1
  I  I18  1  0.266574  0.998707  0.033785  1
  I  I19  1  0.033989  0.265165  0.999914  1
