# generated using pymatgen
data_Sr4EuPbO8
_symmetry_space_group_name_H-M   'P 1'
_cell_length_a   3.59583800
_cell_length_b   6.21977475
_cell_length_c   10.28653124
_cell_angle_alpha   89.28252850
_cell_angle_beta   90.00000000
_cell_angle_gamma   90.00000000
_symmetry_Int_Tables_number   1
_chemical_formula_structural   Sr4EuPbO8
_chemical_formula_sum   'Sr4 Eu1 Pb1 O8'
_cell_volume   230.04334455
_cell_formula_units_Z   1
loop_
 _symmetry_equiv_pos_site_id
 _symmetry_equiv_pos_as_xyz
  1  'x, y, z'
loop_
 _atom_site_type_symbol
 _atom_site_label
 _atom_site_symmetry_multiplicity
 _atom_site_fract_x
 _atom_site_fract_y
 _atom_site_fract_z
 _atom_site_occupancy
  Sr  Sr0  1  0.500000  0.427631  0.821067  1
  Sr  Sr1  1  0.500000  0.572369  0.178933  1
  Sr  Sr2  1  0.500000  0.927321  0.682365  1
  Sr  Sr3  1  0.500000  0.072679  0.317635  1
  Eu  Eu4  1  0.000000  0.500000  0.500000  1
  Pb  Pb5  1  0.000000  0.000000  0.000000  1
  O  O6  1  0.000000  0.136946  0.806739  1
  O  O7  1  0.000000  0.863054  0.193261  1
  O  O8  1  0.000000  0.637602  0.696732  1
  O  O9  1  0.000000  0.362398  0.303268  1
  O  O10  1  0.500000  0.271431  0.547820  1
  O  O11  1  0.500000  0.728569  0.452180  1
  O  O12  1  0.500000  0.225582  0.049997  1
  O  O13  1  0.500000  0.774418  0.950003  1
