# generated using pymatgen
data_SmDy2Er3(Si3Ru)8
_symmetry_space_group_name_H-M   'P 1'
_cell_length_a   10.11891431
_cell_length_b   10.11891392
_cell_length_c   8.14050664
_cell_angle_alpha   90.11470809
_cell_angle_beta   89.88528546
_cell_angle_gamma   132.56663307
_symmetry_Int_Tables_number   1
_chemical_formula_structural   SmDy2Er3(Si3Ru)8
_chemical_formula_sum   'Sm1 Dy2 Er3 Si24 Ru8'
_cell_volume   613.88320058
_cell_formula_units_Z   1
loop_
 _symmetry_equiv_pos_site_id
 _symmetry_equiv_pos_as_xyz
  1  'x, y, z'
loop_
 _atom_site_type_symbol
 _atom_site_label
 _atom_site_symmetry_multiplicity
 _atom_site_fract_x
 _atom_site_fract_y
 _atom_site_fract_z
 _atom_site_occupancy
  Sm  Sm0  1  0.502859  0.002859  0.750000  1
  Dy  Dy1  1  0.497324  0.997324  0.250000  1
  Dy  Dy2  1  0.002771  0.502771  0.750000  1
  Er  Er3  1  0.499999  0.500052  0.499834  1
  Er  Er4  1  0.000052  0.999999  0.000166  1
  Er  Er5  1  0.997847  0.497847  0.250000  1
  Si  Si6  1  0.795638  0.206516  0.498645  1
  Si  Si7  1  0.293689  0.704486  0.001417  1
  Si  Si8  1  0.204486  0.793689  0.498583  1
  Si  Si9  1  0.706516  0.295638  0.001355  1
  Si  Si10  1  0.332288  0.332059  0.832860  1
  Si  Si11  1  0.667846  0.667887  0.166890  1
  Si  Si12  1  0.167887  0.167846  0.333110  1
  Si  Si13  1  0.832059  0.832288  0.667140  1
  Si  Si14  1  0.121420  0.887135  0.728417  1
  Si  Si15  1  0.112998  0.879253  0.271722  1
  Si  Si16  1  0.611255  0.377469  0.227969  1
  Si  Si17  1  0.622279  0.387968  0.770854  1
  Si  Si18  1  0.877469  0.111255  0.272031  1
  Si  Si19  1  0.887968  0.122279  0.729146  1
  Si  Si20  1  0.387135  0.621420  0.771583  1
  Si  Si21  1  0.379253  0.612998  0.228278  1
  Si  Si22  1  0.345848  0.112340  0.503546  1
  Si  Si23  1  0.888484  0.655946  0.495451  1
  Si  Si24  1  0.387648  0.153605  0.006161  1
  Si  Si25  1  0.844082  0.611646  0.995276  1
  Si  Si26  1  0.653605  0.887648  0.493839  1
  Si  Si27  1  0.111646  0.344082  0.504724  1
  Si  Si28  1  0.612340  0.845848  0.996454  1
  Si  Si29  1  0.155946  0.388484  0.004549  1
  Ru  Ru30  1  0.671695  0.334403  0.497633  1
  Ru  Ru31  1  0.165516  0.828220  0.001099  1
  Ru  Ru32  1  0.328220  0.665516  0.498901  1
  Ru  Ru33  1  0.834403  0.171695  0.002367  1
  Ru  Ru34  1  0.126142  0.125812  0.627265  1
  Ru  Ru35  1  0.873825  0.873748  0.373080  1
  Ru  Ru36  1  0.373748  0.373825  0.126920  1
  Ru  Ru37  1  0.625812  0.626142  0.872735  1
