# generated using pymatgen
data_Hf4Ta4ZnAs3
_symmetry_space_group_name_H-M   'P 1'
_cell_length_a   3.59811800
_cell_length_b   7.06207650
_cell_length_c   8.59689603
_cell_angle_alpha   89.68624840
_cell_angle_beta   90.00000000
_cell_angle_gamma   90.00000000
_symmetry_Int_Tables_number   1
_chemical_formula_structural   Hf4Ta4ZnAs3
_chemical_formula_sum   'Hf4 Ta4 Zn1 As3'
_cell_volume   218.44543985
_cell_formula_units_Z   1
loop_
 _symmetry_equiv_pos_site_id
 _symmetry_equiv_pos_as_xyz
  1  'x, y, z'
loop_
 _atom_site_type_symbol
 _atom_site_label
 _atom_site_symmetry_multiplicity
 _atom_site_fract_x
 _atom_site_fract_y
 _atom_site_fract_z
 _atom_site_occupancy
  Hf  Hf0  1  0.250000  0.046486  0.662997  1
  Hf  Hf1  1  0.250000  0.539047  0.832299  1
  Hf  Hf2  1  0.750000  0.456066  0.162818  1
  Hf  Hf3  1  0.750000  0.960038  0.336343  1
  Ta  Ta4  1  0.750000  0.860301  0.941444  1
  Ta  Ta5  1  0.250000  0.635229  0.442565  1
  Ta  Ta6  1  0.750000  0.368607  0.562532  1
  Ta  Ta7  1  0.250000  0.132016  0.057221  1
  Zn  Zn8  1  0.250000  0.256128  0.354600  1
  As  As9  1  0.250000  0.756251  0.148646  1
  As  As10  1  0.750000  0.748920  0.643375  1
  As  As11  1  0.750000  0.240912  0.855161  1
