# generated using pymatgen
data_Y4Zn4In3Pb
_symmetry_space_group_name_H-M   'P 1'
_cell_length_a   4.66861300
_cell_length_b   4.66861372
_cell_length_c   14.94496000
_cell_angle_alpha   90.00000000
_cell_angle_beta   90.00000000
_cell_angle_gamma   120.00000199
_symmetry_Int_Tables_number   1
_chemical_formula_structural   Y4Zn4In3Pb
_chemical_formula_sum   'Y4 Zn4 In3 Pb1'
_cell_volume   282.09877282
_cell_formula_units_Z   1
loop_
 _symmetry_equiv_pos_site_id
 _symmetry_equiv_pos_as_xyz
  1  'x, y, z'
loop_
 _atom_site_type_symbol
 _atom_site_label
 _atom_site_symmetry_multiplicity
 _atom_site_fract_x
 _atom_site_fract_y
 _atom_site_fract_z
 _atom_site_occupancy
  Y  Y0  1  0.000000  0.000000  0.007803  1
  Y  Y1  1  0.000000  0.000000  0.253943  1
  Y  Y2  1  0.000000  0.000000  0.498264  1
  Y  Y3  1  0.000000  0.000000  0.743351  1
  Zn  Zn4  1  0.666668  0.333335  0.119800  1
  Zn  Zn5  1  0.666668  0.333335  0.398013  1
  Zn  Zn6  1  0.333333  0.666667  0.640548  1
  Zn  Zn7  1  0.333333  0.666667  0.832247  1
  In  In8  1  0.333333  0.666667  0.139450  1
  In  In9  1  0.333333  0.666667  0.366210  1
  In  In10  1  0.666668  0.333335  0.607900  1
  Pb  Pb11  1  0.666668  0.333335  0.892471  1
