# generated using pymatgen
data_Mn5Nb12Os7N4
_symmetry_space_group_name_H-M   'P 1'
_cell_length_a   8.25076100
_cell_length_b   8.25076100
_cell_length_c   8.25076114
_cell_angle_alpha   59.93526624
_cell_angle_beta   59.93526740
_cell_angle_gamma   59.93526723
_symmetry_Int_Tables_number   1
_chemical_formula_structural   Mn5Nb12Os7N4
_chemical_formula_sum   'Mn5 Nb12 Os7 N4'
_cell_volume   396.57826318
_cell_formula_units_Z   1
loop_
 _symmetry_equiv_pos_site_id
 _symmetry_equiv_pos_as_xyz
  1  'x, y, z'
loop_
 _atom_site_type_symbol
 _atom_site_label
 _atom_site_symmetry_multiplicity
 _atom_site_fract_x
 _atom_site_fract_y
 _atom_site_fract_z
 _atom_site_occupancy
  Mn  Mn0  1  0.119803  0.630988  0.630988  1
  Mn  Mn1  1  0.630988  0.119803  0.630988  1
  Mn  Mn2  1  0.630988  0.630988  0.119803  1
  Mn  Mn3  1  0.625376  0.625376  0.625376  1
  Mn  Mn4  1  0.830020  0.830020  0.830020  1
  Nb  Nb5  1  0.806890  0.806890  0.189421  1
  Nb  Nb6  1  0.194103  0.194103  0.804971  1
  Nb  Nb7  1  0.806890  0.189421  0.806890  1
  Nb  Nb8  1  0.194103  0.804971  0.194103  1
  Nb  Nb9  1  0.189421  0.806890  0.806890  1
  Nb  Nb10  1  0.804971  0.194103  0.194103  1
  Nb  Nb11  1  0.443522  0.443522  0.056136  1
  Nb  Nb12  1  0.055843  0.055843  0.443445  1
  Nb  Nb13  1  0.443522  0.056136  0.443522  1
  Nb  Nb14  1  0.055843  0.443445  0.055843  1
  Nb  Nb15  1  0.056136  0.443522  0.443522  1
  Nb  Nb16  1  0.443445  0.055843  0.055843  1
  Os  Os17  1  0.745438  0.417861  0.417861  1
  Os  Os18  1  0.417861  0.745438  0.417861  1
  Os  Os19  1  0.417861  0.417861  0.745438  1
  Os  Os20  1  0.418044  0.418044  0.418044  1
  Os  Os21  1  0.505208  0.832754  0.832754  1
  Os  Os22  1  0.832754  0.505208  0.832754  1
  Os  Os23  1  0.832754  0.832754  0.505208  1
  N  N24  1  0.625009  0.124343  0.124343  1
  N  N25  1  0.124343  0.625009  0.124343  1
  N  N26  1  0.124343  0.124343  0.625009  1
  N  N27  1  0.124523  0.124523  0.124523  1
