# generated using pymatgen
data_Nd4Ga18Pd5Ru
_symmetry_space_group_name_H-M   'P 1'
_cell_length_a   7.71567937
_cell_length_b   7.71564942
_cell_length_c   9.74860399
_cell_angle_alpha   89.97464455
_cell_angle_beta   89.97391962
_cell_angle_gamma   119.71721228
_symmetry_Int_Tables_number   1
_chemical_formula_structural   Nd4Ga18Pd5Ru
_chemical_formula_sum   'Nd4 Ga18 Pd5 Ru1'
_cell_volume   504.02264841
_cell_formula_units_Z   1
loop_
 _symmetry_equiv_pos_site_id
 _symmetry_equiv_pos_as_xyz
  1  'x, y, z'
loop_
 _atom_site_type_symbol
 _atom_site_label
 _atom_site_symmetry_multiplicity
 _atom_site_fract_x
 _atom_site_fract_y
 _atom_site_fract_z
 _atom_site_occupancy
  Nd  Nd0  1  0.997296  0.668209  0.249396  1
  Nd  Nd1  1  0.002704  0.331791  0.750604  1
  Nd  Nd2  1  0.668209  0.997297  0.249396  1
  Nd  Nd3  1  0.331791  0.002703  0.750604  1
  Ga  Ga4  1  0.129235  0.129235  0.254365  1
  Ga  Ga5  1  0.870765  0.870765  0.745635  1
  Ga  Ga6  1  0.003529  0.334583  0.078084  1
  Ga  Ga7  1  0.996471  0.665417  0.921916  1
  Ga  Ga8  1  0.998298  0.670342  0.574216  1
  Ga  Ga9  1  0.329657  0.001702  0.425784  1
  Ga  Ga10  1  0.001702  0.329658  0.425784  1
  Ga  Ga11  1  0.670343  0.998298  0.574216  1
  Ga  Ga12  1  0.665417  0.996471  0.921916  1
  Ga  Ga13  1  0.334583  0.003529  0.078084  1
  Ga  Ga14  1  0.329046  0.329046  0.559102  1
  Ga  Ga15  1  0.670954  0.670954  0.440898  1
  Ga  Ga16  1  0.664547  0.664547  0.063862  1
  Ga  Ga17  1  0.335453  0.335453  0.936138  1
  Ga  Ga18  1  0.339334  0.543053  0.250886  1
  Ga  Ga19  1  0.660666  0.456947  0.749114  1
  Ga  Ga20  1  0.543053  0.339334  0.250885  1
  Ga  Ga21  1  0.456947  0.660666  0.749115  1
  Pd  Pd22  1  0.670890  0.329109  0.000000  1
  Pd  Pd23  1  0.329110  0.670891  0.000000  1
  Pd  Pd24  1  0.329107  0.670893  0.500000  1
  Pd  Pd25  1  0.670893  0.329107  0.500000  1
  Pd  Pd26  1  0.000000  0.000000  0.000000  1
  Ru  Ru27  1  0.000000  0.000000  0.500000  1
