# generated using pymatgen
data_Ti4Tc24Sn
_symmetry_space_group_name_H-M   'P 1'
_cell_length_a   8.31111288
_cell_length_b   8.31111212
_cell_length_c   8.31111300
_cell_angle_alpha   109.47123009
_cell_angle_beta   109.47122824
_cell_angle_gamma   109.47121488
_symmetry_Int_Tables_number   1
_chemical_formula_structural   Ti4Tc24Sn
_chemical_formula_sum   'Ti4 Tc24 Sn1'
_cell_volume   441.93210986
_cell_formula_units_Z   1
loop_
 _symmetry_equiv_pos_site_id
 _symmetry_equiv_pos_as_xyz
  1  'x, y, z'
loop_
 _atom_site_type_symbol
 _atom_site_label
 _atom_site_symmetry_multiplicity
 _atom_site_fract_x
 _atom_site_fract_y
 _atom_site_fract_z
 _atom_site_occupancy
  Ti  Ti0  1  0.627558  0.000000  0.000000  1
  Ti  Ti1  1  0.000000  0.627558  0.000000  1
  Ti  Ti2  1  0.000000  0.000000  0.627558  1
  Ti  Ti3  1  0.372442  0.372442  0.372442  1
  Tc  Tc4  1  0.394653  0.677942  0.000000  1
  Tc  Tc5  1  0.716710  0.322058  0.322058  1
  Tc  Tc6  1  0.394653  0.000000  0.677942  1
  Tc  Tc7  1  0.677942  0.394653  0.000000  1
  Tc  Tc8  1  0.000000  0.394653  0.677942  1
  Tc  Tc9  1  0.322058  0.716710  0.322058  1
  Tc  Tc10  1  0.322058  0.322058  0.716710  1
  Tc  Tc11  1  0.000000  0.677942  0.394653  1
  Tc  Tc12  1  0.677942  0.000000  0.394653  1
  Tc  Tc13  1  0.605347  0.605347  0.283290  1
  Tc  Tc14  1  0.283290  0.605347  0.605347  1
  Tc  Tc15  1  0.605347  0.283290  0.605347  1
  Tc  Tc16  1  0.374541  0.194443  0.000000  1
  Tc  Tc17  1  0.180097  0.805557  0.805557  1
  Tc  Tc18  1  0.374541  0.000000  0.194443  1
  Tc  Tc19  1  0.194443  0.374541  0.000000  1
  Tc  Tc20  1  0.000000  0.374541  0.194443  1
  Tc  Tc21  1  0.805557  0.180097  0.805557  1
  Tc  Tc22  1  0.805557  0.805557  0.180097  1
  Tc  Tc23  1  0.000000  0.194443  0.374541  1
  Tc  Tc24  1  0.194443  0.000000  0.374541  1
  Tc  Tc25  1  0.625459  0.625459  0.819903  1
  Tc  Tc26  1  0.819903  0.625459  0.625459  1
  Tc  Tc27  1  0.625459  0.819903  0.625459  1
  Sn  Sn28  1  0.000000  0.000000  0.000000  1
