# generated using pymatgen
data_YbHo3(Tm3Pt4)2
_symmetry_space_group_name_H-M   'P 1'
_cell_length_a   7.42338900
_cell_length_b   7.51619679
_cell_length_c   14.62239648
_cell_angle_alpha   90.07909577
_cell_angle_beta   90.00000000
_cell_angle_gamma   90.00000000
_symmetry_Int_Tables_number   1
_chemical_formula_structural   YbHo3(Tm3Pt4)2
_chemical_formula_sum   'Yb2 Ho6 Tm12 Pt16'
_cell_volume   815.86537660
_cell_formula_units_Z   2
loop_
 _symmetry_equiv_pos_site_id
 _symmetry_equiv_pos_as_xyz
  1  'x, y, z'
loop_
 _atom_site_type_symbol
 _atom_site_label
 _atom_site_symmetry_multiplicity
 _atom_site_fract_x
 _atom_site_fract_y
 _atom_site_fract_z
 _atom_site_occupancy
  Yb  Yb0  1  0.499494  0.679736  0.592767  1
  Yb  Yb1  1  0.999494  0.820264  0.907233  1
  Ho  Ho2  1  0.498390  0.319542  0.092349  1
  Ho  Ho3  1  0.998390  0.180458  0.407651  1
  Ho  Ho4  1  0.499012  0.319309  0.407189  1
  Ho  Ho5  1  0.999012  0.180691  0.092811  1
  Ho  Ho6  1  0.500839  0.680162  0.906916  1
  Ho  Ho7  1  0.000839  0.819838  0.593084  1
  Tm  Tm8  1  0.656161  0.167059  0.622861  1
  Tm  Tm9  1  0.156161  0.332941  0.877139  1
  Tm  Tm10  1  0.344129  0.832498  0.122877  1
  Tm  Tm11  1  0.844129  0.667502  0.377123  1
  Tm  Tm12  1  0.344255  0.832292  0.377603  1
  Tm  Tm13  1  0.844255  0.667708  0.122397  1
  Tm  Tm14  1  0.656155  0.166636  0.877124  1
  Tm  Tm15  1  0.156155  0.333364  0.622876  1
  Tm  Tm16  1  0.819232  0.510903  0.750000  1
  Tm  Tm17  1  0.319232  0.989097  0.750000  1
  Tm  Tm18  1  0.180578  0.489475  0.249952  1
  Tm  Tm19  1  0.680578  0.010525  0.250048  1
  Pt  Pt20  1  0.684518  0.968570  0.457723  1
  Pt  Pt21  1  0.184518  0.531430  0.042277  1
  Pt  Pt22  1  0.320125  0.035927  0.958321  1
  Pt  Pt23  1  0.820125  0.464073  0.541679  1
  Pt  Pt24  1  0.315199  0.035578  0.541595  1
  Pt  Pt25  1  0.815199  0.464422  0.958405  1
  Pt  Pt26  1  0.680606  0.967475  0.043102  1
  Pt  Pt27  1  0.180606  0.532525  0.456898  1
  Pt  Pt28  1  0.454538  0.384336  0.750980  1
  Pt  Pt29  1  0.954538  0.115664  0.749020  1
  Pt  Pt30  1  0.546031  0.614569  0.250144  1
  Pt  Pt31  1  0.046031  0.885431  0.249856  1
  Pt  Pt32  1  0.683273  0.859246  0.750895  1
  Pt  Pt33  1  0.183273  0.640754  0.749105  1
  Pt  Pt34  1  0.317466  0.142712  0.249956  1
  Pt  Pt35  1  0.817466  0.357288  0.250044  1
