# generated using pymatgen
data_Tm3Lu3Al14(Si5Ru4)2
_symmetry_space_group_name_H-M   'P 1'
_cell_length_a   8.63357410
_cell_length_b   8.63967375
_cell_length_c   9.28098600
_cell_angle_alpha   90.00000000
_cell_angle_beta   90.00000000
_cell_angle_gamma   119.97785372
_symmetry_Int_Tables_number   1
_chemical_formula_structural   Tm3Lu3Al14(Si5Ru4)2
_chemical_formula_sum   'Tm3 Lu3 Al14 Si10 Ru8'
_cell_volume   599.66622309
_cell_formula_units_Z   1
loop_
 _symmetry_equiv_pos_site_id
 _symmetry_equiv_pos_as_xyz
  1  'x, y, z'
loop_
 _atom_site_type_symbol
 _atom_site_label
 _atom_site_symmetry_multiplicity
 _atom_site_fract_x
 _atom_site_fract_y
 _atom_site_fract_z
 _atom_site_occupancy
  Tm  Tm0  1  0.614231  0.806330  0.250000  1
  Tm  Tm1  1  0.805482  0.611210  0.750000  1
  Tm  Tm2  1  0.193195  0.386363  0.250000  1
  Lu  Lu3  1  0.807636  0.197269  0.750000  1
  Lu  Lu4  1  0.193810  0.804809  0.250000  1
  Lu  Lu5  1  0.389450  0.197222  0.750000  1
  Al  Al6  1  0.834508  0.165758  0.419000  1
  Al  Al7  1  0.164397  0.837274  0.581524  1
  Al  Al8  1  0.329947  0.164896  0.418506  1
  Al  Al9  1  0.164397  0.837274  0.918476  1
  Al  Al10  1  0.672199  0.837083  0.581643  1
  Al  Al11  1  0.834508  0.165758  0.081000  1
  Al  Al12  1  0.834784  0.668927  0.418961  1
  Al  Al13  1  0.672199  0.837083  0.918357  1
  Al  Al14  1  0.163840  0.327654  0.581989  1
  Al  Al15  1  0.329947  0.164896  0.081494  1
  Al  Al16  1  0.163840  0.327654  0.918011  1
  Al  Al17  1  0.834784  0.668927  0.081039  1
  Al  Al18  1  0.435569  0.871715  0.750000  1
  Al  Al19  1  0.000818  0.001118  0.750000  1
  Si  Si20  1  0.665704  0.331717  0.957162  1
  Si  Si21  1  0.334329  0.668598  0.041697  1
  Si  Si22  1  0.334329  0.668598  0.458303  1
  Si  Si23  1  0.665704  0.331717  0.542838  1
  Si  Si24  1  0.435968  0.560992  0.750000  1
  Si  Si25  1  0.561787  0.436591  0.250000  1
  Si  Si26  1  0.125201  0.561190  0.750000  1
  Si  Si27  1  0.876404  0.437953  0.250000  1
  Si  Si28  1  0.561580  0.124592  0.250000  1
  Si  Si29  1  0.002504  0.997896  0.250000  1
  Ru  Ru30  1  0.499988  0.498855  0.000805  1
  Ru  Ru31  1  0.999336  0.499607  0.001007  1
  Ru  Ru32  1  0.499988  0.498855  0.499195  1
  Ru  Ru33  1  0.500250  0.001461  0.006331  1
  Ru  Ru34  1  0.999336  0.499607  0.498993  1
  Ru  Ru35  1  0.500250  0.001461  0.493669  1
  Ru  Ru36  1  0.998900  0.000544  0.007321  1
  Ru  Ru37  1  0.998900  0.000544  0.492679  1
