# generated using pymatgen
data_Ho17Hf2MgIr12
_symmetry_space_group_name_H-M   'P 1'
_cell_length_a   10.79289000
_cell_length_b   10.79289000
_cell_length_c   6.25344200
_cell_angle_alpha   90.00000000
_cell_angle_beta   90.00000000
_cell_angle_gamma   90.00000000
_symmetry_Int_Tables_number   1
_chemical_formula_structural   Ho17Hf2MgIr12
_chemical_formula_sum   'Ho17 Hf2 Mg1 Ir12'
_cell_volume   728.44141240
_cell_formula_units_Z   1
loop_
 _symmetry_equiv_pos_site_id
 _symmetry_equiv_pos_as_xyz
  1  'x, y, z'
loop_
 _atom_site_type_symbol
 _atom_site_label
 _atom_site_symmetry_multiplicity
 _atom_site_fract_x
 _atom_site_fract_y
 _atom_site_fract_z
 _atom_site_occupancy
  Ho  Ho0  1  0.284926  0.083836  0.377635  1
  Ho  Ho1  1  0.291668  0.912234  0.878016  1
  Ho  Ho2  1  0.708332  0.087766  0.878016  1
  Ho  Ho3  1  0.715074  0.916164  0.377635  1
  Ho  Ho4  1  0.587666  0.789264  0.876836  1
  Ho  Ho5  1  0.585706  0.210531  0.375306  1
  Ho  Ho6  1  0.414294  0.789469  0.375306  1
  Ho  Ho7  1  0.412334  0.210736  0.876836  1
  Ho  Ho8  1  0.210531  0.414294  0.624694  1
  Ho  Ho9  1  0.210736  0.587666  0.123164  1
  Ho  Ho10  1  0.789264  0.412334  0.123164  1
  Ho  Ho11  1  0.789469  0.585706  0.624694  1
  Ho  Ho12  1  0.912234  0.708332  0.121984  1
  Ho  Ho13  1  0.916164  0.284926  0.622365  1
  Ho  Ho14  1  0.083836  0.715074  0.622365  1
  Ho  Ho15  1  0.087766  0.291668  0.121984  1
  Ho  Ho16  1  0.000000  0.000000  0.000000  1
  Hf  Hf17  1  0.500000  0.500000  0.000000  1
  Hf  Hf18  1  0.500000  0.500000  0.500000  1
  Mg  Mg19  1  0.000000  0.000000  0.500000  1
  Ir  Ir20  1  0.845417  0.155358  0.247419  1
  Ir  Ir21  1  0.844642  0.845417  0.752581  1
  Ir  Ir22  1  0.155358  0.154583  0.752581  1
  Ir  Ir23  1  0.154583  0.844642  0.247419  1
  Ir  Ir24  1  0.642416  0.357632  0.748691  1
  Ir  Ir25  1  0.642368  0.642416  0.251309  1
  Ir  Ir26  1  0.357632  0.357584  0.251309  1
  Ir  Ir27  1  0.357584  0.642368  0.748691  1
  Ir  Ir28  1  0.500000  0.000000  0.125401  1
  Ir  Ir29  1  0.500000  0.000000  0.622088  1
  Ir  Ir30  1  0.000000  0.500000  0.874599  1
  Ir  Ir31  1  0.000000  0.500000  0.377912  1
