# generated using pymatgen
data_Pa3CoP2Os3
_symmetry_space_group_name_H-M   'P 1'
_cell_length_a   6.61359700
_cell_length_b   6.61359724
_cell_length_c   4.10691800
_cell_angle_alpha   90.00000000
_cell_angle_beta   90.00000000
_cell_angle_gamma   120.00000381
_symmetry_Int_Tables_number   1
_chemical_formula_structural   Pa3CoP2Os3
_chemical_formula_sum   'Pa3 Co1 P2 Os3'
_cell_volume   155.56866243
_cell_formula_units_Z   1
loop_
 _symmetry_equiv_pos_site_id
 _symmetry_equiv_pos_as_xyz
  1  'x, y, z'
loop_
 _atom_site_type_symbol
 _atom_site_label
 _atom_site_symmetry_multiplicity
 _atom_site_fract_x
 _atom_site_fract_y
 _atom_site_fract_z
 _atom_site_occupancy
  Pa  Pa0  1  0.387484  0.387484  0.500000  1
  Pa  Pa1  1  0.612516  0.000000  0.500000  1
  Pa  Pa2  1  0.000000  0.612516  0.500000  1
  Co  Co3  1  0.000000  0.000000  0.500000  1
  P  P4  1  0.666667  0.333333  0.000000  1
  P  P5  1  0.333333  0.666667  0.000000  1
  Os  Os6  1  0.754717  0.754717  0.000000  1
  Os  Os7  1  0.245283  0.000000  0.000000  1
  Os  Os8  1  0.000000  0.245283  0.000000  1
