# generated using pymatgen
data_PrEr2(GaIr2)3
_symmetry_space_group_name_H-M   'P 1'
_cell_length_a   5.56275000
_cell_length_b   5.56265006
_cell_length_c   15.78752100
_cell_angle_alpha   90.00000000
_cell_angle_beta   90.00000000
_cell_angle_gamma   119.99911955
_symmetry_Int_Tables_number   1
_chemical_formula_structural   PrEr2(GaIr2)3
_chemical_formula_sum   'Pr2 Er4 Ga6 Ir12'
_cell_volume   423.07728415
_cell_formula_units_Z   2
loop_
 _symmetry_equiv_pos_site_id
 _symmetry_equiv_pos_as_xyz
  1  'x, y, z'
loop_
 _atom_site_type_symbol
 _atom_site_label
 _atom_site_symmetry_multiplicity
 _atom_site_fract_x
 _atom_site_fract_y
 _atom_site_fract_z
 _atom_site_occupancy
  Pr  Pr0  1  0.333311  0.666644  0.750000  1
  Pr  Pr1  1  0.666689  0.333356  0.250000  1
  Er  Er2  1  0.333325  0.666641  0.539553  1
  Er  Er3  1  0.666675  0.333359  0.460447  1
  Er  Er4  1  0.666675  0.333359  0.039553  1
  Er  Er5  1  0.333325  0.666641  0.960447  1
  Ga  Ga6  1  0.999958  0.999983  0.250000  1
  Ga  Ga7  1  0.000042  0.000017  0.750000  1
  Ga  Ga8  1  0.333333  0.666677  0.250000  1
  Ga  Ga9  1  0.666667  0.333323  0.750000  1
  Ga  Ga10  1  0.000000  0.000000  0.000000  1
  Ga  Ga11  1  0.000000  0.000000  0.500000  1
  Ir  Ir12  1  0.169553  0.339105  0.124395  1
  Ir  Ir13  1  0.830447  0.660895  0.875605  1
  Ir  Ir14  1  0.660902  0.830450  0.124393  1
  Ir  Ir15  1  0.830447  0.660895  0.624395  1
  Ir  Ir16  1  0.339098  0.169550  0.875607  1
  Ir  Ir17  1  0.169553  0.339105  0.375605  1
  Ir  Ir18  1  0.169554  0.830449  0.124391  1
  Ir  Ir19  1  0.339098  0.169550  0.624393  1
  Ir  Ir20  1  0.830446  0.169551  0.875609  1
  Ir  Ir21  1  0.660902  0.830450  0.375607  1
  Ir  Ir22  1  0.830446  0.169551  0.624391  1
  Ir  Ir23  1  0.169554  0.830449  0.375609  1
