# generated using pymatgen
data_Eu2Zn14Rh3
_symmetry_space_group_name_H-M   'P 1'
_cell_length_a   6.86880505
_cell_length_b   6.86880649
_cell_length_c   6.86880517
_cell_angle_alpha   82.90646063
_cell_angle_beta   82.90645848
_cell_angle_gamma   82.90644827
_symmetry_Int_Tables_number   1
_chemical_formula_structural   Eu2Zn14Rh3
_chemical_formula_sum   'Eu2 Zn14 Rh3'
_cell_volume   317.19792543
_cell_formula_units_Z   1
loop_
 _symmetry_equiv_pos_site_id
 _symmetry_equiv_pos_as_xyz
  1  'x, y, z'
loop_
 _atom_site_type_symbol
 _atom_site_label
 _atom_site_symmetry_multiplicity
 _atom_site_fract_x
 _atom_site_fract_y
 _atom_site_fract_z
 _atom_site_occupancy
  Eu  Eu0  1  0.335610  0.335610  0.335610  1
  Eu  Eu1  1  0.664390  0.664390  0.664390  1
  Zn  Zn2  1  0.707989  0.292011  0.000000  1
  Zn  Zn3  1  0.292011  0.707989  0.000000  1
  Zn  Zn4  1  0.102249  0.102249  0.102249  1
  Zn  Zn5  1  0.651331  0.651331  0.154519  1
  Zn  Zn6  1  0.707989  0.000000  0.292011  1
  Zn  Zn7  1  0.000000  0.707989  0.292011  1
  Zn  Zn8  1  0.845481  0.348670  0.348669  1
  Zn  Zn9  1  0.348670  0.845481  0.348669  1
  Zn  Zn10  1  0.651330  0.154519  0.651331  1
  Zn  Zn11  1  0.154519  0.651330  0.651331  1
  Zn  Zn12  1  0.292011  0.000000  0.707988  1
  Zn  Zn13  1  0.000000  0.292011  0.707988  1
  Zn  Zn14  1  0.348669  0.348669  0.845481  1
  Zn  Zn15  1  0.897751  0.897751  0.897751  1
  Rh  Rh16  1  0.500000  0.000000  0.000000  1
  Rh  Rh17  1  0.000000  0.500000  0.000000  1
  Rh  Rh18  1  0.000000  0.000000  0.500000  1
