# generated using pymatgen
data_Tb5Er3(Nb3Si4)4
_symmetry_space_group_name_H-M   'P 1'
_cell_length_a   7.07359389
_cell_length_b   7.07318112
_cell_length_c   13.04952688
_cell_angle_alpha   90.00411029
_cell_angle_beta   89.97026024
_cell_angle_gamma   89.98074924
_symmetry_Int_Tables_number   1
_chemical_formula_structural   Tb5Er3(Nb3Si4)4
_chemical_formula_sum   'Tb5 Er3 Nb12 Si16'
_cell_volume   652.90438251
_cell_formula_units_Z   1
loop_
 _symmetry_equiv_pos_site_id
 _symmetry_equiv_pos_as_xyz
  1  'x, y, z'
loop_
 _atom_site_type_symbol
 _atom_site_label
 _atom_site_symmetry_multiplicity
 _atom_site_fract_x
 _atom_site_fract_y
 _atom_site_fract_z
 _atom_site_occupancy
  Tb  Tb0  1  0.501988  0.841673  0.032355  1
  Tb  Tb1  1  0.841586  0.502179  0.967761  1
  Tb  Tb2  1  0.498045  0.158283  0.532173  1
  Tb  Tb3  1  0.341460  0.998459  0.781995  1
  Tb  Tb4  1  0.658236  0.001846  0.282519  1
  Er  Er5  1  0.999203  0.342044  0.217902  1
  Er  Er6  1  0.001112  0.657767  0.717517  1
  Er  Er7  1  0.157592  0.498844  0.467764  1
  Nb  Nb8  1  0.171086  0.171581  0.000068  1
  Nb  Nb9  1  0.829162  0.828078  0.500047  1
  Nb  Nb10  1  0.328226  0.670701  0.250271  1
  Nb  Nb11  1  0.671536  0.329246  0.749837  1
  Nb  Nb12  1  0.153220  0.992185  0.376353  1
  Nb  Nb13  1  0.846762  0.007772  0.876116  1
  Nb  Nb14  1  0.507777  0.653295  0.625663  1
  Nb  Nb15  1  0.346162  0.493328  0.873691  1
  Nb  Nb16  1  0.492142  0.346362  0.126337  1
  Nb  Nb17  1  0.653649  0.506408  0.374116  1
  Nb  Nb18  1  0.993746  0.153817  0.623327  1
  Nb  Nb19  1  0.006941  0.846282  0.123952  1
  Si  Si20  1  0.291696  0.046413  0.186643  1
  Si  Si21  1  0.708326  0.953991  0.686390  1
  Si  Si22  1  0.453222  0.791589  0.436412  1
  Si  Si23  1  0.206618  0.545400  0.063964  1
  Si  Si24  1  0.545962  0.207731  0.936424  1
  Si  Si25  1  0.794719  0.454630  0.563722  1
  Si  Si26  1  0.045645  0.294208  0.813042  1
  Si  Si27  1  0.954811  0.705151  0.313685  1
  Si  Si28  1  0.365306  0.296509  0.318122  1
  Si  Si29  1  0.633567  0.704474  0.817158  1
  Si  Si30  1  0.203431  0.865199  0.568040  1
  Si  Si31  1  0.132381  0.795494  0.931979  1
  Si  Si32  1  0.796382  0.133578  0.068373  1
  Si  Si33  1  0.868477  0.205354  0.431853  1
  Si  Si34  1  0.294761  0.368765  0.681808  1
  Si  Si35  1  0.705062  0.631368  0.182623  1
