# generated using pymatgen
data_Ho4Zr4Ir3Rh
_symmetry_space_group_name_H-M   'P 1'
_cell_length_a   4.56917500
_cell_length_b   7.09888280
_cell_length_c   8.29198359
_cell_angle_alpha   90.08096279
_cell_angle_beta   90.00000000
_cell_angle_gamma   90.00000000
_symmetry_Int_Tables_number   1
_chemical_formula_structural   Ho4Zr4Ir3Rh
_chemical_formula_sum   'Ho4 Zr4 Ir3 Rh1'
_cell_volume   268.95882485
_cell_formula_units_Z   1
loop_
 _symmetry_equiv_pos_site_id
 _symmetry_equiv_pos_as_xyz
  1  'x, y, z'
loop_
 _atom_site_type_symbol
 _atom_site_label
 _atom_site_symmetry_multiplicity
 _atom_site_fract_x
 _atom_site_fract_y
 _atom_site_fract_z
 _atom_site_occupancy
  Ho  Ho0  1  0.250000  0.515614  0.175642  1
  Ho  Ho1  1  0.750000  0.486806  0.825079  1
  Ho  Ho2  1  0.750000  0.981298  0.677427  1
  Ho  Ho3  1  0.250000  0.015344  0.324673  1
  Zr  Zr4  1  0.250000  0.642113  0.575191  1
  Zr  Zr5  1  0.750000  0.356409  0.422306  1
  Zr  Zr6  1  0.750000  0.857837  0.076696  1
  Zr  Zr7  1  0.250000  0.143762  0.925069  1
  Ir  Ir8  1  0.250000  0.767187  0.907876  1
  Ir  Ir9  1  0.750000  0.234630  0.091274  1
  Ir  Ir10  1  0.750000  0.732925  0.409066  1
  Rh  Rh11  1  0.250000  0.266076  0.589701  1
