# generated using pymatgen
data_Ho3Er13In4IrPd3
_symmetry_space_group_name_H-M   'P 1'
_cell_length_a   9.65054594
_cell_length_b   9.64165292
_cell_length_c   9.63846922
_cell_angle_alpha   59.96213153
_cell_angle_beta   59.99623139
_cell_angle_gamma   60.02133826
_symmetry_Int_Tables_number   1
_chemical_formula_structural   Ho3Er13In4IrPd3
_chemical_formula_sum   'Ho3 Er13 In4 Ir1 Pd3'
_cell_volume   634.05886235
_cell_formula_units_Z   1
loop_
 _symmetry_equiv_pos_site_id
 _symmetry_equiv_pos_as_xyz
  1  'x, y, z'
loop_
 _atom_site_type_symbol
 _atom_site_label
 _atom_site_symmetry_multiplicity
 _atom_site_fract_x
 _atom_site_fract_y
 _atom_site_fract_z
 _atom_site_occupancy
  Ho  Ho0  1  0.063298  0.062557  0.437566  1
  Ho  Ho1  1  0.646997  0.059507  0.647651  1
  Ho  Ho2  1  0.190632  0.808798  0.190701  1
  Er  Er3  1  0.436436  0.063916  0.436062  1
  Er  Er4  1  0.185400  0.194091  0.809593  1
  Er  Er5  1  0.651464  0.644976  0.651461  1
  Er  Er6  1  0.054636  0.644109  0.650692  1
  Er  Er7  1  0.438211  0.062058  0.062752  1
  Er  Er8  1  0.650824  0.644803  0.054262  1
  Er  Er9  1  0.189690  0.809886  0.809727  1
  Er  Er10  1  0.810413  0.192952  0.810974  1
  Er  Er11  1  0.809339  0.194157  0.185507  1
  Er  Er12  1  0.809427  0.810159  0.189501  1
  Er  Er13  1  0.063345  0.434938  0.439831  1
  Er  Er14  1  0.439684  0.434490  0.063658  1
  Er  Er15  1  0.061471  0.436269  0.061239  1
  In  In16  1  0.749752  0.416838  0.416618  1
  In  In17  1  0.416608  0.416777  0.749842  1
  In  In18  1  0.416703  0.749835  0.416632  1
  In  In19  1  0.416233  0.416525  0.416317  1
  Ir  Ir20  1  0.857137  0.429585  0.857023  1
  Pd  Pd21  1  0.856461  0.857502  0.856417  1
  Pd  Pd22  1  0.429472  0.857699  0.856396  1
  Pd  Pd23  1  0.856370  0.857576  0.429582  1
