# generated using pymatgen
data_YbSmCd2(SiPt2)2
_symmetry_space_group_name_H-M   'P 1'
_cell_length_a   4.18816400
_cell_length_b   4.18816400
_cell_length_c   11.18611200
_cell_angle_alpha   90.00000000
_cell_angle_beta   90.00000000
_cell_angle_gamma   90.00000000
_symmetry_Int_Tables_number   1
_chemical_formula_structural   YbSmCd2(SiPt2)2
_chemical_formula_sum   'Yb1 Sm1 Cd2 Si2 Pt4'
_cell_volume   196.21243265
_cell_formula_units_Z   1
loop_
 _symmetry_equiv_pos_site_id
 _symmetry_equiv_pos_as_xyz
  1  'x, y, z'
loop_
 _atom_site_type_symbol
 _atom_site_label
 _atom_site_symmetry_multiplicity
 _atom_site_fract_x
 _atom_site_fract_y
 _atom_site_fract_z
 _atom_site_occupancy
  Yb  Yb0  1  0.000000  0.500000  0.761645  1
  Sm  Sm1  1  0.500000  0.000000  0.234130  1
  Cd  Cd2  1  0.500000  0.500000  0.501714  1
  Cd  Cd3  1  0.000000  0.000000  0.501714  1
  Si  Si4  1  0.000000  0.500000  0.115300  1
  Si  Si5  1  0.500000  0.000000  0.883737  1
  Pt  Pt6  1  0.500000  0.000000  0.678116  1
  Pt  Pt7  1  0.000000  0.000000  0.999727  1
  Pt  Pt8  1  0.500000  0.500000  0.999727  1
  Pt  Pt9  1  0.000000  0.500000  0.324191  1
