# generated using pymatgen
data_SrEr2SeS3
_symmetry_space_group_name_H-M   'P 1'
_cell_length_a   4.00421700
_cell_length_b   12.39561100
_cell_length_c   14.18701300
_cell_angle_alpha   90.00000000
_cell_angle_beta   90.00000000
_cell_angle_gamma   90.00000000
_symmetry_Int_Tables_number   1
_chemical_formula_structural   SrEr2SeS3
_chemical_formula_sum   'Sr4 Er8 Se4 S12'
_cell_volume   704.16836528
_cell_formula_units_Z   4
loop_
 _symmetry_equiv_pos_site_id
 _symmetry_equiv_pos_as_xyz
  1  'x, y, z'
loop_
 _atom_site_type_symbol
 _atom_site_label
 _atom_site_symmetry_multiplicity
 _atom_site_fract_x
 _atom_site_fract_y
 _atom_site_fract_z
 _atom_site_occupancy
  Sr  Sr0  1  0.250000  0.759695  0.342400  1
  Sr  Sr1  1  0.250000  0.259695  0.157600  1
  Sr  Sr2  1  0.750000  0.240305  0.657600  1
  Sr  Sr3  1  0.750000  0.740305  0.842400  1
  Er  Er4  1  0.250000  0.442659  0.389107  1
  Er  Er5  1  0.250000  0.942659  0.110893  1
  Er  Er6  1  0.750000  0.557341  0.610893  1
  Er  Er7  1  0.750000  0.057341  0.889107  1
  Er  Er8  1  0.250000  0.424148  0.899752  1
  Er  Er9  1  0.250000  0.924148  0.600248  1
  Er  Er10  1  0.750000  0.575852  0.100248  1
  Er  Er11  1  0.750000  0.075852  0.399752  1
  Se  Se12  1  0.250000  0.206843  0.829884  1
  Se  Se13  1  0.250000  0.706843  0.670116  1
  Se  Se14  1  0.750000  0.793157  0.170116  1
  Se  Se15  1  0.750000  0.293157  0.329884  1
  S  S16  1  0.250000  0.125358  0.527662  1
  S  S17  1  0.250000  0.625358  0.972338  1
  S  S18  1  0.750000  0.874642  0.472338  1
  S  S19  1  0.750000  0.374642  0.027662  1
  S  S20  1  0.250000  0.525297  0.215117  1
  S  S21  1  0.250000  0.025297  0.284883  1
  S  S22  1  0.750000  0.474703  0.784883  1
  S  S23  1  0.750000  0.974703  0.715117  1
  S  S24  1  0.250000  0.411899  0.577275  1
  S  S25  1  0.250000  0.911899  0.922725  1
  S  S26  1  0.750000  0.588101  0.422725  1
  S  S27  1  0.750000  0.088101  0.077275  1
