# generated using pymatgen
data_Lu2VB6Mo
_symmetry_space_group_name_H-M   'P 1'
_cell_length_a   5.34234730
_cell_length_b   3.10792500
_cell_length_c   6.71821540
_cell_angle_alpha   90.00000000
_cell_angle_beta   101.50805819
_cell_angle_gamma   90.00000000
_symmetry_Int_Tables_number   1
_chemical_formula_structural   Lu2VB6Mo
_chemical_formula_sum   'Lu2 V1 B6 Mo1'
_cell_volume   109.30419921
_cell_formula_units_Z   1
loop_
 _symmetry_equiv_pos_site_id
 _symmetry_equiv_pos_as_xyz
  1  'x, y, z'
loop_
 _atom_site_type_symbol
 _atom_site_label
 _atom_site_symmetry_multiplicity
 _atom_site_fract_x
 _atom_site_fract_y
 _atom_site_fract_z
 _atom_site_occupancy
  Lu  Lu0  1  0.322006  0.750001  0.290746  1
  Lu  Lu1  1  0.679282  0.250000  0.711118  1
  V  V2  1  0.809725  0.250000  0.217654  1
  B  B3  1  0.087984  0.250000  0.010118  1
  B  B4  1  0.421257  0.250000  0.012041  1
  B  B5  1  0.912589  0.750001  0.467696  1
  B  B6  1  0.073029  0.250000  0.517038  1
  B  B7  1  0.586787  0.750001  0.998650  1
  B  B8  1  0.915159  0.750001  0.999193  1
  Mo  Mo9  1  0.192180  0.750001  0.775747  1
