# generated using pymatgen
data_TbEu2(AgSn)3
_symmetry_space_group_name_H-M   'P 1'
_cell_length_a   4.88869200
_cell_length_b   4.88869246
_cell_length_c   11.13766600
_cell_angle_alpha   90.00000000
_cell_angle_beta   90.00000000
_cell_angle_gamma   119.99999685
_symmetry_Int_Tables_number   1
_chemical_formula_structural   TbEu2(AgSn)3
_chemical_formula_sum   'Tb1 Eu2 Ag3 Sn3'
_cell_volume   230.52085923
_cell_formula_units_Z   1
loop_
 _symmetry_equiv_pos_site_id
 _symmetry_equiv_pos_as_xyz
  1  'x, y, z'
loop_
 _atom_site_type_symbol
 _atom_site_label
 _atom_site_symmetry_multiplicity
 _atom_site_fract_x
 _atom_site_fract_y
 _atom_site_fract_z
 _atom_site_occupancy
  Tb  Tb0  1  0.666667  0.333333  0.330947  1
  Eu  Eu1  1  0.666667  0.333333  0.000717  1
  Eu  Eu2  1  0.666667  0.333333  0.665991  1
  Ag  Ag3  1  0.000000  0.000000  0.819174  1
  Ag  Ag4  1  0.000000  0.000000  0.206936  1
  Ag  Ag5  1  0.333333  0.666667  0.482010  1
  Sn  Sn6  1  0.333333  0.666667  0.850365  1
  Sn  Sn7  1  0.000000  0.000000  0.485889  1
  Sn  Sn8  1  0.333333  0.666667  0.157971  1
