# generated using pymatgen
data_Sc8Ti11Si16Mo
_symmetry_space_group_name_H-M   'P 1'
_cell_length_a   6.67394094
_cell_length_b   6.82031903
_cell_length_c   12.99852200
_cell_angle_alpha   90.00000000
_cell_angle_beta   90.00000000
_cell_angle_gamma   90.08789325
_symmetry_Int_Tables_number   1
_chemical_formula_structural   Sc8Ti11Si16Mo
_chemical_formula_sum   'Sc8 Ti11 Si16 Mo1'
_cell_volume   591.67131081
_cell_formula_units_Z   1
loop_
 _symmetry_equiv_pos_site_id
 _symmetry_equiv_pos_as_xyz
  1  'x, y, z'
loop_
 _atom_site_type_symbol
 _atom_site_label
 _atom_site_symmetry_multiplicity
 _atom_site_fract_x
 _atom_site_fract_y
 _atom_site_fract_z
 _atom_site_occupancy
  Sc  Sc0  1  0.504845  0.326480  0.096101  1
  Sc  Sc1  1  0.002308  0.176304  0.403515  1
  Sc  Sc2  1  0.495613  0.674897  0.594233  1
  Sc  Sc3  1  0.995674  0.824874  0.905973  1
  Sc  Sc4  1  0.495613  0.674897  0.905767  1
  Sc  Sc5  1  0.995674  0.824874  0.594027  1
  Sc  Sc6  1  0.504845  0.326480  0.403899  1
  Sc  Sc7  1  0.002308  0.176304  0.096485  1
  Ti  Ti8  1  0.834859  0.326138  0.626997  1
  Ti  Ti9  1  0.334520  0.173510  0.873070  1
  Ti  Ti10  1  0.165533  0.672308  0.126739  1
  Ti  Ti11  1  0.667303  0.825535  0.373541  1
  Ti  Ti12  1  0.165533  0.672308  0.373261  1
  Ti  Ti13  1  0.667303  0.825535  0.126459  1
  Ti  Ti14  1  0.834859  0.326138  0.873003  1
  Ti  Ti15  1  0.334520  0.173510  0.626930  1
  Ti  Ti16  1  0.660833  0.007125  0.750000  1
  Ti  Ti17  1  0.160116  0.493686  0.750000  1
  Ti  Ti18  1  0.339588  0.992335  0.250000  1
  Si  Si19  1  0.664160  0.035331  0.540247  1
  Si  Si20  1  0.163998  0.463901  0.960214  1
  Si  Si21  1  0.335644  0.965243  0.040340  1
  Si  Si22  1  0.836081  0.534917  0.458778  1
  Si  Si23  1  0.335644  0.965243  0.459660  1
  Si  Si24  1  0.836081  0.534917  0.041222  1
  Si  Si25  1  0.664160  0.035331  0.959753  1
  Si  Si26  1  0.163998  0.463901  0.539786  1
  Si  Si27  1  0.534925  0.385620  0.750000  1
  Si  Si28  1  0.034958  0.114867  0.750000  1
  Si  Si29  1  0.465658  0.615178  0.250000  1
  Si  Si30  1  0.964691  0.884405  0.250000  1
  Si  Si31  1  0.793987  0.637784  0.750000  1
  Si  Si32  1  0.293853  0.862821  0.750000  1
  Si  Si33  1  0.204828  0.362519  0.250000  1
  Si  Si34  1  0.705396  0.136792  0.250000  1
  Mo  Mo35  1  0.840090  0.507992  0.250000  1
