# generated using pymatgen
data_ScVSiRh5
_symmetry_space_group_name_H-M   'P 1'
_cell_length_a   3.96914000
_cell_length_b   5.43170629
_cell_length_c   10.62139274
_cell_angle_alpha   89.65868000
_cell_angle_beta   90.00000000
_cell_angle_gamma   90.00000000
_symmetry_Int_Tables_number   1
_chemical_formula_structural   ScVSiRh5
_chemical_formula_sum   'Sc2 V2 Si2 Rh10'
_cell_volume   228.98469586
_cell_formula_units_Z   2
loop_
 _symmetry_equiv_pos_site_id
 _symmetry_equiv_pos_as_xyz
  1  'x, y, z'
loop_
 _atom_site_type_symbol
 _atom_site_label
 _atom_site_symmetry_multiplicity
 _atom_site_fract_x
 _atom_site_fract_y
 _atom_site_fract_z
 _atom_site_occupancy
  Sc  Sc0  1  0.500000  0.169636  0.639237  1
  Sc  Sc1  1  0.500000  0.830364  0.360763  1
  V  V2  1  0.500000  0.663714  0.855582  1
  V  V3  1  0.500000  0.336286  0.144418  1
  Si  Si4  1  0.000000  0.500000  0.500000  1
  Si  Si5  1  0.000000  0.000000  0.000000  1
  Rh  Rh6  1  0.500000  0.327960  0.387681  1
  Rh  Rh7  1  0.500000  0.672040  0.612319  1
  Rh  Rh8  1  0.500000  0.810445  0.095434  1
  Rh  Rh9  1  0.500000  0.189555  0.904566  1
  Rh  Rh10  1  0.000000  0.427928  0.750095  1
  Rh  Rh11  1  0.000000  0.572072  0.249905  1
  Rh  Rh12  1  0.000000  0.911492  0.771322  1
  Rh  Rh13  1  0.000000  0.088508  0.228678  1
  Rh  Rh14  1  0.000000  0.500000  0.000000  1
  Rh  Rh15  1  0.000000  0.000000  0.500000  1
