# generated using pymatgen
data_Dy6MgCr(Co4P3)4
_symmetry_space_group_name_H-M   'P 1'
_cell_length_a   3.71413200
_cell_length_b   10.58251100
_cell_length_c   12.24492500
_cell_angle_alpha   90.00000000
_cell_angle_beta   90.00000000
_cell_angle_gamma   90.00000000
_symmetry_Int_Tables_number   1
_chemical_formula_structural   Dy6MgCr(Co4P3)4
_chemical_formula_sum   'Dy6 Mg1 Cr1 Co16 P12'
_cell_volume   481.28485155
_cell_formula_units_Z   1
loop_
 _symmetry_equiv_pos_site_id
 _symmetry_equiv_pos_as_xyz
  1  'x, y, z'
loop_
 _atom_site_type_symbol
 _atom_site_label
 _atom_site_symmetry_multiplicity
 _atom_site_fract_x
 _atom_site_fract_y
 _atom_site_fract_z
 _atom_site_occupancy
  Dy  Dy0  1  0.000000  0.500000  0.525114  1
  Dy  Dy1  1  0.500000  0.000000  0.478483  1
  Dy  Dy2  1  0.500000  0.821816  0.205644  1
  Dy  Dy3  1  0.500000  0.178184  0.205644  1
  Dy  Dy4  1  0.000000  0.682489  0.794541  1
  Dy  Dy5  1  0.000000  0.317511  0.794541  1
  Mg  Mg6  1  0.500000  0.500000  0.153148  1
  Cr  Cr7  1  0.000000  0.000000  0.842228  1
  Co  Co8  1  0.500000  0.500000  0.703789  1
  Co  Co9  1  0.000000  0.000000  0.297296  1
  Co  Co10  1  0.000000  0.500000  0.985765  1
  Co  Co11  1  0.500000  0.000000  0.010284  1
  Co  Co12  1  0.500000  0.328861  0.992286  1
  Co  Co13  1  0.500000  0.671139  0.992286  1
  Co  Co14  1  0.000000  0.163724  0.003081  1
  Co  Co15  1  0.000000  0.836276  0.003081  1
  Co  Co16  1  0.500000  0.294726  0.433020  1
  Co  Co17  1  0.500000  0.705274  0.433020  1
  Co  Co18  1  0.000000  0.203021  0.570850  1
  Co  Co19  1  0.000000  0.796979  0.570850  1
  Co  Co20  1  0.500000  0.880229  0.708307  1
  Co  Co21  1  0.500000  0.119771  0.708307  1
  Co  Co22  1  0.000000  0.623272  0.293891  1
  Co  Co23  1  0.000000  0.376728  0.293891  1
  P  P24  1  0.500000  0.500000  0.883282  1
  P  P25  1  0.000000  0.000000  0.116698  1
  P  P26  1  0.500000  0.500000  0.353538  1
  P  P27  1  0.000000  0.000000  0.655293  1
  P  P28  1  0.500000  0.309763  0.616975  1
  P  P29  1  0.500000  0.690237  0.616975  1
  P  P30  1  0.000000  0.188923  0.385573  1
  P  P31  1  0.000000  0.811077  0.385573  1
  P  P32  1  0.500000  0.848666  0.889433  1
  P  P33  1  0.500000  0.151334  0.889433  1
  P  P34  1  0.000000  0.661928  0.103943  1
  P  P35  1  0.000000  0.338072  0.103943  1
