# generated using pymatgen
data_LaNdEuSe4
_symmetry_space_group_name_H-M   'P 1'
_cell_length_a   7.88264068
_cell_length_b   7.88263958
_cell_length_c   7.88990205
_cell_angle_alpha   109.47391053
_cell_angle_beta   109.47390848
_cell_angle_gamma   109.54354062
_symmetry_Int_Tables_number   1
_chemical_formula_structural   LaNdEuSe4
_chemical_formula_sum   'La2 Nd2 Eu2 Se8'
_cell_volume   377.02992208
_cell_formula_units_Z   2
loop_
 _symmetry_equiv_pos_site_id
 _symmetry_equiv_pos_as_xyz
  1  'x, y, z'
loop_
 _atom_site_type_symbol
 _atom_site_label
 _atom_site_symmetry_multiplicity
 _atom_site_fract_x
 _atom_site_fract_y
 _atom_site_fract_z
 _atom_site_occupancy
  La  La0  1  0.751008  0.374767  0.875544  1
  La  La1  1  0.624767  0.501008  0.375544  1
  Nd  Nd2  1  0.499412  0.874504  0.124197  1
  Nd  Nd3  1  0.124504  0.249412  0.624197  1
  Eu  Eu4  1  0.250138  0.750326  0.500470  1
  Eu  Eu5  1  0.000326  0.000138  0.000470  1
  Se  Se6  1  0.730236  0.979723  0.599713  1
  Se  Se7  1  0.378719  0.127951  0.398818  1
  Se  Se8  1  0.518134  0.620646  0.750691  1
  Se  Se9  1  0.229723  0.480236  0.099713  1
  Se  Se10  1  0.377951  0.128719  0.898818  1
  Se  Se11  1  0.870646  0.268134  0.250691  1
  Se  Se12  1  0.023061  0.621373  0.750567  1
  Se  Se13  1  0.871373  0.773061  0.250567  1
