# generated using pymatgen
data_Ba8LuUSe12
_symmetry_space_group_name_H-M   'P 1'
_cell_length_a   9.05083363
_cell_length_b   9.05083426
_cell_length_c   9.05083501
_cell_angle_alpha   89.52082477
_cell_angle_beta   89.52082414
_cell_angle_gamma   89.52083102
_symmetry_Int_Tables_number   1
_chemical_formula_structural   Ba8LuUSe12
_chemical_formula_sum   'Ba8 Lu1 U1 Se12'
_cell_volume   741.34528405
_cell_formula_units_Z   1
loop_
 _symmetry_equiv_pos_site_id
 _symmetry_equiv_pos_as_xyz
  1  'x, y, z'
loop_
 _atom_site_type_symbol
 _atom_site_label
 _atom_site_symmetry_multiplicity
 _atom_site_fract_x
 _atom_site_fract_y
 _atom_site_fract_z
 _atom_site_occupancy
  Ba  Ba0  1  0.870341  0.621188  0.258750  1
  Ba  Ba1  1  0.258750  0.870341  0.621188  1
  Ba  Ba2  1  0.621188  0.258750  0.870341  1
  Ba  Ba3  1  0.741250  0.129659  0.378812  1
  Ba  Ba4  1  0.378812  0.741250  0.129659  1
  Ba  Ba5  1  0.129659  0.378812  0.741250  1
  Ba  Ba6  1  0.255486  0.255486  0.255486  1
  Ba  Ba7  1  0.744514  0.744514  0.744514  1
  Lu  Lu8  1  0.500000  0.500000  0.500000  1
  U  U9  1  0.000000  0.000000  0.000000  1
  Se  Se10  1  0.202700  0.564361  0.422015  1
  Se  Se11  1  0.422015  0.202700  0.564361  1
  Se  Se12  1  0.564361  0.422015  0.202700  1
  Se  Se13  1  0.927402  0.058430  0.707774  1
  Se  Se14  1  0.707774  0.927402  0.058430  1
  Se  Se15  1  0.058430  0.707774  0.927402  1
  Se  Se16  1  0.797300  0.435639  0.577985  1
  Se  Se17  1  0.577985  0.797300  0.435639  1
  Se  Se18  1  0.435639  0.577985  0.797300  1
  Se  Se19  1  0.072598  0.941570  0.292226  1
  Se  Se20  1  0.292226  0.072598  0.941570  1
  Se  Se21  1  0.941570  0.292226  0.072598  1
