# generated using pymatgen
data_Pr3Th5(ZnIr)8
_symmetry_space_group_name_H-M   'P 1'
_cell_length_a   4.01117200
_cell_length_b   7.42451170
_cell_length_c   16.73964580
_cell_angle_alpha   90.29093579
_cell_angle_beta   90.00000000
_cell_angle_gamma   90.00000000
_symmetry_Int_Tables_number   1
_chemical_formula_structural   Pr3Th5(ZnIr)8
_chemical_formula_sum   'Pr3 Th5 Zn8 Ir8'
_cell_volume   498.51685496
_cell_formula_units_Z   1
loop_
 _symmetry_equiv_pos_site_id
 _symmetry_equiv_pos_as_xyz
  1  'x, y, z'
loop_
 _atom_site_type_symbol
 _atom_site_label
 _atom_site_symmetry_multiplicity
 _atom_site_fract_x
 _atom_site_fract_y
 _atom_site_fract_z
 _atom_site_occupancy
  Pr  Pr0  1  0.250000  0.556046  0.785526  1
  Pr  Pr1  1  0.750000  0.332110  0.441500  1
  Pr  Pr2  1  0.250000  0.672045  0.559514  1
  Th  Th3  1  0.750000  0.442294  0.215821  1
  Th  Th4  1  0.750000  0.946722  0.285071  1
  Th  Th5  1  0.750000  0.826744  0.060483  1
  Th  Th6  1  0.250000  0.051496  0.714611  1
  Th  Th7  1  0.250000  0.170346  0.939326  1
  Zn  Zn8  1  0.250000  0.003098  0.441469  1
  Zn  Zn9  1  0.750000  0.504075  0.938453  1
  Zn  Zn10  1  0.750000  0.002640  0.557975  1
  Zn  Zn11  1  0.250000  0.615783  0.349668  1
  Zn  Zn12  1  0.750000  0.385465  0.652908  1
  Zn  Zn13  1  0.750000  0.878342  0.849238  1
  Zn  Zn14  1  0.250000  0.494027  0.059955  1
  Zn  Zn15  1  0.250000  0.116660  0.150516  1
  Ir  Ir16  1  0.250000  0.244631  0.569427  1
  Ir  Ir17  1  0.750000  0.246481  0.061521  1
  Ir  Ir18  1  0.250000  0.241018  0.306916  1
  Ir  Ir19  1  0.750000  0.243991  0.815849  1
  Ir  Ir20  1  0.250000  0.755200  0.940880  1
  Ir  Ir21  1  0.750000  0.770704  0.686999  1
  Ir  Ir22  1  0.750000  0.763530  0.429919  1
  Ir  Ir23  1  0.250000  0.736552  0.186457  1
