# generated using pymatgen
data_Zr3BeP2IrRu2
_symmetry_space_group_name_H-M   'P 1'
_cell_length_a   6.50253621
_cell_length_b   6.50253614
_cell_length_c   3.75110100
_cell_angle_alpha   90.00000000
_cell_angle_beta   90.00000000
_cell_angle_gamma   120.14513042
_symmetry_Int_Tables_number   1
_chemical_formula_structural   Zr3BeP2IrRu2
_chemical_formula_sum   'Zr3 Be1 P2 Ir1 Ru2'
_cell_volume   137.15699423
_cell_formula_units_Z   1
loop_
 _symmetry_equiv_pos_site_id
 _symmetry_equiv_pos_as_xyz
  1  'x, y, z'
loop_
 _atom_site_type_symbol
 _atom_site_label
 _atom_site_symmetry_multiplicity
 _atom_site_fract_x
 _atom_site_fract_y
 _atom_site_fract_z
 _atom_site_occupancy
  Zr  Zr0  1  0.405883  0.405883  0.500000  1
  Zr  Zr1  1  0.591461  0.002147  0.500000  1
  Zr  Zr2  1  0.002147  0.591461  0.500000  1
  Be  Be3  1  0.997803  0.997803  0.500000  1
  P  P4  1  0.666471  0.332924  0.000000  1
  P  P5  1  0.332924  0.666471  0.000000  1
  Ir  Ir6  1  0.759117  0.759117  0.000000  1
  Ru  Ru7  1  0.243154  0.001040  0.000000  1
  Ru  Ru8  1  0.001040  0.243154  0.000000  1
