# generated using pymatgen
data_PuHfF7
_symmetry_space_group_name_H-M   'P 1'
_cell_length_a   5.90206400
_cell_length_b   6.29993092
_cell_length_c   8.51309017
_cell_angle_alpha   77.61513743
_cell_angle_beta   90.00000000
_cell_angle_gamma   90.00000000
_symmetry_Int_Tables_number   1
_chemical_formula_structural   PuHfF7
_chemical_formula_sum   'Pu2 Hf2 F14'
_cell_volume   309.17260662
_cell_formula_units_Z   2
loop_
 _symmetry_equiv_pos_site_id
 _symmetry_equiv_pos_as_xyz
  1  'x, y, z'
loop_
 _atom_site_type_symbol
 _atom_site_label
 _atom_site_symmetry_multiplicity
 _atom_site_fract_x
 _atom_site_fract_y
 _atom_site_fract_z
 _atom_site_occupancy
  Pu  Pu0  1  0.199439  0.660631  0.313931  1
  Pu  Pu1  1  0.699439  0.339369  0.686069  1
  Hf  Hf2  1  0.208667  0.809317  0.776635  1
  Hf  Hf3  1  0.708667  0.190683  0.223365  1
  F  F4  1  0.392891  0.448096  0.520126  1
  F  F5  1  0.892891  0.551904  0.479874  1
  F  F6  1  0.928518  0.943355  0.228259  1
  F  F7  1  0.428518  0.056645  0.771741  1
  F  F8  1  0.458360  0.967627  0.243865  1
  F  F9  1  0.958360  0.032373  0.756135  1
  F  F10  1  0.493603  0.440140  0.210348  1
  F  F11  1  0.993603  0.559860  0.789652  1
  F  F12  1  0.202700  0.757994  0.016549  1
  F  F13  1  0.702700  0.242006  0.983451  1
  F  F14  1  0.210621  0.855819  0.535258  1
  F  F15  1  0.710621  0.144181  0.464742  1
  F  F16  1  0.981562  0.385250  0.218122  1
  F  F17  1  0.481562  0.614750  0.781878  1
