# generated using pymatgen
data_Ho4Tm4In3Ni
_symmetry_space_group_name_H-M   'P 1'
_cell_length_a   10.32939900
_cell_length_b   10.32939880
_cell_length_c   6.98507800
_cell_angle_alpha   90.00000000
_cell_angle_beta   90.00000000
_cell_angle_gamma   119.99999743
_symmetry_Int_Tables_number   1
_chemical_formula_structural   Ho4Tm4In3Ni
_chemical_formula_sum   'Ho8 Tm8 In6 Ni2'
_cell_volume   645.43424136
_cell_formula_units_Z   2
loop_
 _symmetry_equiv_pos_site_id
 _symmetry_equiv_pos_as_xyz
  1  'x, y, z'
loop_
 _atom_site_type_symbol
 _atom_site_label
 _atom_site_symmetry_multiplicity
 _atom_site_fract_x
 _atom_site_fract_y
 _atom_site_fract_z
 _atom_site_occupancy
  Ho  Ho0  1  0.466052  0.533948  0.210595  1
  Ho  Ho1  1  0.067895  0.533948  0.210595  1
  Ho  Ho2  1  0.466052  0.932105  0.210595  1
  Ho  Ho3  1  0.533948  0.466052  0.710595  1
  Ho  Ho4  1  0.932105  0.466052  0.710595  1
  Ho  Ho5  1  0.533948  0.067895  0.710595  1
  Ho  Ho6  1  0.000000  0.000000  0.229617  1
  Ho  Ho7  1  0.000000  0.000000  0.729617  1
  Tm  Tm8  1  0.177383  0.822617  0.507012  1
  Tm  Tm9  1  0.645232  0.822617  0.507012  1
  Tm  Tm10  1  0.177383  0.354768  0.507012  1
  Tm  Tm11  1  0.822617  0.177383  0.007012  1
  Tm  Tm12  1  0.354768  0.177383  0.007012  1
  Tm  Tm13  1  0.822617  0.645232  0.007012  1
  Tm  Tm14  1  0.333333  0.666667  0.821817  1
  Tm  Tm15  1  0.666667  0.333333  0.321817  1
  In  In16  1  0.163201  0.836799  0.963697  1
  In  In17  1  0.673599  0.836799  0.963697  1
  In  In18  1  0.163201  0.326401  0.963697  1
  In  In19  1  0.836799  0.163201  0.463697  1
  In  In20  1  0.326401  0.163201  0.463697  1
  In  In21  1  0.836799  0.673599  0.463697  1
  Ni  Ni22  1  0.333333  0.666667  0.441678  1
  Ni  Ni23  1  0.666667  0.333333  0.941678  1
