# generated using pymatgen
data_Gd2TiAl3
_symmetry_space_group_name_H-M   'P 1'
_cell_length_a   5.57986348
_cell_length_b   5.57986408
_cell_length_c   5.57986460
_cell_angle_alpha   61.18244989
_cell_angle_beta   61.18244430
_cell_angle_gamma   61.18245043
_symmetry_Int_Tables_number   1
_chemical_formula_structural   Gd2TiAl3
_chemical_formula_sum   'Gd2 Ti1 Al3'
_cell_volume   126.11237823
_cell_formula_units_Z   1
loop_
 _symmetry_equiv_pos_site_id
 _symmetry_equiv_pos_as_xyz
  1  'x, y, z'
loop_
 _atom_site_type_symbol
 _atom_site_label
 _atom_site_symmetry_multiplicity
 _atom_site_fract_x
 _atom_site_fract_y
 _atom_site_fract_z
 _atom_site_occupancy
  Gd  Gd0  1  0.627133  0.627133  0.627133  1
  Gd  Gd1  1  0.372867  0.372867  0.372867  1
  Ti  Ti2  1  0.000000  0.000000  0.000000  1
  Al  Al3  1  0.000000  0.500000  0.000000  1
  Al  Al4  1  0.500000  0.000000  0.000000  1
  Al  Al5  1  0.000000  0.000000  0.500000  1
