# generated using pymatgen
data_La2Eu4ReSbO14
_symmetry_space_group_name_H-M   'P 1'
_cell_length_a   6.70477741
_cell_length_b   6.70477731
_cell_length_c   7.77180460
_cell_angle_alpha   90.38012670
_cell_angle_beta   90.38012463
_cell_angle_gamma   110.91964760
_symmetry_Int_Tables_number   1
_chemical_formula_structural   La2Eu4ReSbO14
_chemical_formula_sum   'La2 Eu4 Re1 Sb1 O14'
_cell_volume   326.32166374
_cell_formula_units_Z   1
loop_
 _symmetry_equiv_pos_site_id
 _symmetry_equiv_pos_as_xyz
  1  'x, y, z'
loop_
 _atom_site_type_symbol
 _atom_site_label
 _atom_site_symmetry_multiplicity
 _atom_site_fract_x
 _atom_site_fract_y
 _atom_site_fract_z
 _atom_site_occupancy
  La  La0  1  0.000000  0.000000  0.500000  1
  La  La1  1  0.000000  0.000000  0.000000  1
  Eu  Eu2  1  0.484587  0.951493  0.754123  1
  Eu  Eu3  1  0.048507  0.515413  0.245877  1
  Eu  Eu4  1  0.951493  0.484587  0.754123  1
  Eu  Eu5  1  0.515413  0.048507  0.245877  1
  Re  Re6  1  0.500000  0.500000  0.500000  1
  Sb  Sb7  1  0.500000  0.500000  0.000000  1
  O  O8  1  0.150833  0.884284  0.254097  1
  O  O9  1  0.555252  0.797574  0.469861  1
  O  O10  1  0.812885  0.563037  0.026408  1
  O  O11  1  0.436963  0.187115  0.973592  1
  O  O12  1  0.563037  0.812885  0.026408  1
  O  O13  1  0.561539  0.561539  0.742684  1
  O  O14  1  0.849167  0.115716  0.745903  1
  O  O15  1  0.115716  0.849167  0.745903  1
  O  O16  1  0.187115  0.436963  0.973592  1
  O  O17  1  0.884284  0.150833  0.254097  1
  O  O18  1  0.444748  0.202426  0.530139  1
  O  O19  1  0.438461  0.438461  0.257316  1
  O  O20  1  0.797574  0.555252  0.469861  1
  O  O21  1  0.202426  0.444748  0.530139  1
