# generated using pymatgen
data_Ho3TmLu4In3Pd
_symmetry_space_group_name_H-M   'P 1'
_cell_length_a   10.35212700
_cell_length_b   10.35212728
_cell_length_c   6.96215400
_cell_angle_alpha   90.00000000
_cell_angle_beta   90.00000000
_cell_angle_gamma   120.00000230
_symmetry_Int_Tables_number   1
_chemical_formula_structural   Ho3TmLu4In3Pd
_chemical_formula_sum   'Ho6 Tm2 Lu8 In6 Pd2'
_cell_volume   646.15013802
_cell_formula_units_Z   2
loop_
 _symmetry_equiv_pos_site_id
 _symmetry_equiv_pos_as_xyz
  1  'x, y, z'
loop_
 _atom_site_type_symbol
 _atom_site_label
 _atom_site_symmetry_multiplicity
 _atom_site_fract_x
 _atom_site_fract_y
 _atom_site_fract_z
 _atom_site_occupancy
  Ho  Ho0  1  0.530736  0.061475  0.519473  1
  Ho  Ho1  1  0.938525  0.469264  0.519473  1
  Ho  Ho2  1  0.530736  0.469264  0.519473  1
  Ho  Ho3  1  0.469264  0.938525  0.019473  1
  Ho  Ho4  1  0.061475  0.530736  0.019473  1
  Ho  Ho5  1  0.469264  0.530736  0.019473  1
  Tm  Tm6  1  0.000000  0.000000  0.497137  1
  Tm  Tm7  1  0.000000  0.000000  0.997137  1
  Lu  Lu8  1  0.175229  0.350460  0.719280  1
  Lu  Lu9  1  0.649540  0.824771  0.719280  1
  Lu  Lu10  1  0.175229  0.824771  0.719280  1
  Lu  Lu11  1  0.824771  0.649540  0.219280  1
  Lu  Lu12  1  0.350460  0.175229  0.219280  1
  Lu  Lu13  1  0.824771  0.175229  0.219280  1
  Lu  Lu14  1  0.666667  0.333333  0.894396  1
  Lu  Lu15  1  0.333333  0.666667  0.394396  1
  In  In16  1  0.837370  0.674741  0.762562  1
  In  In17  1  0.325259  0.162630  0.762562  1
  In  In18  1  0.837370  0.162630  0.762562  1
  In  In19  1  0.162630  0.325259  0.262562  1
  In  In20  1  0.674741  0.837370  0.262562  1
  In  In21  1  0.162630  0.837370  0.262562  1
  Pd  Pd22  1  0.666667  0.333333  0.283524  1
  Pd  Pd23  1  0.333333  0.666667  0.783524  1
