# generated using pymatgen
data_Y4Al12Si6IrOs5
_symmetry_space_group_name_H-M   'P 1'
_cell_length_a   7.48277977
_cell_length_b   7.45517787
_cell_length_c   9.38512211
_cell_angle_alpha   89.98620650
_cell_angle_beta   90.02838766
_cell_angle_gamma   119.70562962
_symmetry_Int_Tables_number   1
_chemical_formula_structural   Y4Al12Si6IrOs5
_chemical_formula_sum   'Y4 Al12 Si6 Ir1 Os5'
_cell_volume   454.74934968
_cell_formula_units_Z   1
loop_
 _symmetry_equiv_pos_site_id
 _symmetry_equiv_pos_as_xyz
  1  'x, y, z'
loop_
 _atom_site_type_symbol
 _atom_site_label
 _atom_site_symmetry_multiplicity
 _atom_site_fract_x
 _atom_site_fract_y
 _atom_site_fract_z
 _atom_site_occupancy
  Y  Y0  1  0.000532  0.676463  0.249856  1
  Y  Y1  1  0.006131  0.334348  0.753718  1
  Y  Y2  1  0.675780  0.999273  0.249010  1
  Y  Y3  1  0.313485  0.992541  0.747124  1
  Al  Al4  1  0.004189  0.332405  0.426407  1
  Al  Al5  1  0.667204  0.997476  0.577226  1
  Al  Al6  1  0.660313  0.994560  0.923024  1
  Al  Al7  1  0.341937  0.006725  0.072504  1
  Al  Al8  1  0.333592  0.337376  0.557375  1
  Al  Al9  1  0.661095  0.666979  0.443058  1
  Al  Al10  1  0.661492  0.664660  0.055206  1
  Al  Al11  1  0.339041  0.334199  0.943939  1
  Al  Al12  1  0.334148  0.547884  0.250018  1
  Al  Al13  1  0.666505  0.453295  0.752145  1
  Al  Al14  1  0.548340  0.338885  0.248989  1
  Al  Al15  1  0.452009  0.662136  0.749023  1
  Si  Si16  1  0.130434  0.127377  0.250166  1
  Si  Si17  1  0.869118  0.873973  0.749932  1
  Si  Si18  1  0.004188  0.332356  0.073383  1
  Si  Si19  1  0.995482  0.665520  0.933053  1
  Si  Si20  1  0.992408  0.657761  0.568318  1
  Si  Si21  1  0.341633  0.006812  0.426081  1
  Ir  Ir22  1  0.671384  0.328763  0.500145  1
  Os  Os23  1  0.688680  0.336122  0.002252  1
  Os  Os24  1  0.312130  0.663338  0.998435  1
  Os  Os25  1  0.319564  0.679386  0.499586  1
  Os  Os26  1  0.000879  0.998797  0.000248  1
  Os  Os27  1  0.008305  0.990593  0.499779  1
