# generated using pymatgen
data_Lu20ZnBi8Te3
_symmetry_space_group_name_H-M   'P 1'
_cell_length_a   8.02881520
_cell_length_b   9.30092400
_cell_length_c   11.69548000
_cell_angle_alpha   90.00000000
_cell_angle_beta   89.59639074
_cell_angle_gamma   90.00000000
_symmetry_Int_Tables_number   1
_chemical_formula_structural   Lu20ZnBi8Te3
_chemical_formula_sum   'Lu20 Zn1 Bi8 Te3'
_cell_volume   873.34297829
_cell_formula_units_Z   1
loop_
 _symmetry_equiv_pos_site_id
 _symmetry_equiv_pos_as_xyz
  1  'x, y, z'
loop_
 _atom_site_type_symbol
 _atom_site_label
 _atom_site_symmetry_multiplicity
 _atom_site_fract_x
 _atom_site_fract_y
 _atom_site_fract_z
 _atom_site_occupancy
  Lu  Lu0  1  0.037064  0.250000  0.508593  1
  Lu  Lu1  1  0.981407  0.750000  0.489720  1
  Lu  Lu2  1  0.477972  0.750000  0.011696  1
  Lu  Lu3  1  0.523134  0.250000  0.989600  1
  Lu  Lu4  1  0.354784  0.250000  0.294375  1
  Lu  Lu5  1  0.648426  0.750000  0.717140  1
  Lu  Lu6  1  0.147384  0.750000  0.783637  1
  Lu  Lu7  1  0.854566  0.250000  0.215101  1
  Lu  Lu8  1  0.185611  0.250000  0.780683  1
  Lu  Lu9  1  0.817223  0.750000  0.213548  1
  Lu  Lu10  1  0.319519  0.750000  0.285516  1
  Lu  Lu11  1  0.668972  0.250000  0.707118  1
  Lu  Lu12  1  0.189277  0.066625  0.058370  1
  Lu  Lu13  1  0.812333  0.932846  0.942014  1
  Lu  Lu14  1  0.310898  0.948493  0.558955  1
  Lu  Lu15  1  0.812333  0.567154  0.942014  1
  Lu  Lu16  1  0.681751  0.072436  0.444441  1
  Lu  Lu17  1  0.189277  0.433375  0.058370  1
  Lu  Lu18  1  0.681751  0.427564  0.444441  1
  Lu  Lu19  1  0.310898  0.551507  0.558955  1
  Zn  Zn20  1  0.405340  0.250000  0.539694  1
  Bi  Bi21  1  0.063844  0.000620  0.321816  1
  Bi  Bi22  1  0.932114  0.998419  0.675463  1
  Bi  Bi23  1  0.433230  0.995851  0.826352  1
  Bi  Bi24  1  0.932114  0.501581  0.675463  1
  Bi  Bi25  1  0.565800  0.003759  0.175657  1
  Bi  Bi26  1  0.063844  0.499380  0.321816  1
  Bi  Bi27  1  0.565800  0.496241  0.175657  1
  Bi  Bi28  1  0.433230  0.504149  0.826352  1
  Te  Te29  1  0.598723  0.750000  0.459521  1
  Te  Te30  1  0.099676  0.750000  0.041493  1
  Te  Te31  1  0.901709  0.250000  0.956427  1
