# generated using pymatgen
data_YbPr4Si3
_symmetry_space_group_name_H-M   'P 1'
_cell_length_a   7.79972612
_cell_length_b   7.79972703
_cell_length_c   8.96875245
_cell_angle_alpha   115.77434060
_cell_angle_beta   115.77434525
_cell_angle_gamma   90.00000371
_symmetry_Int_Tables_number   1
_chemical_formula_structural   YbPr4Si3
_chemical_formula_sum   'Yb2 Pr8 Si6'
_cell_volume   430.26240259
_cell_formula_units_Z   2
loop_
 _symmetry_equiv_pos_site_id
 _symmetry_equiv_pos_as_xyz
  1  'x, y, z'
loop_
 _atom_site_type_symbol
 _atom_site_label
 _atom_site_symmetry_multiplicity
 _atom_site_fract_x
 _atom_site_fract_y
 _atom_site_fract_z
 _atom_site_occupancy
  Yb  Yb0  1  0.500000  0.500000  0.000000  1
  Yb  Yb1  1  0.000000  0.000000  0.000000  1
  Pr  Pr2  1  0.966045  0.824158  0.290203  1
  Pr  Pr3  1  0.324158  0.466045  0.290203  1
  Pr  Pr4  1  0.824158  0.324158  0.290203  1
  Pr  Pr5  1  0.466045  0.966045  0.290203  1
  Pr  Pr6  1  0.033955  0.175842  0.709797  1
  Pr  Pr7  1  0.675842  0.533955  0.709797  1
  Pr  Pr8  1  0.175842  0.675842  0.709797  1
  Pr  Pr9  1  0.533955  0.033955  0.709797  1
  Si  Si10  1  0.750000  0.750000  0.500000  1
  Si  Si11  1  0.250000  0.250000  0.500000  1
  Si  Si12  1  0.613474  0.886526  0.000000  1
  Si  Si13  1  0.386526  0.113474  0.000000  1
  Si  Si14  1  0.886526  0.386526  0.000000  1
  Si  Si15  1  0.113474  0.613474  0.000000  1
