# generated using pymatgen
data_Zr7Sc(InCu2)4
_symmetry_space_group_name_H-M   'P 1'
_cell_length_a   7.27224422
_cell_length_b   7.27224433
_cell_length_c   6.84632100
_cell_angle_alpha   90.00000000
_cell_angle_beta   90.00000000
_cell_angle_gamma   90.14604745
_symmetry_Int_Tables_number   1
_chemical_formula_structural   Zr7Sc(InCu2)4
_chemical_formula_sum   'Zr7 Sc1 In4 Cu8'
_cell_volume   362.07018452
_cell_formula_units_Z   1
loop_
 _symmetry_equiv_pos_site_id
 _symmetry_equiv_pos_as_xyz
  1  'x, y, z'
loop_
 _atom_site_type_symbol
 _atom_site_label
 _atom_site_symmetry_multiplicity
 _atom_site_fract_x
 _atom_site_fract_y
 _atom_site_fract_z
 _atom_site_occupancy
  Zr  Zr0  1  0.149385  0.149385  0.000000  1
  Zr  Zr1  1  0.849817  0.849817  0.000000  1
  Zr  Zr2  1  0.650832  0.349980  0.500000  1
  Zr  Zr3  1  0.349980  0.650832  0.500000  1
  Zr  Zr4  1  0.692473  0.306268  0.000000  1
  Zr  Zr5  1  0.306268  0.692473  0.000000  1
  Zr  Zr6  1  0.806965  0.806965  0.500000  1
  Sc  Sc7  1  0.192999  0.192999  0.500000  1
  In  In8  1  0.499385  0.999900  0.251041  1
  In  In9  1  0.499385  0.999900  0.748959  1
  In  In10  1  0.999900  0.499385  0.251041  1
  In  In11  1  0.999900  0.499385  0.748959  1
  Cu  Cu12  1  0.375579  0.375579  0.203374  1
  Cu  Cu13  1  0.623298  0.623298  0.799440  1
  Cu  Cu14  1  0.623298  0.623298  0.200560  1
  Cu  Cu15  1  0.878650  0.123830  0.701775  1
  Cu  Cu16  1  0.878650  0.123830  0.298225  1
  Cu  Cu17  1  0.375579  0.375579  0.796626  1
  Cu  Cu18  1  0.123830  0.878650  0.298225  1
  Cu  Cu19  1  0.123830  0.878650  0.701775  1
