# generated using pymatgen
data_Hf7ZrCo11Si16Ir
_symmetry_space_group_name_H-M   'P 1'
_cell_length_a   5.24113456
_cell_length_b   6.77629935
_cell_length_c   13.73293519
_cell_angle_alpha   90.02815907
_cell_angle_beta   89.97460880
_cell_angle_gamma   89.83995718
_symmetry_Int_Tables_number   1
_chemical_formula_structural   Hf7ZrCo11Si16Ir
_chemical_formula_sum   'Hf7 Zr1 Co11 Si16 Ir1'
_cell_volume   487.73000485
_cell_formula_units_Z   1
loop_
 _symmetry_equiv_pos_site_id
 _symmetry_equiv_pos_as_xyz
  1  'x, y, z'
loop_
 _atom_site_type_symbol
 _atom_site_label
 _atom_site_symmetry_multiplicity
 _atom_site_fract_x
 _atom_site_fract_y
 _atom_site_fract_z
 _atom_site_occupancy
  Hf  Hf0  1  0.732430  0.100246  0.148811  1
  Hf  Hf1  1  0.266799  0.100490  0.644308  1
  Hf  Hf2  1  0.762978  0.401750  0.644185  1
  Hf  Hf3  1  0.232836  0.601018  0.355059  1
  Hf  Hf4  1  0.733106  0.899206  0.354722  1
  Hf  Hf5  1  0.263459  0.902957  0.853274  1
  Hf  Hf6  1  0.769995  0.600492  0.851138  1
  Zr  Zr7  1  0.237882  0.398959  0.150619  1
  Co  Co8  1  0.504985  0.227851  0.481593  1
  Co  Co9  1  0.771116  0.999126  0.748833  1
  Co  Co10  1  0.494084  0.220838  0.980096  1
  Co  Co11  1  0.728552  0.502037  0.252882  1
  Co  Co12  1  0.493978  0.773538  0.518724  1
  Co  Co13  1  0.005490  0.273513  0.481786  1
  Co  Co14  1  0.006035  0.724278  0.019237  1
  Co  Co15  1  0.226388  0.998146  0.252184  1
  Co  Co16  1  0.274724  0.503363  0.749047  1
  Co  Co17  1  0.505943  0.770885  0.019381  1
  Co  Co18  1  0.993851  0.727808  0.518427  1
  Si  Si19  1  0.225685  0.011699  0.071651  1
  Si  Si20  1  0.720006  0.519982  0.432514  1
  Si  Si21  1  0.779285  0.019873  0.567676  1
  Si  Si22  1  0.484335  0.754364  0.189851  1
  Si  Si23  1  0.017405  0.254506  0.803133  1
  Si  Si24  1  0.515890  0.246901  0.810137  1
  Si  Si25  1  0.219969  0.981292  0.432330  1
  Si  Si26  1  0.292181  0.525782  0.930491  1
  Si  Si27  1  0.981707  0.746655  0.188888  1
  Si  Si28  1  0.713243  0.484574  0.071044  1
  Si  Si29  1  0.278681  0.482028  0.567677  1
  Si  Si30  1  0.484043  0.246248  0.313792  1
  Si  Si31  1  0.017348  0.747386  0.686661  1
  Si  Si32  1  0.772938  0.971147  0.930158  1
  Si  Si33  1  0.515993  0.755285  0.687430  1
  Si  Si34  1  0.982168  0.253201  0.313462  1
  Ir  Ir35  1  0.994489  0.272577  0.978798  1
