# generated using pymatgen
data_Tb8Tm2RuRh3
_symmetry_space_group_name_H-M   'P 1'
_cell_length_a   6.40450827
_cell_length_b   7.19214453
_cell_length_c   8.59160073
_cell_angle_alpha   96.76772827
_cell_angle_beta   111.61190496
_cell_angle_gamma   90.01925509
_symmetry_Int_Tables_number   1
_chemical_formula_structural   Tb8Tm2RuRh3
_chemical_formula_sum   'Tb8 Tm2 Ru1 Rh3'
_cell_volume   364.95254275
_cell_formula_units_Z   1
loop_
 _symmetry_equiv_pos_site_id
 _symmetry_equiv_pos_as_xyz
  1  'x, y, z'
loop_
 _atom_site_type_symbol
 _atom_site_label
 _atom_site_symmetry_multiplicity
 _atom_site_fract_x
 _atom_site_fract_y
 _atom_site_fract_z
 _atom_site_occupancy
  Tb  Tb0  1  0.793464  0.081054  0.812965  1
  Tb  Tb1  1  0.978544  0.418187  0.186464  1
  Tb  Tb2  1  0.207127  0.918146  0.183687  1
  Tb  Tb3  1  0.022140  0.584244  0.812580  1
  Tb  Tb4  1  0.208523  0.185973  0.566636  1
  Tb  Tb5  1  0.643251  0.312647  0.434766  1
  Tb  Tb6  1  0.795100  0.812239  0.437482  1
  Tb  Tb7  1  0.354421  0.688530  0.566291  1
  Tm  Tm8  1  0.423405  0.248381  0.998685  1
  Tm  Tm9  1  0.574326  0.750609  0.999428  1
  Ru  Ru10  1  0.182522  0.925902  0.782456  1
  Rh  Rh11  1  0.599321  0.425718  0.782471  1
  Rh  Rh12  1  0.815457  0.074857  0.217957  1
  Rh  Rh13  1  0.402399  0.573514  0.218133  1
