# generated using pymatgen
data_SmY2Ho(WN3)4
_symmetry_space_group_name_H-M   'P 1'
_cell_length_a   7.37212568
_cell_length_b   7.37212652
_cell_length_c   6.30714597
_cell_angle_alpha   73.85765618
_cell_angle_beta   73.85765149
_cell_angle_gamma   82.03901897
_symmetry_Int_Tables_number   1
_chemical_formula_structural   SmY2Ho(WN3)4
_chemical_formula_sum   'Sm1 Y2 Ho1 W4 N12'
_cell_volume   315.58951227
_cell_formula_units_Z   1
loop_
 _symmetry_equiv_pos_site_id
 _symmetry_equiv_pos_as_xyz
  1  'x, y, z'
loop_
 _atom_site_type_symbol
 _atom_site_label
 _atom_site_symmetry_multiplicity
 _atom_site_fract_x
 _atom_site_fract_y
 _atom_site_fract_z
 _atom_site_occupancy
  Sm  Sm0  1  0.708175  0.291825  0.750000  1
  Y  Y1  1  0.289947  0.710053  0.250000  1
  Y  Y2  1  0.911655  0.088345  0.250000  1
  Ho  Ho3  1  0.091290  0.908710  0.750000  1
  W  W4  1  0.378640  0.200856  0.231641  1
  W  W5  1  0.619518  0.799044  0.770798  1
  W  W6  1  0.799144  0.621360  0.268359  1
  W  W7  1  0.200956  0.380482  0.729202  1
  N  N8  1  0.622470  0.112283  0.165074  1
  N  N9  1  0.347142  0.365457  0.434557  1
  N  N10  1  0.005499  0.215416  0.846815  1
  N  N11  1  0.375451  0.888522  0.839025  1
  N  N12  1  0.784584  0.994501  0.653185  1
  N  N13  1  0.111478  0.624549  0.660975  1
  N  N14  1  0.887717  0.377530  0.334926  1
  N  N15  1  0.653201  0.639111  0.562206  1
  N  N16  1  0.634543  0.652858  0.065443  1
  N  N17  1  0.360889  0.346799  0.937794  1
  N  N18  1  0.999303  0.781605  0.150828  1
  N  N19  1  0.218395  0.000697  0.349172  1
