# generated using pymatgen
data_DyY3Ga5Tc3
_symmetry_space_group_name_H-M   'P 1'
_cell_length_a   5.49952035
_cell_length_b   5.56589444
_cell_length_c   8.70529745
_cell_angle_alpha   90.00000131
_cell_angle_beta   90.03181885
_cell_angle_gamma   120.40006237
_symmetry_Int_Tables_number   1
_chemical_formula_structural   DyY3Ga5Tc3
_chemical_formula_sum   'Dy1 Y3 Ga5 Tc3'
_cell_volume   229.83121500
_cell_formula_units_Z   1
loop_
 _symmetry_equiv_pos_site_id
 _symmetry_equiv_pos_as_xyz
  1  'x, y, z'
loop_
 _atom_site_type_symbol
 _atom_site_label
 _atom_site_symmetry_multiplicity
 _atom_site_fract_x
 _atom_site_fract_y
 _atom_site_fract_z
 _atom_site_occupancy
  Dy  Dy0  1  0.334577  0.667288  0.443369  1
  Y  Y1  1  0.662653  0.331325  0.552636  1
  Y  Y2  1  0.662586  0.331292  0.947269  1
  Y  Y3  1  0.334039  0.667019  0.057013  1
  Ga  Ga4  1  0.836651  0.163491  0.250042  1
  Ga  Ga5  1  0.836651  0.673160  0.250042  1
  Ga  Ga6  1  0.325788  0.162894  0.250068  1
  Ga  Ga7  1  0.187928  0.839949  0.749940  1
  Ga  Ga8  1  0.187928  0.347980  0.749940  1
  Tc  Tc9  1  0.975438  0.987720  0.510823  1
  Tc  Tc10  1  0.975606  0.987803  0.989072  1
  Tc  Tc11  1  0.680153  0.840076  0.749787  1
