# generated using pymatgen
data_YbHo3Ni14
_symmetry_space_group_name_H-M   'P 1'
_cell_length_a   4.89314106
_cell_length_b   4.89313983
_cell_length_c   12.32122882
_cell_angle_alpha   78.62817689
_cell_angle_beta   78.62817846
_cell_angle_gamma   59.98843044
_symmetry_Int_Tables_number   1
_chemical_formula_structural   YbHo3Ni14
_chemical_formula_sum   'Yb1 Ho3 Ni14'
_cell_volume   248.74374105
_cell_formula_units_Z   1
loop_
 _symmetry_equiv_pos_site_id
 _symmetry_equiv_pos_as_xyz
  1  'x, y, z'
loop_
 _atom_site_type_symbol
 _atom_site_label
 _atom_site_symmetry_multiplicity
 _atom_site_fract_x
 _atom_site_fract_y
 _atom_site_fract_z
 _atom_site_occupancy
  Yb  Yb0  1  0.147125  0.147125  0.559041  1
  Ho  Ho1  1  0.948974  0.948974  0.152666  1
  Ho  Ho2  1  0.051621  0.051621  0.844981  1
  Ho  Ho3  1  0.851162  0.851162  0.446733  1
  Ni  Ni4  1  0.499950  0.499950  0.500479  1
  Ni  Ni5  1  0.722080  0.722080  0.833312  1
  Ni  Ni6  1  0.277922  0.277922  0.166104  1
  Ni  Ni7  1  0.611617  0.611617  0.164896  1
  Ni  Ni8  1  0.388355  0.388355  0.834262  1
  Ni  Ni9  1  0.999848  0.500288  0.999621  1
  Ni  Ni10  1  0.500288  0.999848  0.999621  1
  Ni  Ni11  1  0.500349  0.500349  0.999635  1
  Ni  Ni12  1  0.389554  0.389554  0.330152  1
  Ni  Ni13  1  0.890627  0.389649  0.330113  1
  Ni  Ni14  1  0.389649  0.890627  0.330113  1
  Ni  Ni15  1  0.610620  0.610620  0.669357  1
  Ni  Ni16  1  0.110029  0.610230  0.669457  1
  Ni  Ni17  1  0.610230  0.110029  0.669457  1
