# generated using pymatgen
data_Tb6Dy2Hf12Si15Ni
_symmetry_space_group_name_H-M   'P 1'
_cell_length_a   7.27224259
_cell_length_b   7.30457023
_cell_length_c   13.41388418
_cell_angle_alpha   90.18951591
_cell_angle_beta   89.91050331
_cell_angle_gamma   90.12234303
_symmetry_Int_Tables_number   1
_chemical_formula_structural   Tb6Dy2Hf12Si15Ni
_chemical_formula_sum   'Tb6 Dy2 Hf12 Si15 Ni1'
_cell_volume   712.54728187
_cell_formula_units_Z   1
loop_
 _symmetry_equiv_pos_site_id
 _symmetry_equiv_pos_as_xyz
  1  'x, y, z'
loop_
 _atom_site_type_symbol
 _atom_site_label
 _atom_site_symmetry_multiplicity
 _atom_site_fract_x
 _atom_site_fract_y
 _atom_site_fract_z
 _atom_site_occupancy
  Tb  Tb0  1  0.160145  0.490925  0.461757  1
  Tb  Tb1  1  0.503970  0.844616  0.034914  1
  Tb  Tb2  1  0.843587  0.503563  0.965596  1
  Tb  Tb3  1  0.495709  0.153829  0.537195  1
  Tb  Tb4  1  0.344034  0.996765  0.785461  1
  Tb  Tb5  1  0.657289  0.003079  0.284512  1
  Dy  Dy6  1  0.997042  0.347702  0.215493  1
  Dy  Dy7  1  0.005172  0.654101  0.714229  1
  Hf  Hf8  1  0.174897  0.176897  0.999416  1
  Hf  Hf9  1  0.825934  0.822948  0.499704  1
  Hf  Hf10  1  0.324084  0.676579  0.250552  1
  Hf  Hf11  1  0.675566  0.324446  0.750117  1
  Hf  Hf12  1  0.153355  0.005947  0.374044  1
  Hf  Hf13  1  0.850879  0.004373  0.874982  1
  Hf  Hf14  1  0.503999  0.648604  0.624505  1
  Hf  Hf15  1  0.351674  0.496348  0.874803  1
  Hf  Hf16  1  0.493778  0.349776  0.129068  1
  Hf  Hf17  1  0.640767  0.499102  0.376220  1
  Hf  Hf18  1  0.997149  0.147483  0.626049  1
  Hf  Hf19  1  0.001216  0.851131  0.124489  1
  Si  Si20  1  0.638912  0.704903  0.817677  1
  Si  Si21  1  0.203642  0.859962  0.566172  1
  Si  Si22  1  0.138036  0.796058  0.932930  1
  Si  Si23  1  0.796041  0.139279  0.067221  1
  Si  Si24  1  0.859820  0.199937  0.435481  1
  Si  Si25  1  0.295556  0.361968  0.683631  1
  Si  Si26  1  0.704867  0.640212  0.182793  1
  Si  Si27  1  0.290665  0.052015  0.185568  1
  Si  Si28  1  0.706545  0.949451  0.685760  1
  Si  Si29  1  0.449719  0.794275  0.435873  1
  Si  Si30  1  0.205342  0.550663  0.063418  1
  Si  Si31  1  0.548742  0.206307  0.936342  1
  Si  Si32  1  0.795765  0.449672  0.564956  1
  Si  Si33  1  0.048784  0.295999  0.814634  1
  Si  Si34  1  0.949869  0.707285  0.314012  1
  Ni  Ni35  1  0.367450  0.293806  0.310426  1
