# generated using pymatgen
data_CeY4Nb3(Ni4As3)4
_symmetry_space_group_name_H-M   'P 1'
_cell_length_a   12.72019100
_cell_length_b   12.72019078
_cell_length_c   3.90236400
_cell_angle_alpha   90.00000000
_cell_angle_beta   90.00000000
_cell_angle_gamma   120.00000318
_symmetry_Int_Tables_number   1
_chemical_formula_structural   CeY4Nb3(Ni4As3)4
_chemical_formula_sum   'Ce1 Y4 Nb3 Ni16 As12'
_cell_volume   546.82158790
_cell_formula_units_Z   1
loop_
 _symmetry_equiv_pos_site_id
 _symmetry_equiv_pos_as_xyz
  1  'x, y, z'
loop_
 _atom_site_type_symbol
 _atom_site_label
 _atom_site_symmetry_multiplicity
 _atom_site_fract_x
 _atom_site_fract_y
 _atom_site_fract_z
 _atom_site_occupancy
  Ce  Ce0  1  0.333333  0.666667  0.000000  1
  Y  Y1  1  0.185610  0.185639  0.500000  1
  Y  Y2  1  0.814361  0.999971  0.500000  1
  Y  Y3  1  0.000029  0.814390  0.500000  1
  Y  Y4  1  0.666667  0.333333  0.000000  1
  Nb  Nb5  1  0.563180  0.562343  0.000000  1
  Nb  Nb6  1  0.437657  0.000837  0.000000  1
  Nb  Nb7  1  0.999163  0.436820  0.000000  1
  Ni  Ni8  1  0.721147  0.720876  0.500000  1
  Ni  Ni9  1  0.279124  0.000271  0.500000  1
  Ni  Ni10  1  0.999729  0.278853  0.500000  1
  Ni  Ni11  1  0.181515  0.374521  0.000000  1
  Ni  Ni12  1  0.625479  0.806995  0.000000  1
  Ni  Ni13  1  0.193005  0.818485  0.000000  1
  Ni  Ni14  1  0.806999  0.624638  0.000000  1
  Ni  Ni15  1  0.817639  0.193001  0.000000  1
  Ni  Ni16  1  0.375362  0.182361  0.000000  1
  Ni  Ni17  1  0.361773  0.481570  0.500000  1
  Ni  Ni18  1  0.518430  0.880204  0.500000  1
  Ni  Ni19  1  0.119796  0.638227  0.500000  1
  Ni  Ni20  1  0.877869  0.516428  0.500000  1
  Ni  Ni21  1  0.638560  0.122131  0.500000  1
  Ni  Ni22  1  0.483572  0.361440  0.500000  1
  Ni  Ni23  1  0.000000  0.000000  0.000000  1
  As  As24  1  0.822047  0.821873  0.000000  1
  As  As25  1  0.178127  0.000175  0.000000  1
  As  As26  1  0.999825  0.177953  0.000000  1
  As  As27  1  0.168094  0.478991  0.500000  1
  As  As28  1  0.521009  0.689103  0.500000  1
  As  As29  1  0.310897  0.831906  0.500000  1
  As  As30  1  0.689475  0.520110  0.500000  1
  As  As31  1  0.830634  0.310525  0.500000  1
  As  As32  1  0.479890  0.169366  0.500000  1
  As  As33  1  0.361470  0.361455  0.000000  1
  As  As34  1  0.638545  0.000015  0.000000  1
  As  As35  1  0.999985  0.638530  0.000000  1
