# generated using pymatgen
data_Ca3MgCd2Si2Sn
_symmetry_space_group_name_H-M   'P 1'
_cell_length_a   7.36820600
_cell_length_b   7.38537764
_cell_length_c   4.60294500
_cell_angle_alpha   90.00000000
_cell_angle_beta   90.00000000
_cell_angle_gamma   119.92311653
_symmetry_Int_Tables_number   1
_chemical_formula_structural   Ca3MgCd2Si2Sn
_chemical_formula_sum   'Ca3 Mg1 Cd2 Si2 Sn1'
_cell_volume   217.08850269
_cell_formula_units_Z   1
loop_
 _symmetry_equiv_pos_site_id
 _symmetry_equiv_pos_as_xyz
  1  'x, y, z'
loop_
 _atom_site_type_symbol
 _atom_site_label
 _atom_site_symmetry_multiplicity
 _atom_site_fract_x
 _atom_site_fract_y
 _atom_site_fract_z
 _atom_site_occupancy
  Ca  Ca0  1  0.999463  0.566290  0.500000  1
  Ca  Ca1  1  0.570527  0.000000  0.500000  1
  Ca  Ca2  1  0.433173  0.433710  0.500000  1
  Mg  Mg3  1  0.259002  0.000000  0.000000  1
  Cd  Cd4  1  0.734648  0.733429  0.000000  1
  Cd  Cd5  1  0.001220  0.266571  0.000000  1
  Si  Si6  1  0.663191  0.328596  0.000000  1
  Si  Si7  1  0.334595  0.671404  0.000000  1
  Sn  Sn8  1  0.004182  0.000000  0.500000  1
