# generated using pymatgen
data_SmAg(Te3O8)2
_symmetry_space_group_name_H-M   'P 1'
_cell_length_a   6.98523281
_cell_length_b   6.98523407
_cell_length_c   10.30002916
_cell_angle_alpha   66.10158199
_cell_angle_beta   66.10157752
_cell_angle_gamma   49.38750607
_symmetry_Int_Tables_number   1
_chemical_formula_structural   SmAg(Te3O8)2
_chemical_formula_sum   'Sm1 Ag1 Te6 O16'
_cell_volume   341.49265292
_cell_formula_units_Z   1
loop_
 _symmetry_equiv_pos_site_id
 _symmetry_equiv_pos_as_xyz
  1  'x, y, z'
loop_
 _atom_site_type_symbol
 _atom_site_label
 _atom_site_symmetry_multiplicity
 _atom_site_fract_x
 _atom_site_fract_y
 _atom_site_fract_z
 _atom_site_occupancy
  Sm  Sm0  1  0.568431  0.431569  0.250000  1
  Ag  Ag1  1  0.435602  0.564398  0.750000  1
  Te  Te2  1  0.696366  0.877068  0.856207  1
  Te  Te3  1  0.876587  0.686602  0.359401  1
  Te  Te4  1  0.997197  0.990650  0.503720  1
  Te  Te5  1  0.009350  0.002803  0.996280  1
  Te  Te6  1  0.122932  0.303634  0.643793  1
  Te  Te7  1  0.313398  0.123413  0.140599  1
  O  O8  1  0.980330  0.818680  0.911145  1
  O  O9  1  0.796596  0.987662  0.404204  1
  O  O10  1  0.347064  0.882997  0.877021  1
  O  O11  1  0.795902  0.569463  0.581132  1
  O  O12  1  0.870064  0.313159  0.839281  1
  O  O13  1  0.853020  0.332240  0.379354  1
  O  O14  1  0.579116  0.780629  0.099690  1
  O  O15  1  0.294836  0.851964  0.343315  1
  O  O16  1  0.686841  0.129936  0.660719  1
  O  O17  1  0.430537  0.204098  0.918868  1
  O  O18  1  0.117003  0.652936  0.622979  1
  O  O19  1  0.148036  0.705164  0.156685  1
  O  O20  1  0.219371  0.420884  0.400310  1
  O  O21  1  0.667760  0.146980  0.120646  1
  O  O22  1  0.181320  0.019670  0.588855  1
  O  O23  1  0.012338  0.203404  0.095796  1
