# generated using pymatgen
data_K3YbIr2O9
_symmetry_space_group_name_H-M   'P 1'
_cell_length_a   6.03008901
_cell_length_b   6.02898383
_cell_length_c   14.65282100
_cell_angle_alpha   90.00000000
_cell_angle_beta   90.00000000
_cell_angle_gamma   119.99907217
_symmetry_Int_Tables_number   1
_chemical_formula_structural   K3YbIr2O9
_chemical_formula_sum   'K6 Yb2 Ir4 O18'
_cell_volume   461.34283305
_cell_formula_units_Z   2
loop_
 _symmetry_equiv_pos_site_id
 _symmetry_equiv_pos_as_xyz
  1  'x, y, z'
loop_
 _atom_site_type_symbol
 _atom_site_label
 _atom_site_symmetry_multiplicity
 _atom_site_fract_x
 _atom_site_fract_y
 _atom_site_fract_z
 _atom_site_occupancy
  K  K0  1  0.000036  0.000036  0.250000  1
  K  K1  1  0.999964  0.999964  0.750000  1
  K  K2  1  0.333307  0.666639  0.596660  1
  K  K3  1  0.666693  0.333361  0.403340  1
  K  K4  1  0.666693  0.333361  0.096660  1
  K  K5  1  0.333307  0.666639  0.903340  1
  Yb  Yb6  1  0.000000  0.000000  0.500000  1
  Yb  Yb7  1  0.000000  0.000000  0.000000  1
  Ir  Ir8  1  0.333358  0.666736  0.347722  1
  Ir  Ir9  1  0.666642  0.333264  0.652278  1
  Ir  Ir10  1  0.666642  0.333264  0.847722  1
  Ir  Ir11  1  0.333358  0.666736  0.152278  1
  O  O12  1  0.468446  0.531358  0.250000  1
  O  O13  1  0.468517  0.937114  0.250000  1
  O  O14  1  0.063166  0.531522  0.250000  1
  O  O15  1  0.531554  0.468642  0.750000  1
  O  O16  1  0.531483  0.062886  0.750000  1
  O  O17  1  0.936834  0.468478  0.750000  1
  O  O18  1  0.179426  0.820548  0.086829  1
  O  O19  1  0.179374  0.358766  0.086841  1
  O  O20  1  0.641075  0.820535  0.086836  1
  O  O21  1  0.820574  0.179452  0.913171  1
  O  O22  1  0.820626  0.641234  0.913159  1
  O  O23  1  0.358925  0.179465  0.913164  1
  O  O24  1  0.820574  0.179452  0.586829  1
  O  O25  1  0.820626  0.641234  0.586841  1
  O  O26  1  0.358925  0.179465  0.586836  1
  O  O27  1  0.179426  0.820548  0.413171  1
  O  O28  1  0.179374  0.358766  0.413159  1
  O  O29  1  0.641075  0.820535  0.413164  1
