# generated using pymatgen
data_Tb4Ga4Pd3Rh
_symmetry_space_group_name_H-M   'P 1'
_cell_length_a   4.47968500
_cell_length_b   6.94332868
_cell_length_c   7.68797790
_cell_angle_alpha   90.21005056
_cell_angle_beta   90.00000000
_cell_angle_gamma   90.00000000
_symmetry_Int_Tables_number   1
_chemical_formula_structural   Tb4Ga4Pd3Rh
_chemical_formula_sum   'Tb4 Ga4 Pd3 Rh1'
_cell_volume   239.12468364
_cell_formula_units_Z   1
loop_
 _symmetry_equiv_pos_site_id
 _symmetry_equiv_pos_as_xyz
  1  'x, y, z'
loop_
 _atom_site_type_symbol
 _atom_site_label
 _atom_site_symmetry_multiplicity
 _atom_site_fract_x
 _atom_site_fract_y
 _atom_site_fract_z
 _atom_site_occupancy
  Tb  Tb0  1  0.250000  0.483858  0.196482  1
  Tb  Tb1  1  0.750000  0.526786  0.808842  1
  Tb  Tb2  1  0.250000  0.977552  0.299627  1
  Tb  Tb3  1  0.750000  0.023145  0.695467  1
  Ga  Ga4  1  0.250000  0.825962  0.927079  1
  Ga  Ga5  1  0.750000  0.166090  0.074217  1
  Ga  Ga6  1  0.250000  0.326797  0.574160  1
  Ga  Ga7  1  0.750000  0.675525  0.423880  1
  Pd  Pd8  1  0.250000  0.219078  0.901136  1
  Pd  Pd9  1  0.750000  0.281584  0.401140  1
  Pd  Pd10  1  0.250000  0.718473  0.598985  1
  Rh  Rh11  1  0.750000  0.775150  0.098986  1
