# generated using pymatgen
data_La(EuP)3
_symmetry_space_group_name_H-M   'P 1'
_cell_length_a   7.82691145
_cell_length_b   7.83501430
_cell_length_c   7.79958407
_cell_angle_alpha   109.42394073
_cell_angle_beta   109.38171394
_cell_angle_gamma   109.77011610
_symmetry_Int_Tables_number   1
_chemical_formula_structural   La(EuP)3
_chemical_formula_sum   'La2 Eu6 P6'
_cell_volume   367.45430556
_cell_formula_units_Z   2
loop_
 _symmetry_equiv_pos_site_id
 _symmetry_equiv_pos_as_xyz
  1  'x, y, z'
loop_
 _atom_site_type_symbol
 _atom_site_label
 _atom_site_symmetry_multiplicity
 _atom_site_fract_x
 _atom_site_fract_y
 _atom_site_fract_z
 _atom_site_occupancy
  La  La0  1  0.500306  0.999307  0.366158  1
  La  La1  1  0.634147  0.633149  0.633842  1
  Eu  Eu2  1  0.126147  0.130623  0.128413  1
  Eu  Eu3  1  0.497735  0.002211  0.871587  1
  Eu  Eu4  1  0.871009  0.497695  0.002108  1
  Eu  Eu5  1  0.002137  0.871583  0.497687  1
  Eu  Eu6  1  0.368900  0.495587  0.997892  1
  Eu  Eu7  1  0.004449  0.373895  0.502313  1
  P  P8  1  0.623877  0.373850  0.254838  1
  P  P9  1  0.254893  0.628103  0.376665  1
  P  P10  1  0.746245  0.873452  0.123357  1
  P  P11  1  0.122887  0.750095  0.876643  1
  P  P12  1  0.378228  0.251438  0.623335  1
  P  P13  1  0.869039  0.119013  0.745162  1
