# generated using pymatgen
data_Y6Ho2CdHgPd2
_symmetry_space_group_name_H-M   'P 1'
_cell_length_a   9.69873903
_cell_length_b   9.69874477
_cell_length_c   9.69829000
_cell_angle_alpha   60.00124316
_cell_angle_beta   60.00127048
_cell_angle_gamma   60.04426320
_symmetry_Int_Tables_number   1
_chemical_formula_structural   Y6Ho2CdHgPd2
_chemical_formula_sum   'Y12 Ho4 Cd2 Hg2 Pd4'
_cell_volume   645.30391113
_cell_formula_units_Z   2
loop_
 _symmetry_equiv_pos_site_id
 _symmetry_equiv_pos_as_xyz
  1  'x, y, z'
loop_
 _atom_site_type_symbol
 _atom_site_label
 _atom_site_symmetry_multiplicity
 _atom_site_fract_x
 _atom_site_fract_y
 _atom_site_fract_z
 _atom_site_occupancy
  Y  Y0  1  0.810936  0.189067  0.190280  1
  Y  Y1  1  0.189069  0.810935  0.809721  1
  Y  Y2  1  0.189070  0.810936  0.190275  1
  Y  Y3  1  0.810938  0.189061  0.809725  1
  Y  Y4  1  0.189999  0.190000  0.810000  1
  Y  Y5  1  0.810324  0.810327  0.189674  1
  Y  Y6  1  0.934712  0.563861  0.565122  1
  Y  Y7  1  0.563858  0.934716  0.936299  1
  Y  Y8  1  0.563863  0.934713  0.565122  1
  Y  Y9  1  0.934709  0.563862  0.936301  1
  Y  Y10  1  0.564629  0.564626  0.935370  1
  Y  Y11  1  0.935642  0.935642  0.564362  1
  Ho  Ho12  1  0.354862  0.354858  0.351549  1
  Ho  Ho13  1  0.354860  0.354853  0.938737  1
  Ho  Ho14  1  0.358664  0.930760  0.355281  1
  Ho  Ho15  1  0.930756  0.358664  0.355286  1
  Cd  Cd16  1  0.580319  0.254190  0.582747  1
  Cd  Cd17  1  0.254191  0.580319  0.582744  1
  Hg  Hg18  1  0.585095  0.585098  0.588238  1
  Hg  Hg19  1  0.585096  0.585095  0.241561  1
  Pd  Pd20  1  0.145828  0.145826  0.148750  1
  Pd  Pd21  1  0.145832  0.145835  0.559595  1
  Pd  Pd22  1  0.143984  0.562771  0.146626  1
  Pd  Pd23  1  0.562766  0.143983  0.146634  1
