# generated using pymatgen
data_Ho2Zn2Ru2C
_symmetry_space_group_name_H-M   'P 1'
_cell_length_a   6.39627010
_cell_length_b   6.39627068
_cell_length_c   7.16847678
_cell_angle_alpha   130.21875100
_cell_angle_beta   130.21875632
_cell_angle_gamma   34.28063058
_symmetry_Int_Tables_number   1
_chemical_formula_structural   Ho2Zn2Ru2C
_chemical_formula_sum   'Ho2 Zn2 Ru2 C1'
_cell_volume   121.77005038
_cell_formula_units_Z   1
loop_
 _symmetry_equiv_pos_site_id
 _symmetry_equiv_pos_as_xyz
  1  'x, y, z'
loop_
 _atom_site_type_symbol
 _atom_site_label
 _atom_site_symmetry_multiplicity
 _atom_site_fract_x
 _atom_site_fract_y
 _atom_site_fract_z
 _atom_site_occupancy
  Ho  Ho0  1  0.433459  0.433459  0.151066  1
  Ho  Ho1  1  0.566541  0.566541  0.848935  1
  Zn  Zn2  1  0.864870  0.864870  0.393265  1
  Zn  Zn3  1  0.135130  0.135130  0.606736  1
  Ru  Ru4  1  0.194989  0.194989  0.318493  1
  Ru  Ru5  1  0.805011  0.805011  0.681507  1
  C  C6  1  0.000000  0.000000  0.000000  1
