# generated using pymatgen
data_CeWC2
_symmetry_space_group_name_H-M   'P 1'
_cell_length_a   5.80711600
_cell_length_b   3.41332500
_cell_length_c   10.96157100
_cell_angle_alpha   90.00000000
_cell_angle_beta   90.00000000
_cell_angle_gamma   90.00000000
_symmetry_Int_Tables_number   1
_chemical_formula_structural   CeWC2
_chemical_formula_sum   'Ce4 W4 C8'
_cell_volume   217.27559315
_cell_formula_units_Z   4
loop_
 _symmetry_equiv_pos_site_id
 _symmetry_equiv_pos_as_xyz
  1  'x, y, z'
loop_
 _atom_site_type_symbol
 _atom_site_label
 _atom_site_symmetry_multiplicity
 _atom_site_fract_x
 _atom_site_fract_y
 _atom_site_fract_z
 _atom_site_occupancy
  Ce  Ce0  1  0.083574  0.250001  0.138130  1
  Ce  Ce1  1  0.583574  0.250001  0.361869  1
  Ce  Ce2  1  0.416425  0.750000  0.638130  1
  Ce  Ce3  1  0.916425  0.750000  0.861870  1
  W  W4  1  0.586869  0.750000  0.108222  1
  W  W5  1  0.086870  0.750000  0.391778  1
  W  W6  1  0.913130  0.250001  0.608222  1
  W  W7  1  0.413130  0.250001  0.891778  1
  C  C8  1  0.719444  0.250001  0.017287  1
  C  C9  1  0.836671  0.750000  0.247381  1
  C  C10  1  0.336669  0.750000  0.252619  1
  C  C11  1  0.219444  0.250001  0.482713  1
  C  C12  1  0.780556  0.750000  0.517287  1
  C  C13  1  0.663330  0.250001  0.747381  1
  C  C14  1  0.163330  0.250001  0.752620  1
  C  C15  1  0.280555  0.750000  0.982713  1
