# generated using pymatgen
data_Pr8Si12IrPd3
_symmetry_space_group_name_H-M   'P 1'
_cell_length_a   8.27766400
_cell_length_b   8.27766510
_cell_length_c   8.60737700
_cell_angle_alpha   90.00000000
_cell_angle_beta   90.00000000
_cell_angle_gamma   120.00000360
_symmetry_Int_Tables_number   1
_chemical_formula_structural   Pr8Si12IrPd3
_chemical_formula_sum   'Pr8 Si12 Ir1 Pd3'
_cell_volume   510.76024516
_cell_formula_units_Z   1
loop_
 _symmetry_equiv_pos_site_id
 _symmetry_equiv_pos_as_xyz
  1  'x, y, z'
loop_
 _atom_site_type_symbol
 _atom_site_label
 _atom_site_symmetry_multiplicity
 _atom_site_fract_x
 _atom_site_fract_y
 _atom_site_fract_z
 _atom_site_occupancy
  Pr  Pr0  1  0.500975  0.499025  0.752480  1
  Pr  Pr1  1  0.502537  0.497463  0.247850  1
  Pr  Pr2  1  0.998051  0.499025  0.752480  1
  Pr  Pr3  1  0.994927  0.497463  0.247850  1
  Pr  Pr4  1  0.500975  0.001949  0.752480  1
  Pr  Pr5  1  0.502537  0.005073  0.247850  1
  Pr  Pr6  1  0.000000  0.000000  0.749049  1
  Pr  Pr7  1  0.000000  0.000000  0.250373  1
  Si  Si8  1  0.832640  0.167360  0.000908  1
  Si  Si9  1  0.164981  0.835019  0.999041  1
  Si  Si10  1  0.334720  0.167360  0.000908  1
  Si  Si11  1  0.165707  0.834293  0.501180  1
  Si  Si12  1  0.670037  0.835019  0.999041  1
  Si  Si13  1  0.834925  0.165075  0.498494  1
  Si  Si14  1  0.832640  0.665280  0.000908  1
  Si  Si15  1  0.668586  0.834293  0.501180  1
  Si  Si16  1  0.164981  0.329963  0.999041  1
  Si  Si17  1  0.330150  0.165075  0.498494  1
  Si  Si18  1  0.165707  0.331414  0.501180  1
  Si  Si19  1  0.834925  0.669850  0.498494  1
  Ir  Ir20  1  0.666667  0.333333  0.995903  1
  Pd  Pd21  1  0.333333  0.666667  0.004615  1
  Pd  Pd22  1  0.333333  0.666667  0.496122  1
  Pd  Pd23  1  0.666667  0.333333  0.504079  1
