# generated using pymatgen
data_Er7Th(Si4W3)4
_symmetry_space_group_name_H-M   'P 1'
_cell_length_a   6.76833025
_cell_length_b   6.92929136
_cell_length_c   12.92358936
_cell_angle_alpha   89.89113857
_cell_angle_beta   90.02139577
_cell_angle_gamma   90.01706813
_symmetry_Int_Tables_number   1
_chemical_formula_structural   Er7Th(Si4W3)4
_chemical_formula_sum   'Er7 Th1 Si16 W12'
_cell_volume   606.11171903
_cell_formula_units_Z   1
loop_
 _symmetry_equiv_pos_site_id
 _symmetry_equiv_pos_as_xyz
  1  'x, y, z'
loop_
 _atom_site_type_symbol
 _atom_site_label
 _atom_site_symmetry_multiplicity
 _atom_site_fract_x
 _atom_site_fract_y
 _atom_site_fract_z
 _atom_site_occupancy
  Er  Er0  1  0.494508  0.667899  0.593197  1
  Er  Er1  1  0.995313  0.832544  0.907010  1
  Er  Er2  1  0.504541  0.331971  0.093875  1
  Er  Er3  1  0.004830  0.167713  0.404076  1
  Er  Er4  1  0.505149  0.332269  0.404373  1
  Er  Er5  1  0.004198  0.168058  0.093705  1
  Er  Er6  1  0.495702  0.667174  0.908898  1
  Th  Th7  1  0.996827  0.832027  0.593179  1
  Si  Si8  1  0.660177  0.958909  0.450902  1
  Si  Si9  1  0.161896  0.541254  0.046982  1
  Si  Si10  1  0.337956  0.041251  0.953942  1
  Si  Si11  1  0.834229  0.450651  0.544862  1
  Si  Si12  1  0.344358  0.047060  0.544870  1
  Si  Si13  1  0.839138  0.459366  0.953546  1
  Si  Si14  1  0.661411  0.958550  0.046986  1
  Si  Si15  1  0.164488  0.537704  0.451169  1
  Si  Si16  1  0.463969  0.371014  0.750435  1
  Si  Si17  1  0.962574  0.133885  0.753185  1
  Si  Si18  1  0.536122  0.629509  0.249046  1
  Si  Si19  1  0.036524  0.870846  0.249274  1
  Si  Si20  1  0.690701  0.866932  0.753264  1
  Si  Si21  1  0.200856  0.629727  0.753670  1
  Si  Si22  1  0.303550  0.133889  0.249162  1
  Si  Si23  1  0.802655  0.366085  0.248869  1
  W  W24  1  0.667180  0.162634  0.626880  1
  W  W25  1  0.168482  0.335904  0.876389  1
  W  W26  1  0.331648  0.835982  0.124800  1
  W  W27  1  0.832986  0.663021  0.373887  1
  W  W28  1  0.333011  0.836716  0.373982  1
  W  W29  1  0.833693  0.664054  0.124888  1
  W  W30  1  0.665935  0.165721  0.876210  1
  W  W31  1  0.166883  0.337411  0.626111  1
  W  W32  1  0.833354  0.502798  0.749433  1
  W  W33  1  0.332526  0.000230  0.750015  1
  W  W34  1  0.166128  0.498949  0.249781  1
  W  W35  1  0.666504  0.000294  0.249145  1
