# generated using pymatgen
data_YTm(Tc2P)4
_symmetry_space_group_name_H-M   'P 1'
_cell_length_a   3.94795100
_cell_length_b   7.40331418
_cell_length_c   7.40331418
_cell_angle_alpha   89.81958354
_cell_angle_beta   90.00000000
_cell_angle_gamma   90.00000000
_symmetry_Int_Tables_number   1
_chemical_formula_structural   YTm(Tc2P)4
_chemical_formula_sum   'Y1 Tm1 Tc8 P4'
_cell_volume   216.38241358
_cell_formula_units_Z   1
loop_
 _symmetry_equiv_pos_site_id
 _symmetry_equiv_pos_as_xyz
  1  'x, y, z'
loop_
 _atom_site_type_symbol
 _atom_site_label
 _atom_site_symmetry_multiplicity
 _atom_site_fract_x
 _atom_site_fract_y
 _atom_site_fract_z
 _atom_site_occupancy
  Y  Y0  1  0.000000  0.500000  0.500000  1
  Tm  Tm1  1  0.500000  0.000000  0.000000  1
  Tc  Tc2  1  0.500000  0.160047  0.583120  1
  Tc  Tc3  1  0.500000  0.839953  0.416880  1
  Tc  Tc4  1  0.000000  0.338358  0.082251  1
  Tc  Tc5  1  0.000000  0.661642  0.917749  1
  Tc  Tc6  1  0.500000  0.583120  0.160047  1
  Tc  Tc7  1  0.500000  0.416880  0.839953  1
  Tc  Tc8  1  0.000000  0.082251  0.338358  1
  Tc  Tc9  1  0.000000  0.917749  0.661642  1
  P  P10  1  0.500000  0.712534  0.712534  1
  P  P11  1  0.500000  0.287466  0.287466  1
  P  P12  1  0.000000  0.789069  0.210931  1
  P  P13  1  0.000000  0.210931  0.789069  1
