# generated using pymatgen
data_CeDy(MnAl5)4
_symmetry_space_group_name_H-M   'P 1'
_cell_length_a   6.81900597
_cell_length_b   6.81900511
_cell_length_c   9.07422600
_cell_angle_alpha   90.00000000
_cell_angle_beta   90.00000000
_cell_angle_gamma   97.41678691
_symmetry_Int_Tables_number   1
_chemical_formula_structural   CeDy(MnAl5)4
_chemical_formula_sum   'Ce1 Dy1 Mn4 Al20'
_cell_volume   418.41073437
_cell_formula_units_Z   1
loop_
 _symmetry_equiv_pos_site_id
 _symmetry_equiv_pos_as_xyz
  1  'x, y, z'
loop_
 _atom_site_type_symbol
 _atom_site_label
 _atom_site_symmetry_multiplicity
 _atom_site_fract_x
 _atom_site_fract_y
 _atom_site_fract_z
 _atom_site_occupancy
  Ce  Ce0  1  0.124985  0.875015  0.250000  1
  Dy  Dy1  1  0.874467  0.125533  0.750000  1
  Mn  Mn2  1  0.498371  0.999424  0.000015  1
  Mn  Mn3  1  0.498371  0.999424  0.499985  1
  Mn  Mn4  1  0.000576  0.501629  0.000015  1
  Mn  Mn5  1  0.000576  0.501629  0.499985  1
  Al  Al6  1  0.590829  0.867572  0.250000  1
  Al  Al7  1  0.781395  0.523248  0.250000  1
  Al  Al8  1  0.158091  0.841909  0.902482  1
  Al  Al9  1  0.411806  0.131698  0.750000  1
  Al  Al10  1  0.625599  0.374401  0.953778  1
  Al  Al11  1  0.841172  0.158828  0.402962  1
  Al  Al12  1  0.770955  0.771441  0.998860  1
  Al  Al13  1  0.868302  0.588194  0.750000  1
  Al  Al14  1  0.841172  0.158828  0.097038  1
  Al  Al15  1  0.218170  0.475614  0.750000  1
  Al  Al16  1  0.158091  0.841909  0.597518  1
  Al  Al17  1  0.770955  0.771441  0.501140  1
  Al  Al18  1  0.476752  0.218605  0.250000  1
  Al  Al19  1  0.625599  0.374401  0.546222  1
  Al  Al20  1  0.228559  0.229045  0.501140  1
  Al  Al21  1  0.374916  0.625084  0.452547  1
  Al  Al22  1  0.132428  0.409171  0.250000  1
  Al  Al23  1  0.524386  0.781830  0.750000  1
  Al  Al24  1  0.374916  0.625084  0.047453  1
  Al  Al25  1  0.228559  0.229045  0.998860  1
