# generated using pymatgen
data_Dy3ZnIn3HgPt
_symmetry_space_group_name_H-M   'P 1'
_cell_length_a   7.87333100
_cell_length_b   7.87333068
_cell_length_c   3.88398700
_cell_angle_alpha   90.00000000
_cell_angle_beta   90.00000000
_cell_angle_gamma   119.99999827
_symmetry_Int_Tables_number   1
_chemical_formula_structural   Dy3ZnIn3HgPt
_chemical_formula_sum   'Dy3 Zn1 In3 Hg1 Pt1'
_cell_volume   208.50928975
_cell_formula_units_Z   1
loop_
 _symmetry_equiv_pos_site_id
 _symmetry_equiv_pos_as_xyz
  1  'x, y, z'
loop_
 _atom_site_type_symbol
 _atom_site_label
 _atom_site_symmetry_multiplicity
 _atom_site_fract_x
 _atom_site_fract_y
 _atom_site_fract_z
 _atom_site_occupancy
  Dy  Dy0  1  0.611934  0.024401  0.500000  1
  Dy  Dy1  1  0.412468  0.388066  0.500000  1
  Dy  Dy2  1  0.975599  0.587532  0.500000  1
  Zn  Zn3  1  0.000000  0.000000  0.500000  1
  In  In4  1  0.743040  0.742243  0.000000  1
  In  In5  1  0.999203  0.256960  0.000000  1
  In  In6  1  0.257757  0.000797  0.000000  1
  Hg  Hg7  1  0.333333  0.666667  0.000000  1
  Pt  Pt8  1  0.666667  0.333333  0.000000  1
