# generated using pymatgen
data_Sr10As6O25
_symmetry_space_group_name_H-M   'P 1'
_cell_length_a   10.28770600
_cell_length_b   10.28770486
_cell_length_c   7.39980500
_cell_angle_alpha   90.00000000
_cell_angle_beta   90.00000000
_cell_angle_gamma   119.99999724
_symmetry_Int_Tables_number   1
_chemical_formula_structural   Sr10As6O25
_chemical_formula_sum   'Sr10 As6 O25'
_cell_volume   678.24712260
_cell_formula_units_Z   1
loop_
 _symmetry_equiv_pos_site_id
 _symmetry_equiv_pos_as_xyz
  1  'x, y, z'
loop_
 _atom_site_type_symbol
 _atom_site_label
 _atom_site_symmetry_multiplicity
 _atom_site_fract_x
 _atom_site_fract_y
 _atom_site_fract_z
 _atom_site_occupancy
  Sr  Sr0  1  0.333333  0.666667  0.502402  1
  Sr  Sr1  1  0.000000  0.000000  0.997487  1
  Sr  Sr2  1  0.000000  0.000000  0.501943  1
  Sr  Sr3  1  0.333333  0.666667  0.992989  1
  Sr  Sr4  1  0.672226  0.562731  0.748507  1
  Sr  Sr5  1  0.437269  0.109495  0.748507  1
  Sr  Sr6  1  0.890505  0.327774  0.748507  1
  Sr  Sr7  1  0.674181  0.062086  0.248796  1
  Sr  Sr8  1  0.937914  0.612095  0.248796  1
  Sr  Sr9  1  0.387905  0.325819  0.248796  1
  As  As10  1  0.049795  0.748681  0.748937  1
  As  As11  1  0.251319  0.301115  0.748937  1
  As  As12  1  0.698885  0.950205  0.748937  1
  As  As13  1  0.310792  0.948076  0.248918  1
  As  As14  1  0.051924  0.362716  0.248918  1
  As  As15  1  0.637284  0.689208  0.248918  1
  O  O16  1  0.936540  0.695230  0.560288  1
  O  O17  1  0.304770  0.241309  0.560288  1
  O  O18  1  0.758691  0.063460  0.560288  1
  O  O19  1  0.431876  0.011189  0.068035  1
  O  O20  1  0.988811  0.420686  0.068035  1
  O  O21  1  0.579314  0.568124  0.068035  1
  O  O22  1  0.429255  0.005175  0.432250  1
  O  O23  1  0.994825  0.424082  0.432250  1
  O  O24  1  0.575918  0.570745  0.432250  1
  O  O25  1  0.935139  0.692597  0.936318  1
  O  O26  1  0.307403  0.242542  0.936318  1
  O  O27  1  0.757458  0.064861  0.936318  1
  O  O28  1  0.143928  0.942090  0.750542  1
  O  O29  1  0.057910  0.201839  0.750542  1
  O  O30  1  0.798161  0.856072  0.750542  1
  O  O31  1  0.213841  0.752927  0.245989  1
  O  O32  1  0.247073  0.460915  0.245989  1
  O  O33  1  0.539085  0.786159  0.245989  1
  O  O34  1  0.167687  0.675981  0.748414  1
  O  O35  1  0.324019  0.491706  0.748414  1
  O  O36  1  0.508294  0.832313  0.748414  1
  O  O37  1  0.186462  0.014176  0.249574  1
  O  O38  1  0.985824  0.172285  0.249574  1
  O  O39  1  0.827715  0.813538  0.249574  1
  O  O40  1  0.666667  0.333333  0.743474  1
