# generated using pymatgen
data_Ho6Mn2Al5Pt16
_symmetry_space_group_name_H-M   'P 1'
_cell_length_a   8.96733299
_cell_length_b   8.96732339
_cell_length_c   8.94890100
_cell_angle_alpha   60.06794465
_cell_angle_beta   60.06785309
_cell_angle_gamma   59.86399634
_symmetry_Int_Tables_number   1
_chemical_formula_structural   Ho6Mn2Al5Pt16
_chemical_formula_sum   'Ho6 Mn2 Al5 Pt16'
_cell_volume   508.83443812
_cell_formula_units_Z   1
loop_
 _symmetry_equiv_pos_site_id
 _symmetry_equiv_pos_as_xyz
  1  'x, y, z'
loop_
 _atom_site_type_symbol
 _atom_site_label
 _atom_site_symmetry_multiplicity
 _atom_site_fract_x
 _atom_site_fract_y
 _atom_site_fract_z
 _atom_site_occupancy
  Ho  Ho0  1  0.713238  0.286762  0.286695  1
  Ho  Ho1  1  0.713239  0.286762  0.713296  1
  Ho  Ho2  1  0.712293  0.712292  0.287707  1
  Ho  Ho3  1  0.286762  0.713238  0.713305  1
  Ho  Ho4  1  0.286761  0.713238  0.286704  1
  Ho  Ho5  1  0.287707  0.287708  0.712293  1
  Mn  Mn6  1  0.500000  0.500000  0.000000  1
  Mn  Mn7  1  0.000000  0.000000  0.500000  1
  Al  Al8  1  0.000000  0.000000  0.000000  1
  Al  Al9  1  0.500000  0.000000  0.000000  1
  Al  Al10  1  0.500000  0.000000  0.500000  1
  Al  Al11  1  0.000000  0.500000  0.500000  1
  Al  Al12  1  0.000000  0.500000  0.000000  1
  Pt  Pt13  1  0.643547  0.120014  0.118219  1
  Pt  Pt14  1  0.120014  0.643547  0.118221  1
  Pt  Pt15  1  0.118161  0.118158  0.643594  1
  Pt  Pt16  1  0.118157  0.118161  0.120088  1
  Pt  Pt17  1  0.356453  0.879986  0.881781  1
  Pt  Pt18  1  0.879986  0.356453  0.881779  1
  Pt  Pt19  1  0.881839  0.881842  0.356406  1
  Pt  Pt20  1  0.881843  0.881839  0.879912  1
  Pt  Pt21  1  0.987864  0.340245  0.335944  1
  Pt  Pt22  1  0.340244  0.987863  0.335949  1
  Pt  Pt23  1  0.335879  0.335878  0.987836  1
  Pt  Pt24  1  0.335877  0.335880  0.340408  1
  Pt  Pt25  1  0.012136  0.659755  0.664056  1
  Pt  Pt26  1  0.659756  0.012137  0.664051  1
  Pt  Pt27  1  0.664121  0.664122  0.012164  1
  Pt  Pt28  1  0.664123  0.664120  0.659592  1
