# generated using pymatgen
data_YLu7In3Ni
_symmetry_space_group_name_H-M   'P 1'
_cell_length_a   10.21128700
_cell_length_b   10.21128866
_cell_length_c   6.86819100
_cell_angle_alpha   90.00000000
_cell_angle_beta   90.00000000
_cell_angle_gamma   120.00000434
_symmetry_Int_Tables_number   1
_chemical_formula_structural   YLu7In3Ni
_chemical_formula_sum   'Y2 Lu14 In6 Ni2'
_cell_volume   620.20321461
_cell_formula_units_Z   2
loop_
 _symmetry_equiv_pos_site_id
 _symmetry_equiv_pos_as_xyz
  1  'x, y, z'
loop_
 _atom_site_type_symbol
 _atom_site_label
 _atom_site_symmetry_multiplicity
 _atom_site_fract_x
 _atom_site_fract_y
 _atom_site_fract_z
 _atom_site_occupancy
  Y  Y0  1  0.000000  0.000000  0.498577  1
  Y  Y1  1  0.000000  0.000000  0.998577  1
  Lu  Lu2  1  0.466544  0.533456  0.479331  1
  Lu  Lu3  1  0.066914  0.533456  0.479331  1
  Lu  Lu4  1  0.466544  0.933086  0.479331  1
  Lu  Lu5  1  0.533456  0.466544  0.979331  1
  Lu  Lu6  1  0.933086  0.466544  0.979331  1
  Lu  Lu7  1  0.533456  0.066914  0.979331  1
  Lu  Lu8  1  0.820867  0.179133  0.277064  1
  Lu  Lu9  1  0.358266  0.179133  0.277064  1
  Lu  Lu10  1  0.820867  0.641734  0.277064  1
  Lu  Lu11  1  0.179133  0.820867  0.777064  1
  Lu  Lu12  1  0.641734  0.820867  0.777064  1
  Lu  Lu13  1  0.179133  0.358266  0.777064  1
  Lu  Lu14  1  0.333333  0.666667  0.092256  1
  Lu  Lu15  1  0.666667  0.333333  0.592256  1
  In  In16  1  0.163372  0.836628  0.235002  1
  In  In17  1  0.673254  0.836628  0.235002  1
  In  In18  1  0.163372  0.326746  0.235002  1
  In  In19  1  0.836628  0.163372  0.735002  1
  In  In20  1  0.326746  0.163372  0.735002  1
  In  In21  1  0.836628  0.673254  0.735002  1
  Ni  Ni22  1  0.333333  0.666667  0.707251  1
  Ni  Ni23  1  0.666667  0.333333  0.207251  1
