# generated using pymatgen
data_Nb2AlZnCo4
_symmetry_space_group_name_H-M   'P 1'
_cell_length_a   4.19727800
_cell_length_b   5.98963700
_cell_length_c   12.63036501
_cell_angle_alpha   90.00141554
_cell_angle_beta   90.00316213
_cell_angle_gamma   90.00019119
_symmetry_Int_Tables_number   1
_chemical_formula_structural   Nb2AlZnCo4
_chemical_formula_sum   'Nb6 Al3 Zn3 Co12'
_cell_volume   317.52954328
_cell_formula_units_Z   3
loop_
 _symmetry_equiv_pos_site_id
 _symmetry_equiv_pos_as_xyz
  1  'x, y, z'
loop_
 _atom_site_type_symbol
 _atom_site_label
 _atom_site_symmetry_multiplicity
 _atom_site_fract_x
 _atom_site_fract_y
 _atom_site_fract_z
 _atom_site_occupancy
  Nb  Nb0  1  0.000013  0.999855  0.997201  1
  Nb  Nb1  1  0.500106  0.500233  0.166663  1
  Nb  Nb2  1  0.000140  0.999855  0.336101  1
  Nb  Nb3  1  0.500017  0.499994  0.502827  1
  Nb  Nb4  1  0.999828  0.000010  0.666691  1
  Nb  Nb5  1  0.499873  0.500029  0.830501  1
  Al  Al6  1  0.000018  0.500051  0.999883  1
  Al  Al7  1  0.500057  0.999931  0.166696  1
  Al  Al8  1  0.000069  0.500034  0.333438  1
  Zn  Zn9  1  0.500030  0.000002  0.499466  1
  Zn  Zn10  1  0.999914  0.499994  0.666676  1
  Zn  Zn11  1  0.499927  0.000002  0.833855  1
  Co  Co12  1  0.500026  0.253661  0.000991  1
  Co  Co13  1  0.500027  0.746338  0.001016  1
  Co  Co14  1  0.000125  0.247461  0.166673  1
  Co  Co15  1  0.000125  0.752532  0.166678  1
  Co  Co16  1  0.500158  0.253604  0.332354  1
  Co  Co17  1  0.500159  0.746418  0.332331  1
  Co  Co18  1  0.000032  0.253154  0.499391  1
  Co  Co19  1  0.000030  0.746833  0.499368  1
  Co  Co20  1  0.499811  0.247050  0.666658  1
  Co  Co21  1  0.499807  0.752950  0.666653  1
  Co  Co22  1  0.999855  0.253182  0.833937  1
  Co  Co23  1  0.999854  0.746821  0.833951  1
