# generated using pymatgen
data_LaPr3Sc2(MoO6)2
_symmetry_space_group_name_H-M   'P 1'
_cell_length_a   5.66907041
_cell_length_b   5.89366732
_cell_length_c   8.14117987
_cell_angle_alpha   89.96270600
_cell_angle_beta   89.94097188
_cell_angle_gamma   90.00662669
_symmetry_Int_Tables_number   1
_chemical_formula_structural   LaPr3Sc2(MoO6)2
_chemical_formula_sum   'La1 Pr3 Sc2 Mo2 O12'
_cell_volume   272.00976381
_cell_formula_units_Z   1
loop_
 _symmetry_equiv_pos_site_id
 _symmetry_equiv_pos_as_xyz
  1  'x, y, z'
loop_
 _atom_site_type_symbol
 _atom_site_label
 _atom_site_symmetry_multiplicity
 _atom_site_fract_x
 _atom_site_fract_y
 _atom_site_fract_z
 _atom_site_occupancy
  La  La0  1  0.985837  0.053121  0.749892  1
  Pr  Pr1  1  0.516359  0.555952  0.750208  1
  Pr  Pr2  1  0.484126  0.443901  0.249789  1
  Pr  Pr3  1  0.016386  0.943294  0.250380  1
  Sc  Sc4  1  0.500255  0.000058  0.499150  1
  Sc  Sc5  1  0.999740  0.499578  0.000643  1
  Mo  Mo6  1  0.999748  0.499357  0.499830  1
  Mo  Mo7  1  0.500151  0.000316  0.000320  1
  O  O8  1  0.692701  0.297567  0.557594  1
  O  O9  1  0.889562  0.542568  0.247493  1
  O  O10  1  0.803844  0.794919  0.941715  1
  O  O11  1  0.110637  0.459464  0.752953  1
  O  O12  1  0.298159  0.697988  0.057173  1
  O  O13  1  0.201417  0.197291  0.442342  1
  O  O14  1  0.798075  0.801385  0.555803  1
  O  O15  1  0.393204  0.957576  0.747077  1
  O  O16  1  0.304290  0.704344  0.440494  1
  O  O17  1  0.195176  0.204144  0.060047  1
  O  O18  1  0.699211  0.304451  0.944538  1
  O  O19  1  0.611122  0.042727  0.252558  1
