# generated using pymatgen
data_Dy12Er3Pa(CdCo)4
_symmetry_space_group_name_H-M   'P 1'
_cell_length_a   9.43687489
_cell_length_b   9.53983069
_cell_length_c   9.44011142
_cell_angle_alpha   60.52662108
_cell_angle_beta   59.95168119
_cell_angle_gamma   60.45028493
_symmetry_Int_Tables_number   1
_chemical_formula_structural   Dy12Er3Pa(CdCo)4
_chemical_formula_sum   'Dy12 Er3 Pa1 Cd4 Co4'
_cell_volume   605.11329923
_cell_formula_units_Z   1
loop_
 _symmetry_equiv_pos_site_id
 _symmetry_equiv_pos_as_xyz
  1  'x, y, z'
loop_
 _atom_site_type_symbol
 _atom_site_label
 _atom_site_symmetry_multiplicity
 _atom_site_fract_x
 _atom_site_fract_y
 _atom_site_fract_z
 _atom_site_occupancy
  Dy  Dy0  1  0.544707  0.149213  0.152409  1
  Dy  Dy1  1  0.151375  0.149634  0.544395  1
  Dy  Dy2  1  0.937457  0.934433  0.563498  1
  Dy  Dy3  1  0.310326  0.691203  0.310039  1
  Dy  Dy4  1  0.563674  0.934702  0.938011  1
  Dy  Dy5  1  0.563558  0.936446  0.562887  1
  Dy  Dy6  1  0.687726  0.691528  0.312967  1
  Dy  Dy7  1  0.560825  0.560505  0.939651  1
  Dy  Dy8  1  0.938926  0.560581  0.938264  1
  Dy  Dy9  1  0.312185  0.692782  0.686951  1
  Dy  Dy10  1  0.153181  0.150143  0.154217  1
  Dy  Dy11  1  0.312609  0.312870  0.686620  1
  Er  Er12  1  0.685938  0.316355  0.685801  1
  Er  Er13  1  0.688695  0.312237  0.311795  1
  Er  Er14  1  0.940152  0.560174  0.559979  1
  Pa  Pa15  1  0.164655  0.504914  0.164683  1
  Cd  Cd16  1  0.919554  0.241670  0.919276  1
  Cd  Cd17  1  0.921237  0.916986  0.921576  1
  Cd  Cd18  1  0.921063  0.915010  0.244110  1
  Cd  Cd19  1  0.243404  0.915886  0.920684  1
  Co  Co20  1  0.343201  0.376728  0.936331  1
  Co  Co21  1  0.356864  0.923997  0.357123  1
  Co  Co22  1  0.935461  0.376287  0.344076  1
  Co  Co23  1  0.343228  0.375716  0.344656  1
