# generated using pymatgen
data_Dy20Si15Ir
_symmetry_space_group_name_H-M   'P 1'
_cell_length_a   7.44255659
_cell_length_b   7.68533773
_cell_length_c   14.60385294
_cell_angle_alpha   89.77642400
_cell_angle_beta   89.71657657
_cell_angle_gamma   90.21830687
_symmetry_Int_Tables_number   1
_chemical_formula_structural   Dy20Si15Ir
_chemical_formula_sum   'Dy20 Si15 Ir1'
_cell_volume   835.29666885
_cell_formula_units_Z   1
loop_
 _symmetry_equiv_pos_site_id
 _symmetry_equiv_pos_as_xyz
  1  'x, y, z'
loop_
 _atom_site_type_symbol
 _atom_site_label
 _atom_site_symmetry_multiplicity
 _atom_site_fract_x
 _atom_site_fract_y
 _atom_site_fract_z
 _atom_site_occupancy
  Dy  Dy0  1  0.648553  0.992578  0.248386  1
  Dy  Dy1  1  0.147999  0.511152  0.247578  1
  Dy  Dy2  1  0.847623  0.488545  0.758943  1
  Dy  Dy3  1  0.352704  0.010734  0.752636  1
  Dy  Dy4  1  0.972694  0.814491  0.096946  1
  Dy  Dy5  1  0.471298  0.682781  0.401409  1
  Dy  Dy6  1  0.531086  0.324156  0.901396  1
  Dy  Dy7  1  0.029371  0.184723  0.599346  1
  Dy  Dy8  1  0.027498  0.187085  0.902555  1
  Dy  Dy9  1  0.529981  0.317897  0.598735  1
  Dy  Dy10  1  0.475624  0.680874  0.098309  1
  Dy  Dy11  1  0.970352  0.817039  0.400744  1
  Dy  Dy12  1  0.683885  0.811798  0.882725  1
  Dy  Dy13  1  0.178872  0.681527  0.621752  1
  Dy  Dy14  1  0.817325  0.332714  0.119034  1
  Dy  Dy15  1  0.316599  0.178296  0.376062  1
  Dy  Dy16  1  0.320398  0.178383  0.123448  1
  Dy  Dy17  1  0.819343  0.319029  0.377209  1
  Dy  Dy18  1  0.175766  0.675817  0.878478  1
  Dy  Dy19  1  0.682528  0.818857  0.622437  1
  Si  Si20  1  0.764029  0.628950  0.252095  1
  Si  Si21  1  0.265971  0.872615  0.250730  1
  Si  Si22  1  0.733257  0.123631  0.748172  1
  Si  Si23  1  0.235787  0.373745  0.746350  1
  Si  Si24  1  0.020304  0.104791  0.249177  1
  Si  Si25  1  0.522942  0.396788  0.251316  1
  Si  Si26  1  0.471643  0.605887  0.745986  1
  Si  Si27  1  0.976921  0.898372  0.748098  1
  Si  Si28  1  0.354393  0.971889  0.539604  1
  Si  Si29  1  0.645629  0.026805  0.042142  1
  Si  Si30  1  0.147306  0.470337  0.460058  1
  Si  Si31  1  0.155347  0.472462  0.041320  1
  Si  Si32  1  0.643993  0.028372  0.459727  1
  Si  Si33  1  0.353409  0.969343  0.961305  1
  Si  Si34  1  0.854592  0.528848  0.538740  1
  Ir  Ir35  1  0.854980  0.518688  0.957051  1
