# generated using pymatgen
data_Y8ReOs(RuC4)2
_symmetry_space_group_name_H-M   'P 1'
_cell_length_a   5.12821500
_cell_length_b   6.51535557
_cell_length_c   9.82687335
_cell_angle_alpha   89.90959390
_cell_angle_beta   90.00000000
_cell_angle_gamma   90.00000000
_symmetry_Int_Tables_number   1
_chemical_formula_structural   Y8ReOs(RuC4)2
_chemical_formula_sum   'Y8 Re1 Os1 Ru2 C8'
_cell_volume   328.33650061
_cell_formula_units_Z   1
loop_
 _symmetry_equiv_pos_site_id
 _symmetry_equiv_pos_as_xyz
  1  'x, y, z'
loop_
 _atom_site_type_symbol
 _atom_site_label
 _atom_site_symmetry_multiplicity
 _atom_site_fract_x
 _atom_site_fract_y
 _atom_site_fract_z
 _atom_site_occupancy
  Y  Y0  1  0.750000  0.527761  0.784626  1
  Y  Y1  1  0.250000  0.971214  0.283769  1
  Y  Y2  1  0.750000  0.677270  0.445511  1
  Y  Y3  1  0.250000  0.819900  0.945307  1
  Y  Y4  1  0.750000  0.183532  0.054997  1
  Y  Y5  1  0.250000  0.323813  0.554552  1
  Y  Y6  1  0.250000  0.471095  0.218584  1
  Y  Y7  1  0.750000  0.029448  0.714339  1
  Re  Re8  1  0.750000  0.722686  0.134414  1
  Os  Os9  1  0.250000  0.277893  0.864116  1
  Ru  Ru10  1  0.250000  0.778052  0.636321  1
  Ru  Ru11  1  0.750000  0.222862  0.365804  1
  C  C12  1  0.250000  0.674331  0.449130  1
  C  C13  1  0.250000  0.541923  0.759910  1
  C  C14  1  0.750000  0.456951  0.238877  1
  C  C15  1  0.750000  0.821353  0.947400  1
  C  C16  1  0.250000  0.043779  0.743641  1
  C  C17  1  0.250000  0.176773  0.050667  1
  C  C18  1  0.750000  0.322864  0.551429  1
  C  C19  1  0.750000  0.956500  0.256608  1
