# generated using pymatgen
data_YErPa2Ge6Ir7
_symmetry_space_group_name_H-M   'P 1'
_cell_length_a   7.31761860
_cell_length_b   7.31761722
_cell_length_c   7.29779712
_cell_angle_alpha   109.45725010
_cell_angle_beta   109.45723730
_cell_angle_gamma   109.72248105
_symmetry_Int_Tables_number   1
_chemical_formula_structural   YErPa2Ge6Ir7
_chemical_formula_sum   'Y1 Er1 Pa2 Ge6 Ir7'
_cell_volume   299.98832651
_cell_formula_units_Z   1
loop_
 _symmetry_equiv_pos_site_id
 _symmetry_equiv_pos_as_xyz
  1  'x, y, z'
loop_
 _atom_site_type_symbol
 _atom_site_label
 _atom_site_symmetry_multiplicity
 _atom_site_fract_x
 _atom_site_fract_y
 _atom_site_fract_z
 _atom_site_occupancy
  Y  Y0  1  0.500000  0.500000  0.500000  1
  Er  Er1  1  0.000000  0.000000  0.500000  1
  Pa  Pa2  1  0.000000  0.500000  0.000000  1
  Pa  Pa3  1  0.500000  0.000000  0.000000  1
  Ge  Ge4  1  0.683837  0.683837  0.000492  1
  Ge  Ge5  1  0.316929  0.004839  0.322269  1
  Ge  Ge6  1  0.004839  0.316929  0.322269  1
  Ge  Ge7  1  0.316163  0.316163  0.999508  1
  Ge  Ge8  1  0.683071  0.995161  0.677731  1
  Ge  Ge9  1  0.995161  0.683071  0.677731  1
  Ir  Ir10  1  0.750680  0.249320  0.500000  1
  Ir  Ir11  1  0.750337  0.496357  0.245298  1
  Ir  Ir12  1  0.503643  0.249663  0.754702  1
  Ir  Ir13  1  0.249663  0.503643  0.754702  1
  Ir  Ir14  1  0.249320  0.750680  0.500000  1
  Ir  Ir15  1  0.496357  0.750337  0.245298  1
  Ir  Ir16  1  0.000000  0.000000  0.000000  1
