# generated using pymatgen
data_La3Ge2Ir
_symmetry_space_group_name_H-M   'P 1'
_cell_length_a   12.33143300
_cell_length_b   4.42838100
_cell_length_c   11.81116200
_cell_angle_alpha   90.00000000
_cell_angle_beta   90.00000000
_cell_angle_gamma   90.00000000
_symmetry_Int_Tables_number   1
_chemical_formula_structural   La3Ge2Ir
_chemical_formula_sum   'La12 Ge8 Ir4'
_cell_volume   644.98728414
_cell_formula_units_Z   4
loop_
 _symmetry_equiv_pos_site_id
 _symmetry_equiv_pos_as_xyz
  1  'x, y, z'
loop_
 _atom_site_type_symbol
 _atom_site_label
 _atom_site_symmetry_multiplicity
 _atom_site_fract_x
 _atom_site_fract_y
 _atom_site_fract_z
 _atom_site_occupancy
  La  La0  1  0.382992  0.249999  0.053961  1
  La  La1  1  0.057805  0.249999  0.126691  1
  La  La2  1  0.779032  0.749999  0.197477  1
  La  La3  1  0.279032  0.749999  0.302524  1
  La  La4  1  0.557805  0.249999  0.373309  1
  La  La5  1  0.882992  0.249999  0.446039  1
  La  La6  1  0.117008  0.749999  0.553961  1
  La  La7  1  0.442195  0.749999  0.626691  1
  La  La8  1  0.720968  0.249999  0.697477  1
  La  La9  1  0.220968  0.249999  0.802523  1
  La  La10  1  0.942195  0.749999  0.873309  1
  La  La11  1  0.617008  0.749999  0.946039  1
  Ge  Ge12  1  0.803502  0.249999  0.001663  1
  Ge  Ge13  1  0.519830  0.749999  0.188854  1
  Ge  Ge14  1  0.019830  0.749999  0.311145  1
  Ge  Ge15  1  0.303502  0.249999  0.498337  1
  Ge  Ge16  1  0.696498  0.749999  0.501662  1
  Ge  Ge17  1  0.980170  0.249999  0.688855  1
  Ge  Ge18  1  0.480171  0.249999  0.811145  1
  Ge  Ge19  1  0.196498  0.749999  0.998337  1
  Ir  Ir20  1  0.629487  0.249999  0.134927  1
  Ir  Ir21  1  0.129487  0.249999  0.365073  1
  Ir  Ir22  1  0.870513  0.749999  0.634927  1
  Ir  Ir23  1  0.370513  0.749999  0.865073  1
