# generated using pymatgen
data_Sm4P7Ir8
_symmetry_space_group_name_H-M   'P 1'
_cell_length_a   3.97337200
_cell_length_b   12.79403483
_cell_length_c   13.18996829
_cell_angle_alpha   80.78157152
_cell_angle_beta   90.00000000
_cell_angle_gamma   90.00000000
_symmetry_Int_Tables_number   1
_chemical_formula_structural   Sm4P7Ir8
_chemical_formula_sum   'Sm8 P14 Ir16'
_cell_volume   661.85822033
_cell_formula_units_Z   2
loop_
 _symmetry_equiv_pos_site_id
 _symmetry_equiv_pos_as_xyz
  1  'x, y, z'
loop_
 _atom_site_type_symbol
 _atom_site_label
 _atom_site_symmetry_multiplicity
 _atom_site_fract_x
 _atom_site_fract_y
 _atom_site_fract_z
 _atom_site_occupancy
  Sm  Sm0  1  0.750000  0.790759  0.561270  1
  Sm  Sm1  1  0.250000  0.209241  0.438730  1
  Sm  Sm2  1  0.750000  0.480558  0.706229  1
  Sm  Sm3  1  0.250000  0.519442  0.293771  1
  Sm  Sm4  1  0.750000  0.720206  0.897209  1
  Sm  Sm5  1  0.250000  0.102645  0.789324  1
  Sm  Sm6  1  0.750000  0.897355  0.210676  1
  Sm  Sm7  1  0.250000  0.279794  0.102791  1
  P  P8  1  0.250000  0.908169  0.410432  1
  P  P9  1  0.750000  0.473121  0.128474  1
  P  P10  1  0.250000  0.526879  0.871526  1
  P  P11  1  0.750000  0.091831  0.589568  1
  P  P12  1  0.250000  0.741785  0.080394  1
  P  P13  1  0.750000  0.258215  0.919606  1
  P  P14  1  0.750000  0.156639  0.281804  1
  P  P15  1  0.250000  0.843361  0.718196  1
  P  P16  1  0.250000  0.052119  0.099443  1
  P  P17  1  0.750000  0.947881  0.900557  1
  P  P18  1  0.250000  0.312636  0.689196  1
  P  P19  1  0.750000  0.687364  0.310804  1
  P  P20  1  0.250000  0.607354  0.564571  1
  P  P21  1  0.750000  0.392646  0.435429  1
  Ir  Ir22  1  0.250000  0.989975  0.576592  1
  Ir  Ir23  1  0.750000  0.010025  0.423408  1
  Ir  Ir24  1  0.250000  0.662522  0.731008  1
  Ir  Ir25  1  0.750000  0.337478  0.268992  1
  Ir  Ir26  1  0.250000  0.553274  0.046132  1
  Ir  Ir27  1  0.750000  0.446726  0.953868  1
  Ir  Ir28  1  0.250000  0.061465  0.272181  1
  Ir  Ir29  1  0.750000  0.938535  0.727819  1
  Ir  Ir30  1  0.250000  0.422459  0.525939  1
  Ir  Ir31  1  0.750000  0.577541  0.474061  1
  Ir  Ir32  1  0.250000  0.915122  0.997966  1
  Ir  Ir33  1  0.750000  0.084878  0.002034  1
  Ir  Ir34  1  0.250000  0.729521  0.394168  1
  Ir  Ir35  1  0.750000  0.270479  0.605832  1
  Ir  Ir36  1  0.250000  0.341434  0.858639  1
  Ir  Ir37  1  0.750000  0.658566  0.141361  1
