# generated using pymatgen
data_K3P2AuS8
_symmetry_space_group_name_H-M   'P 1'
_cell_length_a   7.08725482
_cell_length_b   7.08725379
_cell_length_c   17.96466255
_cell_angle_alpha   87.13055548
_cell_angle_beta   87.13055824
_cell_angle_gamma   120.85056935
_symmetry_Int_Tables_number   1
_chemical_formula_structural   K3P2AuS8
_chemical_formula_sum   'K6 P4 Au2 S16'
_cell_volume   770.67945629
_cell_formula_units_Z   2
loop_
 _symmetry_equiv_pos_site_id
 _symmetry_equiv_pos_as_xyz
  1  'x, y, z'
loop_
 _atom_site_type_symbol
 _atom_site_label
 _atom_site_symmetry_multiplicity
 _atom_site_fract_x
 _atom_site_fract_y
 _atom_site_fract_z
 _atom_site_occupancy
  K  K0  1  0.498063  0.361116  0.107639  1
  K  K1  1  0.361116  0.498063  0.607639  1
  K  K2  1  0.898979  0.690531  0.754297  1
  K  K3  1  0.690531  0.898979  0.254297  1
  K  K4  1  0.580943  0.030774  0.895564  1
  K  K5  1  0.030774  0.580943  0.395564  1
  P  P6  1  0.299394  0.428269  0.879359  1
  P  P7  1  0.428269  0.299394  0.379359  1
  P  P8  1  0.218346  0.684924  0.122178  1
  P  P9  1  0.684924  0.218346  0.622178  1
  Au  Au10  1  0.055528  0.955038  0.999497  1
  Au  Au11  1  0.955038  0.055528  0.499497  1
  S  S12  1  0.508973  0.178512  0.718551  1
  S  S13  1  0.178512  0.508973  0.218551  1
  S  S14  1  0.085212  0.087840  0.875667  1
  S  S15  1  0.087840  0.085212  0.375667  1
  S  S16  1  0.326925  0.605064  0.784389  1
  S  S17  1  0.605064  0.326925  0.284389  1
  S  S18  1  0.582293  0.502297  0.921866  1
  S  S19  1  0.502297  0.582293  0.421866  1
  S  S20  1  0.108614  0.535161  0.944546  1
  S  S21  1  0.535161  0.108614  0.444546  1
  S  S22  1  0.063060  0.406282  0.054246  1
  S  S23  1  0.406282  0.063060  0.554246  1
  S  S24  1  0.528986  0.905344  0.082512  1
  S  S25  1  0.905344  0.528986  0.582512  1
  S  S26  1  0.012911  0.817404  0.123391  1
  S  S27  1  0.817404  0.012911  0.623391  1
