# generated using pymatgen
data_CaPrMgTaO6
_symmetry_space_group_name_H-M   'P 1'
_cell_length_a   5.71698000
_cell_length_b   5.54502674
_cell_length_c   9.66191730
_cell_angle_alpha   55.11836375
_cell_angle_beta   90.00000000
_cell_angle_gamma   90.00000000
_symmetry_Int_Tables_number   1
_chemical_formula_structural   CaPrMgTaO6
_chemical_formula_sum   'Ca2 Pr2 Mg2 Ta2 O12'
_cell_volume   251.26094399
_cell_formula_units_Z   2
loop_
 _symmetry_equiv_pos_site_id
 _symmetry_equiv_pos_as_xyz
  1  'x, y, z'
loop_
 _atom_site_type_symbol
 _atom_site_label
 _atom_site_symmetry_multiplicity
 _atom_site_fract_x
 _atom_site_fract_y
 _atom_site_fract_z
 _atom_site_occupancy
  Ca  Ca0  1  0.797913  0.759459  0.749891  1
  Ca  Ca1  1  0.202087  0.759459  0.249891  1
  Pr  Pr2  1  0.304022  0.235571  0.752162  1
  Pr  Pr3  1  0.695978  0.235571  0.252162  1
  Mg  Mg4  1  0.247174  0.998780  0.499959  1
  Mg  Mg5  1  0.752826  0.998780  0.999959  1
  Ta  Ta6  1  0.756178  0.498715  0.500989  1
  Ta  Ta7  1  0.243822  0.498715  0.000989  1
  O  O8  1  0.783140  0.651213  0.256103  1
  O  O9  1  0.044326  0.259005  0.549261  1
  O  O10  1  0.052817  0.839403  0.953327  1
  O  O11  1  0.556199  0.162832  0.546191  1
  O  O12  1  0.535222  0.746313  0.948443  1
  O  O13  1  0.278846  0.348709  0.243673  1
  O  O14  1  0.216860  0.651213  0.756103  1
  O  O15  1  0.955674  0.259005  0.049261  1
  O  O16  1  0.947183  0.839403  0.453327  1
  O  O17  1  0.443801  0.162832  0.046191  1
  O  O18  1  0.464778  0.746313  0.448443  1
  O  O19  1  0.721154  0.348709  0.743673  1
