# generated using pymatgen
data_SrS35
_symmetry_space_group_name_H-M   'P 1'
_cell_length_a   18.52378684
_cell_length_b   7.82951685
_cell_length_c   10.39886355
_cell_angle_alpha   65.09488437
_cell_angle_beta   94.02866647
_cell_angle_gamma   93.65114078
_symmetry_Int_Tables_number   1
_chemical_formula_structural   SrS35
_chemical_formula_sum   'Sr1 S35'
_cell_volume   1363.57153454
_cell_formula_units_Z   1
loop_
 _symmetry_equiv_pos_site_id
 _symmetry_equiv_pos_as_xyz
  1  'x, y, z'
loop_
 _atom_site_type_symbol
 _atom_site_label
 _atom_site_symmetry_multiplicity
 _atom_site_fract_x
 _atom_site_fract_y
 _atom_site_fract_z
 _atom_site_occupancy
  Sr  Sr0  1  0.813132  0.225024  0.122317  1
  S  S1  1  0.344353  0.915297  0.760918  1
  S  S2  1  0.366920  0.690073  0.238824  1
  S  S3  1  0.850047  0.165605  0.784136  1
  S  S4  1  0.976346  0.861647  0.960103  1
  S  S5  1  0.565415  0.273865  0.898905  1
  S  S6  1  0.992316  0.324951  0.252056  1
  S  S7  1  0.486298  0.875580  0.575747  1
  S  S8  1  0.745221  0.786216  0.454237  1
  S  S9  1  0.277140  0.410317  0.568894  1
  S  S10  1  0.221625  0.902755  0.045192  1
  S  S11  1  0.730950  0.844953  0.253778  1
  S  S12  1  0.841868  0.949643  0.490415  1
  S  S13  1  0.533353  0.129774  0.105738  1
  S  S14  1  0.673634  0.217019  0.286129  1
  S  S15  1  0.230382  0.457970  0.718433  1
  S  S16  1  0.966405  0.071469  0.243481  1
  S  S17  1  0.456227  0.980175  0.699727  1
  S  S18  1  0.893822  0.378777  0.834285  1
  S  S19  1  0.292789  0.919129  0.574381  1
  S  S20  1  0.443716  0.299673  0.545119  1
  S  S21  1  0.444545  0.749528  0.091246  1
  S  S22  1  0.727676  0.508015  0.896186  1
  S  S23  1  0.179658  0.443037  0.175981  1
  S  S24  1  0.935760  0.868540  0.449196  1
  S  S25  1  0.153926  0.677360  0.180070  1
  S  S26  1  0.683774  0.035799  0.480823  1
  S  S27  1  0.204298  0.745992  0.634403  1
  S  S28  1  0.011849  0.317946  0.853573  1
  S  S29  1  0.537969  0.843761  0.165872  1
  S  S30  1  0.860474  0.915095  0.959625  1
  S  S31  1  0.303401  0.919956  0.183920  1
  S  S32  1  0.902411  0.484314  0.210115  1
  S  S33  1  0.390824  0.427371  0.634121  1
  S  S34  1  0.676721  0.279128  0.880572  1
  S  S35  1  0.008520  0.104246  0.791484  1
