# generated using pymatgen
data_BaNd(AsPd)2
_symmetry_space_group_name_H-M   'P 1'
_cell_length_a   4.39063600
_cell_length_b   4.39063573
_cell_length_c   8.76010400
_cell_angle_alpha   90.00000000
_cell_angle_beta   90.00000000
_cell_angle_gamma   120.00000205
_symmetry_Int_Tables_number   1
_chemical_formula_structural   BaNd(AsPd)2
_chemical_formula_sum   'Ba1 Nd1 As2 Pd2'
_cell_volume   146.24961310
_cell_formula_units_Z   1
loop_
 _symmetry_equiv_pos_site_id
 _symmetry_equiv_pos_as_xyz
  1  'x, y, z'
loop_
 _atom_site_type_symbol
 _atom_site_label
 _atom_site_symmetry_multiplicity
 _atom_site_fract_x
 _atom_site_fract_y
 _atom_site_fract_z
 _atom_site_occupancy
  Ba  Ba0  1  0.000000  0.000000  0.499201  1
  Nd  Nd1  1  0.000000  0.000000  0.999954  1
  As  As2  1  0.666667  0.333333  0.227941  1
  As  As3  1  0.333333  0.666667  0.779379  1
  Pd  Pd4  1  0.333333  0.666667  0.220725  1
  Pd  Pd5  1  0.666667  0.333333  0.771402  1
