# generated using pymatgen
data_V2FeS6
_symmetry_space_group_name_H-M   'P 1'
_cell_length_a   5.33222542
_cell_length_b   5.33222608
_cell_length_c   6.53609500
_cell_angle_alpha   82.25133001
_cell_angle_beta   82.25132904
_cell_angle_gamma   119.95727354
_symmetry_Int_Tables_number   1
_chemical_formula_structural   V2FeS6
_chemical_formula_sum   'V2 Fe1 S6'
_cell_volume   155.05351473
_cell_formula_units_Z   1
loop_
 _symmetry_equiv_pos_site_id
 _symmetry_equiv_pos_as_xyz
  1  'x, y, z'
loop_
 _atom_site_type_symbol
 _atom_site_label
 _atom_site_symmetry_multiplicity
 _atom_site_fract_x
 _atom_site_fract_y
 _atom_site_fract_z
 _atom_site_occupancy
  V  V0  1  0.833208  0.499724  0.499906  1
  V  V1  1  0.499724  0.833208  0.499906  1
  Fe  Fe2  1  0.166845  0.166845  0.500142  1
  S  S3  1  0.568190  0.243719  0.266205  1
  S  S4  1  0.243719  0.568190  0.266205  1
  S  S5  1  0.919355  0.919355  0.266961  1
  S  S6  1  0.765664  0.765664  0.733674  1
  S  S7  1  0.413919  0.089280  0.733650  1
  S  S8  1  0.089280  0.413919  0.733650  1
