# generated using pymatgen
data_Pr4ScUS10
_symmetry_space_group_name_H-M   'P 1'
_cell_length_a   7.53620500
_cell_length_b   8.01621300
_cell_length_c   11.92081400
_cell_angle_alpha   90.00000000
_cell_angle_beta   90.00000000
_cell_angle_gamma   90.00000000
_symmetry_Int_Tables_number   1
_chemical_formula_structural   Pr4ScUS10
_chemical_formula_sum   'Pr8 Sc2 U2 S20'
_cell_volume   720.15812317
_cell_formula_units_Z   2
loop_
 _symmetry_equiv_pos_site_id
 _symmetry_equiv_pos_as_xyz
  1  'x, y, z'
loop_
 _atom_site_type_symbol
 _atom_site_label
 _atom_site_symmetry_multiplicity
 _atom_site_fract_x
 _atom_site_fract_y
 _atom_site_fract_z
 _atom_site_occupancy
  Pr  Pr0  1  0.529644  0.503659  0.323427  1
  Pr  Pr1  1  0.970356  0.996341  0.823427  1
  Pr  Pr2  1  0.474381  0.996630  0.676166  1
  Pr  Pr3  1  0.025619  0.503370  0.176166  1
  Pr  Pr4  1  0.474381  0.503370  0.676166  1
  Pr  Pr5  1  0.025619  0.996630  0.176166  1
  Pr  Pr6  1  0.529644  0.996341  0.323427  1
  Pr  Pr7  1  0.970356  0.503659  0.823427  1
  Sc  Sc8  1  0.069722  0.750000  0.496247  1
  Sc  Sc9  1  0.430278  0.750000  0.996247  1
  U  U10  1  0.943672  0.250000  0.506563  1
  U  U11  1  0.556328  0.250000  0.006563  1
  S  S12  1  0.838997  0.963102  0.591924  1
  S  S13  1  0.661003  0.536898  0.091924  1
  S  S14  1  0.160086  0.466543  0.409805  1
  S  S15  1  0.339914  0.033457  0.909805  1
  S  S16  1  0.160086  0.033457  0.409805  1
  S  S17  1  0.339914  0.466543  0.909805  1
  S  S18  1  0.838997  0.536898  0.591924  1
  S  S19  1  0.661003  0.963102  0.091924  1
  S  S20  1  0.837843  0.750000  0.317455  1
  S  S21  1  0.662157  0.750000  0.817455  1
  S  S22  1  0.167167  0.250000  0.685984  1
  S  S23  1  0.332833  0.250000  0.185984  1
  S  S24  1  0.446288  0.750000  0.495832  1
  S  S25  1  0.053712  0.750000  0.995832  1
  S  S26  1  0.552178  0.250000  0.500398  1
  S  S27  1  0.947822  0.250000  0.000398  1
  S  S28  1  0.184850  0.750000  0.704894  1
  S  S29  1  0.315150  0.750000  0.204894  1
  S  S30  1  0.811999  0.250000  0.289983  1
  S  S31  1  0.688001  0.250000  0.789983  1
