# generated using pymatgen
data_Er3Zr2SnSb2
_symmetry_space_group_name_H-M   'P 1'
_cell_length_a   8.77445425
_cell_length_b   8.78257160
_cell_length_c   6.01342700
_cell_angle_alpha   90.00000000
_cell_angle_beta   90.00000000
_cell_angle_gamma   120.03060687
_symmetry_Int_Tables_number   1
_chemical_formula_structural   Er3Zr2SnSb2
_chemical_formula_sum   'Er6 Zr4 Sn2 Sb4'
_cell_volume   401.19957319
_cell_formula_units_Z   2
loop_
 _symmetry_equiv_pos_site_id
 _symmetry_equiv_pos_as_xyz
  1  'x, y, z'
loop_
 _atom_site_type_symbol
 _atom_site_label
 _atom_site_symmetry_multiplicity
 _atom_site_fract_x
 _atom_site_fract_y
 _atom_site_fract_z
 _atom_site_occupancy
  Er  Er0  1  0.753080  0.754452  0.750000  1
  Er  Er1  1  0.246920  0.001371  0.750000  1
  Er  Er2  1  0.000000  0.246843  0.750000  1
  Er  Er3  1  0.246348  0.245001  0.250000  1
  Er  Er4  1  0.753652  0.998653  0.250000  1
  Er  Er5  1  0.000000  0.752237  0.250000  1
  Zr  Zr6  1  0.667418  0.333856  0.999197  1
  Zr  Zr7  1  0.332582  0.666440  0.999197  1
  Zr  Zr8  1  0.332582  0.666440  0.500803  1
  Zr  Zr9  1  0.667418  0.333856  0.500803  1
  Sn  Sn10  1  0.396005  0.396379  0.750000  1
  Sn  Sn11  1  0.603995  0.000374  0.750000  1
  Sb  Sb12  1  0.000000  0.606360  0.750000  1
  Sb  Sb13  1  0.603539  0.603641  0.250000  1
  Sb  Sb14  1  0.396461  0.000103  0.250000  1
  Sb  Sb15  1  0.000000  0.393993  0.250000  1
