# generated using pymatgen
data_YHo3(AgAu)4
_symmetry_space_group_name_H-M   'P 1'
_cell_length_a   3.89840500
_cell_length_b   7.55222925
_cell_length_c   8.94556111
_cell_angle_alpha   90.05614012
_cell_angle_beta   90.00000000
_cell_angle_gamma   90.00000000
_symmetry_Int_Tables_number   1
_chemical_formula_structural   YHo3(AgAu)4
_chemical_formula_sum   'Y1 Ho3 Ag4 Au4'
_cell_volume   263.37193722
_cell_formula_units_Z   1
loop_
 _symmetry_equiv_pos_site_id
 _symmetry_equiv_pos_as_xyz
  1  'x, y, z'
loop_
 _atom_site_type_symbol
 _atom_site_label
 _atom_site_symmetry_multiplicity
 _atom_site_fract_x
 _atom_site_fract_y
 _atom_site_fract_z
 _atom_site_occupancy
  Y  Y0  1  0.250000  0.081406  0.293168  1
  Ho  Ho1  1  0.250000  0.581445  0.206489  1
  Ho  Ho2  1  0.750000  0.918314  0.706774  1
  Ho  Ho3  1  0.750000  0.418701  0.793549  1
  Ag  Ag4  1  0.250000  0.120651  0.930438  1
  Ag  Ag5  1  0.250000  0.620422  0.569191  1
  Ag  Ag6  1  0.750000  0.878807  0.068900  1
  Ag  Ag7  1  0.750000  0.379833  0.431096  1
  Au  Au8  1  0.250000  0.204443  0.617522  1
  Au  Au9  1  0.250000  0.704349  0.883270  1
  Au  Au10  1  0.750000  0.794563  0.383917  1
  Au  Au11  1  0.750000  0.297064  0.115684  1
