# generated using pymatgen
data_Ho4Al2Os5W
_symmetry_space_group_name_H-M   'P 1'
_cell_length_a   5.29100112
_cell_length_b   5.31829320
_cell_length_c   8.87500500
_cell_angle_alpha   90.00000000
_cell_angle_beta   90.00000000
_cell_angle_gamma   118.03918921
_symmetry_Int_Tables_number   1
_chemical_formula_structural   Ho4Al2Os5W
_chemical_formula_sum   'Ho4 Al2 Os5 W1'
_cell_volume   220.42233016
_cell_formula_units_Z   1
loop_
 _symmetry_equiv_pos_site_id
 _symmetry_equiv_pos_as_xyz
  1  'x, y, z'
loop_
 _atom_site_type_symbol
 _atom_site_label
 _atom_site_symmetry_multiplicity
 _atom_site_fract_x
 _atom_site_fract_y
 _atom_site_fract_z
 _atom_site_occupancy
  Ho  Ho0  1  0.327314  0.669893  0.433439  1
  Ho  Ho1  1  0.661511  0.329379  0.557548  1
  Ho  Ho2  1  0.661511  0.329379  0.942452  1
  Ho  Ho3  1  0.327314  0.669893  0.066561  1
  Al  Al4  1  0.184118  0.840819  0.750000  1
  Al  Al5  1  0.180046  0.341964  0.750000  1
  Os  Os6  1  0.982839  0.002785  0.506187  1
  Os  Os7  1  0.982839  0.002785  0.993813  1
  Os  Os8  1  0.827545  0.651717  0.250000  1
  Os  Os9  1  0.351656  0.172883  0.250000  1
  Os  Os10  1  0.672297  0.827473  0.750000  1
  W  W11  1  0.841010  0.161032  0.250000  1
