# generated using pymatgen
data_U3Fe5(CoC)2
_symmetry_space_group_name_H-M   'P 1'
_cell_length_a   5.00062088
_cell_length_b   4.97867530
_cell_length_c   13.38104962
_cell_angle_alpha   89.64766504
_cell_angle_beta   90.17538905
_cell_angle_gamma   119.85493559
_symmetry_Int_Tables_number   1
_chemical_formula_structural   U3Fe5(CoC)2
_chemical_formula_sum   'U6 Fe10 Co4 C4'
_cell_volume   288.92379913
_cell_formula_units_Z   2
loop_
 _symmetry_equiv_pos_site_id
 _symmetry_equiv_pos_as_xyz
  1  'x, y, z'
loop_
 _atom_site_type_symbol
 _atom_site_label
 _atom_site_symmetry_multiplicity
 _atom_site_fract_x
 _atom_site_fract_y
 _atom_site_fract_z
 _atom_site_occupancy
  U  U0  1  0.333186  0.666509  0.251022  1
  U  U1  1  0.666814  0.333321  0.751022  1
  U  U2  1  0.335754  0.672210  0.027245  1
  U  U3  1  0.664246  0.336455  0.527245  1
  U  U4  1  0.665164  0.330717  0.969150  1
  U  U5  1  0.334836  0.665554  0.469150  1
  Fe  Fe6  1  0.671345  0.836171  0.650895  1
  Fe  Fe7  1  0.328655  0.164825  0.150895  1
  Fe  Fe8  1  0.835066  0.165029  0.150548  1
  Fe  Fe9  1  0.163556  0.326986  0.849514  1
  Fe  Fe10  1  0.164396  0.834408  0.849490  1
  Fe  Fe11  1  0.164934  0.329964  0.650548  1
  Fe  Fe12  1  0.670706  0.834592  0.849437  1
  Fe  Fe13  1  0.329294  0.163885  0.349437  1
  Fe  Fe14  1  0.835604  0.670012  0.349490  1
  Fe  Fe15  1  0.836444  0.163429  0.349514  1
  Co  Co16  1  0.999536  0.999426  0.000566  1
  Co  Co17  1  0.000464  0.999890  0.500566  1
  Co  Co18  1  0.834723  0.670340  0.151393  1
  Co  Co19  1  0.165277  0.835619  0.651393  1
  C  C20  1  0.001676  0.003169  0.250327  1
  C  C21  1  0.998324  0.001493  0.750327  1
  C  C22  1  0.334999  0.665498  0.750414  1
  C  C23  1  0.665001  0.330498  0.250414  1
