# generated using pymatgen
data_LiErLu5Co17P12
_symmetry_space_group_name_H-M   'P 1'
_cell_length_a   3.67197300
_cell_length_b   10.48288600
_cell_length_c   12.08996300
_cell_angle_alpha   90.00000000
_cell_angle_beta   90.00000000
_cell_angle_gamma   90.00000000
_symmetry_Int_Tables_number   1
_chemical_formula_structural   LiErLu5Co17P12
_chemical_formula_sum   'Li1 Er1 Lu5 Co17 P12'
_cell_volume   465.37742670
_cell_formula_units_Z   1
loop_
 _symmetry_equiv_pos_site_id
 _symmetry_equiv_pos_as_xyz
  1  'x, y, z'
loop_
 _atom_site_type_symbol
 _atom_site_label
 _atom_site_symmetry_multiplicity
 _atom_site_fract_x
 _atom_site_fract_y
 _atom_site_fract_z
 _atom_site_occupancy
  Li  Li0  1  0.000000  0.000000  0.846367  1
  Er  Er1  1  0.000000  0.500000  0.522824  1
  Lu  Lu2  1  0.500000  0.000000  0.476797  1
  Lu  Lu3  1  0.500000  0.818753  0.205692  1
  Lu  Lu4  1  0.500000  0.181247  0.205692  1
  Lu  Lu5  1  0.000000  0.679880  0.793661  1
  Lu  Lu6  1  0.000000  0.320120  0.793661  1
  Co  Co7  1  0.500000  0.500000  0.160355  1
  Co  Co8  1  0.500000  0.500000  0.704173  1
  Co  Co9  1  0.000000  0.000000  0.295712  1
  Co  Co10  1  0.000000  0.500000  0.988037  1
  Co  Co11  1  0.500000  0.000000  0.013862  1
  Co  Co12  1  0.500000  0.334718  0.996642  1
  Co  Co13  1  0.500000  0.665282  0.996642  1
  Co  Co14  1  0.000000  0.169157  0.005004  1
  Co  Co15  1  0.000000  0.830843  0.005004  1
  Co  Co16  1  0.500000  0.296814  0.429866  1
  Co  Co17  1  0.500000  0.703186  0.429866  1
  Co  Co18  1  0.000000  0.202788  0.567716  1
  Co  Co19  1  0.000000  0.797212  0.567716  1
  Co  Co20  1  0.500000  0.877002  0.706990  1
  Co  Co21  1  0.500000  0.122998  0.706990  1
  Co  Co22  1  0.000000  0.621623  0.291115  1
  Co  Co23  1  0.000000  0.378377  0.291115  1
  P  P24  1  0.500000  0.500000  0.882821  1
  P  P25  1  0.000000  0.000000  0.116344  1
  P  P26  1  0.500000  0.500000  0.345562  1
  P  P27  1  0.000000  0.000000  0.652093  1
  P  P28  1  0.500000  0.311402  0.616221  1
  P  P29  1  0.500000  0.688598  0.616221  1
  P  P30  1  0.000000  0.187843  0.382229  1
  P  P31  1  0.000000  0.812157  0.382229  1
  P  P32  1  0.500000  0.841814  0.892871  1
  P  P33  1  0.500000  0.158186  0.892871  1
  P  P34  1  0.000000  0.653530  0.109521  1
  P  P35  1  0.000000  0.346470  0.109521  1
