# generated using pymatgen
data_Tm5TlGa2
_symmetry_space_group_name_H-M   'P 1'
_cell_length_a   7.65061500
_cell_length_b   7.65061500
_cell_length_c   14.06601800
_cell_angle_alpha   90.00000000
_cell_angle_beta   90.00000000
_cell_angle_gamma   90.00000000
_symmetry_Int_Tables_number   1
_chemical_formula_structural   Tm5TlGa2
_chemical_formula_sum   'Tm20 Tl4 Ga8'
_cell_volume   823.31089792
_cell_formula_units_Z   4
loop_
 _symmetry_equiv_pos_site_id
 _symmetry_equiv_pos_as_xyz
  1  'x, y, z'
loop_
 _atom_site_type_symbol
 _atom_site_label
 _atom_site_symmetry_multiplicity
 _atom_site_fract_x
 _atom_site_fract_y
 _atom_site_fract_z
 _atom_site_occupancy
  Tm  Tm0  1  0.837085  0.837034  0.894624  1
  Tm  Tm1  1  0.162966  0.162915  0.605376  1
  Tm  Tm2  1  0.837085  0.162966  0.394624  1
  Tm  Tm3  1  0.162915  0.837034  0.394624  1
  Tm  Tm4  1  0.337034  0.337085  0.394624  1
  Tm  Tm5  1  0.837034  0.162915  0.105376  1
  Tm  Tm6  1  0.337034  0.662915  0.894624  1
  Tm  Tm7  1  0.162966  0.837085  0.105376  1
  Tm  Tm8  1  0.500000  0.000000  0.749982  1
  Tm  Tm9  1  0.000000  0.500000  0.250018  1
  Tm  Tm10  1  0.337085  0.662966  0.605376  1
  Tm  Tm11  1  0.662915  0.662966  0.105376  1
  Tm  Tm12  1  0.662915  0.337034  0.605376  1
  Tm  Tm13  1  0.000000  0.500000  0.750018  1
  Tm  Tm14  1  0.837034  0.837085  0.605376  1
  Tm  Tm15  1  0.662966  0.337085  0.894624  1
  Tm  Tm16  1  0.162915  0.162966  0.894624  1
  Tm  Tm17  1  0.500000  0.000000  0.249982  1
  Tm  Tm18  1  0.662966  0.662915  0.394624  1
  Tm  Tm19  1  0.337085  0.337034  0.105376  1
  Tl  Tl20  1  0.000000  0.500000  0.000136  1
  Tl  Tl21  1  0.500000  0.000000  0.999864  1
  Tl  Tl22  1  0.500000  0.000000  0.499864  1
  Tl  Tl23  1  0.000000  0.500000  0.500136  1
  Ga  Ga24  1  0.628122  0.371878  0.250000  1
  Ga  Ga25  1  0.371878  0.628122  0.250000  1
  Ga  Ga26  1  0.128122  0.128122  0.250000  1
  Ga  Ga27  1  0.371878  0.371878  0.750000  1
  Ga  Ga28  1  0.128122  0.871878  0.750000  1
  Ga  Ga29  1  0.871878  0.871878  0.250000  1
  Ga  Ga30  1  0.628122  0.628122  0.750000  1
  Ga  Ga31  1  0.871878  0.128122  0.750000  1
