# generated using pymatgen
data_KMnP2Os
_symmetry_space_group_name_H-M   'P 1'
_cell_length_a   7.23163644
_cell_length_b   7.23163655
_cell_length_c   7.23163695
_cell_angle_alpha   148.73465462
_cell_angle_beta   148.73465041
_cell_angle_gamma   44.80203648
_symmetry_Int_Tables_number   1
_chemical_formula_structural   KMnP2Os
_chemical_formula_sum   'K1 Mn1 P2 Os1'
_cell_volume   101.55770352
_cell_formula_units_Z   1
loop_
 _symmetry_equiv_pos_site_id
 _symmetry_equiv_pos_as_xyz
  1  'x, y, z'
loop_
 _atom_site_type_symbol
 _atom_site_label
 _atom_site_symmetry_multiplicity
 _atom_site_fract_x
 _atom_site_fract_y
 _atom_site_fract_z
 _atom_site_occupancy
  K  K0  1  0.000000  0.000000  0.000000  1
  Mn  Mn1  1  0.250000  0.750000  0.500000  1
  P  P2  1  0.345738  0.345738  0.000000  1
  P  P3  1  0.654262  0.654262  0.000000  1
  Os  Os4  1  0.750000  0.250000  0.500000  1
