# generated using pymatgen
data_Nb2Co6GeMo4
_symmetry_space_group_name_H-M   'P 1'
_cell_length_a   8.99158610
_cell_length_b   8.99158585
_cell_length_c   8.99158749
_cell_angle_alpha   31.21689588
_cell_angle_beta   31.21689854
_cell_angle_gamma   31.21690245
_symmetry_Int_Tables_number   1
_chemical_formula_structural   Nb2Co6GeMo4
_chemical_formula_sum   'Nb2 Co6 Ge1 Mo4'
_cell_volume   173.28531812
_cell_formula_units_Z   1
loop_
 _symmetry_equiv_pos_site_id
 _symmetry_equiv_pos_as_xyz
  1  'x, y, z'
loop_
 _atom_site_type_symbol
 _atom_site_label
 _atom_site_symmetry_multiplicity
 _atom_site_fract_x
 _atom_site_fract_y
 _atom_site_fract_z
 _atom_site_occupancy
  Nb  Nb0  1  0.831808  0.831808  0.831808  1
  Nb  Nb1  1  0.651178  0.651178  0.651178  1
  Co  Co2  1  0.091282  0.091282  0.582818  1
  Co  Co3  1  0.412696  0.911406  0.911406  1
  Co  Co4  1  0.582818  0.091282  0.091282  1
  Co  Co5  1  0.911406  0.911406  0.412696  1
  Co  Co6  1  0.911406  0.412696  0.911406  1
  Co  Co7  1  0.091282  0.582818  0.091282  1
  Ge  Ge8  1  0.999844  0.999844  0.999844  1
  Mo  Mo9  1  0.450497  0.450497  0.450497  1
  Mo  Mo10  1  0.548111  0.548111  0.548111  1
  Mo  Mo11  1  0.168645  0.168645  0.168645  1
  Mo  Mo12  1  0.349028  0.349028  0.349028  1
