# generated using pymatgen
data_NpP2Se7
_symmetry_space_group_name_H-M   'P 1'
_cell_length_a   18.16384072
_cell_length_b   17.03715085
_cell_length_c   9.39767977
_cell_angle_alpha   81.26034021
_cell_angle_beta   67.98408742
_cell_angle_gamma   30.75556579
_symmetry_Int_Tables_number   1
_chemical_formula_structural   NpP2Se7
_chemical_formula_sum   'Np4 P8 Se28'
_cell_volume   1286.83260789
_cell_formula_units_Z   4
loop_
 _symmetry_equiv_pos_site_id
 _symmetry_equiv_pos_as_xyz
  1  'x, y, z'
loop_
 _atom_site_type_symbol
 _atom_site_label
 _atom_site_symmetry_multiplicity
 _atom_site_fract_x
 _atom_site_fract_y
 _atom_site_fract_z
 _atom_site_occupancy
  Np  Np0  1  0.112444  0.112444  0.887556  1
  Np  Np1  1  0.887556  0.887556  0.112444  1
  Np  Np2  1  0.137556  0.137556  0.362444  1
  Np  Np3  1  0.362444  0.362444  0.137556  1
  P  P4  1  0.252682  0.860545  0.131707  1
  P  P5  1  0.755066  0.131707  0.860545  1
  P  P6  1  0.131707  0.755066  0.252682  1
  P  P7  1  0.860545  0.252682  0.755066  1
  P  P8  1  0.997318  0.389455  0.118293  1
  P  P9  1  0.494934  0.118293  0.389455  1
  P  P10  1  0.118293  0.494934  0.997318  1
  P  P11  1  0.389455  0.997318  0.494934  1
  Se  Se12  1  0.635685  0.003431  0.116062  1
  Se  Se13  1  0.244822  0.116062  0.003431  1
  Se  Se14  1  0.116062  0.244822  0.635685  1
  Se  Se15  1  0.003431  0.635685  0.244822  1
  Se  Se16  1  0.614315  0.246569  0.133938  1
  Se  Se17  1  0.005178  0.133938  0.246569  1
  Se  Se18  1  0.133938  0.005178  0.614315  1
  Se  Se19  1  0.246569  0.614315  0.005178  1
  Se  Se20  1  0.414532  0.797813  0.157659  1
  Se  Se21  1  0.629996  0.157659  0.797813  1
  Se  Se22  1  0.157659  0.629996  0.414532  1
  Se  Se23  1  0.797813  0.414532  0.629996  1
  Se  Se24  1  0.835468  0.452187  0.092341  1
  Se  Se25  1  0.620004  0.092341  0.452187  1
  Se  Se26  1  0.092341  0.620004  0.835468  1
  Se  Se27  1  0.452187  0.835468  0.620004  1
  Se  Se28  1  0.799864  0.303736  0.012932  1
  Se  Se29  1  0.883466  0.012932  0.303736  1
  Se  Se30  1  0.012932  0.883466  0.799864  1
  Se  Se31  1  0.303736  0.799864  0.883466  1
  Se  Se32  1  0.450136  0.946264  0.237068  1
  Se  Se33  1  0.366534  0.237068  0.946264  1
  Se  Se34  1  0.237068  0.366534  0.450136  1
  Se  Se35  1  0.946264  0.450136  0.366534  1
  Se  Se36  1  0.278013  0.721987  0.278013  1
  Se  Se37  1  0.721987  0.278013  0.721987  1
  Se  Se38  1  0.971987  0.528013  0.971987  1
  Se  Se39  1  0.528013  0.971987  0.528013  1
