# generated using pymatgen
data_DyY4Tm3Pt4
_symmetry_space_group_name_H-M   'P 1'
_cell_length_a   4.76436400
_cell_length_b   7.15267121
_cell_length_c   8.74372436
_cell_angle_alpha   89.85277871
_cell_angle_beta   90.00000000
_cell_angle_gamma   90.00000000
_symmetry_Int_Tables_number   1
_chemical_formula_structural   DyY4Tm3Pt4
_chemical_formula_sum   'Dy1 Y4 Tm3 Pt4'
_cell_volume   297.96703624
_cell_formula_units_Z   1
loop_
 _symmetry_equiv_pos_site_id
 _symmetry_equiv_pos_as_xyz
  1  'x, y, z'
loop_
 _atom_site_type_symbol
 _atom_site_label
 _atom_site_symmetry_multiplicity
 _atom_site_fract_x
 _atom_site_fract_y
 _atom_site_fract_z
 _atom_site_occupancy
  Dy  Dy0  1  0.750000  0.644917  0.420589  1
  Y  Y1  1  0.250000  0.991172  0.330700  1
  Y  Y2  1  0.250000  0.488871  0.168277  1
  Y  Y3  1  0.750000  0.011206  0.671659  1
  Y  Y4  1  0.750000  0.510465  0.829472  1
  Tm  Tm5  1  0.250000  0.856497  0.921771  1
  Tm  Tm6  1  0.250000  0.355245  0.579127  1
  Tm  Tm7  1  0.750000  0.143745  0.078485  1
  Pt  Pt8  1  0.250000  0.253062  0.905885  1
  Pt  Pt9  1  0.250000  0.754532  0.596712  1
  Pt  Pt10  1  0.750000  0.746634  0.090718  1
  Pt  Pt11  1  0.750000  0.243655  0.406605  1
