# generated using pymatgen
data_Nd16Cd4CuOs3
_symmetry_space_group_name_H-M   'P 1'
_cell_length_a   9.91285665
_cell_length_b   10.01874838
_cell_length_c   10.01891971
_cell_angle_alpha   59.82751507
_cell_angle_beta   59.55377361
_cell_angle_gamma   59.55312420
_symmetry_Int_Tables_number   1
_chemical_formula_structural   Nd16Cd4CuOs3
_chemical_formula_sum   'Nd16 Cd4 Cu1 Os3'
_cell_volume   697.89821171
_cell_formula_units_Z   1
loop_
 _symmetry_equiv_pos_site_id
 _symmetry_equiv_pos_as_xyz
  1  'x, y, z'
loop_
 _atom_site_type_symbol
 _atom_site_label
 _atom_site_symmetry_multiplicity
 _atom_site_fract_x
 _atom_site_fract_y
 _atom_site_fract_z
 _atom_site_occupancy
  Nd  Nd0  1  0.345332  0.349683  0.349707  1
  Nd  Nd1  1  0.345253  0.350800  0.954833  1
  Nd  Nd2  1  0.345262  0.954841  0.350796  1
  Nd  Nd3  1  0.963455  0.344635  0.344623  1
  Nd  Nd4  1  0.814015  0.190718  0.190724  1
  Nd  Nd5  1  0.186720  0.809953  0.809954  1
  Nd  Nd6  1  0.189263  0.809786  0.191417  1
  Nd  Nd7  1  0.814687  0.191207  0.802049  1
  Nd  Nd8  1  0.189254  0.191422  0.809806  1
  Nd  Nd9  1  0.814694  0.802061  0.191192  1
  Nd  Nd10  1  0.939188  0.560043  0.560047  1
  Nd  Nd11  1  0.554584  0.940272  0.940283  1
  Nd  Nd12  1  0.554615  0.939616  0.567527  1
  Nd  Nd13  1  0.938965  0.559729  0.941300  1
  Nd  Nd14  1  0.554596  0.567521  0.939632  1
  Nd  Nd15  1  0.938969  0.941300  0.559706  1
  Cd  Cd16  1  0.580106  0.578807  0.578802  1
  Cd  Cd17  1  0.580294  0.578275  0.261149  1
  Cd  Cd18  1  0.580292  0.261144  0.578280  1
  Cd  Cd19  1  0.257908  0.580230  0.580231  1
  Cu  Cu20  1  0.575239  0.141646  0.141634  1
  Os  Os21  1  0.145316  0.137923  0.137931  1
  Os  Os22  1  0.145995  0.138576  0.579811  1
  Os  Os23  1  0.146000  0.579812  0.138566  1
