# generated using pymatgen
data_Li6Ta6OsRh11
_symmetry_space_group_name_H-M   'P 1'
_cell_length_a   4.37070200
_cell_length_b   6.10729000
_cell_length_c   13.04486400
_cell_angle_alpha   89.99985467
_cell_angle_beta   89.99910189
_cell_angle_gamma   89.99949763
_symmetry_Int_Tables_number   1
_chemical_formula_structural   Li6Ta6OsRh11
_chemical_formula_sum   'Li6 Ta6 Os1 Rh11'
_cell_volume   348.20844124
_cell_formula_units_Z   1
loop_
 _symmetry_equiv_pos_site_id
 _symmetry_equiv_pos_as_xyz
  1  'x, y, z'
loop_
 _atom_site_type_symbol
 _atom_site_label
 _atom_site_symmetry_multiplicity
 _atom_site_fract_x
 _atom_site_fract_y
 _atom_site_fract_z
 _atom_site_occupancy
  Li  Li0  1  0.000002  0.500617  0.000001  1
  Li  Li1  1  0.499840  0.999709  0.166539  1
  Li  Li2  1  0.999847  0.499970  0.333381  1
  Li  Li3  1  0.500002  0.999790  0.499999  1
  Li  Li4  1  0.000152  0.499968  0.666619  1
  Li  Li5  1  0.500162  0.999704  0.833462  1
  Ta  Ta6  1  0.000000  0.004626  0.000003  1
  Ta  Ta7  1  0.499879  0.498209  0.164608  1
  Ta  Ta8  1  0.999870  0.999334  0.333123  1
  Ta  Ta9  1  0.500000  0.499910  0.499998  1
  Ta  Ta10  1  0.000128  0.999336  0.666876  1
  Ta  Ta11  1  0.500123  0.498211  0.835391  1
  Os  Os12  1  0.499999  0.249292  0.999999  1
  Rh  Rh13  1  0.500003  0.749050  0.000000  1
  Rh  Rh14  1  0.999874  0.250626  0.167130  1
  Rh  Rh15  1  0.999871  0.749793  0.167789  1
  Rh  Rh16  1  0.499867  0.249684  0.333896  1
  Rh  Rh17  1  0.499870  0.751036  0.334309  1
  Rh  Rh18  1  0.000000  0.250448  0.499999  1
  Rh  Rh19  1  0.000001  0.749540  0.500000  1
  Rh  Rh20  1  0.500132  0.249692  0.666103  1
  Rh  Rh21  1  0.500127  0.751038  0.665690  1
  Rh  Rh22  1  0.000129  0.250625  0.832873  1
  Rh  Rh23  1  0.000129  0.749790  0.832212  1
