# generated using pymatgen
data_Pr2Ho2Al17SiIr6
_symmetry_space_group_name_H-M   'P 1'
_cell_length_a   7.57929914
_cell_length_b   7.57929037
_cell_length_c   9.48744500
_cell_angle_alpha   90.00000000
_cell_angle_beta   90.00000000
_cell_angle_gamma   119.50944044
_symmetry_Int_Tables_number   1
_chemical_formula_structural   Pr2Ho2Al17SiIr6
_chemical_formula_sum   'Pr2 Ho2 Al17 Si1 Ir6'
_cell_volume   474.31094685
_cell_formula_units_Z   1
loop_
 _symmetry_equiv_pos_site_id
 _symmetry_equiv_pos_as_xyz
  1  'x, y, z'
loop_
 _atom_site_type_symbol
 _atom_site_label
 _atom_site_symmetry_multiplicity
 _atom_site_fract_x
 _atom_site_fract_y
 _atom_site_fract_z
 _atom_site_occupancy
  Pr  Pr0  1  0.003676  0.330250  0.750000  1
  Pr  Pr1  1  0.330250  0.003675  0.750000  1
  Ho  Ho2  1  0.994220  0.676556  0.250000  1
  Ho  Ho3  1  0.676556  0.994220  0.250000  1
  Al  Al4  1  0.870387  0.870387  0.750000  1
  Al  Al5  1  0.000771  0.337601  0.080059  1
  Al  Al6  1  0.996578  0.665577  0.930820  1
  Al  Al7  1  0.996578  0.665577  0.569180  1
  Al  Al8  1  0.337600  0.000771  0.419941  1
  Al  Al9  1  0.000771  0.337601  0.419941  1
  Al  Al10  1  0.665578  0.996579  0.569180  1
  Al  Al11  1  0.665578  0.996579  0.930820  1
  Al  Al12  1  0.337600  0.000771  0.080059  1
  Al  Al13  1  0.333776  0.333776  0.549446  1
  Al  Al14  1  0.663773  0.663773  0.446426  1
  Al  Al15  1  0.663773  0.663773  0.053574  1
  Al  Al16  1  0.333776  0.333776  0.950554  1
  Al  Al17  1  0.337450  0.550262  0.250000  1
  Al  Al18  1  0.661649  0.455297  0.750000  1
  Al  Al19  1  0.550263  0.337451  0.250000  1
  Al  Al20  1  0.455298  0.661649  0.750000  1
  Si  Si21  1  0.130319  0.130319  0.250000  1
  Ir  Ir22  1  0.670335  0.327731  0.002950  1
  Ir  Ir23  1  0.327731  0.670334  0.002949  1
  Ir  Ir24  1  0.327731  0.670334  0.497051  1
  Ir  Ir25  1  0.670335  0.327731  0.497050  1
  Ir  Ir26  1  0.998824  0.998824  0.010738  1
  Ir  Ir27  1  0.998824  0.998824  0.489262  1
