# generated using pymatgen
data_GdY2H9
_symmetry_space_group_name_H-M   'P 1'
_cell_length_a   6.37441400
_cell_length_b   6.37487913
_cell_length_c   6.63374017
_cell_angle_alpha   89.98916278
_cell_angle_beta   90.00000000
_cell_angle_gamma   119.99758642
_symmetry_Int_Tables_number   1
_chemical_formula_structural   GdY2H9
_chemical_formula_sum   'Gd2 Y4 H18'
_cell_volume   233.45966683
_cell_formula_units_Z   2
loop_
 _symmetry_equiv_pos_site_id
 _symmetry_equiv_pos_as_xyz
  1  'x, y, z'
loop_
 _atom_site_type_symbol
 _atom_site_label
 _atom_site_symmetry_multiplicity
 _atom_site_fract_x
 _atom_site_fract_y
 _atom_site_fract_z
 _atom_site_occupancy
  Gd  Gd0  1  0.999887  0.664810  0.750059  1
  Gd  Gd1  1  0.335078  0.335190  0.749941  1
  Y  Y2  1  0.338820  0.000000  0.250000  1
  Y  Y3  1  0.999492  0.338023  0.249979  1
  Y  Y4  1  0.661469  0.661977  0.250021  1
  Y  Y5  1  0.664874  0.000000  0.750000  1
  H  H6  1  0.000375  0.000000  0.250000  1
  H  H7  1  0.997797  0.000000  0.750000  1
  H  H8  1  0.332972  0.666300  0.178433  1
  H  H9  1  0.666673  0.333700  0.321567  1
  H  H10  1  0.666506  0.330960  0.811991  1
  H  H11  1  0.335545  0.669040  0.688009  1
  H  H12  1  0.359370  0.325870  0.093237  1
  H  H13  1  0.673970  0.032027  0.092064  1
  H  H14  1  0.966672  0.641020  0.093312  1
  H  H15  1  0.033500  0.674130  0.406763  1
  H  H16  1  0.641942  0.967973  0.407936  1
  H  H17  1  0.325652  0.358980  0.406688  1
  H  H18  1  0.659060  0.683724  0.907936  1
  H  H19  1  0.317452  0.976694  0.908670  1
  H  H20  1  0.024219  0.341638  0.909377  1
  H  H21  1  0.975335  0.316276  0.592064  1
  H  H22  1  0.340759  0.023306  0.591330  1
  H  H23  1  0.682581  0.658362  0.590623  1
