# generated using pymatgen
data_TbDy5(Ni3As2)6
_symmetry_space_group_name_H-M   'P 1'
_cell_length_a   3.89842500
_cell_length_b   10.85571200
_cell_length_c   12.73409800
_cell_angle_alpha   90.00000000
_cell_angle_beta   90.00000000
_cell_angle_gamma   90.00000000
_symmetry_Int_Tables_number   1
_chemical_formula_structural   TbDy5(Ni3As2)6
_chemical_formula_sum   'Tb1 Dy5 Ni18 As12'
_cell_volume   538.90930745
_cell_formula_units_Z   1
loop_
 _symmetry_equiv_pos_site_id
 _symmetry_equiv_pos_as_xyz
  1  'x, y, z'
loop_
 _atom_site_type_symbol
 _atom_site_label
 _atom_site_symmetry_multiplicity
 _atom_site_fract_x
 _atom_site_fract_y
 _atom_site_fract_z
 _atom_site_occupancy
  Tb  Tb0  1  0.500000  0.000000  0.476533  1
  Dy  Dy1  1  0.000000  0.500000  0.523450  1
  Dy  Dy2  1  0.500000  0.816006  0.206515  1
  Dy  Dy3  1  0.500000  0.183994  0.206515  1
  Dy  Dy4  1  0.000000  0.683879  0.793474  1
  Dy  Dy5  1  0.000000  0.316121  0.793474  1
  Ni  Ni6  1  0.500000  0.500000  0.156365  1
  Ni  Ni7  1  0.000000  0.000000  0.843683  1
  Ni  Ni8  1  0.500000  0.500000  0.699097  1
  Ni  Ni9  1  0.000000  0.000000  0.300667  1
  Ni  Ni10  1  0.000000  0.500000  0.982133  1
  Ni  Ni11  1  0.500000  0.000000  0.017851  1
  Ni  Ni12  1  0.500000  0.333005  0.997482  1
  Ni  Ni13  1  0.500000  0.666995  0.997482  1
  Ni  Ni14  1  0.000000  0.166971  0.002508  1
  Ni  Ni15  1  0.000000  0.833029  0.002508  1
  Ni  Ni16  1  0.500000  0.303320  0.426124  1
  Ni  Ni17  1  0.500000  0.696680  0.426124  1
  Ni  Ni18  1  0.000000  0.196969  0.573991  1
  Ni  Ni19  1  0.000000  0.803031  0.573991  1
  Ni  Ni20  1  0.500000  0.879717  0.707507  1
  Ni  Ni21  1  0.500000  0.120283  0.707507  1
  Ni  Ni22  1  0.000000  0.620165  0.292558  1
  Ni  Ni23  1  0.000000  0.379835  0.292558  1
  As  As24  1  0.500000  0.500000  0.876257  1
  As  As25  1  0.000000  0.000000  0.123648  1
  As  As26  1  0.500000  0.500000  0.344983  1
  As  As27  1  0.000000  0.000000  0.655352  1
  As  As28  1  0.500000  0.314371  0.613309  1
  As  As29  1  0.500000  0.685629  0.613309  1
  As  As30  1  0.000000  0.185854  0.386520  1
  As  As31  1  0.000000  0.814146  0.386520  1
  As  As32  1  0.500000  0.847326  0.890601  1
  As  As33  1  0.500000  0.152674  0.890601  1
  As  As34  1  0.000000  0.652637  0.109402  1
  As  As35  1  0.000000  0.347363  0.109402  1
