# generated using pymatgen
data_Y7Er(WC2)4
_symmetry_space_group_name_H-M   'P 1'
_cell_length_a   5.73944214
_cell_length_b   5.73944174
_cell_length_c   9.91633652
_cell_angle_alpha   89.90200303
_cell_angle_beta   90.09799722
_cell_angle_gamma   89.96566533
_symmetry_Int_Tables_number   1
_chemical_formula_structural   Y7Er(WC2)4
_chemical_formula_sum   'Y7 Er1 W4 C8'
_cell_volume   326.65494821
_cell_formula_units_Z   1
loop_
 _symmetry_equiv_pos_site_id
 _symmetry_equiv_pos_as_xyz
  1  'x, y, z'
loop_
 _atom_site_type_symbol
 _atom_site_label
 _atom_site_symmetry_multiplicity
 _atom_site_fract_x
 _atom_site_fract_y
 _atom_site_fract_z
 _atom_site_occupancy
  Y  Y0  1  0.199917  0.200020  0.341601  1
  Y  Y1  1  0.800155  0.800180  0.657701  1
  Y  Y2  1  0.300258  0.699742  0.842278  1
  Y  Y3  1  0.799980  0.800083  0.341601  1
  Y  Y4  1  0.199820  0.199845  0.657701  1
  Y  Y5  1  0.699899  0.300101  0.158075  1
  Y  Y6  1  0.699630  0.300370  0.842511  1
  Er  Er7  1  0.299569  0.700431  0.157551  1
  W  W8  1  0.178145  0.177689  0.000673  1
  W  W9  1  0.822311  0.821855  0.000673  1
  W  W10  1  0.322019  0.677981  0.499031  1
  W  W11  1  0.677193  0.322807  0.499267  1
  C  C12  1  0.001726  0.998274  0.153200  1
  C  C13  1  0.498593  0.501407  0.345555  1
  C  C14  1  0.499781  0.500219  0.652342  1
  C  C15  1  0.499576  0.998152  0.001967  1
  C  C16  1  0.001848  0.500424  0.001967  1
  C  C17  1  0.999946  0.000054  0.847601  1
  C  C18  1  0.499969  0.000337  0.499354  1
  C  C19  1  0.999663  0.500031  0.499354  1
