# generated using pymatgen
data_Ca8Fe4Sb(RuO8)3
_symmetry_space_group_name_H-M   'P 1'
_cell_length_a   7.76601413
_cell_length_b   7.80593542
_cell_length_c   7.80372586
_cell_angle_alpha   88.51173513
_cell_angle_beta   89.90105317
_cell_angle_gamma   89.93014354
_symmetry_Int_Tables_number   1
_chemical_formula_structural   Ca8Fe4Sb(RuO8)3
_chemical_formula_sum   'Ca8 Fe4 Sb1 Ru3 O24'
_cell_volume   472.90908886
_cell_formula_units_Z   1
loop_
 _symmetry_equiv_pos_site_id
 _symmetry_equiv_pos_as_xyz
  1  'x, y, z'
loop_
 _atom_site_type_symbol
 _atom_site_label
 _atom_site_symmetry_multiplicity
 _atom_site_fract_x
 _atom_site_fract_y
 _atom_site_fract_z
 _atom_site_occupancy
  Ca  Ca0  1  0.752867  0.477499  0.470342  1
  Ca  Ca1  1  0.750871  0.981819  0.963811  1
  Ca  Ca2  1  0.751997  0.465802  0.979179  1
  Ca  Ca3  1  0.754914  0.970920  0.481993  1
  Ca  Ca4  1  0.245086  0.529080  0.018007  1
  Ca  Ca5  1  0.248003  0.034198  0.520821  1
  Ca  Ca6  1  0.249129  0.518181  0.536189  1
  Ca  Ca7  1  0.247133  0.022501  0.029658  1
  Fe  Fe8  1  0.500000  0.750000  0.750000  1
  Fe  Fe9  1  0.000000  0.750000  0.250000  1
  Fe  Fe10  1  0.500000  0.250000  0.250000  1
  Fe  Fe11  1  0.000000  0.250000  0.750000  1
  Sb  Sb12  1  0.500000  0.750000  0.250000  1
  Ru  Ru13  1  0.000000  0.250000  0.250000  1
  Ru  Ru14  1  0.000000  0.750000  0.750000  1
  Ru  Ru15  1  0.500000  0.250000  0.750000  1
  O  O16  1  0.251483  0.686835  0.282698  1
  O  O17  1  0.252307  0.194498  0.781433  1
  O  O18  1  0.246920  0.281026  0.191984  1
  O  O19  1  0.247111  0.782152  0.692387  1
  O  O20  1  0.747693  0.305502  0.718567  1
  O  O21  1  0.748517  0.813165  0.217302  1
  O  O22  1  0.752889  0.717848  0.807613  1
  O  O23  1  0.753080  0.218974  0.308016  1
  O  O24  1  0.046673  0.795492  0.995162  1
  O  O25  1  0.046665  0.295353  0.495662  1
  O  O26  1  0.451211  0.495130  0.795010  1
  O  O27  1  0.448849  0.996804  0.297811  1
  O  O28  1  0.953335  0.204647  0.004338  1
  O  O29  1  0.953327  0.704508  0.504838  1
  O  O30  1  0.551151  0.503196  0.202189  1
  O  O31  1  0.548789  0.004870  0.704990  1
  O  O32  1  0.954702  0.497771  0.203607  1
  O  O33  1  0.955546  0.998380  0.705449  1
  O  O34  1  0.546285  0.204891  0.997739  1
  O  O35  1  0.549451  0.702246  0.499374  1
  O  O36  1  0.044454  0.501620  0.794551  1
  O  O37  1  0.045298  0.002229  0.296393  1
  O  O38  1  0.450549  0.797754  0.000626  1
  O  O39  1  0.453715  0.295109  0.502261  1
