# generated using pymatgen
data_Er8Sc11Si16Mo
_symmetry_space_group_name_H-M   'P 1'
_cell_length_a   7.04952128
_cell_length_b   7.30792513
_cell_length_c   13.86793917
_cell_angle_alpha   90.15144349
_cell_angle_beta   89.65759075
_cell_angle_gamma   89.70243252
_symmetry_Int_Tables_number   1
_chemical_formula_structural   Er8Sc11Si16Mo
_chemical_formula_sum   'Er8 Sc11 Si16 Mo1'
_cell_volume   714.41485701
_cell_formula_units_Z   1
loop_
 _symmetry_equiv_pos_site_id
 _symmetry_equiv_pos_as_xyz
  1  'x, y, z'
loop_
 _atom_site_type_symbol
 _atom_site_label
 _atom_site_symmetry_multiplicity
 _atom_site_fract_x
 _atom_site_fract_y
 _atom_site_fract_z
 _atom_site_occupancy
  Er  Er0  1  0.011968  0.175285  0.097423  1
  Er  Er1  1  0.989490  0.825207  0.898935  1
  Er  Er2  1  0.487466  0.678966  0.899457  1
  Er  Er3  1  0.992977  0.828939  0.595649  1
  Er  Er4  1  0.513157  0.322639  0.096620  1
  Er  Er5  1  0.008986  0.175220  0.403570  1
  Er  Er6  1  0.506837  0.322524  0.410088  1
  Er  Er7  1  0.487232  0.677098  0.595747  1
  Sc  Sc8  1  0.164151  0.496054  0.745138  1
  Sc  Sc9  1  0.837168  0.497244  0.251914  1
  Sc  Sc10  1  0.336024  0.003248  0.252740  1
  Sc  Sc11  1  0.658969  0.001787  0.746818  1
  Sc  Sc12  1  0.664836  0.825765  0.379070  1
  Sc  Sc13  1  0.168498  0.678702  0.378185  1
  Sc  Sc14  1  0.669061  0.824174  0.124561  1
  Sc  Sc15  1  0.833369  0.323107  0.623501  1
  Sc  Sc16  1  0.333217  0.176733  0.875020  1
  Sc  Sc17  1  0.830236  0.323329  0.871970  1
  Sc  Sc18  1  0.170030  0.676553  0.126119  1
  Si  Si19  1  0.042957  0.119607  0.745478  1
  Si  Si20  1  0.963043  0.886233  0.251299  1
  Si  Si21  1  0.466988  0.615243  0.251010  1
  Si  Si22  1  0.531397  0.376583  0.745557  1
  Si  Si23  1  0.286948  0.878600  0.746038  1
  Si  Si24  1  0.710284  0.128189  0.250790  1
  Si  Si25  1  0.215041  0.371599  0.250714  1
  Si  Si26  1  0.784175  0.625682  0.746488  1
  Si  Si27  1  0.175592  0.451743  0.540139  1
  Si  Si28  1  0.842806  0.532171  0.460856  1
  Si  Si29  1  0.332349  0.969938  0.471193  1
  Si  Si30  1  0.845043  0.534858  0.038916  1
  Si  Si31  1  0.648447  0.035043  0.544502  1
  Si  Si32  1  0.156023  0.466478  0.959581  1
  Si  Si33  1  0.662189  0.035647  0.958981  1
  Si  Si34  1  0.340140  0.962644  0.038110  1
  Mo  Mo35  1  0.332905  0.177168  0.627822  1
