# generated using pymatgen
data_Pr12Sn8Ru7Rh
_symmetry_space_group_name_H-M   'P 1'
_cell_length_a   5.93976031
_cell_length_b   8.51921016
_cell_length_c   14.08328345
_cell_angle_alpha   90.16055348
_cell_angle_beta   90.06896007
_cell_angle_gamma   90.16538517
_symmetry_Int_Tables_number   1
_chemical_formula_structural   Pr12Sn8Ru7Rh
_chemical_formula_sum   'Pr12 Sn8 Ru7 Rh1'
_cell_volume   712.63695330
_cell_formula_units_Z   1
loop_
 _symmetry_equiv_pos_site_id
 _symmetry_equiv_pos_as_xyz
  1  'x, y, z'
loop_
 _atom_site_type_symbol
 _atom_site_label
 _atom_site_symmetry_multiplicity
 _atom_site_fract_x
 _atom_site_fract_y
 _atom_site_fract_z
 _atom_site_occupancy
  Pr  Pr0  1  0.158546  0.901925  0.592892  1
  Pr  Pr1  1  0.841338  0.092976  0.094119  1
  Pr  Pr2  1  0.158581  0.593653  0.405549  1
  Pr  Pr3  1  0.840849  0.405336  0.906812  1
  Pr  Pr4  1  0.842101  0.092288  0.403714  1
  Pr  Pr5  1  0.158486  0.907759  0.906313  1
  Pr  Pr6  1  0.843120  0.409327  0.593346  1
  Pr  Pr7  1  0.159068  0.592712  0.093698  1
  Pr  Pr8  1  0.376106  0.282607  0.750437  1
  Pr  Pr9  1  0.623495  0.718764  0.249924  1
  Pr  Pr10  1  0.378110  0.220254  0.249242  1
  Pr  Pr11  1  0.623252  0.776557  0.752931  1
  Sn  Sn12  1  0.878790  0.121195  0.749092  1
  Sn  Sn13  1  0.122774  0.878105  0.250104  1
  Sn  Sn14  1  0.879791  0.378535  0.249680  1
  Sn  Sn15  1  0.120324  0.621734  0.750839  1
  Sn  Sn16  1  0.365570  0.251894  0.499914  1
  Sn  Sn17  1  0.632163  0.750125  0.000461  1
  Sn  Sn18  1  0.633068  0.750576  0.499498  1
  Sn  Sn19  1  0.367851  0.249554  0.999732  1
  Ru  Ru20  1  0.350548  0.968857  0.090241  1
  Ru  Ru21  1  0.651191  0.466890  0.410512  1
  Ru  Ru22  1  0.350815  0.531170  0.909569  1
  Ru  Ru23  1  0.349187  0.971083  0.411398  1
  Ru  Ru24  1  0.648621  0.029734  0.908412  1
  Ru  Ru25  1  0.350642  0.533063  0.590321  1
  Ru  Ru26  1  0.650039  0.469427  0.090187  1
  Rh  Rh27  1  0.645576  0.033899  0.591062  1
