# generated using pymatgen
data_La8Sb3O8
_symmetry_space_group_name_H-M   'P 1'
_cell_length_a   7.34473120
_cell_length_b   7.34473061
_cell_length_c   15.86812307
_cell_angle_alpha   73.51535500
_cell_angle_beta   73.51535601
_cell_angle_gamma   31.71703073
_symmetry_Int_Tables_number   1
_chemical_formula_structural   La8Sb3O8
_chemical_formula_sum   'La8 Sb3 O8'
_cell_volume   429.99858389
_cell_formula_units_Z   1
loop_
 _symmetry_equiv_pos_site_id
 _symmetry_equiv_pos_as_xyz
  1  'x, y, z'
loop_
 _atom_site_type_symbol
 _atom_site_label
 _atom_site_symmetry_multiplicity
 _atom_site_fract_x
 _atom_site_fract_y
 _atom_site_fract_z
 _atom_site_occupancy
  La  La0  1  0.452931  0.458746  0.832361  1
  La  La1  1  0.541254  0.547069  0.167639  1
  La  La2  1  0.639945  0.644058  0.570107  1
  La  La3  1  0.355942  0.360055  0.429893  1
  La  La4  1  0.875421  0.880178  0.653627  1
  La  La5  1  0.119822  0.124579  0.346373  1
  La  La6  1  0.714915  0.721125  0.910952  1
  La  La7  1  0.278875  0.285085  0.089048  1
  Sb  Sb8  1  0.170093  0.175399  0.732872  1
  Sb  Sb9  1  0.824601  0.829907  0.267128  1
  Sb  Sb10  1  0.996718  0.003282  0.000000  1
  O  O11  1  0.292768  0.298912  0.933889  1
  O  O12  1  0.701088  0.707232  0.066111  1
  O  O13  1  0.880378  0.886193  0.800485  1
  O  O14  1  0.113807  0.119622  0.199515  1
  O  O15  1  0.163122  0.167284  0.487137  1
  O  O16  1  0.832716  0.836878  0.512863  1
  O  O17  1  0.466609  0.471405  0.635095  1
  O  O18  1  0.528595  0.533391  0.364905  1
