# generated using pymatgen
data_La2UTc3
_symmetry_space_group_name_H-M   'P 1'
_cell_length_a   5.98668400
_cell_length_b   5.98668349
_cell_length_c   8.24117800
_cell_angle_alpha   90.00000000
_cell_angle_beta   90.00000000
_cell_angle_gamma   119.99998069
_symmetry_Int_Tables_number   1
_chemical_formula_structural   La2UTc3
_chemical_formula_sum   'La4 U2 Tc6'
_cell_volume   255.79534929
_cell_formula_units_Z   2
loop_
 _symmetry_equiv_pos_site_id
 _symmetry_equiv_pos_as_xyz
  1  'x, y, z'
loop_
 _atom_site_type_symbol
 _atom_site_label
 _atom_site_symmetry_multiplicity
 _atom_site_fract_x
 _atom_site_fract_y
 _atom_site_fract_z
 _atom_site_occupancy
  La  La0  1  0.333333  0.666667  0.437828  1
  La  La1  1  0.666667  0.333333  0.562172  1
  La  La2  1  0.666667  0.333333  0.937828  1
  La  La3  1  0.333333  0.666667  0.062172  1
  U  U4  1  0.000000  0.000000  0.500000  1
  U  U5  1  0.000000  0.000000  0.000000  1
  Tc  Tc6  1  0.840441  0.159559  0.250000  1
  Tc  Tc7  1  0.840441  0.680883  0.250000  1
  Tc  Tc8  1  0.319117  0.159559  0.250000  1
  Tc  Tc9  1  0.159559  0.840441  0.750000  1
  Tc  Tc10  1  0.159559  0.319117  0.750000  1
  Tc  Tc11  1  0.680883  0.840441  0.750000  1
