# generated using pymatgen
data_Tb3Er9Tc3Rh
_symmetry_space_group_name_H-M   'P 1'
_cell_length_a   6.27892325
_cell_length_b   7.36394686
_cell_length_c   9.08140500
_cell_angle_alpha   90.00000000
_cell_angle_beta   90.00000000
_cell_angle_gamma   89.85420738
_symmetry_Int_Tables_number   1
_chemical_formula_structural   Tb3Er9Tc3Rh
_chemical_formula_sum   'Tb3 Er9 Tc3 Rh1'
_cell_volume   419.90153153
_cell_formula_units_Z   1
loop_
 _symmetry_equiv_pos_site_id
 _symmetry_equiv_pos_as_xyz
  1  'x, y, z'
loop_
 _atom_site_type_symbol
 _atom_site_label
 _atom_site_symmetry_multiplicity
 _atom_site_fract_x
 _atom_site_fract_y
 _atom_site_fract_z
 _atom_site_occupancy
  Tb  Tb0  1  0.876037  0.961032  0.750000  1
  Tb  Tb1  1  0.369802  0.542869  0.250000  1
  Tb  Tb2  1  0.625748  0.459335  0.750000  1
  Er  Er3  1  0.662933  0.173711  0.061628  1
  Er  Er4  1  0.167925  0.322836  0.934982  1
  Er  Er5  1  0.837099  0.678844  0.438436  1
  Er  Er6  1  0.336756  0.824367  0.562546  1
  Er  Er7  1  0.336756  0.824367  0.937454  1
  Er  Er8  1  0.837099  0.678844  0.061564  1
  Er  Er9  1  0.167925  0.322836  0.565018  1
  Er  Er10  1  0.662933  0.173711  0.438372  1
  Er  Er11  1  0.127145  0.040862  0.250000  1
  Tc  Tc12  1  0.038664  0.613019  0.750000  1
  Tc  Tc13  1  0.539416  0.884417  0.250000  1
  Tc  Tc14  1  0.459510  0.115378  0.750000  1
  Rh  Rh15  1  0.954253  0.383572  0.250000  1
