# generated using pymatgen
data_Zr10TlZnBi4PPb
_symmetry_space_group_name_H-M   'P 1'
_cell_length_a   8.80546270
_cell_length_b   8.80689011
_cell_length_c   5.96750841
_cell_angle_alpha   90.04522096
_cell_angle_beta   89.90954339
_cell_angle_gamma   119.99464612
_symmetry_Int_Tables_number   1
_chemical_formula_structural   Zr10TlZnBi4PPb
_chemical_formula_sum   'Zr10 Tl1 Zn1 Bi4 P1 Pb1'
_cell_volume   400.79409665
_cell_formula_units_Z   1
loop_
 _symmetry_equiv_pos_site_id
 _symmetry_equiv_pos_as_xyz
  1  'x, y, z'
loop_
 _atom_site_type_symbol
 _atom_site_label
 _atom_site_symmetry_multiplicity
 _atom_site_fract_x
 _atom_site_fract_y
 _atom_site_fract_z
 _atom_site_occupancy
  Zr  Zr0  1  0.333564  0.667177  0.000418  1
  Zr  Zr1  1  0.666840  0.334049  0.499637  1
  Zr  Zr2  1  0.666388  0.332823  0.000418  1
  Zr  Zr3  1  0.332790  0.665951  0.499637  1
  Zr  Zr4  1  0.257723  0.000000  0.236600  1
  Zr  Zr5  1  0.256320  0.256075  0.763769  1
  Zr  Zr6  1  0.000245  0.743925  0.763769  1
  Zr  Zr7  1  0.999153  0.255701  0.236299  1
  Zr  Zr8  1  0.743454  0.744299  0.236299  1
  Zr  Zr9  1  0.743261  0.000000  0.763813  1
  Tl  Tl10  1  0.609360  0.000000  0.255596  1
  Zn  Zn11  1  0.999537  0.000000  0.499734  1
  Bi  Bi12  1  0.607495  0.608426  0.744731  1
  Bi  Bi13  1  0.999069  0.391574  0.744731  1
  Bi  Bi14  1  0.000062  0.607995  0.255319  1
  Bi  Bi15  1  0.392066  0.392005  0.255319  1
  P  P16  1  0.000137  0.000000  0.000464  1
  Pb  Pb17  1  0.392537  0.000000  0.743448  1
