# generated using pymatgen
data_Y4Zn2OsRu5
_symmetry_space_group_name_H-M   'P 1'
_cell_length_a   5.33419170
_cell_length_b   5.42550610
_cell_length_c   8.87224700
_cell_angle_alpha   90.00000000
_cell_angle_beta   90.00000000
_cell_angle_gamma   121.45835848
_symmetry_Int_Tables_number   1
_chemical_formula_structural   Y4Zn2OsRu5
_chemical_formula_sum   'Y4 Zn2 Os1 Ru5'
_cell_volume   219.02896497
_cell_formula_units_Z   1
loop_
 _symmetry_equiv_pos_site_id
 _symmetry_equiv_pos_as_xyz
  1  'x, y, z'
loop_
 _atom_site_type_symbol
 _atom_site_label
 _atom_site_symmetry_multiplicity
 _atom_site_fract_x
 _atom_site_fract_y
 _atom_site_fract_z
 _atom_site_occupancy
  Y  Y0  1  0.338844  0.663085  0.431861  1
  Y  Y1  1  0.669297  0.327940  0.558115  1
  Y  Y2  1  0.669297  0.327940  0.941885  1
  Y  Y3  1  0.338844  0.663085  0.068139  1
  Zn  Zn4  1  0.162410  0.346241  0.750000  1
  Zn  Zn5  1  0.652920  0.839570  0.750000  1
  Os  Os6  1  0.330466  0.165752  0.250000  1
  Ru  Ru7  1  0.019143  0.996020  0.499651  1
  Ru  Ru8  1  0.019143  0.996020  0.000349  1
  Ru  Ru9  1  0.817551  0.169233  0.250000  1
  Ru  Ru10  1  0.830079  0.663985  0.250000  1
  Ru  Ru11  1  0.152006  0.841128  0.750000  1
