# generated using pymatgen
data_Ba5Sr(CuO3)4
_symmetry_space_group_name_H-M   'P 1'
_cell_length_a   7.16567186
_cell_length_b   6.64059884
_cell_length_c   8.58139404
_cell_angle_alpha   112.76236556
_cell_angle_beta   103.71689782
_cell_angle_gamma   89.99838207
_symmetry_Int_Tables_number   1
_chemical_formula_structural   Ba5Sr(CuO3)4
_chemical_formula_sum   'Ba5 Sr1 Cu4 O12'
_cell_volume   363.87608812
_cell_formula_units_Z   1
loop_
 _symmetry_equiv_pos_site_id
 _symmetry_equiv_pos_as_xyz
  1  'x, y, z'
loop_
 _atom_site_type_symbol
 _atom_site_label
 _atom_site_symmetry_multiplicity
 _atom_site_fract_x
 _atom_site_fract_y
 _atom_site_fract_z
 _atom_site_occupancy
  Ba  Ba0  1  0.749969  0.944780  0.000012  1
  Ba  Ba1  1  0.725027  0.397628  0.405064  1
  Ba  Ba2  1  0.229989  0.009633  0.407718  1
  Ba  Ba3  1  0.270103  0.601896  0.592268  1
  Ba  Ba4  1  0.774984  0.992553  0.594867  1
  Sr  Sr5  1  0.249956  0.062734  0.999966  1
  Cu  Cu6  1  0.004792  0.485840  0.159964  1
  Cu  Cu7  1  0.491191  0.670405  0.158005  1
  Cu  Cu8  1  0.008819  0.513038  0.841904  1
  Cu  Cu9  1  0.495234  0.325650  0.840146  1
  O  O10  1  0.017623  0.701075  0.072070  1
  O  O11  1  0.502473  0.364664  0.070738  1
  O  O12  1  0.040539  0.255990  0.235211  1
  O  O13  1  0.514125  0.977219  0.226998  1
  O  O14  1  0.973639  0.686100  0.372552  1
  O  O15  1  0.478913  0.689744  0.376822  1
  O  O16  1  0.021011  0.313212  0.623202  1
  O  O17  1  0.526385  0.313577  0.627573  1
  O  O18  1  0.985785  0.750539  0.772901  1
  O  O19  1  0.459563  0.020601  0.764755  1
  O  O20  1  0.482331  0.628769  0.927955  1
  O  O21  1  0.997549  0.294356  0.929311  1
