# generated using pymatgen
data_Y5ErCo16(TcP6)2
_symmetry_space_group_name_H-M   'P 1'
_cell_length_a   3.71565600
_cell_length_b   10.52499208
_cell_length_c   12.23533309
_cell_angle_alpha   90.01421025
_cell_angle_beta   90.00000000
_cell_angle_gamma   90.00000000
_symmetry_Int_Tables_number   1
_chemical_formula_structural   Y5ErCo16(TcP6)2
_chemical_formula_sum   'Y5 Er1 Co16 Tc2 P12'
_cell_volume   478.49021513
_cell_formula_units_Z   1
loop_
 _symmetry_equiv_pos_site_id
 _symmetry_equiv_pos_as_xyz
  1  'x, y, z'
loop_
 _atom_site_type_symbol
 _atom_site_label
 _atom_site_symmetry_multiplicity
 _atom_site_fract_x
 _atom_site_fract_y
 _atom_site_fract_z
 _atom_site_occupancy
  Y  Y0  1  0.000000  0.500061  0.523771  1
  Y  Y1  1  0.500000  0.999881  0.476165  1
  Y  Y2  1  0.500000  0.182245  0.205888  1
  Y  Y3  1  0.000000  0.682483  0.793990  1
  Y  Y4  1  0.000000  0.317534  0.794188  1
  Er  Er5  1  0.500000  0.817660  0.205995  1
  Co  Co6  1  0.500000  0.500067  0.702793  1
  Co  Co7  1  0.000000  0.999116  0.296851  1
  Co  Co8  1  0.000000  0.500289  0.987539  1
  Co  Co9  1  0.500000  0.999681  0.013033  1
  Co  Co10  1  0.500000  0.332263  0.990129  1
  Co  Co11  1  0.500000  0.668048  0.990418  1
  Co  Co12  1  0.000000  0.167483  0.010146  1
  Co  Co13  1  0.000000  0.832262  0.010572  1
  Co  Co14  1  0.500000  0.296375  0.430988  1
  Co  Co15  1  0.500000  0.703734  0.430456  1
  Co  Co16  1  0.000000  0.203492  0.568954  1
  Co  Co17  1  0.000000  0.796447  0.568687  1
  Co  Co18  1  0.500000  0.879284  0.707846  1
  Co  Co19  1  0.500000  0.120714  0.707954  1
  Co  Co20  1  0.000000  0.621482  0.291595  1
  Co  Co21  1  0.000000  0.379400  0.292093  1
  Tc  Tc22  1  0.500000  0.500150  0.156301  1
  Tc  Tc23  1  0.000000  0.999935  0.843706  1
  P  P24  1  0.500000  0.500127  0.881435  1
  P  P25  1  0.000000  0.999305  0.119088  1
  P  P26  1  0.500000  0.499956  0.348212  1
  P  P27  1  0.000000  0.999992  0.651734  1
  P  P28  1  0.500000  0.311408  0.616029  1
  P  P29  1  0.500000  0.688704  0.615822  1
  P  P30  1  0.000000  0.188337  0.383905  1
  P  P31  1  0.000000  0.811443  0.383057  1
  P  P32  1  0.500000  0.846371  0.892913  1
  P  P33  1  0.500000  0.153547  0.893133  1
  P  P34  1  0.000000  0.654387  0.107590  1
  P  P35  1  0.000000  0.346339  0.107025  1
