# generated using pymatgen
data_Er4Lu(CoB3)2
_symmetry_space_group_name_H-M   'P 1'
_cell_length_a   5.37951342
_cell_length_b   5.37951388
_cell_length_c   8.20172829
_cell_angle_alpha   70.85560533
_cell_angle_beta   70.85560013
_cell_angle_gamma   60.00001758
_symmetry_Int_Tables_number   1
_chemical_formula_structural   Er4Lu(CoB3)2
_chemical_formula_sum   'Er4 Lu1 Co2 B6'
_cell_volume   190.24389578
_cell_formula_units_Z   1
loop_
 _symmetry_equiv_pos_site_id
 _symmetry_equiv_pos_as_xyz
  1  'x, y, z'
loop_
 _atom_site_type_symbol
 _atom_site_label
 _atom_site_symmetry_multiplicity
 _atom_site_fract_x
 _atom_site_fract_y
 _atom_site_fract_z
 _atom_site_occupancy
  Er  Er0  1  0.252174  0.252174  0.243479  1
  Er  Er1  1  0.747826  0.747826  0.756521  1
  Er  Er2  1  0.415364  0.415364  0.753909  1
  Er  Er3  1  0.584636  0.584636  0.246091  1
  Lu  Lu4  1  0.000000  0.000000  0.000000  1
  Co  Co5  1  0.118754  0.118754  0.643740  1
  Co  Co6  1  0.881246  0.881246  0.356260  1
  B  B7  1  0.168628  0.831372  0.500000  1
  B  B8  1  0.831372  0.500000  0.500000  1
  B  B9  1  0.500000  0.168628  0.500000  1
  B  B10  1  0.168628  0.500000  0.500000  1
  B  B11  1  0.500000  0.831372  0.500000  1
  B  B12  1  0.831372  0.168628  0.500000  1
