# generated using pymatgen
data_Tb2CeIn3IrRh2
_symmetry_space_group_name_H-M   'P 1'
_cell_length_a   7.58623677
_cell_length_b   7.52750632
_cell_length_c   3.90022100
_cell_angle_alpha   90.00000000
_cell_angle_beta   90.00000000
_cell_angle_gamma   118.21489341
_symmetry_Int_Tables_number   1
_chemical_formula_structural   Tb2CeIn3IrRh2
_chemical_formula_sum   'Tb2 Ce1 In3 Ir1 Rh2'
_cell_volume   196.25993919
_cell_formula_units_Z   1
loop_
 _symmetry_equiv_pos_site_id
 _symmetry_equiv_pos_as_xyz
  1  'x, y, z'
loop_
 _atom_site_type_symbol
 _atom_site_label
 _atom_site_symmetry_multiplicity
 _atom_site_fract_x
 _atom_site_fract_y
 _atom_site_fract_z
 _atom_site_occupancy
  Tb  Tb0  1  0.404861  0.994690  0.500000  1
  Tb  Tb1  1  0.005480  0.410015  0.500000  1
  Ce  Ce2  1  0.581722  0.582043  0.500000  1
  In  In3  1  0.743406  0.008106  0.000000  1
  In  In4  1  0.005883  0.743515  0.000000  1
  In  In5  1  0.247746  0.245777  0.000000  1
  Ir  Ir6  1  0.349716  0.665903  0.000000  1
  Rh  Rh7  1  0.665471  0.352949  0.000000  1
  Rh  Rh8  1  0.995717  0.997004  0.500000  1
