# generated using pymatgen
data_Tb4Zn3GaIr4
_symmetry_space_group_name_H-M   'P 1'
_cell_length_a   4.16067300
_cell_length_b   6.96372010
_cell_length_c   8.03806502
_cell_angle_alpha   89.60282596
_cell_angle_beta   90.00000000
_cell_angle_gamma   90.00000000
_symmetry_Int_Tables_number   1
_chemical_formula_structural   Tb4Zn3GaIr4
_chemical_formula_sum   'Tb4 Zn3 Ga1 Ir4'
_cell_volume   232.88738892
_cell_formula_units_Z   1
loop_
 _symmetry_equiv_pos_site_id
 _symmetry_equiv_pos_as_xyz
  1  'x, y, z'
loop_
 _atom_site_type_symbol
 _atom_site_label
 _atom_site_symmetry_multiplicity
 _atom_site_fract_x
 _atom_site_fract_y
 _atom_site_fract_z
 _atom_site_occupancy
  Tb  Tb0  1  0.250000  0.972465  0.314416  1
  Tb  Tb1  1  0.250000  0.475140  0.187796  1
  Tb  Tb2  1  0.750000  0.026183  0.685042  1
  Tb  Tb3  1  0.750000  0.527374  0.813043  1
  Zn  Zn4  1  0.250000  0.350514  0.570683  1
  Zn  Zn5  1  0.250000  0.848369  0.927980  1
  Zn  Zn6  1  0.750000  0.647328  0.430044  1
  Ga  Ga7  1  0.750000  0.149945  0.068457  1
  Ir  Ir8  1  0.250000  0.234059  0.892830  1
  Ir  Ir9  1  0.250000  0.736212  0.614927  1
  Ir  Ir10  1  0.750000  0.768451  0.113793  1
  Ir  Ir11  1  0.750000  0.263959  0.380990  1
