# generated using pymatgen
data_Zr6Zn22PRh
_symmetry_space_group_name_H-M   'P 1'
_cell_length_a   8.75514836
_cell_length_b   8.75514862
_cell_length_c   8.75514800
_cell_angle_alpha   60.00000234
_cell_angle_beta   60.00000137
_cell_angle_gamma   59.99999971
_symmetry_Int_Tables_number   1
_chemical_formula_structural   Zr6Zn22PRh
_chemical_formula_sum   'Zr6 Zn22 P1 Rh1'
_cell_volume   474.54296334
_cell_formula_units_Z   1
loop_
 _symmetry_equiv_pos_site_id
 _symmetry_equiv_pos_as_xyz
  1  'x, y, z'
loop_
 _atom_site_type_symbol
 _atom_site_label
 _atom_site_symmetry_multiplicity
 _atom_site_fract_x
 _atom_site_fract_y
 _atom_site_fract_z
 _atom_site_occupancy
  Zr  Zr0  1  0.707282  0.292718  0.292718  1
  Zr  Zr1  1  0.292718  0.707282  0.707282  1
  Zr  Zr2  1  0.292718  0.707282  0.292718  1
  Zr  Zr3  1  0.707282  0.292718  0.707282  1
  Zr  Zr4  1  0.292718  0.292718  0.707282  1
  Zr  Zr5  1  0.707282  0.707282  0.292718  1
  Zn  Zn6  1  0.120779  0.120779  0.120779  1
  Zn  Zn7  1  0.879221  0.879221  0.879221  1
  Zn  Zn8  1  0.120779  0.120779  0.637664  1
  Zn  Zn9  1  0.120779  0.637664  0.120779  1
  Zn  Zn10  1  0.879221  0.879221  0.362336  1
  Zn  Zn11  1  0.879221  0.362336  0.879221  1
  Zn  Zn12  1  0.637664  0.120779  0.120779  1
  Zn  Zn13  1  0.362336  0.879221  0.879221  1
  Zn  Zn14  1  0.500000  0.000000  0.000000  1
  Zn  Zn15  1  0.000000  0.500000  0.500000  1
  Zn  Zn16  1  0.000000  0.500000  0.000000  1
  Zn  Zn17  1  0.500000  0.000000  0.500000  1
  Zn  Zn18  1  0.000000  0.000000  0.500000  1
  Zn  Zn19  1  0.500000  0.500000  0.000000  1
  Zn  Zn20  1  0.334949  0.334949  0.334949  1
  Zn  Zn21  1  0.665051  0.665051  0.665051  1
  Zn  Zn22  1  0.334949  0.334949  0.995152  1
  Zn  Zn23  1  0.334949  0.995152  0.334949  1
  Zn  Zn24  1  0.665051  0.665051  0.004848  1
  Zn  Zn25  1  0.665051  0.004848  0.665051  1
  Zn  Zn26  1  0.995152  0.334949  0.334949  1
  Zn  Zn27  1  0.004848  0.665051  0.665051  1
  P  P28  1  0.500000  0.500000  0.500000  1
  Rh  Rh29  1  0.000000  0.000000  0.000000  1
