# generated using pymatgen
data_Ti5NbSbTe7
_symmetry_space_group_name_H-M   'P 1'
_cell_length_a   10.62064118
_cell_length_b   10.53406422
_cell_length_c   3.81852100
_cell_angle_alpha   90.00000000
_cell_angle_beta   90.00000000
_cell_angle_gamma   119.16416516
_symmetry_Int_Tables_number   1
_chemical_formula_structural   Ti5NbSbTe7
_chemical_formula_sum   'Ti5 Nb1 Sb1 Te7'
_cell_volume   373.05172503
_cell_formula_units_Z   1
loop_
 _symmetry_equiv_pos_site_id
 _symmetry_equiv_pos_as_xyz
  1  'x, y, z'
loop_
 _atom_site_type_symbol
 _atom_site_label
 _atom_site_symmetry_multiplicity
 _atom_site_fract_x
 _atom_site_fract_y
 _atom_site_fract_z
 _atom_site_occupancy
  Ti  Ti0  1  0.127161  0.636209  0.750000  1
  Ti  Ti1  1  0.362929  0.492909  0.750000  1
  Ti  Ti2  1  0.509267  0.882435  0.750000  1
  Ti  Ti3  1  0.871423  0.359572  0.250000  1
  Ti  Ti4  1  0.635828  0.506139  0.250000  1
  Nb  Nb5  1  0.492720  0.122627  0.250000  1
  Sb  Sb6  1  0.670762  0.334940  0.750000  1
  Te  Te7  1  0.334433  0.671740  0.250000  1
  Te  Te8  1  0.286674  0.947295  0.750000  1
  Te  Te9  1  0.054013  0.346526  0.750000  1
  Te  Te10  1  0.649055  0.704340  0.750000  1
  Te  Te11  1  0.711879  0.049001  0.250000  1
  Te  Te12  1  0.944686  0.649550  0.250000  1
  Te  Te13  1  0.349171  0.296716  0.250000  1
