# generated using pymatgen
data_Pr2Th(AgSn)4
_symmetry_space_group_name_H-M   'P 1'
_cell_length_a   8.95752403
_cell_length_b   8.95752310
_cell_length_c   8.95752327
_cell_angle_alpha   149.40849477
_cell_angle_beta   130.78751683
_cell_angle_gamma   59.06447615
_symmetry_Int_Tables_number   1
_chemical_formula_structural   Pr2Th(AgSn)4
_chemical_formula_sum   'Pr2 Th1 Ag4 Sn4'
_cell_volume   274.75734844
_cell_formula_units_Z   1
loop_
 _symmetry_equiv_pos_site_id
 _symmetry_equiv_pos_as_xyz
  1  'x, y, z'
loop_
 _atom_site_type_symbol
 _atom_site_label
 _atom_site_symmetry_multiplicity
 _atom_site_fract_x
 _atom_site_fract_y
 _atom_site_fract_z
 _atom_site_occupancy
  Pr  Pr0  1  0.499707  0.999707  0.500000  1
  Pr  Pr1  1  0.129007  0.129007  0.000000  1
  Th  Th2  1  0.870447  0.870447  0.000000  1
  Ag  Ag3  1  0.475792  0.670037  0.805756  1
  Ag  Ag4  1  0.864282  0.670037  0.194244  1
  Ag  Ag5  1  0.136041  0.330284  0.805758  1
  Ag  Ag6  1  0.524527  0.330284  0.194242  1
  Sn  Sn7  1  0.284864  0.784864  0.500000  1
  Sn  Sn8  1  0.716342  0.216342  0.500000  1
  Sn  Sn9  1  0.806237  0.499495  0.306741  1
  Sn  Sn10  1  0.192754  0.499495  0.693259  1
