# generated using pymatgen
data_Tb3YCo11(Ni3P4)3
_symmetry_space_group_name_H-M   'P 1'
_cell_length_a   3.68791100
_cell_length_b   10.29062217
_cell_length_c   11.84003608
_cell_angle_alpha   89.98299979
_cell_angle_beta   90.00000000
_cell_angle_gamma   90.00000000
_symmetry_Int_Tables_number   1
_chemical_formula_structural   Tb3YCo11(Ni3P4)3
_chemical_formula_sum   'Tb3 Y1 Co11 Ni9 P12'
_cell_volume   449.33998997
_cell_formula_units_Z   1
loop_
 _symmetry_equiv_pos_site_id
 _symmetry_equiv_pos_as_xyz
  1  'x, y, z'
loop_
 _atom_site_type_symbol
 _atom_site_label
 _atom_site_symmetry_multiplicity
 _atom_site_fract_x
 _atom_site_fract_y
 _atom_site_fract_z
 _atom_site_occupancy
  Tb  Tb0  1  0.250000  0.918203  0.204109  1
  Tb  Tb1  1  0.750000  0.418002  0.296504  1
  Tb  Tb2  1  0.750000  0.081851  0.797042  1
  Y  Y3  1  0.250000  0.582221  0.702983  1
  Co  Co4  1  0.250000  0.278176  0.675712  1
  Co  Co5  1  0.750000  0.778093  0.824241  1
  Co  Co6  1  0.750000  0.722176  0.324104  1
  Co  Co7  1  0.250000  0.880702  0.697878  1
  Co  Co8  1  0.250000  0.619810  0.197282  1
  Co  Co9  1  0.750000  0.119248  0.302871  1
  Co  Co10  1  0.750000  0.381549  0.801753  1
  Co  Co11  1  0.250000  0.467115  0.932369  1
  Co  Co12  1  0.250000  0.031858  0.433419  1
  Co  Co13  1  0.750000  0.532934  0.066588  1
  Co  Co14  1  0.750000  0.967266  0.567876  1
  Ni  Ni15  1  0.250000  0.711884  0.988598  1
  Ni  Ni16  1  0.250000  0.786813  0.489659  1
  Ni  Ni17  1  0.750000  0.285158  0.008555  1
  Ni  Ni18  1  0.750000  0.212683  0.511120  1
  Ni  Ni19  1  0.250000  0.408663  0.485271  1
  Ni  Ni20  1  0.250000  0.092301  0.986724  1
  Ni  Ni21  1  0.750000  0.591753  0.514289  1
  Ni  Ni22  1  0.750000  0.907677  0.014365  1
  Ni  Ni23  1  0.250000  0.223092  0.176460  1
  P  P24  1  0.250000  0.423851  0.112207  1
  P  P25  1  0.250000  0.079564  0.613070  1
  P  P26  1  0.750000  0.579671  0.886348  1
  P  P27  1  0.750000  0.920092  0.387916  1
  P  P28  1  0.250000  0.272786  0.865090  1
  P  P29  1  0.250000  0.226864  0.368404  1
  P  P30  1  0.750000  0.727749  0.134779  1
  P  P31  1  0.750000  0.772528  0.634438  1
  P  P32  1  0.250000  0.606314  0.387631  1
  P  P33  1  0.250000  0.893848  0.887747  1
  P  P34  1  0.750000  0.394584  0.611863  1
  P  P35  1  0.750000  0.102917  0.110737  1
