# generated using pymatgen
data_Cu2SiRh3S8
_symmetry_space_group_name_H-M   'P 1'
_cell_length_a   6.91637735
_cell_length_b   7.00817104
_cell_length_c   7.01494841
_cell_angle_alpha   60.03986222
_cell_angle_beta   59.63428005
_cell_angle_gamma   59.62461759
_symmetry_Int_Tables_number   1
_chemical_formula_structural   Cu2SiRh3S8
_chemical_formula_sum   'Cu2 Si1 Rh3 S8'
_cell_volume   239.14799855
_cell_formula_units_Z   1
loop_
 _symmetry_equiv_pos_site_id
 _symmetry_equiv_pos_as_xyz
  1  'x, y, z'
loop_
 _atom_site_type_symbol
 _atom_site_label
 _atom_site_symmetry_multiplicity
 _atom_site_fract_x
 _atom_site_fract_y
 _atom_site_fract_z
 _atom_site_occupancy
  Cu  Cu0  1  0.746435  0.750413  0.751069  1
  Cu  Cu1  1  0.503565  0.499587  0.498931  1
  Si  Si2  1  0.625000  0.125000  0.125000  1
  Rh  Rh3  1  0.125000  0.125000  0.625000  1
  Rh  Rh4  1  0.125000  0.625000  0.125000  1
  Rh  Rh5  1  0.125000  0.125000  0.125000  1
  S  S6  1  0.878598  0.344151  0.888645  1
  S  S7  1  0.371469  0.361366  0.905712  1
  S  S8  1  0.371243  0.361582  0.361616  1
  S  S9  1  0.905594  0.364893  0.364934  1
  S  S10  1  0.878757  0.888418  0.888384  1
  S  S11  1  0.344406  0.885107  0.885066  1
  S  S12  1  0.371402  0.905849  0.361355  1
  S  S13  1  0.878531  0.888634  0.344288  1
