# generated using pymatgen
data_Dy5Er(In4Hg)2
_symmetry_space_group_name_H-M   'P 1'
_cell_length_a   6.36154000
_cell_length_b   6.36153924
_cell_length_c   10.47492400
_cell_angle_alpha   90.00000000
_cell_angle_beta   90.00000000
_cell_angle_gamma   103.21440406
_symmetry_Int_Tables_number   1
_chemical_formula_structural   Dy5Er(In4Hg)2
_chemical_formula_sum   'Dy5 Er1 In8 Hg2'
_cell_volume   412.68709169
_cell_formula_units_Z   1
loop_
 _symmetry_equiv_pos_site_id
 _symmetry_equiv_pos_as_xyz
  1  'x, y, z'
loop_
 _atom_site_type_symbol
 _atom_site_label
 _atom_site_symmetry_multiplicity
 _atom_site_fract_x
 _atom_site_fract_y
 _atom_site_fract_z
 _atom_site_occupancy
  Dy  Dy0  1  0.621935  0.621935  0.250000  1
  Dy  Dy1  1  0.203294  0.796213  0.500228  1
  Dy  Dy2  1  0.203294  0.796213  0.999772  1
  Dy  Dy3  1  0.796213  0.203294  0.500228  1
  Dy  Dy4  1  0.796213  0.203294  0.999772  1
  Er  Er5  1  0.377745  0.377745  0.750000  1
  In  In6  1  0.311008  0.311008  0.043098  1
  In  In7  1  0.688614  0.688614  0.955764  1
  In  In8  1  0.311008  0.311008  0.456902  1
  In  In9  1  0.688614  0.688614  0.544236  1
  In  In10  1  0.511099  0.074409  0.250000  1
  In  In11  1  0.926584  0.489005  0.750000  1
  In  In12  1  0.489005  0.926584  0.750000  1
  In  In13  1  0.074409  0.511099  0.250000  1
  Hg  Hg14  1  0.007502  0.007502  0.250000  1
  Hg  Hg15  1  0.993464  0.993464  0.750000  1
