# generated using pymatgen
data_CeDy15MgCd3Co4
_symmetry_space_group_name_H-M   'P 1'
_cell_length_a   9.47022351
_cell_length_b   9.54107788
_cell_length_c   9.47022300
_cell_angle_alpha   60.24535393
_cell_angle_beta   59.99999830
_cell_angle_gamma   60.24535449
_symmetry_Int_Tables_number   1
_chemical_formula_structural   CeDy15MgCd3Co4
_chemical_formula_sum   'Ce1 Dy15 Mg1 Cd3 Co4'
_cell_volume   607.30037554
_cell_formula_units_Z   1
loop_
 _symmetry_equiv_pos_site_id
 _symmetry_equiv_pos_as_xyz
  1  'x, y, z'
loop_
 _atom_site_type_symbol
 _atom_site_label
 _atom_site_symmetry_multiplicity
 _atom_site_fract_x
 _atom_site_fract_y
 _atom_site_fract_z
 _atom_site_occupancy
  Ce  Ce0  1  0.159672  0.520983  0.159672  1
  Dy  Dy1  1  0.685929  0.315741  0.685929  1
  Dy  Dy2  1  0.685929  0.315741  0.312402  1
  Dy  Dy3  1  0.937522  0.564011  0.560945  1
  Dy  Dy4  1  0.539668  0.150674  0.154829  1
  Dy  Dy5  1  0.154829  0.150674  0.539668  1
  Dy  Dy6  1  0.936397  0.936762  0.563421  1
  Dy  Dy7  1  0.311436  0.690061  0.311436  1
  Dy  Dy8  1  0.563421  0.936762  0.936397  1
  Dy  Dy9  1  0.563421  0.936762  0.563421  1
  Dy  Dy10  1  0.687066  0.690061  0.311436  1
  Dy  Dy11  1  0.560945  0.564011  0.937522  1
  Dy  Dy12  1  0.937522  0.564011  0.937522  1
  Dy  Dy13  1  0.311436  0.690061  0.687066  1
  Dy  Dy14  1  0.154829  0.150674  0.154829  1
  Dy  Dy15  1  0.312402  0.315741  0.685929  1
  Mg  Mg16  1  0.924768  0.225695  0.924768  1
  Cd  Cd17  1  0.919908  0.917601  0.919908  1
  Cd  Cd18  1  0.919908  0.917601  0.242583  1
  Cd  Cd19  1  0.242583  0.917601  0.919908  1
  Co  Co20  1  0.351518  0.368275  0.928691  1
  Co  Co21  1  0.358685  0.923946  0.358685  1
  Co  Co22  1  0.928691  0.368275  0.351518  1
  Co  Co23  1  0.351518  0.368275  0.351518  1
