# generated using pymatgen
data_Cs7HfTl2InBi5
_symmetry_space_group_name_H-M   'P 1'
_cell_length_a   9.55253035
_cell_length_b   10.43752764
_cell_length_c   16.07744200
_cell_angle_alpha   85.39895083
_cell_angle_beta   83.61340098
_cell_angle_gamma   87.44225471
_symmetry_Int_Tables_number   1
_chemical_formula_structural   Cs7HfTl2InBi5
_chemical_formula_sum   'Cs14 Hf2 Tl4 In2 Bi10'
_cell_volume   1586.88439695
_cell_formula_units_Z   2
loop_
 _symmetry_equiv_pos_site_id
 _symmetry_equiv_pos_as_xyz
  1  'x, y, z'
loop_
 _atom_site_type_symbol
 _atom_site_label
 _atom_site_symmetry_multiplicity
 _atom_site_fract_x
 _atom_site_fract_y
 _atom_site_fract_z
 _atom_site_occupancy
  Cs  Cs0  1  0.838069  0.365257  0.639814  1
  Cs  Cs1  1  0.817792  0.818906  0.126354  1
  Cs  Cs2  1  0.245176  0.010394  0.471898  1
  Cs  Cs3  1  0.272121  0.257888  0.254942  1
  Cs  Cs4  1  0.737652  0.502899  0.977852  1
  Cs  Cs5  1  0.261144  0.497476  0.021375  1
  Cs  Cs6  1  0.689270  0.075685  0.883471  1
  Cs  Cs7  1  0.748203  0.990910  0.529930  1
  Cs  Cs8  1  0.729000  0.737580  0.746099  1
  Cs  Cs9  1  0.322556  0.339898  0.611040  1
  Cs  Cs10  1  0.161437  0.631955  0.360186  1
  Cs  Cs11  1  0.182133  0.179492  0.875177  1
  Cs  Cs12  1  0.313540  0.923415  0.117136  1
  Cs  Cs13  1  0.675817  0.663365  0.387579  1
  Hf  Hf14  1  0.353475  0.611606  0.771398  1
  Hf  Hf15  1  0.647513  0.388155  0.227970  1
  Tl  Tl16  1  0.046510  0.814185  0.871171  1
  Tl  Tl17  1  0.956745  0.185465  0.128334  1
  Tl  Tl18  1  0.349562  0.952960  0.702897  1
  Tl  Tl19  1  0.088260  0.719983  0.619613  1
  In  In20  1  0.909186  0.280087  0.376449  1
  In  In21  1  0.658490  0.059151  0.294086  1
  Bi  Bi22  1  0.935495  0.461319  0.208803  1
  Bi  Bi23  1  0.624879  0.179332  0.117511  1
  Bi  Bi24  1  0.066130  0.536350  0.792472  1
  Bi  Bi25  1  0.580349  0.284923  0.403637  1
  Bi  Bi26  1  0.423586  0.711701  0.595508  1
  Bi  Bi27  1  0.020356  0.017645  0.696884  1
  Bi  Bi28  1  0.520757  0.391842  0.808992  1
  Bi  Bi29  1  0.478300  0.606080  0.190800  1
  Bi  Bi30  1  0.376410  0.819022  0.883337  1
  Bi  Bi31  1  0.970084  0.985068  0.307288  1
