# generated using pymatgen
data_LaEu3H10
_symmetry_space_group_name_H-M   'P 1'
_cell_length_a   6.73036784
_cell_length_b   6.73036807
_cell_length_c   6.73036794
_cell_angle_alpha   131.61388208
_cell_angle_beta   130.68684477
_cell_angle_gamma   71.57689362
_symmetry_Int_Tables_number   1
_chemical_formula_structural   LaEu3H10
_chemical_formula_sum   'La1 Eu3 H10'
_cell_volume   169.12260845
_cell_formula_units_Z   1
loop_
 _symmetry_equiv_pos_site_id
 _symmetry_equiv_pos_as_xyz
  1  'x, y, z'
loop_
 _atom_site_type_symbol
 _atom_site_label
 _atom_site_symmetry_multiplicity
 _atom_site_fract_x
 _atom_site_fract_y
 _atom_site_fract_z
 _atom_site_occupancy
  La  La0  1  0.765143  0.765143  0.000000  1
  Eu  Eu1  1  0.514071  0.014071  0.500000  1
  Eu  Eu2  1  0.235982  0.235982  0.000000  1
  Eu  Eu3  1  0.986057  0.486057  0.500000  1
  H  H4  1  0.594384  0.625498  0.469021  1
  H  H5  1  0.156477  0.125363  0.530979  1
  H  H6  1  0.594384  0.125363  0.968886  1
  H  H7  1  0.156477  0.625498  0.031114  1
  H  H8  1  0.374545  0.404584  0.528247  1
  H  H9  1  0.876337  0.846298  0.471753  1
  H  H10  1  0.876337  0.404584  0.030039  1
  H  H11  1  0.374545  0.846298  0.969961  1
  H  H12  1  0.751147  0.251147  0.500000  1
  H  H13  1  0.994114  0.994114  0.000000  1
