# generated using pymatgen
data_SrMn5(AsO4)4
_symmetry_space_group_name_H-M   'P 1'
_cell_length_a   9.20536770
_cell_length_b   5.50262633
_cell_length_c   9.68230061
_cell_angle_alpha   59.08191696
_cell_angle_beta   90.21951497
_cell_angle_gamma   90.79266285
_symmetry_Int_Tables_number   1
_chemical_formula_structural   SrMn5(AsO4)4
_chemical_formula_sum   'Sr1 Mn5 As4 O16'
_cell_volume   420.71022896
_cell_formula_units_Z   1
loop_
 _symmetry_equiv_pos_site_id
 _symmetry_equiv_pos_as_xyz
  1  'x, y, z'
loop_
 _atom_site_type_symbol
 _atom_site_label
 _atom_site_symmetry_multiplicity
 _atom_site_fract_x
 _atom_site_fract_y
 _atom_site_fract_z
 _atom_site_occupancy
  Sr  Sr0  1  0.000000  0.500000  0.500000  1
  Mn  Mn1  1  0.144158  0.465592  0.109088  1
  Mn  Mn2  1  0.633053  0.495251  0.391451  1
  Mn  Mn3  1  0.855842  0.534408  0.890912  1
  Mn  Mn4  1  0.366947  0.504749  0.608549  1
  Mn  Mn5  1  0.500000  0.500000  0.000000  1
  As  As6  1  0.313431  0.832641  0.192934  1
  As  As7  1  0.789564  0.163420  0.286932  1
  As  As8  1  0.686569  0.167359  0.807066  1
  As  As9  1  0.210436  0.836580  0.713068  1
  O  O10  1  0.078791  0.674862  0.863038  1
  O  O11  1  0.573363  0.323962  0.640747  1
  O  O12  1  0.921209  0.325138  0.136962  1
  O  O13  1  0.426637  0.676038  0.359253  1
  O  O14  1  0.213936  0.188260  0.651578  1
  O  O15  1  0.692660  0.810979  0.875374  1
  O  O16  1  0.786064  0.811740  0.348422  1
  O  O17  1  0.307340  0.189021  0.124626  1
  O  O18  1  0.171126  0.790150  0.554184  1
  O  O19  1  0.638254  0.238281  0.953727  1
  O  O20  1  0.144030  0.669035  0.247658  1
  O  O21  1  0.625195  0.336736  0.226016  1
  O  O22  1  0.855970  0.330965  0.752342  1
  O  O23  1  0.374805  0.663264  0.773984  1
  O  O24  1  0.361746  0.761719  0.046273  1
  O  O25  1  0.828874  0.209850  0.445816  1
