# generated using pymatgen
data_TmLu7(Si4W3)4
_symmetry_space_group_name_H-M   'P 1'
_cell_length_a   6.70243025
_cell_length_b   6.89126671
_cell_length_c   12.81508623
_cell_angle_alpha   89.99386243
_cell_angle_beta   90.00136927
_cell_angle_gamma   89.98803063
_symmetry_Int_Tables_number   1
_chemical_formula_structural   TmLu7(Si4W3)4
_chemical_formula_sum   'Tm1 Lu7 Si16 W12'
_cell_volume   591.90619066
_cell_formula_units_Z   1
loop_
 _symmetry_equiv_pos_site_id
 _symmetry_equiv_pos_as_xyz
  1  'x, y, z'
loop_
 _atom_site_type_symbol
 _atom_site_label
 _atom_site_symmetry_multiplicity
 _atom_site_fract_x
 _atom_site_fract_y
 _atom_site_fract_z
 _atom_site_occupancy
  Tm  Tm0  1  0.994432  0.831363  0.592709  1
  Lu  Lu1  1  0.494377  0.668491  0.592877  1
  Lu  Lu2  1  0.994591  0.831455  0.907084  1
  Lu  Lu3  1  0.505634  0.331384  0.093038  1
  Lu  Lu4  1  0.005554  0.168846  0.407204  1
  Lu  Lu5  1  0.505376  0.331429  0.407372  1
  Lu  Lu6  1  0.005417  0.168634  0.092975  1
  Lu  Lu7  1  0.494530  0.668793  0.906769  1
  Si  Si8  1  0.663406  0.959949  0.453655  1
  Si  Si9  1  0.163718  0.540073  0.046377  1
  Si  Si10  1  0.336651  0.040368  0.953508  1
  Si  Si11  1  0.836116  0.459258  0.546372  1
  Si  Si12  1  0.336499  0.040265  0.546268  1
  Si  Si13  1  0.836275  0.459777  0.953528  1
  Si  Si14  1  0.663556  0.959641  0.046486  1
  Si  Si15  1  0.163754  0.540314  0.453533  1
  Si  Si16  1  0.464486  0.373818  0.750155  1
  Si  Si17  1  0.964615  0.126384  0.749837  1
  Si  Si18  1  0.535402  0.626220  0.249934  1
  Si  Si19  1  0.035410  0.873795  0.250099  1
  Si  Si20  1  0.697280  0.862914  0.750050  1
  Si  Si21  1  0.197489  0.636843  0.750106  1
  Si  Si22  1  0.302688  0.137305  0.250155  1
  Si  Si23  1  0.802674  0.362730  0.250207  1
  W  W24  1  0.667873  0.164119  0.625151  1
  W  W25  1  0.168480  0.336232  0.874726  1
  W  W26  1  0.331097  0.836656  0.124759  1
  W  W27  1  0.831009  0.663442  0.374975  1
  W  W28  1  0.331560  0.836356  0.374909  1
  W  W29  1  0.831369  0.663498  0.125002  1
  W  W30  1  0.669167  0.163207  0.875106  1
  W  W31  1  0.169102  0.336574  0.624735  1
  W  W32  1  0.832692  0.502130  0.750044  1
  W  W33  1  0.333402  0.997700  0.749902  1
  W  W34  1  0.167188  0.497611  0.250104  1
  W  W35  1  0.667132  0.002432  0.250288  1
