# generated using pymatgen
data_CoTc3P4
_symmetry_space_group_name_H-M   'P 1'
_cell_length_a   3.08967600
_cell_length_b   5.59997318
_cell_length_c   6.14649352
_cell_angle_alpha   90.10239631
_cell_angle_beta   90.00000000
_cell_angle_gamma   90.00000000
_symmetry_Int_Tables_number   1
_chemical_formula_structural   CoTc3P4
_chemical_formula_sum   'Co1 Tc3 P4'
_cell_volume   106.34709244
_cell_formula_units_Z   1
loop_
 _symmetry_equiv_pos_site_id
 _symmetry_equiv_pos_as_xyz
  1  'x, y, z'
loop_
 _atom_site_type_symbol
 _atom_site_label
 _atom_site_symmetry_multiplicity
 _atom_site_fract_x
 _atom_site_fract_y
 _atom_site_fract_z
 _atom_site_occupancy
  Co  Co0  1  0.750000  0.998669  0.218394  1
  Tc  Tc1  1  0.250000  0.503806  0.691690  1
  Tc  Tc2  1  0.750000  0.494850  0.295747  1
  Tc  Tc3  1  0.250000  0.004640  0.803993  1
  P  P4  1  0.250000  0.698297  0.062045  1
  P  P5  1  0.750000  0.306401  0.944404  1
  P  P6  1  0.250000  0.178749  0.426414  1
  P  P7  1  0.750000  0.814588  0.557313  1
