# generated using pymatgen
data_Li4Nd6Pd12Rh
_symmetry_space_group_name_H-M   'P 1'
_cell_length_a   8.38072155
_cell_length_b   8.38072119
_cell_length_c   8.38072200
_cell_angle_alpha   109.47122260
_cell_angle_beta   109.47122172
_cell_angle_gamma   109.47122043
_symmetry_Int_Tables_number   1
_chemical_formula_structural   Li4Nd6Pd12Rh
_chemical_formula_sum   'Li4 Nd6 Pd12 Rh1'
_cell_volume   453.12949575
_cell_formula_units_Z   1
loop_
 _symmetry_equiv_pos_site_id
 _symmetry_equiv_pos_as_xyz
  1  'x, y, z'
loop_
 _atom_site_type_symbol
 _atom_site_label
 _atom_site_symmetry_multiplicity
 _atom_site_fract_x
 _atom_site_fract_y
 _atom_site_fract_z
 _atom_site_occupancy
  Li  Li0  1  0.000000  0.000000  0.500000  1
  Li  Li1  1  0.000000  0.500000  0.000000  1
  Li  Li2  1  0.500000  0.000000  0.000000  1
  Li  Li3  1  0.500000  0.500000  0.500000  1
  Nd  Nd4  1  0.699311  0.699311  0.000000  1
  Nd  Nd5  1  0.300689  0.000000  0.300689  1
  Nd  Nd6  1  0.000000  0.300689  0.300689  1
  Nd  Nd7  1  0.300689  0.300689  0.000000  1
  Nd  Nd8  1  0.699311  0.000000  0.699311  1
  Nd  Nd9  1  0.000000  0.699311  0.699311  1
  Pd  Pd10  1  0.332826  0.332826  0.665651  1
  Pd  Pd11  1  0.667174  0.000000  0.332826  1
  Pd  Pd12  1  0.000000  0.667174  0.332826  1
  Pd  Pd13  1  0.667174  0.332826  0.000000  1
  Pd  Pd14  1  0.332826  0.665651  0.332826  1
  Pd  Pd15  1  0.000000  0.332826  0.667174  1
  Pd  Pd16  1  0.332826  0.667174  0.000000  1
  Pd  Pd17  1  0.332826  0.000000  0.667174  1
  Pd  Pd18  1  0.665651  0.332826  0.332826  1
  Pd  Pd19  1  0.667174  0.667174  0.334349  1
  Pd  Pd20  1  0.667174  0.334349  0.667174  1
  Pd  Pd21  1  0.334349  0.667174  0.667174  1
  Rh  Rh22  1  0.000000  0.000000  0.000000  1
