# generated using pymatgen
data_Pr3Er3FeCl10
_symmetry_space_group_name_H-M   'P 1'
_cell_length_a   7.28868620
_cell_length_b   8.81900708
_cell_length_c   9.07507600
_cell_angle_alpha   109.36151223
_cell_angle_beta   97.52161863
_cell_angle_gamma   105.25368964
_symmetry_Int_Tables_number   1
_chemical_formula_structural   Pr3Er3FeCl10
_chemical_formula_sum   'Pr3 Er3 Fe1 Cl10'
_cell_volume   515.48659416
_cell_formula_units_Z   1
loop_
 _symmetry_equiv_pos_site_id
 _symmetry_equiv_pos_as_xyz
  1  'x, y, z'
loop_
 _atom_site_type_symbol
 _atom_site_label
 _atom_site_symmetry_multiplicity
 _atom_site_fract_x
 _atom_site_fract_y
 _atom_site_fract_z
 _atom_site_occupancy
  Pr  Pr0  1  0.030430  0.712883  0.908135  1
  Pr  Pr1  1  0.377871  0.152863  0.204613  1
  Pr  Pr2  1  0.964509  0.284315  0.086974  1
  Er  Er3  1  0.129060  0.049925  0.750843  1
  Er  Er4  1  0.634102  0.858135  0.807114  1
  Er  Er5  1  0.863782  0.943687  0.245156  1
  Fe  Fe6  1  0.999730  0.998792  0.000014  1
  Cl  Cl7  1  0.219915  0.759398  0.654478  1
  Cl  Cl8  1  0.636432  0.549389  0.721069  1
  Cl  Cl9  1  0.223251  0.075254  0.457734  1
  Cl  Cl10  1  0.806571  0.244523  0.356196  1
  Cl  Cl11  1  0.542826  0.163391  0.912193  1
  Cl  Cl12  1  0.761319  0.916455  0.549945  1
  Cl  Cl13  1  0.900229  0.636116  0.171326  1
  Cl  Cl14  1  0.351125  0.468303  0.275658  1
  Cl  Cl15  1  0.097604  0.359919  0.824941  1
  Cl  Cl16  1  0.461245  0.826652  0.073610  1
