# generated using pymatgen
data_Tb8MnOsI8
_symmetry_space_group_name_H-M   'P 1'
_cell_length_a   11.28127205
_cell_length_b   11.28127453
_cell_length_c   6.14984100
_cell_angle_alpha   90.00599311
_cell_angle_beta   90.00599380
_cell_angle_gamma   90.02691237
_symmetry_Int_Tables_number   1
_chemical_formula_structural   Tb8MnOsI8
_chemical_formula_sum   'Tb8 Mn1 Os1 I8'
_cell_volume   782.67250158
_cell_formula_units_Z   1
loop_
 _symmetry_equiv_pos_site_id
 _symmetry_equiv_pos_as_xyz
  1  'x, y, z'
loop_
 _atom_site_type_symbol
 _atom_site_label
 _atom_site_symmetry_multiplicity
 _atom_site_fract_x
 _atom_site_fract_y
 _atom_site_fract_z
 _atom_site_occupancy
  Tb  Tb0  1  0.801990  0.081431  0.004009  1
  Tb  Tb1  1  0.081434  0.801987  0.496622  1
  Tb  Tb2  1  0.081044  0.197622  0.003954  1
  Tb  Tb3  1  0.197622  0.081042  0.496540  1
  Tb  Tb4  1  0.918958  0.802378  0.003460  1
  Tb  Tb5  1  0.918569  0.198010  0.495991  1
  Tb  Tb6  1  0.198013  0.918566  0.003378  1
  Tb  Tb7  1  0.802378  0.918956  0.496046  1
  Mn  Mn8  1  0.999989  0.000011  0.250000  1
  Os  Os9  1  0.999966  0.000034  0.750000  1
  I  I10  1  0.642921  0.150048  0.496685  1
  I  I11  1  0.850248  0.643018  0.502487  1
  I  I12  1  0.356982  0.149752  0.997513  1
  I  I13  1  0.149783  0.356979  0.496596  1
  I  I14  1  0.643021  0.850217  0.003404  1
  I  I15  1  0.357071  0.849940  0.502384  1
  I  I16  1  0.150060  0.642929  0.997616  1
  I  I17  1  0.849952  0.357079  0.003315  1
