# generated using pymatgen
data_TmLu7(Si3Rh)4
_symmetry_space_group_name_H-M   'P 1'
_cell_length_a   8.10416000
_cell_length_b   8.10417120
_cell_length_c   7.69642500
_cell_angle_alpha   90.00000000
_cell_angle_beta   90.00000000
_cell_angle_gamma   120.00261068
_symmetry_Int_Tables_number   1
_chemical_formula_structural   TmLu7(Si3Rh)4
_chemical_formula_sum   'Tm1 Lu7 Si12 Rh4'
_cell_volume   437.74869635
_cell_formula_units_Z   1
loop_
 _symmetry_equiv_pos_site_id
 _symmetry_equiv_pos_as_xyz
  1  'x, y, z'
loop_
 _atom_site_type_symbol
 _atom_site_label
 _atom_site_symmetry_multiplicity
 _atom_site_fract_x
 _atom_site_fract_y
 _atom_site_fract_z
 _atom_site_occupancy
  Tm  Tm0  1  0.000004  0.000006  0.250000  1
  Lu  Lu1  1  0.981201  0.490616  0.250000  1
  Lu  Lu2  1  0.509387  0.490593  0.250000  1
  Lu  Lu3  1  0.490567  0.981141  0.750000  1
  Lu  Lu4  1  0.018839  0.509416  0.750000  1
  Lu  Lu5  1  0.490576  0.509424  0.750000  1
  Lu  Lu6  1  0.509408  0.018816  0.250000  1
  Lu  Lu7  1  0.999999  0.999995  0.750000  1
  Si  Si8  1  0.166868  0.833132  0.500289  1
  Si  Si9  1  0.166861  0.333735  0.500282  1
  Si  Si10  1  0.666270  0.833137  0.500289  1
  Si  Si11  1  0.333780  0.166893  0.999418  1
  Si  Si12  1  0.833116  0.666222  0.500586  1
  Si  Si13  1  0.833115  0.166896  0.999416  1
  Si  Si14  1  0.833116  0.666222  0.999414  1
  Si  Si15  1  0.166861  0.333735  0.999718  1
  Si  Si16  1  0.666270  0.833137  0.999711  1
  Si  Si17  1  0.333780  0.166893  0.500582  1
  Si  Si18  1  0.833115  0.166896  0.500584  1
  Si  Si19  1  0.166868  0.833132  0.999711  1
  Rh  Rh20  1  0.333324  0.666647  0.034914  1
  Rh  Rh21  1  0.666676  0.333336  0.964587  1
  Rh  Rh22  1  0.666676  0.333336  0.535413  1
  Rh  Rh23  1  0.333324  0.666647  0.465086  1
