# generated using pymatgen
data_CrReCl10
_symmetry_space_group_name_H-M   'P 1'
_cell_length_a   6.54855024
_cell_length_b   7.01071237
_cell_length_c   10.98444000
_cell_angle_alpha   99.21556490
_cell_angle_beta   91.92385227
_cell_angle_gamma   113.69486836
_symmetry_Int_Tables_number   1
_chemical_formula_structural   CrReCl10
_chemical_formula_sum   'Cr1 Re1 Cl10'
_cell_volume   453.13929434
_cell_formula_units_Z   1
loop_
 _symmetry_equiv_pos_site_id
 _symmetry_equiv_pos_as_xyz
  1  'x, y, z'
loop_
 _atom_site_type_symbol
 _atom_site_label
 _atom_site_symmetry_multiplicity
 _atom_site_fract_x
 _atom_site_fract_y
 _atom_site_fract_z
 _atom_site_occupancy
  Cr  Cr0  1  0.137716  0.790695  0.791066  1
  Re  Re1  1  0.901806  0.292787  0.292326  1
  Cl  Cl2  1  0.181926  0.605045  0.395356  1
  Cl  Cl3  1  0.107354  0.111636  0.343760  1
  Cl  Cl4  1  0.729420  0.240158  0.470458  1
  Cl  Cl5  1  0.435260  0.073097  0.823449  1
  Cl  Cl6  1  0.913754  0.808034  0.654837  1
  Cl  Cl7  1  0.624481  0.981062  0.185754  1
  Cl  Cl8  1  0.071112  0.341381  0.113028  1
  Cl  Cl9  1  0.215294  0.529221  0.727808  1
  Cl  Cl10  1  0.695791  0.475836  0.245010  1
  Cl  Cl11  1  0.986087  0.751044  0.957149  1
