# generated using pymatgen
data_Pr8HoSc10Si16Ag
_symmetry_space_group_name_H-M   'P 1'
_cell_length_a   7.21427645
_cell_length_b   7.58258180
_cell_length_c   14.35361895
_cell_angle_alpha   89.93124244
_cell_angle_beta   90.12453906
_cell_angle_gamma   90.30408342
_symmetry_Int_Tables_number   1
_chemical_formula_structural   Pr8HoSc10Si16Ag
_chemical_formula_sum   'Pr8 Ho1 Sc10 Si16 Ag1'
_cell_volume   785.17027158
_cell_formula_units_Z   1
loop_
 _symmetry_equiv_pos_site_id
 _symmetry_equiv_pos_as_xyz
  1  'x, y, z'
loop_
 _atom_site_type_symbol
 _atom_site_label
 _atom_site_symmetry_multiplicity
 _atom_site_fract_x
 _atom_site_fract_y
 _atom_site_fract_z
 _atom_site_occupancy
  Pr  Pr0  1  0.013155  0.173201  0.401246  1
  Pr  Pr1  1  0.512642  0.329548  0.399734  1
  Pr  Pr2  1  0.490723  0.682291  0.899942  1
  Pr  Pr3  1  0.490488  0.683868  0.601802  1
  Pr  Pr4  1  0.977417  0.826589  0.602902  1
  Pr  Pr5  1  0.979558  0.826393  0.900286  1
  Pr  Pr6  1  0.511316  0.329649  0.097983  1
  Pr  Pr7  1  0.012591  0.173173  0.098008  1
  Ho  Ho8  1  0.334361  0.172702  0.623395  1
  Sc  Sc9  1  0.673168  0.820496  0.371851  1
  Sc  Sc10  1  0.171897  0.676696  0.374439  1
  Sc  Sc11  1  0.826664  0.316274  0.876176  1
  Sc  Sc12  1  0.826983  0.315047  0.625780  1
  Sc  Sc13  1  0.841464  0.502350  0.249589  1
  Sc  Sc14  1  0.341151  0.997244  0.249135  1
  Sc  Sc15  1  0.334178  0.172433  0.875692  1
  Sc  Sc16  1  0.171519  0.677055  0.124213  1
  Sc  Sc17  1  0.672162  0.821803  0.125913  1
  Sc  Sc18  1  0.156847  0.496905  0.752242  1
  Si  Si19  1  0.274703  0.879033  0.752467  1
  Si  Si20  1  0.467090  0.622977  0.248940  1
  Si  Si21  1  0.036808  0.121878  0.753361  1
  Si  Si22  1  0.532579  0.389513  0.752317  1
  Si  Si23  1  0.147993  0.470004  0.539382  1
  Si  Si24  1  0.968072  0.873675  0.249260  1
  Si  Si25  1  0.711059  0.116345  0.249320  1
  Si  Si26  1  0.850245  0.536064  0.038486  1
  Si  Si27  1  0.348953  0.963608  0.039657  1
  Si  Si28  1  0.153251  0.464616  0.959878  1
  Si  Si29  1  0.661566  0.040105  0.526386  1
  Si  Si30  1  0.353749  0.960177  0.455453  1
  Si  Si31  1  0.849221  0.537397  0.461509  1
  Si  Si32  1  0.791367  0.595964  0.751074  1
  Si  Si33  1  0.210187  0.386499  0.249199  1
  Si  Si34  1  0.652900  0.041238  0.969151  1
  Ag  Ag35  1  0.651971  0.007192  0.753834  1
