# generated using pymatgen
data_TbNdHo6(CdPt)2
_symmetry_space_group_name_H-M   'P 1'
_cell_length_a   9.69997635
_cell_length_b   9.68917124
_cell_length_c   9.67618591
_cell_angle_alpha   60.11818512
_cell_angle_beta   60.00728790
_cell_angle_gamma   59.87451988
_symmetry_Int_Tables_number   1
_chemical_formula_structural   TbNdHo6(CdPt)2
_chemical_formula_sum   'Tb2 Nd2 Ho12 Cd4 Pt4'
_cell_volume   643.04675760
_cell_formula_units_Z   2
loop_
 _symmetry_equiv_pos_site_id
 _symmetry_equiv_pos_as_xyz
  1  'x, y, z'
loop_
 _atom_site_type_symbol
 _atom_site_label
 _atom_site_symmetry_multiplicity
 _atom_site_fract_x
 _atom_site_fract_y
 _atom_site_fract_z
 _atom_site_occupancy
  Tb  Tb0  1  0.564128  0.935872  0.564128  1
  Tb  Tb1  1  0.935872  0.564128  0.935872  1
  Nd  Nd2  1  0.566364  0.566364  0.933636  1
  Nd  Nd3  1  0.933636  0.933636  0.566364  1
  Ho  Ho4  1  0.352337  0.350234  0.351301  1
  Ho  Ho5  1  0.350234  0.352337  0.946129  1
  Ho  Ho6  1  0.351301  0.946129  0.352337  1
  Ho  Ho7  1  0.946129  0.351301  0.350234  1
  Ho  Ho8  1  0.810890  0.189110  0.189110  1
  Ho  Ho9  1  0.189110  0.810890  0.810890  1
  Ho  Ho10  1  0.189309  0.810691  0.189309  1
  Ho  Ho11  1  0.810691  0.189309  0.810691  1
  Ho  Ho12  1  0.189442  0.189442  0.810558  1
  Ho  Ho13  1  0.810558  0.810558  0.189442  1
  Ho  Ho14  1  0.940437  0.559563  0.559563  1
  Ho  Ho15  1  0.559563  0.940437  0.940437  1
  Cd  Cd16  1  0.583067  0.580630  0.578736  1
  Cd  Cd17  1  0.580630  0.583067  0.257567  1
  Cd  Cd18  1  0.578736  0.257567  0.583067  1
  Cd  Cd19  1  0.257567  0.578736  0.580630  1
  Pt  Pt20  1  0.145185  0.142981  0.140962  1
  Pt  Pt21  1  0.142981  0.145185  0.570873  1
  Pt  Pt22  1  0.140962  0.570873  0.145185  1
  Pt  Pt23  1  0.570873  0.140962  0.142981  1
