# generated using pymatgen
data_Er2Co2Si4IrRh3
_symmetry_space_group_name_H-M   'P 1'
_cell_length_a   6.45247038
_cell_length_b   6.59438539
_cell_length_c   6.45247087
_cell_angle_alpha   131.13119017
_cell_angle_beta   113.39698245
_cell_angle_gamma   86.10892967
_symmetry_Int_Tables_number   1
_chemical_formula_structural   Er2Co2Si4IrRh3
_chemical_formula_sum   'Er2 Co2 Si4 Ir1 Rh3'
_cell_volume   182.21646888
_cell_formula_units_Z   1
loop_
 _symmetry_equiv_pos_site_id
 _symmetry_equiv_pos_as_xyz
  1  'x, y, z'
loop_
 _atom_site_type_symbol
 _atom_site_label
 _atom_site_symmetry_multiplicity
 _atom_site_fract_x
 _atom_site_fract_y
 _atom_site_fract_z
 _atom_site_occupancy
  Er  Er0  1  0.754277  0.041388  0.286606  1
  Er  Er1  1  0.245217  0.958612  0.712888  1
  Co  Co2  1  0.218927  0.500000  0.718927  1
  Co  Co3  1  0.780826  0.500000  0.280826  1
  Si  Si4  1  0.575146  0.388015  0.811408  1
  Si  Si5  1  0.927337  0.715271  0.790126  1
  Si  Si6  1  0.423393  0.611985  0.187131  1
  Si  Si7  1  0.074855  0.284729  0.212066  1
  Ir  Ir8  1  0.717799  0.000000  0.717799  1
  Rh  Rh9  1  0.499349  0.499824  0.499818  1
  Rh  Rh10  1  0.999993  0.500176  0.999525  1
  Rh  Rh11  1  0.282880  0.000000  0.282880  1
