# generated using pymatgen
data_Ca(AcSi)4
_symmetry_space_group_name_H-M   'P 1'
_cell_length_a   8.22637500
_cell_length_b   8.22637500
_cell_length_c   16.16064900
_cell_angle_alpha   90.00000000
_cell_angle_beta   90.00000000
_cell_angle_gamma   90.00000000
_symmetry_Int_Tables_number   1
_chemical_formula_structural   Ca(AcSi)4
_chemical_formula_sum   'Ca4 Ac16 Si16'
_cell_volume   1093.64356949
_cell_formula_units_Z   4
loop_
 _symmetry_equiv_pos_site_id
 _symmetry_equiv_pos_as_xyz
  1  'x, y, z'
loop_
 _atom_site_type_symbol
 _atom_site_label
 _atom_site_symmetry_multiplicity
 _atom_site_fract_x
 _atom_site_fract_y
 _atom_site_fract_z
 _atom_site_occupancy
  Ca  Ca0  1  0.310509  0.310509  0.000000  1
  Ca  Ca1  1  0.189491  0.810509  0.250000  1
  Ca  Ca2  1  0.810509  0.189491  0.750000  1
  Ca  Ca3  1  0.689491  0.689491  0.500000  1
  Ac  Ac4  1  0.380652  0.011991  0.445441  1
  Ac  Ac5  1  0.488009  0.880652  0.695441  1
  Ac  Ac6  1  0.511991  0.119348  0.195441  1
  Ac  Ac7  1  0.880652  0.488009  0.304559  1
  Ac  Ac8  1  0.119348  0.511991  0.804559  1
  Ac  Ac9  1  0.619348  0.988009  0.945441  1
  Ac  Ac10  1  0.011991  0.380652  0.554559  1
  Ac  Ac11  1  0.988009  0.619348  0.054559  1
  Ac  Ac12  1  0.121657  0.976684  0.878541  1
  Ac  Ac13  1  0.523316  0.621657  0.128541  1
  Ac  Ac14  1  0.476684  0.378343  0.628541  1
  Ac  Ac15  1  0.621657  0.523316  0.871459  1
  Ac  Ac16  1  0.378343  0.476684  0.371459  1
  Ac  Ac17  1  0.878343  0.023316  0.378541  1
  Ac  Ac18  1  0.976684  0.121657  0.121459  1
  Ac  Ac19  1  0.023316  0.878343  0.621459  1
  Si  Si20  1  0.195963  0.171664  0.710425  1
  Si  Si21  1  0.328336  0.695963  0.960425  1
  Si  Si22  1  0.671664  0.304037  0.460425  1
  Si  Si23  1  0.695963  0.328336  0.039575  1
  Si  Si24  1  0.304037  0.671664  0.539575  1
  Si  Si25  1  0.804037  0.828336  0.210425  1
  Si  Si26  1  0.171664  0.195963  0.289575  1
  Si  Si27  1  0.828336  0.804037  0.789575  1
  Si  Si28  1  0.288916  0.915701  0.062163  1
  Si  Si29  1  0.584299  0.788916  0.312163  1
  Si  Si30  1  0.415701  0.211084  0.812163  1
  Si  Si31  1  0.788916  0.584299  0.687837  1
  Si  Si32  1  0.211084  0.415701  0.187837  1
  Si  Si33  1  0.711084  0.084299  0.562163  1
  Si  Si34  1  0.915701  0.288916  0.937837  1
  Si  Si35  1  0.084299  0.711084  0.437837  1
