# generated using pymatgen
data_Sr4HoSc7Se16
_symmetry_space_group_name_H-M   'P 1'
_cell_length_a   3.99753600
_cell_length_b   12.35606191
_cell_length_c   14.44063001
_cell_angle_alpha   90.14918121
_cell_angle_beta   90.00000000
_cell_angle_gamma   90.00000000
_symmetry_Int_Tables_number   1
_chemical_formula_structural   Sr4HoSc7Se16
_chemical_formula_sum   'Sr4 Ho1 Sc7 Se16'
_cell_volume   713.27520582
_cell_formula_units_Z   1
loop_
 _symmetry_equiv_pos_site_id
 _symmetry_equiv_pos_as_xyz
  1  'x, y, z'
loop_
 _atom_site_type_symbol
 _atom_site_label
 _atom_site_symmetry_multiplicity
 _atom_site_fract_x
 _atom_site_fract_y
 _atom_site_fract_z
 _atom_site_occupancy
  Sr  Sr0  1  0.750000  0.738235  0.169790  1
  Sr  Sr1  1  0.750000  0.237600  0.334746  1
  Sr  Sr2  1  0.250000  0.258373  0.826488  1
  Sr  Sr3  1  0.250000  0.762406  0.668298  1
  Ho  Ho4  1  0.250000  0.415048  0.095467  1
  Sc  Sc5  1  0.750000  0.053783  0.111118  1
  Sc  Sc6  1  0.750000  0.558700  0.393146  1
  Sc  Sc7  1  0.250000  0.943271  0.889436  1
  Sc  Sc8  1  0.250000  0.443957  0.611113  1
  Sc  Sc9  1  0.750000  0.081894  0.596779  1
  Sc  Sc10  1  0.750000  0.585556  0.900420  1
  Sc  Sc11  1  0.250000  0.916881  0.403563  1
  Se  Se12  1  0.750000  0.297906  0.657916  1
  Se  Se13  1  0.750000  0.799651  0.838664  1
  Se  Se14  1  0.250000  0.702699  0.342122  1
  Se  Se15  1  0.250000  0.195446  0.164795  1
  Se  Se16  1  0.750000  0.376151  0.960499  1
  Se  Se17  1  0.750000  0.877251  0.529355  1
  Se  Se18  1  0.250000  0.629317  0.024908  1
  Se  Se19  1  0.250000  0.122337  0.471663  1
  Se  Se20  1  0.750000  0.472441  0.221073  1
  Se  Se21  1  0.750000  0.967303  0.285846  1
  Se  Se22  1  0.250000  0.533417  0.783513  1
  Se  Se23  1  0.250000  0.030672  0.714679  1
  Se  Se24  1  0.750000  0.087764  0.926722  1
  Se  Se25  1  0.750000  0.589296  0.576017  1
  Se  Se26  1  0.250000  0.910536  0.073766  1
  Se  Se27  1  0.250000  0.412112  0.428098  1
