# generated using pymatgen
data_YbZr3(Ta3Si4)2
_symmetry_space_group_name_H-M   'P 1'
_cell_length_a   6.92026271
_cell_length_b   6.92204671
_cell_length_c   12.79058500
_cell_angle_alpha   90.00000000
_cell_angle_beta   90.00000000
_cell_angle_gamma   89.78924122
_symmetry_Int_Tables_number   1
_chemical_formula_structural   YbZr3(Ta3Si4)2
_chemical_formula_sum   'Yb2 Zr6 Ta12 Si16'
_cell_volume   612.69533929
_cell_formula_units_Z   2
loop_
 _symmetry_equiv_pos_site_id
 _symmetry_equiv_pos_as_xyz
  1  'x, y, z'
loop_
 _atom_site_type_symbol
 _atom_site_label
 _atom_site_symmetry_multiplicity
 _atom_site_fract_x
 _atom_site_fract_y
 _atom_site_fract_z
 _atom_site_occupancy
  Yb  Yb0  1  0.995853  0.662879  0.030250  1
  Yb  Yb1  1  0.004147  0.337121  0.530250  1
  Zr  Zr2  1  0.656943  0.002978  0.968912  1
  Zr  Zr3  1  0.158430  0.498694  0.782882  1
  Zr  Zr4  1  0.841570  0.501306  0.282882  1
  Zr  Zr5  1  0.498960  0.158821  0.219216  1
  Zr  Zr6  1  0.501040  0.841179  0.719216  1
  Zr  Zr7  1  0.343057  0.997022  0.468912  1
  Ta  Ta8  1  0.348534  0.506509  0.374977  1
  Ta  Ta9  1  0.844186  0.995582  0.372697  1
  Ta  Ta10  1  0.006619  0.151664  0.126166  1
  Ta  Ta11  1  0.993381  0.848336  0.626166  1
  Ta  Ta12  1  0.651466  0.493491  0.874977  1
  Ta  Ta13  1  0.504242  0.348596  0.624640  1
  Ta  Ta14  1  0.495758  0.651404  0.124640  1
  Ta  Ta15  1  0.155814  0.004418  0.872697  1
  Ta  Ta16  1  0.667111  0.672056  0.500189  1
  Ta  Ta17  1  0.829968  0.168606  0.750344  1
  Ta  Ta18  1  0.170032  0.831394  0.250344  1
  Ta  Ta19  1  0.332889  0.327944  0.000189  1
  Si  Si20  1  0.043830  0.703423  0.436909  1
  Si  Si21  1  0.956170  0.296577  0.936909  1
  Si  Si22  1  0.700661  0.045300  0.563125  1
  Si  Si23  1  0.201245  0.456620  0.186160  1
  Si  Si24  1  0.798755  0.543380  0.686160  1
  Si  Si25  1  0.456446  0.200790  0.813907  1
  Si  Si26  1  0.543554  0.799210  0.313907  1
  Si  Si27  1  0.299339  0.954700  0.063125  1
  Si  Si28  1  0.863885  0.794104  0.820695  1
  Si  Si29  1  0.136115  0.205896  0.320695  1
  Si  Si30  1  0.791113  0.865721  0.179190  1
  Si  Si31  1  0.293452  0.637011  0.572114  1
  Si  Si32  1  0.706548  0.362989  0.072114  1
  Si  Si33  1  0.633549  0.293261  0.427627  1
  Si  Si34  1  0.366451  0.706739  0.927627  1
  Si  Si35  1  0.208887  0.134279  0.679190  1
