# generated using pymatgen
data_Zn3Fe5Si8(PbO4)8
_symmetry_space_group_name_H-M   'P 1'
_cell_length_a   5.16041216
_cell_length_b   8.50355176
_cell_length_c   19.35343779
_cell_angle_alpha   89.98512516
_cell_angle_beta   90.07174989
_cell_angle_gamma   90.32515540
_symmetry_Int_Tables_number   1
_chemical_formula_structural   Zn3Fe5Si8(PbO4)8
_chemical_formula_sum   'Zn3 Fe5 Si8 Pb8 O32'
_cell_volume   849.24993597
_cell_formula_units_Z   1
loop_
 _symmetry_equiv_pos_site_id
 _symmetry_equiv_pos_as_xyz
  1  'x, y, z'
loop_
 _atom_site_type_symbol
 _atom_site_label
 _atom_site_symmetry_multiplicity
 _atom_site_fract_x
 _atom_site_fract_y
 _atom_site_fract_z
 _atom_site_occupancy
  Zn  Zn0  1  0.216993  0.679070  0.656011  1
  Zn  Zn1  1  0.217139  0.179266  0.844347  1
  Zn  Zn2  1  0.718225  0.821345  0.155111  1
  Fe  Fe3  1  0.733439  0.999364  0.439710  1
  Fe  Fe4  1  0.234408  0.001605  0.561755  1
  Fe  Fe5  1  0.234193  0.501833  0.938893  1
  Fe  Fe6  1  0.731921  0.497846  0.060563  1
  Fe  Fe7  1  0.727461  0.327441  0.344744  1
  Si  Si8  1  0.215727  0.230393  0.427864  1
  Si  Si9  1  0.711425  0.766816  0.572885  1
  Si  Si10  1  0.712129  0.266911  0.927145  1
  Si  Si11  1  0.211846  0.732199  0.072429  1
  Si  Si12  1  0.719129  0.701571  0.321403  1
  Si  Si13  1  0.223246  0.301624  0.678737  1
  Si  Si14  1  0.223226  0.801585  0.821561  1
  Si  Si15  1  0.725182  0.197693  0.177954  1
  Pb  Pb16  1  0.286625  0.645218  0.441401  1
  Pb  Pb17  1  0.789671  0.355005  0.559178  1
  Pb  Pb18  1  0.790888  0.855551  0.940787  1
  Pb  Pb19  1  0.290852  0.144725  0.059085  1
  Pb  Pb20  1  0.246560  0.547765  0.231037  1
  Pb  Pb21  1  0.750562  0.453668  0.768399  1
  Pb  Pb22  1  0.750671  0.953567  0.731712  1
  Pb  Pb23  1  0.252177  0.044249  0.267519  1
  O  O24  1  0.531390  0.207105  0.422275  1
  O  O25  1  0.026271  0.796587  0.581996  1
  O  O26  1  0.026961  0.296816  0.918306  1
  O  O27  1  0.525967  0.701998  0.081668  1
  O  O28  1  0.141269  0.391185  0.470440  1
  O  O29  1  0.648446  0.608667  0.527131  1
  O  O30  1  0.649744  0.108525  0.972617  1
  O  O31  1  0.150227  0.890683  0.027201  1
  O  O32  1  0.086228  0.077663  0.468327  1
  O  O33  1  0.584410  0.920677  0.533157  1
  O  O34  1  0.584855  0.420737  0.966809  1
  O  O35  1  0.083840  0.578380  0.032370  1
  O  O36  1  0.088877  0.237337  0.349014  1
  O  O37  1  0.580176  0.753391  0.650966  1
  O  O38  1  0.580379  0.253953  0.849060  1
  O  O39  1  0.079694  0.745113  0.150467  1
  O  O40  1  0.031994  0.673615  0.319444  1
  O  O41  1  0.537568  0.323512  0.681032  1
  O  O42  1  0.537493  0.823863  0.819233  1
  O  O43  1  0.039535  0.176627  0.180116  1
  O  O44  1  0.568526  0.541164  0.352762  1
  O  O45  1  0.078887  0.463387  0.647888  1
  O  O46  1  0.078097  0.963507  0.852043  1
  O  O47  1  0.579787  0.035780  0.146372  1
  O  O48  1  0.603284  0.217000  0.256812  1
  O  O49  1  0.097168  0.779422  0.743075  1
  O  O50  1  0.097510  0.279995  0.757208  1
  O  O51  1  0.596136  0.721338  0.242531  1
  O  O52  1  0.629500  0.342751  0.129354  1
  O  O53  1  0.128403  0.657639  0.871102  1
  O  O54  1  0.128059  0.157164  0.629424  1
  O  O55  1  0.629628  0.848108  0.369575  1
