# generated using pymatgen
data_Er4Ti3Nb3Si8
_symmetry_space_group_name_H-M   'P 1'
_cell_length_a   7.03645610
_cell_length_b   7.03652817
_cell_length_c   12.94248607
_cell_angle_alpha   90.08944034
_cell_angle_beta   89.98389484
_cell_angle_gamma   90.00981005
_symmetry_Int_Tables_number   1
_chemical_formula_structural   Er4Ti3Nb3Si8
_chemical_formula_sum   'Er8 Ti6 Nb6 Si16'
_cell_volume   640.81042195
_cell_formula_units_Z   2
loop_
 _symmetry_equiv_pos_site_id
 _symmetry_equiv_pos_as_xyz
  1  'x, y, z'
loop_
 _atom_site_type_symbol
 _atom_site_label
 _atom_site_symmetry_multiplicity
 _atom_site_fract_x
 _atom_site_fract_y
 _atom_site_fract_z
 _atom_site_occupancy
  Er  Er0  1  0.341664  0.000716  0.466252  1
  Er  Er1  1  0.498939  0.841777  0.716101  1
  Er  Er2  1  0.501218  0.157510  0.216999  1
  Er  Er3  1  0.840370  0.499602  0.283724  1
  Er  Er4  1  0.158769  0.500822  0.782720  1
  Er  Er5  1  0.657749  0.998458  0.966690  1
  Er  Er6  1  0.000538  0.341245  0.532954  1
  Er  Er7  1  0.999013  0.660067  0.033321  1
  Ti  Ti8  1  0.508050  0.347716  0.624581  1
  Ti  Ti9  1  0.652749  0.491299  0.875731  1
  Ti  Ti10  1  0.348679  0.508145  0.375961  1
  Ti  Ti11  1  0.847489  0.991529  0.373892  1
  Ti  Ti12  1  0.008086  0.151708  0.125803  1
  Ti  Ti13  1  0.991621  0.847452  0.626099  1
  Nb  Nb14  1  0.327861  0.327912  0.000323  1
  Nb  Nb15  1  0.172132  0.827959  0.250447  1
  Nb  Nb16  1  0.828398  0.172264  0.749936  1
  Nb  Nb17  1  0.671947  0.671587  0.500097  1
  Nb  Nb18  1  0.151905  0.007790  0.874225  1
  Nb  Nb19  1  0.492123  0.651904  0.123571  1
  Si  Si20  1  0.205559  0.132201  0.681814  1
  Si  Si21  1  0.368741  0.704619  0.931569  1
  Si  Si22  1  0.630978  0.295896  0.433563  1
  Si  Si23  1  0.706243  0.365355  0.067533  1
  Si  Si24  1  0.295855  0.631090  0.566523  1
  Si  Si25  1  0.796644  0.869593  0.183575  1
  Si  Si26  1  0.131105  0.204245  0.317296  1
  Si  Si27  1  0.865576  0.794131  0.816861  1
  Si  Si28  1  0.292784  0.954334  0.064191  1
  Si  Si29  1  0.546904  0.793440  0.314511  1
  Si  Si30  1  0.454274  0.209089  0.812620  1
  Si  Si31  1  0.792849  0.546043  0.686202  1
  Si  Si32  1  0.205594  0.451954  0.187441  1
  Si  Si33  1  0.708299  0.046711  0.563207  1
  Si  Si34  1  0.952682  0.295718  0.936715  1
  Si  Si35  1  0.046616  0.708118  0.436953  1
