# generated using pymatgen
data_Dy3Tm(Ga3Ir)6
_symmetry_space_group_name_H-M   'P 1'
_cell_length_a   7.59682701
_cell_length_b   7.59330708
_cell_length_c   9.49612600
_cell_angle_alpha   90.00000000
_cell_angle_beta   90.00000000
_cell_angle_gamma   119.97611005
_symmetry_Int_Tables_number   1
_chemical_formula_structural   Dy3Tm(Ga3Ir)6
_chemical_formula_sum   'Dy3 Tm1 Ga18 Ir6'
_cell_volume   474.50937599
_cell_formula_units_Z   1
loop_
 _symmetry_equiv_pos_site_id
 _symmetry_equiv_pos_as_xyz
  1  'x, y, z'
loop_
 _atom_site_type_symbol
 _atom_site_label
 _atom_site_symmetry_multiplicity
 _atom_site_fract_x
 _atom_site_fract_y
 _atom_site_fract_z
 _atom_site_occupancy
  Dy  Dy0  1  0.002700  0.331857  0.750000  1
  Dy  Dy1  1  0.667955  0.997075  0.250000  1
  Dy  Dy2  1  0.331867  0.002750  0.750000  1
  Tm  Tm3  1  0.997186  0.667969  0.250000  1
  Ga  Ga4  1  0.126615  0.126246  0.250000  1
  Ga  Ga5  1  0.873185  0.873162  0.750000  1
  Ga  Ga6  1  0.999222  0.334825  0.080743  1
  Ga  Ga7  1  0.000938  0.666074  0.920164  1
  Ga  Ga8  1  0.000938  0.666074  0.579836  1
  Ga  Ga9  1  0.333241  0.998444  0.419263  1
  Ga  Ga10  1  0.999222  0.334825  0.419257  1
  Ga  Ga11  1  0.666039  0.000821  0.580356  1
  Ga  Ga12  1  0.666039  0.000821  0.919644  1
  Ga  Ga13  1  0.333241  0.998444  0.080737  1
  Ga  Ga14  1  0.332508  0.332545  0.563858  1
  Ga  Ga15  1  0.668090  0.667426  0.435507  1
  Ga  Ga16  1  0.668090  0.667426  0.064493  1
  Ga  Ga17  1  0.332508  0.332545  0.936142  1
  Ga  Ga18  1  0.338893  0.546542  0.250000  1
  Ga  Ga19  1  0.660754  0.453522  0.750000  1
  Ga  Ga20  1  0.547075  0.339784  0.250000  1
  Ga  Ga21  1  0.453366  0.660633  0.750000  1
  Ir  Ir22  1  0.671756  0.328783  0.000135  1
  Ir  Ir23  1  0.328509  0.671666  0.000144  1
  Ir  Ir24  1  0.328509  0.671666  0.499856  1
  Ir  Ir25  1  0.671756  0.328783  0.499865  1
  Ir  Ir26  1  0.999899  0.999646  0.000194  1
  Ir  Ir27  1  0.999899  0.999646  0.499806  1
