# generated using pymatgen
data_Nd4Ho2Al24GaOs7
_symmetry_space_group_name_H-M   'P 1'
_cell_length_a   8.90173682
_cell_length_b   8.90173507
_cell_length_c   9.59669600
_cell_angle_alpha   90.15556975
_cell_angle_beta   89.84442384
_cell_angle_gamma   119.95598666
_symmetry_Int_Tables_number   1
_chemical_formula_structural   Nd4Ho2Al24GaOs7
_chemical_formula_sum   'Nd4 Ho2 Al24 Ga1 Os7'
_cell_volume   658.85840542
_cell_formula_units_Z   1
loop_
 _symmetry_equiv_pos_site_id
 _symmetry_equiv_pos_as_xyz
  1  'x, y, z'
loop_
 _atom_site_type_symbol
 _atom_site_label
 _atom_site_symmetry_multiplicity
 _atom_site_fract_x
 _atom_site_fract_y
 _atom_site_fract_z
 _atom_site_occupancy
  Nd  Nd0  1  0.191206  0.381155  0.244311  1
  Nd  Nd1  1  0.808794  0.618845  0.755689  1
  Nd  Nd2  1  0.618845  0.808794  0.244311  1
  Nd  Nd3  1  0.381155  0.191206  0.755689  1
  Ho  Ho4  1  0.194297  0.805703  0.256195  1
  Ho  Ho5  1  0.805703  0.194297  0.743805  1
  Al  Al6  1  0.326048  0.673952  0.019589  1
  Al  Al7  1  0.673952  0.326048  0.980411  1
  Al  Al8  1  0.666159  0.333841  0.516671  1
  Al  Al9  1  0.333841  0.666159  0.483329  1
  Al  Al10  1  0.161156  0.326077  0.571211  1
  Al  Al11  1  0.838844  0.673923  0.428789  1
  Al  Al12  1  0.673923  0.838844  0.571211  1
  Al  Al13  1  0.853957  0.678596  0.082048  1
  Al  Al14  1  0.326077  0.161156  0.428789  1
  Al  Al15  1  0.146043  0.321404  0.917952  1
  Al  Al16  1  0.163189  0.836811  0.574687  1
  Al  Al17  1  0.321404  0.146043  0.082048  1
  Al  Al18  1  0.836811  0.163189  0.425313  1
  Al  Al19  1  0.678596  0.853957  0.917952  1
  Al  Al20  1  0.836623  0.163377  0.074880  1
  Al  Al21  1  0.163377  0.836623  0.925120  1
  Al  Al22  1  0.561055  0.121304  0.249413  1
  Al  Al23  1  0.438945  0.878696  0.750587  1
  Al  Al24  1  0.878696  0.438945  0.249413  1
  Al  Al25  1  0.121304  0.561055  0.750587  1
  Al  Al26  1  0.567480  0.432520  0.259542  1
  Al  Al27  1  0.432520  0.567480  0.740458  1
  Al  Al28  1  0.000818  0.999182  0.250820  1
  Al  Al29  1  0.999182  0.000818  0.749180  1
  Ga  Ga30  1  0.500000  0.500000  0.000000  1
  Os  Os31  1  0.500000  0.000000  0.000000  1
  Os  Os32  1  0.000000  0.500000  0.000000  1
  Os  Os33  1  0.500000  0.000000  0.500000  1
  Os  Os34  1  0.000000  0.500000  0.500000  1
  Os  Os35  1  0.500000  0.500000  0.500000  1
  Os  Os36  1  0.000000  0.000000  0.000000  1
  Os  Os37  1  0.000000  0.000000  0.500000  1
