# generated using pymatgen
data_Hf6Al6Ru11Pt
_symmetry_space_group_name_H-M   'P 1'
_cell_length_a   4.44412112
_cell_length_b   6.27942917
_cell_length_c   13.30177001
_cell_angle_alpha   90.00007490
_cell_angle_beta   89.99685490
_cell_angle_gamma   89.97363382
_symmetry_Int_Tables_number   1
_chemical_formula_structural   Hf6Al6Ru11Pt
_chemical_formula_sum   'Hf6 Al6 Ru11 Pt1'
_cell_volume   371.20638706
_cell_formula_units_Z   1
loop_
 _symmetry_equiv_pos_site_id
 _symmetry_equiv_pos_as_xyz
  1  'x, y, z'
loop_
 _atom_site_type_symbol
 _atom_site_label
 _atom_site_symmetry_multiplicity
 _atom_site_fract_x
 _atom_site_fract_y
 _atom_site_fract_z
 _atom_site_occupancy
  Hf  Hf0  1  0.000105  0.992137  0.000001  1
  Hf  Hf1  1  0.499844  0.503772  0.170659  1
  Hf  Hf2  1  0.999903  0.000431  0.333835  1
  Hf  Hf3  1  0.500002  0.498819  0.500002  1
  Hf  Hf4  1  0.000116  0.000428  0.666164  1
  Hf  Hf5  1  0.500075  0.503775  0.829338  1
  Al  Al6  1  0.999997  0.506132  0.000000  1
  Al  Al7  1  0.499889  0.996635  0.169452  1
  Al  Al8  1  0.999914  0.499830  0.333281  1
  Al  Al9  1  0.500019  0.000595  0.500002  1
  Al  Al10  1  0.000095  0.499830  0.666719  1
  Al  Al11  1  0.500076  0.996637  0.830546  1
  Ru  Ru12  1  0.500174  0.748745  0.000004  1
  Ru  Ru13  1  0.000022  0.250985  0.165042  1
  Ru  Ru14  1  0.999684  0.749239  0.165942  1
  Ru  Ru15  1  0.499640  0.248876  0.332686  1
  Ru  Ru16  1  0.500110  0.751924  0.334101  1
  Ru  Ru17  1  0.000125  0.251618  0.499998  1
  Ru  Ru18  1  0.999873  0.748449  0.500001  1
  Ru  Ru19  1  0.499882  0.248866  0.667309  1
  Ru  Ru20  1  0.500342  0.751918  0.665898  1
  Ru  Ru21  1  0.000278  0.250988  0.834960  1
  Ru  Ru22  1  0.999893  0.749231  0.834058  1
  Pt  Pt23  1  0.499944  0.250144  0.000000  1
