# generated using pymatgen
data_Ba2TmFeO5
_symmetry_space_group_name_H-M   'P 1'
_cell_length_a   6.09914800
_cell_length_b   7.88948407
_cell_length_c   12.69891240
_cell_angle_alpha   91.99226507
_cell_angle_beta   90.00000000
_cell_angle_gamma   90.00000000
_symmetry_Int_Tables_number   1
_chemical_formula_structural   Ba2TmFeO5
_chemical_formula_sum   'Ba8 Tm4 Fe4 O20'
_cell_volume   610.69126059
_cell_formula_units_Z   4
loop_
 _symmetry_equiv_pos_site_id
 _symmetry_equiv_pos_as_xyz
  1  'x, y, z'
loop_
 _atom_site_type_symbol
 _atom_site_label
 _atom_site_symmetry_multiplicity
 _atom_site_fract_x
 _atom_site_fract_y
 _atom_site_fract_z
 _atom_site_occupancy
  Ba  Ba0  1  0.758740  0.485989  0.349524  1
  Ba  Ba1  1  0.741260  0.985989  0.849524  1
  Ba  Ba2  1  0.241260  0.514011  0.650476  1
  Ba  Ba3  1  0.258740  0.014011  0.150476  1
  Ba  Ba4  1  0.754885  0.993424  0.380545  1
  Ba  Ba5  1  0.745115  0.493424  0.880545  1
  Ba  Ba6  1  0.245115  0.006576  0.619455  1
  Ba  Ba7  1  0.254885  0.506576  0.119455  1
  Tm  Tm8  1  0.750426  0.265522  0.631119  1
  Tm  Tm9  1  0.749574  0.765522  0.131119  1
  Tm  Tm10  1  0.249574  0.734478  0.368881  1
  Tm  Tm11  1  0.250426  0.234478  0.868881  1
  Fe  Fe12  1  0.735954  0.742551  0.582585  1
  Fe  Fe13  1  0.764046  0.242551  0.082585  1
  Fe  Fe14  1  0.264046  0.257449  0.417415  1
  Fe  Fe15  1  0.235954  0.757449  0.917415  1
  O  O16  1  0.759422  0.974088  0.631315  1
  O  O17  1  0.740578  0.474088  0.131315  1
  O  O18  1  0.240578  0.025912  0.368685  1
  O  O19  1  0.259422  0.525912  0.868685  1
  O  O20  1  0.734429  0.058979  0.174170  1
  O  O21  1  0.765571  0.558979  0.674170  1
  O  O22  1  0.265571  0.941021  0.825830  1
  O  O23  1  0.234429  0.441021  0.325830  1
  O  O24  1  0.539146  0.745880  0.270390  1
  O  O25  1  0.960854  0.245880  0.770390  1
  O  O26  1  0.460854  0.254120  0.729610  1
  O  O27  1  0.039146  0.754120  0.229610  1
  O  O28  1  0.544607  0.223923  0.975414  1
  O  O29  1  0.955393  0.723923  0.475414  1
  O  O30  1  0.455393  0.776077  0.024586  1
  O  O31  1  0.044607  0.276077  0.524586  1
  O  O32  1  0.044117  0.230135  0.015959  1
  O  O33  1  0.455883  0.730135  0.515959  1
  O  O34  1  0.955883  0.769865  0.984041  1
  O  O35  1  0.544117  0.269865  0.484041  1
