# generated using pymatgen
data_Dy3MgZn2Pt3
_symmetry_space_group_name_H-M   'P 1'
_cell_length_a   7.36493130
_cell_length_b   7.34695863
_cell_length_c   3.90769900
_cell_angle_alpha   90.00000000
_cell_angle_beta   90.00000000
_cell_angle_gamma   119.91930773
_symmetry_Int_Tables_number   1
_chemical_formula_structural   Dy3MgZn2Pt3
_chemical_formula_sum   'Dy3 Mg1 Zn2 Pt3'
_cell_volume   183.26544471
_cell_formula_units_Z   1
loop_
 _symmetry_equiv_pos_site_id
 _symmetry_equiv_pos_as_xyz
  1  'x, y, z'
loop_
 _atom_site_type_symbol
 _atom_site_label
 _atom_site_symmetry_multiplicity
 _atom_site_fract_x
 _atom_site_fract_y
 _atom_site_fract_z
 _atom_site_occupancy
  Dy  Dy0  1  0.418335  0.009976  0.500001  1
  Dy  Dy1  1  0.000000  0.390290  0.500001  1
  Dy  Dy2  1  0.581664  0.591641  0.500001  1
  Mg  Mg3  1  0.000000  0.755899  0.000000  1
  Zn  Zn4  1  0.745499  0.994468  0.000000  1
  Zn  Zn5  1  0.254502  0.248971  0.000000  1
  Pt  Pt6  1  0.669661  0.337305  0.000000  1
  Pt  Pt7  1  0.330339  0.667644  0.000000  1
  Pt  Pt8  1  0.000000  0.003807  0.500001  1
