# generated using pymatgen
data_Ac2La(CdPd)3
_symmetry_space_group_name_H-M   'P 1'
_cell_length_a   7.96356791
_cell_length_b   7.94411714
_cell_length_c   4.20341500
_cell_angle_alpha   90.00000000
_cell_angle_beta   90.00000000
_cell_angle_gamma   119.91923545
_symmetry_Int_Tables_number   1
_chemical_formula_structural   Ac2La(CdPd)3
_chemical_formula_sum   'Ac2 La1 Cd3 Pd3'
_cell_volume   230.48310636
_cell_formula_units_Z   1
loop_
 _symmetry_equiv_pos_site_id
 _symmetry_equiv_pos_as_xyz
  1  'x, y, z'
loop_
 _atom_site_type_symbol
 _atom_site_label
 _atom_site_symmetry_multiplicity
 _atom_site_fract_x
 _atom_site_fract_y
 _atom_site_fract_z
 _atom_site_occupancy
  Ac  Ac0  1  0.408638  0.408405  0.500000  1
  Ac  Ac1  1  0.591362  0.999767  0.500000  1
  La  La2  1  0.000000  0.592980  0.500000  1
  Cd  Cd3  1  0.755922  0.752611  0.000000  1
  Cd  Cd4  1  0.244078  0.996689  0.000000  1
  Cd  Cd5  1  0.000000  0.249537  0.000000  1
  Pd  Pd6  1  0.669288  0.335229  0.000000  1
  Pd  Pd7  1  0.330712  0.665942  0.000000  1
  Pd  Pd8  1  0.000000  0.998839  0.500000  1
