# generated using pymatgen
data_La(AsPd2)2
_symmetry_space_group_name_H-M   'P 1'
_cell_length_a   7.88369500
_cell_length_b   7.88369500
_cell_length_c   4.10733600
_cell_angle_alpha   90.00000000
_cell_angle_beta   90.00000000
_cell_angle_gamma   90.00000000
_symmetry_Int_Tables_number   1
_chemical_formula_structural   La(AsPd2)2
_chemical_formula_sum   'La2 As4 Pd8'
_cell_volume   255.28180391
_cell_formula_units_Z   2
loop_
 _symmetry_equiv_pos_site_id
 _symmetry_equiv_pos_as_xyz
  1  'x, y, z'
loop_
 _atom_site_type_symbol
 _atom_site_label
 _atom_site_symmetry_multiplicity
 _atom_site_fract_x
 _atom_site_fract_y
 _atom_site_fract_z
 _atom_site_occupancy
  La  La0  1  0.500000  0.500000  0.000000  1
  La  La1  1  0.000000  0.000000  0.500000  1
  As  As2  1  0.780926  0.219074  0.000000  1
  As  As3  1  0.219074  0.780926  0.000000  1
  As  As4  1  0.280927  0.280927  0.500000  1
  As  As5  1  0.719073  0.719073  0.500000  1
  Pd  Pd6  1  0.342018  0.090647  0.000000  1
  Pd  Pd7  1  0.090647  0.342018  0.000000  1
  Pd  Pd8  1  0.909353  0.657983  0.000000  1
  Pd  Pd9  1  0.657983  0.909353  0.000000  1
  Pd  Pd10  1  0.590647  0.157983  0.500000  1
  Pd  Pd11  1  0.842017  0.409354  0.500000  1
  Pd  Pd12  1  0.157983  0.590647  0.500000  1
  Pd  Pd13  1  0.409354  0.842017  0.500000  1
