# generated using pymatgen
data_NdAl4Cu9
_symmetry_space_group_name_H-M   'P 1'
_cell_length_a   8.29778857
_cell_length_b   8.29778830
_cell_length_c   8.29778835
_cell_angle_alpha   120.21630329
_cell_angle_beta   120.21630404
_cell_angle_gamma   89.62575942
_symmetry_Int_Tables_number   1
_chemical_formula_structural   NdAl4Cu9
_chemical_formula_sum   'Nd2 Al8 Cu18'
_cell_volume   402.66121800
_cell_formula_units_Z   2
loop_
 _symmetry_equiv_pos_site_id
 _symmetry_equiv_pos_as_xyz
  1  'x, y, z'
loop_
 _atom_site_type_symbol
 _atom_site_label
 _atom_site_symmetry_multiplicity
 _atom_site_fract_x
 _atom_site_fract_y
 _atom_site_fract_z
 _atom_site_occupancy
  Nd  Nd0  1  0.750000  0.750000  0.000000  1
  Nd  Nd1  1  0.250000  0.250000  0.000000  1
  Al  Al2  1  0.058534  0.558534  0.861260  1
  Al  Al3  1  0.697274  0.197274  0.138740  1
  Al  Al4  1  0.558534  0.697274  0.500000  1
  Al  Al5  1  0.197274  0.058534  0.500000  1
  Al  Al6  1  0.941466  0.441466  0.138740  1
  Al  Al7  1  0.302726  0.802726  0.861260  1
  Al  Al8  1  0.441466  0.302726  0.500000  1
  Al  Al9  1  0.802726  0.941466  0.500000  1
  Cu  Cu10  1  0.060775  0.202188  0.262964  1
  Cu  Cu11  1  0.939225  0.797812  0.737036  1
  Cu  Cu12  1  0.560775  0.297812  0.858586  1
  Cu  Cu13  1  0.439225  0.702188  0.141414  1
  Cu  Cu14  1  0.797812  0.060775  0.858586  1
  Cu  Cu15  1  0.202188  0.939225  0.141414  1
  Cu  Cu16  1  0.702188  0.560775  0.262964  1
  Cu  Cu17  1  0.297812  0.439225  0.737036  1
  Cu  Cu18  1  0.438197  0.938197  0.732408  1
  Cu  Cu19  1  0.205789  0.705789  0.267592  1
  Cu  Cu20  1  0.938197  0.205789  0.500000  1
  Cu  Cu21  1  0.705789  0.438197  0.500000  1
  Cu  Cu22  1  0.561803  0.061803  0.267592  1
  Cu  Cu23  1  0.794211  0.294211  0.732408  1
  Cu  Cu24  1  0.061803  0.794211  0.500000  1
  Cu  Cu25  1  0.294211  0.561803  0.500000  1
  Cu  Cu26  1  0.000000  0.500000  0.500000  1
  Cu  Cu27  1  0.500000  0.000000  0.500000  1
