# generated using pymatgen
data_Tb7YTi7Si16Mo5
_symmetry_space_group_name_H-M   'P 1'
_cell_length_a   6.81345485
_cell_length_b   7.01228620
_cell_length_c   13.24016218
_cell_angle_alpha   90.04902533
_cell_angle_beta   89.96349170
_cell_angle_gamma   89.96226118
_symmetry_Int_Tables_number   1
_chemical_formula_structural   Tb7YTi7Si16Mo5
_chemical_formula_sum   'Tb7 Y1 Ti7 Si16 Mo5'
_cell_volume   632.58658595
_cell_formula_units_Z   1
loop_
 _symmetry_equiv_pos_site_id
 _symmetry_equiv_pos_as_xyz
  1  'x, y, z'
loop_
 _atom_site_type_symbol
 _atom_site_label
 _atom_site_symmetry_multiplicity
 _atom_site_fract_x
 _atom_site_fract_y
 _atom_site_fract_z
 _atom_site_occupancy
  Tb  Tb0  1  0.503573  0.330109  0.096948  1
  Tb  Tb1  1  0.002848  0.170735  0.403248  1
  Tb  Tb2  1  0.496702  0.671585  0.596414  1
  Tb  Tb3  1  0.996738  0.829978  0.903361  1
  Tb  Tb4  1  0.495242  0.669490  0.901979  1
  Tb  Tb5  1  0.998253  0.830733  0.596022  1
  Tb  Tb6  1  0.503191  0.329177  0.404599  1
  Y  Y7  1  0.003246  0.170808  0.097445  1
  Ti  Ti8  1  0.836296  0.326924  0.626875  1
  Ti  Ti9  1  0.331735  0.172909  0.872599  1
  Ti  Ti10  1  0.166859  0.672440  0.126988  1
  Ti  Ti11  1  0.666709  0.829129  0.373232  1
  Ti  Ti12  1  0.166571  0.673021  0.373901  1
  Ti  Ti13  1  0.667663  0.827745  0.127008  1
  Ti  Ti14  1  0.832576  0.325553  0.871194  1
  Si  Si15  1  0.655701  0.040752  0.544922  1
  Si  Si16  1  0.157985  0.457947  0.956567  1
  Si  Si17  1  0.340837  0.959223  0.043930  1
  Si  Si18  1  0.841175  0.540363  0.456333  1
  Si  Si19  1  0.339088  0.958169  0.457681  1
  Si  Si20  1  0.842552  0.540444  0.044499  1
  Si  Si21  1  0.656969  0.040530  0.956258  1
  Si  Si22  1  0.161633  0.457807  0.544155  1
  Si  Si23  1  0.534319  0.370395  0.748175  1
  Si  Si24  1  0.038029  0.126608  0.749805  1
  Si  Si25  1  0.463528  0.628881  0.250229  1
  Si  Si26  1  0.964312  0.872850  0.250011  1
  Si  Si27  1  0.798101  0.622943  0.749161  1
  Si  Si28  1  0.300202  0.878436  0.749906  1
  Si  Si29  1  0.202957  0.376547  0.250422  1
  Si  Si30  1  0.701925  0.123976  0.249833  1
  Mo  Mo31  1  0.331476  0.171198  0.626645  1
  Mo  Mo32  1  0.662691  0.011629  0.749778  1
  Mo  Mo33  1  0.159449  0.488079  0.749695  1
  Mo  Mo34  1  0.338768  0.991105  0.250004  1
  Mo  Mo35  1  0.840101  0.511782  0.250177  1
