# generated using pymatgen
data_Nd4YGa2Bi
_symmetry_space_group_name_H-M   'P 1'
_cell_length_a   9.14512113
_cell_length_b   9.14512076
_cell_length_c   9.14512000
_cell_angle_alpha   126.89843727
_cell_angle_beta   126.89843552
_cell_angle_gamma   78.41644270
_symmetry_Int_Tables_number   1
_chemical_formula_structural   Nd4YGa2Bi
_chemical_formula_sum   'Nd8 Y2 Ga4 Bi2'
_cell_volume   473.63663857
_cell_formula_units_Z   2
loop_
 _symmetry_equiv_pos_site_id
 _symmetry_equiv_pos_as_xyz
  1  'x, y, z'
loop_
 _atom_site_type_symbol
 _atom_site_label
 _atom_site_symmetry_multiplicity
 _atom_site_fract_x
 _atom_site_fract_y
 _atom_site_fract_z
 _atom_site_occupancy
  Nd  Nd0  1  0.516742  0.016742  0.818464  1
  Nd  Nd1  1  0.198277  0.698277  0.181536  1
  Nd  Nd2  1  0.016742  0.198277  0.500000  1
  Nd  Nd3  1  0.698277  0.516742  0.500000  1
  Nd  Nd4  1  0.483258  0.983258  0.181536  1
  Nd  Nd5  1  0.801723  0.301723  0.818464  1
  Nd  Nd6  1  0.983258  0.801723  0.500000  1
  Nd  Nd7  1  0.301723  0.483258  0.500000  1
  Y  Y8  1  0.500000  0.500000  0.000000  1
  Y  Y9  1  0.000000  0.000000  0.000000  1
  Ga  Ga10  1  0.860283  0.360283  0.220565  1
  Ga  Ga11  1  0.139717  0.639717  0.779435  1
  Ga  Ga12  1  0.360283  0.139717  0.500000  1
  Ga  Ga13  1  0.639717  0.860283  0.500000  1
  Bi  Bi14  1  0.250000  0.250000  0.000000  1
  Bi  Bi15  1  0.750000  0.750000  0.000000  1
