# generated using pymatgen
data_Nb2FeCo(BRu2)2
_symmetry_space_group_name_H-M   'P 1'
_cell_length_a   9.14033300
_cell_length_b   9.14033300
_cell_length_c   2.99251900
_cell_angle_alpha   90.00000000
_cell_angle_beta   90.00000000
_cell_angle_gamma   90.00000000
_symmetry_Int_Tables_number   1
_chemical_formula_structural   Nb2FeCo(BRu2)2
_chemical_formula_sum   'Nb4 Fe2 Co2 B4 Ru8'
_cell_volume   250.01205677
_cell_formula_units_Z   2
loop_
 _symmetry_equiv_pos_site_id
 _symmetry_equiv_pos_as_xyz
  1  'x, y, z'
loop_
 _atom_site_type_symbol
 _atom_site_label
 _atom_site_symmetry_multiplicity
 _atom_site_fract_x
 _atom_site_fract_y
 _atom_site_fract_z
 _atom_site_occupancy
  Nb  Nb0  1  0.823779  0.676221  0.000000  1
  Nb  Nb1  1  0.176221  0.323779  0.000000  1
  Nb  Nb2  1  0.323779  0.823779  0.000000  1
  Nb  Nb3  1  0.676221  0.176221  0.000000  1
  Fe  Fe4  1  0.500000  0.500000  0.000000  1
  Fe  Fe5  1  0.000000  0.000000  0.000000  1
  Co  Co6  1  0.500000  0.000000  0.500000  1
  Co  Co7  1  0.000000  0.500000  0.500000  1
  B  B8  1  0.614700  0.885300  0.000000  1
  B  B9  1  0.385300  0.114700  0.000000  1
  B  B10  1  0.114700  0.614700  0.000000  1
  B  B11  1  0.885300  0.385300  0.000000  1
  Ru  Ru12  1  0.563086  0.720559  0.500000  1
  Ru  Ru13  1  0.436914  0.279441  0.500000  1
  Ru  Ru14  1  0.063086  0.779441  0.500000  1
  Ru  Ru15  1  0.936914  0.220559  0.500000  1
  Ru  Ru16  1  0.279441  0.563086  0.500000  1
  Ru  Ru17  1  0.720559  0.436914  0.500000  1
  Ru  Ru18  1  0.220559  0.063086  0.500000  1
  Ru  Ru19  1  0.779441  0.936914  0.500000  1
