# generated using pymatgen
data_Y6TmCd(Co3Sn11)2
_symmetry_space_group_name_H-M   'P 1'
_cell_length_a   9.68701404
_cell_length_b   9.68648381
_cell_length_c   10.01959804
_cell_angle_alpha   89.99999961
_cell_angle_beta   89.99077172
_cell_angle_gamma   119.99818472
_symmetry_Int_Tables_number   1
_chemical_formula_structural   Y6TmCd(Co3Sn11)2
_chemical_formula_sum   'Y6 Tm1 Cd1 Co6 Sn22'
_cell_volume   814.22597571
_cell_formula_units_Z   1
loop_
 _symmetry_equiv_pos_site_id
 _symmetry_equiv_pos_as_xyz
  1  'x, y, z'
loop_
 _atom_site_type_symbol
 _atom_site_label
 _atom_site_symmetry_multiplicity
 _atom_site_fract_x
 _atom_site_fract_y
 _atom_site_fract_z
 _atom_site_occupancy
  Y  Y0  1  0.000050  0.000025  0.000048  1
  Y  Y1  1  0.478122  0.956236  0.306165  1
  Y  Y2  1  0.478122  0.521887  0.306165  1
  Y  Y3  1  0.956230  0.478114  0.693631  1
  Y  Y4  1  0.521922  0.043784  0.693807  1
  Y  Y5  1  0.521922  0.478138  0.693807  1
  Tm  Tm6  1  0.042840  0.521421  0.306029  1
  Cd  Cd7  1  0.000015  0.000007  0.499961  1
  Co  Co8  1  0.167533  0.832500  0.803527  1
  Co  Co9  1  0.664891  0.832445  0.803570  1
  Co  Co10  1  0.167533  0.335032  0.803527  1
  Co  Co11  1  0.832863  0.168220  0.196663  1
  Co  Co12  1  0.335030  0.167515  0.196493  1
  Co  Co13  1  0.832863  0.664643  0.196663  1
  Sn  Sn14  1  0.116126  0.883222  0.271636  1
  Sn  Sn15  1  0.767688  0.883844  0.271573  1
  Sn  Sn16  1  0.116126  0.232905  0.271636  1
  Sn  Sn17  1  0.883813  0.116206  0.728526  1
  Sn  Sn18  1  0.232391  0.116195  0.728493  1
  Sn  Sn19  1  0.883813  0.767607  0.728526  1
  Sn  Sn20  1  0.345868  0.999983  0.000028  1
  Sn  Sn21  1  0.654149  0.654064  0.000000  1
  Sn  Sn22  1  0.000067  0.346057  0.000173  1
  Sn  Sn23  1  0.345868  0.345885  0.000028  1
  Sn  Sn24  1  0.000067  0.654010  0.000173  1
  Sn  Sn25  1  0.654149  0.000085  0.000000  1
  Sn  Sn26  1  0.782785  0.564203  0.451680  1
  Sn  Sn27  1  0.782785  0.218583  0.451680  1
  Sn  Sn28  1  0.435762  0.217882  0.451939  1
  Sn  Sn29  1  0.217569  0.435837  0.547617  1
  Sn  Sn30  1  0.217569  0.781731  0.547617  1
  Sn  Sn31  1  0.564243  0.782121  0.548022  1
  Sn  Sn32  1  0.666939  0.333469  0.181821  1
  Sn  Sn33  1  0.333312  0.666656  0.818188  1
  Sn  Sn34  1  0.666684  0.333342  0.883641  1
  Sn  Sn35  1  0.332291  0.666146  0.116947  1
