# generated using pymatgen
data_Yb5BiRh2
_symmetry_space_group_name_H-M   'P 1'
_cell_length_a   7.63172600
_cell_length_b   7.63172600
_cell_length_c   14.68710600
_cell_angle_alpha   90.00000000
_cell_angle_beta   90.00000000
_cell_angle_gamma   90.00000000
_symmetry_Int_Tables_number   1
_chemical_formula_structural   Yb5BiRh2
_chemical_formula_sum   'Yb20 Bi4 Rh8'
_cell_volume   855.42466521
_cell_formula_units_Z   4
loop_
 _symmetry_equiv_pos_site_id
 _symmetry_equiv_pos_as_xyz
  1  'x, y, z'
loop_
 _atom_site_type_symbol
 _atom_site_label
 _atom_site_symmetry_multiplicity
 _atom_site_fract_x
 _atom_site_fract_y
 _atom_site_fract_z
 _atom_site_occupancy
  Yb  Yb0  1  0.165430  0.166770  0.124590  1
  Yb  Yb1  1  0.666769  0.334570  0.124590  1
  Yb  Yb2  1  0.333230  0.665430  0.124590  1
  Yb  Yb3  1  0.834570  0.833230  0.124590  1
  Yb  Yb4  1  0.500000  0.000000  0.248807  1
  Yb  Yb5  1  0.000000  0.500000  0.251193  1
  Yb  Yb6  1  0.166770  0.165430  0.375410  1
  Yb  Yb7  1  0.665430  0.333230  0.375410  1
  Yb  Yb8  1  0.334570  0.666769  0.375410  1
  Yb  Yb9  1  0.833230  0.834570  0.375410  1
  Yb  Yb10  1  0.834570  0.166770  0.624590  1
  Yb  Yb11  1  0.333230  0.334570  0.624590  1
  Yb  Yb12  1  0.666769  0.665430  0.624590  1
  Yb  Yb13  1  0.165430  0.833230  0.624590  1
  Yb  Yb14  1  0.500000  0.000000  0.748807  1
  Yb  Yb15  1  0.000000  0.500000  0.751193  1
  Yb  Yb16  1  0.833230  0.165430  0.875410  1
  Yb  Yb17  1  0.334570  0.333230  0.875410  1
  Yb  Yb18  1  0.665430  0.666769  0.875410  1
  Yb  Yb19  1  0.166770  0.834570  0.875410  1
  Bi  Bi20  1  0.500000  0.000000  0.000516  1
  Bi  Bi21  1  0.000000  0.500000  0.499484  1
  Bi  Bi22  1  0.500000  0.000000  0.500516  1
  Bi  Bi23  1  0.000000  0.500000  0.999484  1
  Rh  Rh24  1  0.869430  0.130571  0.250000  1
  Rh  Rh25  1  0.369429  0.369429  0.250000  1
  Rh  Rh26  1  0.630571  0.630571  0.250000  1
  Rh  Rh27  1  0.130571  0.869430  0.250000  1
  Rh  Rh28  1  0.130571  0.130571  0.750000  1
  Rh  Rh29  1  0.630571  0.369429  0.750000  1
  Rh  Rh30  1  0.369429  0.630571  0.750000  1
  Rh  Rh31  1  0.869430  0.869430  0.750000  1
