# generated using pymatgen
data_Ta4Cu3NiPt7Rh
_symmetry_space_group_name_H-M   'P 1'
_cell_length_a   4.52495700
_cell_length_b   4.80144385
_cell_length_c   11.03247729
_cell_angle_alpha   89.89914377
_cell_angle_beta   90.00000000
_cell_angle_gamma   90.00000000
_symmetry_Int_Tables_number   1
_chemical_formula_structural   Ta4Cu3NiPt7Rh
_chemical_formula_sum   'Ta4 Cu3 Ni1 Pt7 Rh1'
_cell_volume   239.69483753
_cell_formula_units_Z   1
loop_
 _symmetry_equiv_pos_site_id
 _symmetry_equiv_pos_as_xyz
  1  'x, y, z'
loop_
 _atom_site_type_symbol
 _atom_site_label
 _atom_site_symmetry_multiplicity
 _atom_site_fract_x
 _atom_site_fract_y
 _atom_site_fract_z
 _atom_site_occupancy
  Ta  Ta0  1  0.500000  0.662677  0.257332  1
  Ta  Ta1  1  0.500000  0.660744  0.744608  1
  Ta  Ta2  1  0.000000  0.338693  0.000495  1
  Ta  Ta3  1  0.000000  0.350844  0.497713  1
  Cu  Cu4  1  0.000000  0.324969  0.250269  1
  Cu  Cu5  1  0.000000  0.325483  0.750200  1
  Cu  Cu6  1  0.500000  0.673850  0.000058  1
  Ni  Ni7  1  0.500000  0.668461  0.499676  1
  Pt  Pt8  1  0.500000  0.175325  0.374685  1
  Pt  Pt9  1  0.500000  0.179844  0.874840  1
  Pt  Pt10  1  0.500000  0.180087  0.125370  1
  Pt  Pt11  1  0.500000  0.177924  0.624120  1
  Pt  Pt12  1  0.000000  0.818045  0.874668  1
  Pt  Pt13  1  0.000000  0.817322  0.125795  1
  Pt  Pt14  1  0.000000  0.823864  0.623956  1
  Rh  Rh15  1  0.000000  0.821870  0.376216  1
