# generated using pymatgen
data_CaAc2Mg3Tl2In
_symmetry_space_group_name_H-M   'P 1'
_cell_length_a   7.89635779
_cell_length_b   7.89635671
_cell_length_c   4.94161100
_cell_angle_alpha   90.00000000
_cell_angle_beta   90.00000000
_cell_angle_gamma   118.55683484
_symmetry_Int_Tables_number   1
_chemical_formula_structural   CaAc2Mg3Tl2In
_chemical_formula_sum   'Ca1 Ac2 Mg3 Tl2 In1'
_cell_volume   270.63655386
_cell_formula_units_Z   1
loop_
 _symmetry_equiv_pos_site_id
 _symmetry_equiv_pos_as_xyz
  1  'x, y, z'
loop_
 _atom_site_type_symbol
 _atom_site_label
 _atom_site_symmetry_multiplicity
 _atom_site_fract_x
 _atom_site_fract_y
 _atom_site_fract_z
 _atom_site_occupancy
  Ca  Ca0  1  0.425690  0.425690  0.000000  1
  Ac  Ac1  1  0.568555  0.996117  0.000000  1
  Ac  Ac2  1  0.996117  0.568555  0.000000  1
  Mg  Mg3  1  0.237004  0.999713  0.500000  1
  Mg  Mg4  1  0.999713  0.237004  0.500000  1
  Mg  Mg5  1  0.765655  0.765655  0.500000  1
  Tl  Tl6  1  0.336841  0.654816  0.500000  1
  Tl  Tl7  1  0.654816  0.336841  0.500000  1
  In  In8  1  0.015610  0.015610  0.000000  1
