# generated using pymatgen
data_Tb2Mo3As7Rh9
_symmetry_space_group_name_H-M   'P 1'
_cell_length_a   4.02633967
_cell_length_b   9.85724363
_cell_length_c   9.85765797
_cell_angle_alpha   119.99883493
_cell_angle_beta   89.99794545
_cell_angle_gamma   90.00233863
_symmetry_Int_Tables_number   1
_chemical_formula_structural   Tb2Mo3As7Rh9
_chemical_formula_sum   'Tb2 Mo3 As7 Rh9'
_cell_volume   338.82494400
_cell_formula_units_Z   1
loop_
 _symmetry_equiv_pos_site_id
 _symmetry_equiv_pos_as_xyz
  1  'x, y, z'
loop_
 _atom_site_type_symbol
 _atom_site_label
 _atom_site_symmetry_multiplicity
 _atom_site_fract_x
 _atom_site_fract_y
 _atom_site_fract_z
 _atom_site_occupancy
  Tb  Tb0  1  0.261719  0.666653  0.333317  1
  Tb  Tb1  1  0.761905  0.333316  0.666667  1
  Mo  Mo2  1  0.762029  0.092667  0.874557  1
  Mo  Mo3  1  0.762011  0.125477  0.218092  1
  Mo  Mo4  1  0.762024  0.781958  0.907371  1
  As  As5  1  0.262552  0.000015  0.000023  1
  As  As6  1  0.761702  0.882166  0.592526  1
  As  As7  1  0.761703  0.407459  0.289620  1
  As  As8  1  0.761731  0.710338  0.117804  1
  As  As9  1  0.261799  0.118047  0.411297  1
  As  As10  1  0.261829  0.588791  0.706808  1
  As  As11  1  0.261795  0.293184  0.881934  1
  Rh  Rh12  1  0.261936  0.881131  0.158421  1
  Rh  Rh13  1  0.261818  0.841725  0.722758  1
  Rh  Rh14  1  0.261837  0.277287  0.118814  1
  Rh  Rh15  1  0.762017  0.614443  0.563083  1
  Rh  Rh16  1  0.761967  0.436811  0.051357  1
  Rh  Rh17  1  0.761887  0.948603  0.385510  1
  Rh  Rh18  1  0.261869  0.371695  0.437682  1
  Rh  Rh19  1  0.261949  0.562222  0.934010  1
  Rh  Rh20  1  0.261922  0.066009  0.628349  1
