# generated using pymatgen
data_GaCoF36
_symmetry_space_group_name_H-M   'P 1'
_cell_length_a   6.46283615
_cell_length_b   9.86331793
_cell_length_c   10.07730000
_cell_angle_alpha   90.55970957
_cell_angle_beta   97.13539677
_cell_angle_gamma   74.20145684
_symmetry_Int_Tables_number   1
_chemical_formula_structural   GaCoF36
_chemical_formula_sum   'Ga1 Co1 F36'
_cell_volume   613.13006613
_cell_formula_units_Z   1
loop_
 _symmetry_equiv_pos_site_id
 _symmetry_equiv_pos_as_xyz
  1  'x, y, z'
loop_
 _atom_site_type_symbol
 _atom_site_label
 _atom_site_symmetry_multiplicity
 _atom_site_fract_x
 _atom_site_fract_y
 _atom_site_fract_z
 _atom_site_occupancy
  Ga  Ga0  1  0.363508  0.160036  0.169327  1
  Co  Co1  1  0.678015  0.823735  0.836987  1
  F  F2  1  0.276841  0.383532  0.882785  1
  F  F3  1  0.768380  0.583627  0.167016  1
  F  F4  1  0.299016  0.286473  0.582972  1
  F  F5  1  0.717282  0.700489  0.425503  1
  F  F6  1  0.881252  0.230202  0.799572  1
  F  F7  1  0.065851  0.797721  0.182177  1
  F  F8  1  0.644239  0.868523  0.000494  1
  F  F9  1  0.278310  0.128631  0.987123  1
  F  F10  1  0.796197  0.648834  0.891875  1
  F  F11  1  0.282765  0.358420  0.143018  1
  F  F12  1  0.455280  0.412686  0.830683  1
  F  F13  1  0.540597  0.599264  0.152543  1
  F  F14  1  0.684212  0.764551  0.675078  1
  F  F15  1  0.274940  0.261645  0.323155  1
  F  F16  1  0.740108  0.006785  0.508411  1
  F  F17  1  0.255751  0.993750  0.491345  1
  F  F18  1  0.251839  0.185622  0.665495  1
  F  F19  1  0.690119  0.825039  0.346184  1
  F  F20  1  0.772419  0.105346  0.609145  1
  F  F21  1  0.203124  0.922124  0.373410  1
  F  F22  1  0.871986  0.918207  0.828211  1
  F  F23  1  0.169529  0.046058  0.146265  1
  F  F24  1  0.853337  0.377568  0.782069  1
  F  F25  1  0.133663  0.651151  0.216011  1
  F  F26  1  0.216754  0.659072  0.942196  1
  F  F27  1  0.794907  0.327711  0.052037  1
  F  F28  1  0.425429  0.941935  0.783293  1
  F  F29  1  0.627889  0.051693  0.220549  1
  F  F30  1  0.127167  0.749873  0.577915  1
  F  F31  1  0.874436  0.255045  0.426694  1
  F  F32  1  0.136255  0.620065  0.642125  1
  F  F33  1  0.838700  0.379397  0.346262  1
  F  F34  1  0.290723  0.767937  0.887444  1
  F  F35  1  0.738520  0.211016  0.110698  1
  F  F36  1  0.560893  0.471729  0.556811  1
  F  F37  1  0.419766  0.524509  0.437125  1
