# generated using pymatgen
data_Tb16Er3TmSn16
_symmetry_space_group_name_H-M   'P 1'
_cell_length_a   8.02925100
_cell_length_b   8.18588400
_cell_length_c   15.48583700
_cell_angle_alpha   90.00000000
_cell_angle_beta   90.00000000
_cell_angle_gamma   90.00380910
_symmetry_Int_Tables_number   1
_chemical_formula_structural   Tb16Er3TmSn16
_chemical_formula_sum   'Tb16 Er3 Tm1 Sn16'
_cell_volume   1017.83013225
_cell_formula_units_Z   1
loop_
 _symmetry_equiv_pos_site_id
 _symmetry_equiv_pos_as_xyz
  1  'x, y, z'
loop_
 _atom_site_type_symbol
 _atom_site_label
 _atom_site_symmetry_multiplicity
 _atom_site_fract_x
 _atom_site_fract_y
 _atom_site_fract_z
 _atom_site_occupancy
  Tb  Tb0  1  0.366854  0.837186  0.877948  1
  Tb  Tb1  1  0.866856  0.662810  0.622057  1
  Tb  Tb2  1  0.633082  0.162780  0.377944  1
  Tb  Tb3  1  0.133166  0.337145  0.122057  1
  Tb  Tb4  1  0.633082  0.162780  0.122056  1
  Tb  Tb5  1  0.133166  0.337145  0.377943  1
  Tb  Tb6  1  0.366854  0.837186  0.622052  1
  Tb  Tb7  1  0.866856  0.662810  0.877943  1
  Tb  Tb8  1  0.519839  0.320470  0.902638  1
  Tb  Tb9  1  0.019828  0.179539  0.597358  1
  Tb  Tb10  1  0.480141  0.679553  0.402643  1
  Tb  Tb11  1  0.980189  0.820487  0.097361  1
  Tb  Tb12  1  0.480141  0.679553  0.097357  1
  Tb  Tb13  1  0.980189  0.820487  0.402639  1
  Tb  Tb14  1  0.519839  0.320470  0.597362  1
  Tb  Tb15  1  0.019828  0.179539  0.902642  1
  Er  Er16  1  0.198263  0.502649  0.750000  1
  Er  Er17  1  0.698282  0.997362  0.750000  1
  Er  Er18  1  0.801809  0.497358  0.250000  1
  Tm  Tm19  1  0.301683  0.002652  0.250000  1
  Sn  Sn20  1  0.293110  0.035913  0.042561  1
  Sn  Sn21  1  0.793108  0.464088  0.457491  1
  Sn  Sn22  1  0.706885  0.964073  0.542518  1
  Sn  Sn23  1  0.206881  0.535919  0.957483  1
  Sn  Sn24  1  0.706885  0.964073  0.957482  1
  Sn  Sn25  1  0.206881  0.535919  0.542517  1
  Sn  Sn26  1  0.293110  0.035913  0.457439  1
  Sn  Sn27  1  0.793108  0.464088  0.042509  1
  Sn  Sn28  1  0.563936  0.618220  0.750000  1
  Sn  Sn29  1  0.063954  0.881789  0.750000  1
  Sn  Sn30  1  0.436032  0.381737  0.250000  1
  Sn  Sn31  1  0.936194  0.118171  0.250000  1
  Sn  Sn32  1  0.328805  0.148322  0.750000  1
  Sn  Sn33  1  0.828833  0.351646  0.750000  1
  Sn  Sn34  1  0.671139  0.851687  0.250000  1
  Sn  Sn35  1  0.171188  0.648480  0.250000  1
