# generated using pymatgen
data_CsK4Rb(AlTe3)2
_symmetry_space_group_name_H-M   'P 1'
_cell_length_a   14.66198501
_cell_length_b   8.88984828
_cell_length_c   11.32789002
_cell_angle_alpha   53.02482036
_cell_angle_beta   89.37231507
_cell_angle_gamma   89.42276522
_symmetry_Int_Tables_number   1
_chemical_formula_structural   CsK4Rb(AlTe3)2
_chemical_formula_sum   'Cs2 K8 Rb2 Al4 Te12'
_cell_volume   1179.49545339
_cell_formula_units_Z   2
loop_
 _symmetry_equiv_pos_site_id
 _symmetry_equiv_pos_as_xyz
  1  'x, y, z'
loop_
 _atom_site_type_symbol
 _atom_site_label
 _atom_site_symmetry_multiplicity
 _atom_site_fract_x
 _atom_site_fract_y
 _atom_site_fract_z
 _atom_site_occupancy
  Cs  Cs0  1  0.310410  0.165149  0.063608  1
  Cs  Cs1  1  0.689351  0.835182  0.936203  1
  K  K2  1  0.613148  0.359281  0.474149  1
  K  K3  1  0.109088  0.641091  0.024163  1
  K  K4  1  0.386314  0.640671  0.525981  1
  K  K5  1  0.891312  0.358949  0.975606  1
  K  K6  1  0.611757  0.301963  0.910491  1
  K  K7  1  0.104998  0.684592  0.596505  1
  K  K8  1  0.388160  0.697832  0.089610  1
  K  K9  1  0.185493  0.153704  0.566377  1
  Rb  Rb10  1  0.815469  0.843374  0.436514  1
  Rb  Rb11  1  0.896410  0.318542  0.401244  1
  Al  Al12  1  0.066663  0.942955  0.158390  1
  Al  Al13  1  0.565898  0.042213  0.346411  1
  Al  Al14  1  0.433254  0.958623  0.653053  1
  Al  Al15  1  0.934313  0.056722  0.840729  1
  Te  Te16  1  0.410763  0.197252  0.358127  1
  Te  Te17  1  0.904384  0.827248  0.135813  1
  Te  Te18  1  0.588532  0.803203  0.641887  1
  Te  Te19  1  0.096192  0.177494  0.860332  1
  Te  Te20  1  0.695697  0.296532  0.209907  1
  Te  Te21  1  0.187862  0.668322  0.303452  1
  Te  Te22  1  0.301047  0.708889  0.785994  1
  Te  Te23  1  0.810852  0.326486  0.701784  1
  Te  Te24  1  0.548988  0.854830  0.238061  1
  Te  Te25  1  0.056211  0.136532  0.262765  1
  Te  Te26  1  0.450988  0.144853  0.762161  1
  Te  Te27  1  0.946448  0.857514  0.740682  1
