# generated using pymatgen
data_K5Ba3(US5)2
_symmetry_space_group_name_H-M   'P 1'
_cell_length_a   7.78443766
_cell_length_b   11.47223103
_cell_length_c   7.79459200
_cell_angle_alpha   101.31145223
_cell_angle_beta   102.57058466
_cell_angle_gamma   108.64568087
_symmetry_Int_Tables_number   1
_chemical_formula_structural   K5Ba3(US5)2
_chemical_formula_sum   'K5 Ba3 U2 S10'
_cell_volume   616.60269428
_cell_formula_units_Z   1
loop_
 _symmetry_equiv_pos_site_id
 _symmetry_equiv_pos_as_xyz
  1  'x, y, z'
loop_
 _atom_site_type_symbol
 _atom_site_label
 _atom_site_symmetry_multiplicity
 _atom_site_fract_x
 _atom_site_fract_y
 _atom_site_fract_z
 _atom_site_occupancy
  K  K0  1  0.414122  0.905187  0.201860  1
  K  K1  1  0.605864  0.592326  0.302802  1
  K  K2  1  0.793866  0.306262  0.407362  1
  K  K3  1  0.200537  0.695842  0.586864  1
  K  K4  1  0.406536  0.406576  0.697260  1
  Ba  Ba5  1  0.062606  0.523240  0.997371  1
  Ba  Ba6  1  0.989277  0.997328  0.496459  1
  Ba  Ba7  1  0.581878  0.098791  0.798718  1
  U  U8  1  0.192091  0.194417  0.103601  1
  U  U9  1  0.800326  0.798620  0.900747  1
  S  S10  1  0.518099  0.311337  0.053978  1
  S  S11  1  0.839232  0.037271  0.113929  1
  S  S12  1  0.981515  0.756302  0.201797  1
  S  S13  1  0.178694  0.403758  0.302540  1
  S  S14  1  0.366437  0.149338  0.412328  1
  S  S15  1  0.626396  0.848223  0.601586  1
  S  S16  1  0.820047  0.592874  0.697711  1
  S  S17  1  0.001552  0.239593  0.797441  1
  S  S18  1  0.156594  0.963160  0.880009  1
  S  S19  1  0.464333  0.679553  0.945636  1
