# generated using pymatgen
data_GeRh2S5
_symmetry_space_group_name_H-M   'P 1'
_cell_length_a   3.53203500
_cell_length_b   7.32759251
_cell_length_c   12.47087797
_cell_angle_alpha   76.80754108
_cell_angle_beta   90.00000000
_cell_angle_gamma   90.00000000
_symmetry_Int_Tables_number   1
_chemical_formula_structural   GeRh2S5
_chemical_formula_sum   'Ge2 Rh4 S10'
_cell_volume   314.24465186
_cell_formula_units_Z   2
loop_
 _symmetry_equiv_pos_site_id
 _symmetry_equiv_pos_as_xyz
  1  'x, y, z'
loop_
 _atom_site_type_symbol
 _atom_site_label
 _atom_site_symmetry_multiplicity
 _atom_site_fract_x
 _atom_site_fract_y
 _atom_site_fract_z
 _atom_site_occupancy
  Ge  Ge0  1  0.500000  0.160765  0.677549  1
  Ge  Ge1  1  0.500000  0.839235  0.322451  1
  Rh  Rh2  1  0.000000  0.254187  0.148165  1
  Rh  Rh3  1  0.000000  0.745813  0.851835  1
  Rh  Rh4  1  0.500000  0.745083  0.144331  1
  Rh  Rh5  1  0.500000  0.254917  0.855669  1
  S  S6  1  0.000000  0.958945  0.093917  1
  S  S7  1  0.000000  0.041055  0.906083  1
  S  S8  1  0.000000  0.468365  0.780567  1
  S  S9  1  0.000000  0.531635  0.219433  1
  S  S10  1  0.500000  0.650788  0.975594  1
  S  S11  1  0.500000  0.349212  0.024406  1
  S  S12  1  0.500000  0.166472  0.279640  1
  S  S13  1  0.500000  0.833528  0.720360  1
  S  S14  1  0.000000  0.235096  0.561446  1
  S  S15  1  0.000000  0.764904  0.438554  1
