# generated using pymatgen
data_Tb2Lu2B12IrRu
_symmetry_space_group_name_H-M   'P 1'
_cell_length_a   3.62861500
_cell_length_b   9.11297055
_cell_length_c   11.45850672
_cell_angle_alpha   90.04023083
_cell_angle_beta   90.00000000
_cell_angle_gamma   90.00000000
_symmetry_Int_Tables_number   1
_chemical_formula_structural   Tb2Lu2B12IrRu
_chemical_formula_sum   'Tb4 Lu4 B24 Ir2 Ru2'
_cell_volume   378.90363795
_cell_formula_units_Z   2
loop_
 _symmetry_equiv_pos_site_id
 _symmetry_equiv_pos_as_xyz
  1  'x, y, z'
loop_
 _atom_site_type_symbol
 _atom_site_label
 _atom_site_symmetry_multiplicity
 _atom_site_fract_x
 _atom_site_fract_y
 _atom_site_fract_z
 _atom_site_occupancy
  Tb  Tb0  1  0.000000  0.318754  0.412571  1
  Tb  Tb1  1  0.000000  0.681246  0.587429  1
  Tb  Tb2  1  0.000000  0.822286  0.084894  1
  Tb  Tb3  1  0.000000  0.177714  0.915106  1
  Lu  Lu4  1  0.000000  0.945988  0.372819  1
  Lu  Lu5  1  0.000000  0.054012  0.627181  1
  Lu  Lu6  1  0.000000  0.442374  0.125918  1
  Lu  Lu7  1  0.000000  0.557626  0.874082  1
  B  B8  1  0.500000  0.554031  0.433283  1
  B  B9  1  0.500000  0.445969  0.566717  1
  B  B10  1  0.500000  0.054921  0.067518  1
  B  B11  1  0.500000  0.945079  0.932482  1
  B  B12  1  0.500000  0.752178  0.419565  1
  B  B13  1  0.500000  0.247822  0.580435  1
  B  B14  1  0.500000  0.249961  0.080956  1
  B  B15  1  0.500000  0.750039  0.919044  1
  B  B16  1  0.500000  0.793194  0.265440  1
  B  B17  1  0.500000  0.206806  0.734560  1
  B  B18  1  0.500000  0.292428  0.234625  1
  B  B19  1  0.500000  0.707572  0.765375  1
  B  B20  1  0.500000  0.630344  0.183131  1
  B  B21  1  0.500000  0.369656  0.816869  1
  B  B22  1  0.500000  0.130860  0.315721  1
  B  B23  1  0.500000  0.869140  0.684279  1
  B  B24  1  0.500000  0.983505  0.213774  1
  B  B25  1  0.500000  0.016495  0.786226  1
  B  B26  1  0.500000  0.481952  0.285664  1
  B  B27  1  0.500000  0.518048  0.714336  1
  B  B28  1  0.500000  0.604728  0.028779  1
  B  B29  1  0.500000  0.395272  0.971221  1
  B  B30  1  0.500000  0.104757  0.471857  1
  B  B31  1  0.500000  0.895243  0.528143  1
  Ir  Ir32  1  0.000000  0.638569  0.320528  1
  Ir  Ir33  1  0.000000  0.361431  0.679472  1
  Ru  Ru34  1  0.000000  0.138969  0.180311  1
  Ru  Ru35  1  0.000000  0.861031  0.819689  1
