# generated using pymatgen
data_Zr6Al16Fe(Cu2Ir)2
_symmetry_space_group_name_H-M   'P 1'
_cell_length_a   8.66780308
_cell_length_b   8.60765483
_cell_length_c   8.66780455
_cell_angle_alpha   60.22928703
_cell_angle_beta   59.54142438
_cell_angle_gamma   60.22927923
_symmetry_Int_Tables_number   1
_chemical_formula_structural   Zr6Al16Fe(Cu2Ir)2
_chemical_formula_sum   'Zr6 Al16 Fe1 Cu4 Ir2'
_cell_volume   457.24232090
_cell_formula_units_Z   1
loop_
 _symmetry_equiv_pos_site_id
 _symmetry_equiv_pos_as_xyz
  1  'x, y, z'
loop_
 _atom_site_type_symbol
 _atom_site_label
 _atom_site_symmetry_multiplicity
 _atom_site_fract_x
 _atom_site_fract_y
 _atom_site_fract_z
 _atom_site_occupancy
  Zr  Zr0  1  0.189130  0.810870  0.810870  1
  Zr  Zr1  1  0.810870  0.189130  0.189130  1
  Zr  Zr2  1  0.801432  0.198568  0.801432  1
  Zr  Zr3  1  0.810870  0.810870  0.189130  1
  Zr  Zr4  1  0.198568  0.801432  0.198568  1
  Zr  Zr5  1  0.189130  0.189130  0.810870  1
  Al  Al6  1  0.831837  0.835934  0.831837  1
  Al  Al7  1  0.835934  0.831837  0.500391  1
  Al  Al8  1  0.500391  0.831837  0.835934  1
  Al  Al9  1  0.831837  0.500391  0.831837  1
  Al  Al10  1  0.168163  0.164066  0.168163  1
  Al  Al11  1  0.164066  0.168163  0.499609  1
  Al  Al12  1  0.168163  0.499609  0.168163  1
  Al  Al13  1  0.499609  0.168163  0.164066  1
  Al  Al14  1  0.612864  0.621952  0.612864  1
  Al  Al15  1  0.621952  0.612864  0.152319  1
  Al  Al16  1  0.152319  0.612864  0.621952  1
  Al  Al17  1  0.612864  0.152319  0.612864  1
  Al  Al18  1  0.387136  0.378048  0.387136  1
  Al  Al19  1  0.378048  0.387136  0.847681  1
  Al  Al20  1  0.387136  0.847681  0.387136  1
  Al  Al21  1  0.847681  0.387136  0.378048  1
  Fe  Fe22  1  0.500000  0.500000  0.500000  1
  Cu  Cu23  1  0.000000  0.500000  0.500000  1
  Cu  Cu24  1  0.500000  0.000000  0.000000  1
  Cu  Cu25  1  0.500000  0.500000  0.000000  1
  Cu  Cu26  1  0.000000  0.000000  0.500000  1
  Ir  Ir27  1  0.500000  0.000000  0.500000  1
  Ir  Ir28  1  0.000000  0.500000  0.000000  1
