# generated using pymatgen
data_K4Zr3S14
_symmetry_space_group_name_H-M   'P 1'
_cell_length_a   11.81057015
_cell_length_b   11.81056994
_cell_length_c   13.84202300
_cell_angle_alpha   68.76953254
_cell_angle_beta   68.76953295
_cell_angle_gamma   41.71635269
_symmetry_Int_Tables_number   1
_chemical_formula_structural   K4Zr3S14
_chemical_formula_sum   'K8 Zr6 S28'
_cell_volume   1184.45546466
_cell_formula_units_Z   2
loop_
 _symmetry_equiv_pos_site_id
 _symmetry_equiv_pos_as_xyz
  1  'x, y, z'
loop_
 _atom_site_type_symbol
 _atom_site_label
 _atom_site_symmetry_multiplicity
 _atom_site_fract_x
 _atom_site_fract_y
 _atom_site_fract_z
 _atom_site_occupancy
  K  K0  1  0.020540  0.370564  0.895142  1
  K  K1  1  0.629436  0.979460  0.604858  1
  K  K2  1  0.979460  0.629436  0.104858  1
  K  K3  1  0.370564  0.020540  0.395142  1
  K  K4  1  0.188394  0.664780  0.641054  1
  K  K5  1  0.335220  0.811606  0.858946  1
  K  K6  1  0.811606  0.335220  0.358946  1
  K  K7  1  0.664780  0.188394  0.141054  1
  Zr  Zr8  1  0.922255  0.414545  0.589133  1
  Zr  Zr9  1  0.585455  0.077745  0.910867  1
  Zr  Zr10  1  0.077745  0.585455  0.410867  1
  Zr  Zr11  1  0.414545  0.922255  0.089133  1
  Zr  Zr12  1  0.766733  0.233267  0.750000  1
  Zr  Zr13  1  0.233267  0.766733  0.250000  1
  S  S14  1  0.883272  0.194787  0.897918  1
  S  S15  1  0.805213  0.116728  0.602082  1
  S  S16  1  0.116728  0.805213  0.102082  1
  S  S17  1  0.194787  0.883272  0.397918  1
  S  S18  1  0.654653  0.484866  0.583821  1
  S  S19  1  0.515134  0.345347  0.916179  1
  S  S20  1  0.345347  0.515134  0.416179  1
  S  S21  1  0.484866  0.654653  0.083821  1
  S  S22  1  0.079139  0.095083  0.634532  1
  S  S23  1  0.904917  0.920861  0.865468  1
  S  S24  1  0.920861  0.904917  0.365468  1
  S  S25  1  0.095083  0.079139  0.134532  1
  S  S26  1  0.759105  0.430959  0.797617  1
  S  S27  1  0.569041  0.240895  0.702383  1
  S  S28  1  0.240895  0.569041  0.202383  1
  S  S29  1  0.430959  0.759105  0.297617  1
  S  S30  1  0.983806  0.576431  0.602382  1
  S  S31  1  0.423569  0.016194  0.897618  1
  S  S32  1  0.016194  0.423569  0.397618  1
  S  S33  1  0.576431  0.983806  0.102382  1
  S  S34  1  0.855762  0.806378  0.826226  1
  S  S35  1  0.193622  0.144238  0.673774  1
  S  S36  1  0.144238  0.193622  0.173774  1
  S  S37  1  0.806378  0.855762  0.326226  1
  S  S38  1  0.308617  0.407039  0.890525  1
  S  S39  1  0.592961  0.691383  0.609475  1
  S  S40  1  0.691383  0.592961  0.109475  1
  S  S41  1  0.407039  0.308617  0.390525  1
