# generated using pymatgen
data_Er6Al20Si4Os5Ru3
_symmetry_space_group_name_H-M   'P 1'
_cell_length_a   8.67356101
_cell_length_b   8.66808519
_cell_length_c   9.59690601
_cell_angle_alpha   90.00094698
_cell_angle_beta   89.99878850
_cell_angle_gamma   120.01538433
_symmetry_Int_Tables_number   1
_chemical_formula_structural   Er6Al20Si4Os5Ru3
_chemical_formula_sum   'Er6 Al20 Si4 Os5 Ru3'
_cell_volume   624.76276120
_cell_formula_units_Z   1
loop_
 _symmetry_equiv_pos_site_id
 _symmetry_equiv_pos_as_xyz
  1  'x, y, z'
loop_
 _atom_site_type_symbol
 _atom_site_label
 _atom_site_symmetry_multiplicity
 _atom_site_fract_x
 _atom_site_fract_y
 _atom_site_fract_z
 _atom_site_occupancy
  Er  Er0  1  0.195280  0.390834  0.249914  1
  Er  Er1  1  0.804720  0.609166  0.750086  1
  Er  Er2  1  0.607657  0.800964  0.249743  1
  Er  Er3  1  0.392343  0.199036  0.750257  1
  Er  Er4  1  0.193099  0.800966  0.249786  1
  Er  Er5  1  0.806901  0.199034  0.750214  1
  Al  Al6  1  0.164856  0.329765  0.577429  1
  Al  Al7  1  0.835144  0.670235  0.422571  1
  Al  Al8  1  0.670618  0.836051  0.577924  1
  Al  Al9  1  0.834940  0.669848  0.077251  1
  Al  Al10  1  0.329382  0.163949  0.422076  1
  Al  Al11  1  0.165060  0.330152  0.922749  1
  Al  Al12  1  0.165396  0.835999  0.577846  1
  Al  Al13  1  0.329764  0.164193  0.077919  1
  Al  Al14  1  0.834604  0.164001  0.422154  1
  Al  Al15  1  0.670236  0.835807  0.922081  1
  Al  Al16  1  0.834472  0.164230  0.077869  1
  Al  Al17  1  0.165528  0.835770  0.922131  1
  Al  Al18  1  0.561737  0.123537  0.249888  1
  Al  Al19  1  0.438263  0.876463  0.750112  1
  Al  Al20  1  0.871570  0.434714  0.249938  1
  Al  Al21  1  0.128430  0.565286  0.750062  1
  Al  Al22  1  0.563098  0.434763  0.249910  1
  Al  Al23  1  0.436902  0.565237  0.750090  1
  Al  Al24  1  0.999399  0.998898  0.251523  1
  Al  Al25  1  0.000601  0.001102  0.748477  1
  Si  Si26  1  0.333521  0.666889  0.037967  1
  Si  Si27  1  0.666479  0.333111  0.962033  1
  Si  Si28  1  0.666460  0.332961  0.537192  1
  Si  Si29  1  0.333540  0.667039  0.462808  1
  Os  Os30  1  0.000000  0.500000  0.000000  1
  Os  Os31  1  0.500000  0.500000  0.000000  1
  Os  Os32  1  0.000000  0.500000  0.500000  1
  Os  Os33  1  0.500000  0.500000  0.500000  1
  Os  Os34  1  0.000000  0.000000  0.000000  1
  Ru  Ru35  1  0.500000  0.000000  0.000000  1
  Ru  Ru36  1  0.500000  0.000000  0.500000  1
  Ru  Ru37  1  0.000000  0.000000  0.500000  1
