# generated using pymatgen
data_Ta18Al5Ge2Os3
_symmetry_space_group_name_H-M   'P 1'
_cell_length_a   9.87159838
_cell_length_b   9.87160110
_cell_length_c   9.88618445
_cell_angle_alpha   93.97936378
_cell_angle_beta   93.97932690
_cell_angle_gamma   149.42916836
_symmetry_Int_Tables_number   1
_chemical_formula_structural   Ta18Al5Ge2Os3
_chemical_formula_sum   'Ta18 Al5 Ge2 Os3'
_cell_volume   472.70370272
_cell_formula_units_Z   1
loop_
 _symmetry_equiv_pos_site_id
 _symmetry_equiv_pos_as_xyz
  1  'x, y, z'
loop_
 _atom_site_type_symbol
 _atom_site_label
 _atom_site_symmetry_multiplicity
 _atom_site_fract_x
 _atom_site_fract_y
 _atom_site_fract_z
 _atom_site_occupancy
  Ta  Ta0  1  0.565727  0.795128  0.360854  1
  Ta  Ta1  1  0.084086  0.160278  0.244363  1
  Ta  Ta2  1  0.581692  0.342571  0.924262  1
  Ta  Ta3  1  0.660276  0.584086  0.244363  1
  Ta  Ta4  1  0.340266  0.416045  0.756309  1
  Ta  Ta5  1  0.794975  0.435134  0.230108  1
  Ta  Ta6  1  0.416358  0.661647  0.078006  1
  Ta  Ta7  1  0.161648  0.916358  0.078004  1
  Ta  Ta8  1  0.707563  0.934238  0.641800  1
  Ta  Ta9  1  0.434237  0.207562  0.641800  1
  Ta  Ta10  1  0.916045  0.840264  0.756309  1
  Ta  Ta11  1  0.064153  0.705942  0.770096  1
  Ta  Ta12  1  0.205942  0.564153  0.770096  1
  Ta  Ta13  1  0.245176  0.745176  0.495099  1
  Ta  Ta14  1  0.295127  0.065726  0.360854  1
  Ta  Ta15  1  0.749923  0.249923  0.495099  1
  Ta  Ta16  1  0.842570  0.081692  0.924264  1
  Ta  Ta17  1  0.935134  0.294975  0.230108  1
  Al  Al18  1  0.499836  0.999836  0.001669  1
  Al  Al19  1  0.628329  0.128329  0.756658  1
  Al  Al20  1  0.001833  0.501833  0.001669  1
  Al  Al21  1  0.500104  0.500104  0.500209  1
  Al  Al22  1  0.000104  0.000104  0.500209  1
  Ge  Ge23  1  0.750397  0.750398  0.000795  1
  Ge  Ge24  1  0.250399  0.250398  0.000797  1
  Os  Os25  1  0.368810  0.868810  0.237620  1
  Os  Os26  1  0.869004  0.630286  0.499290  1
  Os  Os27  1  0.130286  0.369004  0.499290  1
