# generated using pymatgen
data_LiDy4Ho12Cd3Ir4
_symmetry_space_group_name_H-M   'P 1'
_cell_length_a   9.63268998
_cell_length_b   9.62994762
_cell_length_c   9.62994717
_cell_angle_alpha   59.70728760
_cell_angle_beta   59.69464659
_cell_angle_gamma   59.69464544
_symmetry_Int_Tables_number   1
_chemical_formula_structural   LiDy4Ho12Cd3Ir4
_chemical_formula_sum   'Li1 Dy4 Ho12 Cd3 Ir4'
_cell_volume   627.33488582
_cell_formula_units_Z   1
loop_
 _symmetry_equiv_pos_site_id
 _symmetry_equiv_pos_as_xyz
  1  'x, y, z'
loop_
 _atom_site_type_symbol
 _atom_site_label
 _atom_site_symmetry_multiplicity
 _atom_site_fract_x
 _atom_site_fract_y
 _atom_site_fract_z
 _atom_site_occupancy
  Li  Li0  1  0.821264  0.821215  0.821215  1
  Dy  Dy1  1  0.811487  0.189506  0.811510  1
  Dy  Dy2  1  0.186223  0.812526  0.186222  1
  Dy  Dy3  1  0.811487  0.811510  0.189506  1
  Dy  Dy4  1  0.186223  0.186222  0.812526  1
  Ho  Ho5  1  0.599984  0.600026  0.600026  1
  Ho  Ho6  1  0.597714  0.597714  0.208120  1
  Ho  Ho7  1  0.597714  0.208120  0.597714  1
  Ho  Ho8  1  0.208102  0.597762  0.597762  1
  Ho  Ho9  1  0.060986  0.439738  0.439738  1
  Ho  Ho10  1  0.434965  0.062313  0.062313  1
  Ho  Ho11  1  0.439790  0.060949  0.439747  1
  Ho  Ho12  1  0.062272  0.435020  0.062253  1
  Ho  Ho13  1  0.439790  0.439747  0.060949  1
  Ho  Ho14  1  0.062272  0.062253  0.435020  1
  Ho  Ho15  1  0.189734  0.811315  0.811315  1
  Ho  Ho16  1  0.812438  0.186357  0.186357  1
  Cd  Cd17  1  0.832347  0.832519  0.506604  1
  Cd  Cd18  1  0.832347  0.506604  0.832519  1
  Cd  Cd19  1  0.506650  0.832356  0.832356  1
  Ir  Ir20  1  0.392309  0.392163  0.392163  1
  Ir  Ir21  1  0.393846  0.394018  0.826201  1
  Ir  Ir22  1  0.393846  0.826201  0.394018  1
  Ir  Ir23  1  0.826208  0.393849  0.393849  1
