# generated using pymatgen
data_Lu10Al5AsC8
_symmetry_space_group_name_H-M   'P 1'
_cell_length_a   10.61325600
_cell_length_b   10.61325600
_cell_length_c   3.43597800
_cell_angle_alpha   90.00000000
_cell_angle_beta   90.00000000
_cell_angle_gamma   90.00000000
_symmetry_Int_Tables_number   1
_chemical_formula_structural   Lu10Al5AsC8
_chemical_formula_sum   'Lu10 Al5 As1 C8'
_cell_volume   387.03269513
_cell_formula_units_Z   1
loop_
 _symmetry_equiv_pos_site_id
 _symmetry_equiv_pos_as_xyz
  1  'x, y, z'
loop_
 _atom_site_type_symbol
 _atom_site_label
 _atom_site_symmetry_multiplicity
 _atom_site_fract_x
 _atom_site_fract_y
 _atom_site_fract_z
 _atom_site_occupancy
  Lu  Lu0  1  0.548916  0.729880  0.500000  1
  Lu  Lu1  1  0.451084  0.270120  0.500000  1
  Lu  Lu2  1  0.050648  0.767625  0.500000  1
  Lu  Lu3  1  0.949352  0.232375  0.500000  1
  Lu  Lu4  1  0.270120  0.548916  0.500000  1
  Lu  Lu5  1  0.729880  0.451084  0.500000  1
  Lu  Lu6  1  0.232375  0.050648  0.500000  1
  Lu  Lu7  1  0.767625  0.949352  0.500000  1
  Lu  Lu8  1  0.500000  0.000000  0.000000  1
  Lu  Lu9  1  0.000000  0.500000  0.000000  1
  Al  Al10  1  0.710208  0.195059  0.000000  1
  Al  Al11  1  0.289792  0.804941  0.000000  1
  Al  Al12  1  0.195059  0.289792  0.000000  1
  Al  Al13  1  0.804941  0.710208  0.000000  1
  Al  Al14  1  0.000000  0.000000  0.000000  1
  As  As15  1  0.500000  0.500000  0.000000  1
  C  C16  1  0.626248  0.128853  0.500000  1
  C  C17  1  0.373752  0.871147  0.500000  1
  C  C18  1  0.128853  0.373752  0.500000  1
  C  C19  1  0.871147  0.626248  0.500000  1
  C  C20  1  0.165563  0.658737  0.000000  1
  C  C21  1  0.834437  0.341263  0.000000  1
  C  C22  1  0.658737  0.834437  0.000000  1
  C  C23  1  0.341263  0.165563  0.000000  1
