# generated using pymatgen
data_Pa2Mn3Al20Os
_symmetry_space_group_name_H-M   'P 1'
_cell_length_a   6.79658694
_cell_length_b   6.79884488
_cell_length_c   9.01752472
_cell_angle_alpha   89.91955354
_cell_angle_beta   90.12350561
_cell_angle_gamma   97.68255827
_symmetry_Int_Tables_number   1
_chemical_formula_structural   Pa2Mn3Al20Os
_chemical_formula_sum   'Pa2 Mn3 Al20 Os1'
_cell_volume   412.94880403
_cell_formula_units_Z   1
loop_
 _symmetry_equiv_pos_site_id
 _symmetry_equiv_pos_as_xyz
  1  'x, y, z'
loop_
 _atom_site_type_symbol
 _atom_site_label
 _atom_site_symmetry_multiplicity
 _atom_site_fract_x
 _atom_site_fract_y
 _atom_site_fract_z
 _atom_site_occupancy
  Pa  Pa0  1  0.867713  0.127613  0.753013  1
  Pa  Pa1  1  0.132287  0.872387  0.246987  1
  Mn  Mn2  1  0.500000  0.000000  0.000000  1
  Mn  Mn3  1  0.000000  0.500000  0.000000  1
  Mn  Mn4  1  0.500000  0.000000  0.500000  1
  Al  Al5  1  0.518847  0.783333  0.750391  1
  Al  Al6  1  0.782874  0.520692  0.246473  1
  Al  Al7  1  0.481153  0.216667  0.249609  1
  Al  Al8  1  0.217126  0.479308  0.753527  1
  Al  Al9  1  0.624462  0.374772  0.954623  1
  Al  Al10  1  0.375538  0.625228  0.045377  1
  Al  Al11  1  0.620742  0.372576  0.546311  1
  Al  Al12  1  0.379258  0.627424  0.453689  1
  Al  Al13  1  0.411866  0.138392  0.750378  1
  Al  Al14  1  0.140367  0.409591  0.245884  1
  Al  Al15  1  0.588134  0.861608  0.249622  1
  Al  Al16  1  0.859633  0.590409  0.754116  1
  Al  Al17  1  0.840147  0.152961  0.399409  1
  Al  Al18  1  0.159853  0.847039  0.600591  1
  Al  Al19  1  0.842231  0.158194  0.099380  1
  Al  Al20  1  0.157769  0.841806  0.900620  1
  Al  Al21  1  0.772918  0.773869  0.001449  1
  Al  Al22  1  0.771489  0.778262  0.502204  1
  Al  Al23  1  0.227082  0.226131  0.998551  1
  Al  Al24  1  0.228511  0.221738  0.497796  1
  Os  Os25  1  0.000000  0.500000  0.500000  1
