# generated using pymatgen
data_Y13Th3Mg3HgIr4
_symmetry_space_group_name_H-M   'P 1'
_cell_length_a   9.78823471
_cell_length_b   9.82446523
_cell_length_c   9.82446600
_cell_angle_alpha   59.99999739
_cell_angle_beta   59.87747916
_cell_angle_gamma   59.87748871
_symmetry_Int_Tables_number   1
_chemical_formula_structural   Y13Th3Mg3HgIr4
_chemical_formula_sum   'Y13 Th3 Mg3 Hg1 Ir4'
_cell_volume   666.80756064
_cell_formula_units_Z   1
loop_
 _symmetry_equiv_pos_site_id
 _symmetry_equiv_pos_as_xyz
  1  'x, y, z'
loop_
 _atom_site_type_symbol
 _atom_site_label
 _atom_site_symmetry_multiplicity
 _atom_site_fract_x
 _atom_site_fract_y
 _atom_site_fract_z
 _atom_site_occupancy
  Y  Y0  1  0.953943  0.348686  0.348686  1
  Y  Y1  1  0.812627  0.188266  0.188266  1
  Y  Y2  1  0.189245  0.812144  0.812144  1
  Y  Y3  1  0.189245  0.812144  0.186467  1
  Y  Y4  1  0.812627  0.188266  0.810841  1
  Y  Y5  1  0.189245  0.186467  0.812144  1
  Y  Y6  1  0.812627  0.810841  0.188266  1
  Y  Y7  1  0.939998  0.563626  0.563626  1
  Y  Y8  1  0.565439  0.934873  0.934873  1
  Y  Y9  1  0.565439  0.934873  0.564813  1
  Y  Y10  1  0.939998  0.563626  0.932748  1
  Y  Y11  1  0.565439  0.564813  0.934873  1
  Y  Y12  1  0.939998  0.932748  0.563626  1
  Th  Th13  1  0.345755  0.348754  0.348754  1
  Th  Th14  1  0.345755  0.348754  0.956737  1
  Th  Th15  1  0.345755  0.956737  0.348754  1
  Mg  Mg16  1  0.577981  0.580006  0.580006  1
  Mg  Mg17  1  0.577981  0.580006  0.262009  1
  Mg  Mg18  1  0.577981  0.262009  0.580006  1
  Hg  Hg19  1  0.245064  0.584979  0.584979  1
  Ir  Ir20  1  0.146120  0.141307  0.141307  1
  Ir  Ir21  1  0.146120  0.141307  0.571267  1
  Ir  Ir22  1  0.146120  0.571267  0.141307  1
  Ir  Ir23  1  0.569498  0.143501  0.143501  1
