# generated using pymatgen
data_Er6Al6Fe17
_symmetry_space_group_name_H-M   'P 1'
_cell_length_a   8.49884009
_cell_length_b   8.50822990
_cell_length_c   8.50823122
_cell_angle_alpha   59.83447584
_cell_angle_beta   60.03649754
_cell_angle_gamma   60.03649862
_symmetry_Int_Tables_number   1
_chemical_formula_structural   Er6Al6Fe17
_chemical_formula_sum   'Er6 Al6 Fe17'
_cell_volume   434.72608819
_cell_formula_units_Z   1
loop_
 _symmetry_equiv_pos_site_id
 _symmetry_equiv_pos_as_xyz
  1  'x, y, z'
loop_
 _atom_site_type_symbol
 _atom_site_label
 _atom_site_symmetry_multiplicity
 _atom_site_fract_x
 _atom_site_fract_y
 _atom_site_fract_z
 _atom_site_occupancy
  Er  Er0  1  0.698344  0.705096  0.299765  1
  Er  Er1  1  0.296795  0.705096  0.299765  1
  Er  Er2  1  0.701480  0.298520  0.298520  1
  Er  Er3  1  0.296795  0.299765  0.705096  1
  Er  Er4  1  0.698344  0.299765  0.705096  1
  Er  Er5  1  0.299025  0.700975  0.700975  1
  Al  Al6  1  0.878317  0.883155  0.360211  1
  Al  Al7  1  0.878317  0.360211  0.883155  1
  Al  Al8  1  0.365173  0.879685  0.879685  1
  Al  Al9  1  0.875456  0.879685  0.879685  1
  Al  Al10  1  0.122104  0.121998  0.633795  1
  Al  Al11  1  0.122104  0.633795  0.121998  1
  Fe  Fe12  1  0.999862  0.000138  0.000138  1
  Fe  Fe13  1  0.002490  0.002744  0.493843  1
  Fe  Fe14  1  0.500922  0.002744  0.493843  1
  Fe  Fe15  1  0.000053  0.499947  0.499947  1
  Fe  Fe16  1  0.500922  0.493843  0.002744  1
  Fe  Fe17  1  0.002490  0.493843  0.002744  1
  Fe  Fe18  1  0.496801  0.003199  0.003199  1
  Fe  Fe19  1  0.639054  0.120579  0.120579  1
  Fe  Fe20  1  0.119787  0.120579  0.120579  1
  Fe  Fe21  1  0.677270  0.674236  0.971224  1
  Fe  Fe22  1  0.677270  0.971224  0.674236  1
  Fe  Fe23  1  0.968849  0.676228  0.676228  1
  Fe  Fe24  1  0.678696  0.676228  0.676228  1
  Fe  Fe25  1  0.325196  0.324096  0.025512  1
  Fe  Fe26  1  0.325196  0.025512  0.324096  1
  Fe  Fe27  1  0.028859  0.323558  0.323558  1
  Fe  Fe28  1  0.324026  0.323558  0.323558  1
