# generated using pymatgen
data_NdSm(AuCl6)2
_symmetry_space_group_name_H-M   'P 1'
_cell_length_a   7.73729212
_cell_length_b   10.07998238
_cell_length_c   14.39292607
_cell_angle_alpha   103.57823438
_cell_angle_beta   96.59296612
_cell_angle_gamma   112.05705782
_symmetry_Int_Tables_number   1
_chemical_formula_structural   NdSm(AuCl6)2
_chemical_formula_sum   'Nd2 Sm2 Au4 Cl24'
_cell_volume   985.29176044
_cell_formula_units_Z   2
loop_
 _symmetry_equiv_pos_site_id
 _symmetry_equiv_pos_as_xyz
  1  'x, y, z'
loop_
 _atom_site_type_symbol
 _atom_site_label
 _atom_site_symmetry_multiplicity
 _atom_site_fract_x
 _atom_site_fract_y
 _atom_site_fract_z
 _atom_site_occupancy
  Nd  Nd0  1  0.579768  0.924800  0.621933  1
  Nd  Nd1  1  0.026868  0.687160  0.128354  1
  Sm  Sm2  1  0.420426  0.074911  0.378249  1
  Sm  Sm3  1  0.972872  0.313002  0.871652  1
  Au  Au4  1  0.293891  0.632839  0.764447  1
  Au  Au5  1  0.499879  0.499576  0.499829  1
  Au  Au6  1  0.705505  0.366554  0.235920  1
  Au  Au7  1  0.999987  0.000366  0.999765  1
  Cl  Cl8  1  0.777956  0.097951  0.969540  1
  Cl  Cl9  1  0.721597  0.152786  0.262212  1
  Cl  Cl10  1  0.276450  0.846762  0.738514  1
  Cl  Cl11  1  0.769126  0.795217  0.028100  1
  Cl  Cl12  1  0.616783  0.193630  0.745771  1
  Cl  Cl13  1  0.308293  0.415220  0.786166  1
  Cl  Cl14  1  0.689097  0.583923  0.214343  1
  Cl  Cl15  1  0.299862  0.623574  0.498561  1
  Cl  Cl16  1  0.229384  0.205728  0.971402  1
  Cl  Cl17  1  0.758369  0.727424  0.523461  1
  Cl  Cl18  1  0.223775  0.903957  0.029563  1
  Cl  Cl19  1  0.726984  0.050279  0.481836  1
  Cl  Cl20  1  0.608563  0.727669  0.747237  1
  Cl  Cl21  1  0.954128  0.060609  0.732050  1
  Cl  Cl22  1  0.242770  0.271469  0.475921  1
  Cl  Cl23  1  0.387482  0.810443  0.256848  1
  Cl  Cl24  1  0.977807  0.539245  0.778968  1
  Cl  Cl25  1  0.760959  0.434389  0.976688  1
  Cl  Cl26  1  0.238221  0.561491  0.020693  1
  Cl  Cl27  1  0.022201  0.458806  0.221777  1
  Cl  Cl28  1  0.391514  0.270907  0.253593  1
  Cl  Cl29  1  0.271547  0.951530  0.515404  1
  Cl  Cl30  1  0.697513  0.373724  0.500362  1
  Cl  Cl31  1  0.050424  0.944061  0.270844  1
