# generated using pymatgen
data_Fe8Mo12As4CN3
_symmetry_space_group_name_H-M   'P 1'
_cell_length_a   7.91743179
_cell_length_b   7.92237713
_cell_length_c   7.91743100
_cell_angle_alpha   60.02064615
_cell_angle_beta   59.99999911
_cell_angle_gamma   60.02065126
_symmetry_Int_Tables_number   1
_chemical_formula_structural   Fe8Mo12As4CN3
_chemical_formula_sum   'Fe8 Mo12 As4 C1 N3'
_cell_volume   351.27286615
_cell_formula_units_Z   1
loop_
 _symmetry_equiv_pos_site_id
 _symmetry_equiv_pos_as_xyz
  1  'x, y, z'
loop_
 _atom_site_type_symbol
 _atom_site_label
 _atom_site_symmetry_multiplicity
 _atom_site_fract_x
 _atom_site_fract_y
 _atom_site_fract_z
 _atom_site_occupancy
  Fe  Fe0  1  0.917513  0.917238  0.247735  1
  Fe  Fe1  1  0.247735  0.917238  0.917513  1
  Fe  Fe2  1  0.917515  0.247453  0.917515  1
  Fe  Fe3  1  0.332485  0.002547  0.332485  1
  Fe  Fe4  1  0.332487  0.332762  0.002265  1
  Fe  Fe5  1  0.332487  0.332762  0.332487  1
  Fe  Fe6  1  0.917513  0.917238  0.917513  1
  Fe  Fe7  1  0.002265  0.332762  0.332487  1
  Mo  Mo8  1  0.558587  0.941446  0.941380  1
  Mo  Mo9  1  0.308967  0.690792  0.308967  1
  Mo  Mo10  1  0.941380  0.941446  0.558587  1
  Mo  Mo11  1  0.941033  0.559208  0.558726  1
  Mo  Mo12  1  0.691413  0.308554  0.691413  1
  Mo  Mo13  1  0.308620  0.308554  0.691413  1
  Mo  Mo14  1  0.691413  0.308554  0.308620  1
  Mo  Mo15  1  0.558587  0.941446  0.558587  1
  Mo  Mo16  1  0.308967  0.690792  0.691274  1
  Mo  Mo17  1  0.941033  0.559208  0.941033  1
  Mo  Mo18  1  0.558726  0.559208  0.941033  1
  Mo  Mo19  1  0.691274  0.690792  0.308967  1
  As  As20  1  0.625000  0.125000  0.125000  1
  As  As21  1  0.125000  0.125000  0.625000  1
  As  As22  1  0.125000  0.625000  0.125000  1
  As  As23  1  0.125000  0.125000  0.125000  1
  C  C24  1  0.625000  0.125000  0.625000  1
  N  N25  1  0.625000  0.625000  0.625000  1
  N  N26  1  0.125000  0.625000  0.625000  1
  N  N27  1  0.625000  0.625000  0.125000  1
