# generated using pymatgen
data_Dy15Ho(AlRh)4
_symmetry_space_group_name_H-M   'P 1'
_cell_length_a   9.53696478
_cell_length_b   9.53900048
_cell_length_c   9.53900210
_cell_angle_alpha   59.99708555
_cell_angle_beta   60.00706040
_cell_angle_gamma   60.00705911
_symmetry_Int_Tables_number   1
_chemical_formula_structural   Dy15Ho(AlRh)4
_chemical_formula_sum   'Dy15 Ho1 Al4 Rh4'
_cell_volume   613.67405376
_cell_formula_units_Z   1
loop_
 _symmetry_equiv_pos_site_id
 _symmetry_equiv_pos_as_xyz
  1  'x, y, z'
loop_
 _atom_site_type_symbol
 _atom_site_label
 _atom_site_symmetry_multiplicity
 _atom_site_fract_x
 _atom_site_fract_y
 _atom_site_fract_z
 _atom_site_occupancy
  Dy  Dy0  1  0.691687  0.692496  0.308111  1
  Dy  Dy1  1  0.307706  0.692496  0.308111  1
  Dy  Dy2  1  0.937105  0.936701  0.562819  1
  Dy  Dy3  1  0.147476  0.145833  0.559215  1
  Dy  Dy4  1  0.563375  0.936701  0.562819  1
  Dy  Dy5  1  0.148580  0.147217  0.147217  1
  Dy  Dy6  1  0.307706  0.308111  0.692496  1
  Dy  Dy7  1  0.936945  0.563055  0.563055  1
  Dy  Dy8  1  0.563375  0.562819  0.936701  1
  Dy  Dy9  1  0.563241  0.936759  0.936759  1
  Dy  Dy10  1  0.937105  0.562819  0.936701  1
  Dy  Dy11  1  0.147476  0.559215  0.145833  1
  Dy  Dy12  1  0.307990  0.692010  0.692010  1
  Dy  Dy13  1  0.691687  0.308111  0.692496  1
  Dy  Dy14  1  0.556985  0.147217  0.147217  1
  Ho  Ho15  1  0.692338  0.307662  0.307662  1
  Al  Al16  1  0.922503  0.922941  0.232051  1
  Al  Al17  1  0.232317  0.922675  0.922675  1
  Al  Al18  1  0.922503  0.232051  0.922941  1
  Al  Al19  1  0.922332  0.922675  0.922675  1
  Rh  Rh20  1  0.357241  0.357247  0.357247  1
  Rh  Rh21  1  0.928265  0.357247  0.357247  1
  Rh  Rh22  1  0.357030  0.357521  0.928420  1
  Rh  Rh23  1  0.357030  0.928420  0.357521  1
