# generated using pymatgen
data_Na20Si4As7P5
_symmetry_space_group_name_H-M   'P 1'
_cell_length_a   7.47145937
_cell_length_b   8.15480536
_cell_length_c   15.59471316
_cell_angle_alpha   59.36935956
_cell_angle_beta   89.96079298
_cell_angle_gamma   90.08110370
_symmetry_Int_Tables_number   1
_chemical_formula_structural   Na20Si4As7P5
_chemical_formula_sum   'Na20 Si4 As7 P5'
_cell_volume   817.58137175
_cell_formula_units_Z   1
loop_
 _symmetry_equiv_pos_site_id
 _symmetry_equiv_pos_as_xyz
  1  'x, y, z'
loop_
 _atom_site_type_symbol
 _atom_site_label
 _atom_site_symmetry_multiplicity
 _atom_site_fract_x
 _atom_site_fract_y
 _atom_site_fract_z
 _atom_site_occupancy
  Na  Na0  1  0.507428  0.556532  0.256299  1
  Na  Na1  1  0.007609  0.443745  0.243342  1
  Na  Na2  1  0.492494  0.443405  0.743820  1
  Na  Na3  1  0.990090  0.558215  0.756945  1
  Na  Na4  1  0.981839  0.913205  0.412974  1
  Na  Na5  1  0.482056  0.087877  0.086468  1
  Na  Na6  1  0.018153  0.086745  0.587124  1
  Na  Na7  1  0.518918  0.912458  0.912672  1
  Na  Na8  1  0.529880  0.257375  0.581572  1
  Na  Na9  1  0.028137  0.743110  0.917343  1
  Na  Na10  1  0.469919  0.743300  0.418157  1
  Na  Na11  1  0.969762  0.257225  0.081615  1
  Na  Na12  1  0.155090  0.834063  0.242775  1
  Na  Na13  1  0.654993  0.166260  0.256925  1
  Na  Na14  1  0.843752  0.162082  0.757504  1
  Na  Na15  1  0.348538  0.833586  0.743267  1
  Na  Na16  1  0.335809  0.161484  0.418591  1
  Na  Na17  1  0.835737  0.838721  0.081240  1
  Na  Na18  1  0.664820  0.837938  0.583442  1
  Na  Na19  1  0.164128  0.161753  0.918581  1
  Si  Si20  1  0.635088  0.518699  0.916681  1
  Si  Si21  1  0.132825  0.488075  0.580057  1
  Si  Si22  1  0.367739  0.488805  0.079425  1
  Si  Si23  1  0.867240  0.511792  0.420078  1
  As  As24  1  0.740056  0.237372  0.421434  1
  As  As25  1  0.240129  0.761932  0.078985  1
  As  As26  1  0.259560  0.762012  0.579367  1
  As  As27  1  0.759767  0.239765  0.920341  1
  As  As28  1  0.767984  0.802163  0.277850  1
  As  As29  1  0.268117  0.197728  0.222350  1
  As  As30  1  0.231861  0.196714  0.722283  1
  P  P31  1  0.728750  0.794030  0.781719  1
  P  P32  1  0.323478  0.481894  0.934784  1
  P  P33  1  0.822512  0.519028  0.564909  1
  P  P34  1  0.678116  0.520461  0.063605  1
  P  P35  1  0.177629  0.480450  0.435477  1
