# generated using pymatgen
data_Tc4(AsP)3
_symmetry_space_group_name_H-M   'P 1'
_cell_length_a   6.35829613
_cell_length_b   6.56001892
_cell_length_c   7.99148671
_cell_angle_alpha   95.52669245
_cell_angle_beta   101.56108418
_cell_angle_gamma   103.91672303
_symmetry_Int_Tables_number   1
_chemical_formula_structural   Tc4(AsP)3
_chemical_formula_sum   'Tc8 As6 P6'
_cell_volume   313.29918603
_cell_formula_units_Z   2
loop_
 _symmetry_equiv_pos_site_id
 _symmetry_equiv_pos_as_xyz
  1  'x, y, z'
loop_
 _atom_site_type_symbol
 _atom_site_label
 _atom_site_symmetry_multiplicity
 _atom_site_fract_x
 _atom_site_fract_y
 _atom_site_fract_z
 _atom_site_occupancy
  Tc  Tc0  1  0.889000  0.421050  0.157752  1
  Tc  Tc1  1  0.111000  0.578950  0.842248  1
  Tc  Tc2  1  0.401178  0.429291  0.152363  1
  Tc  Tc3  1  0.598822  0.570709  0.847637  1
  Tc  Tc4  1  0.581085  0.865713  0.370236  1
  Tc  Tc5  1  0.418915  0.134287  0.629764  1
  Tc  Tc6  1  0.035848  0.858578  0.370320  1
  Tc  Tc7  1  0.964152  0.141422  0.629680  1
  As  As8  1  0.360843  0.137335  0.317931  1
  As  As9  1  0.639157  0.862665  0.682069  1
  As  As10  1  0.536973  0.192609  0.956265  1
  As  As11  1  0.463027  0.807391  0.043735  1
  As  As12  1  0.038790  0.196086  0.959115  1
  As  As13  1  0.961210  0.803914  0.040885  1
  P  P14  1  0.733574  0.563751  0.380885  1
  P  P15  1  0.266426  0.436249  0.619115  1
  P  P16  1  0.238682  0.579456  0.368320  1
  P  P17  1  0.761318  0.420544  0.631680  1
  P  P18  1  0.872192  0.148781  0.327464  1
  P  P19  1  0.127808  0.851219  0.672536  1
