# generated using pymatgen
data_Ho8Zr12Si15Ge
_symmetry_space_group_name_H-M   'P 1'
_cell_length_a   7.13953354
_cell_length_b   7.30122725
_cell_length_c   13.95203921
_cell_angle_alpha   90.03179675
_cell_angle_beta   89.82247108
_cell_angle_gamma   90.01431107
_symmetry_Int_Tables_number   1
_chemical_formula_structural   Ho8Zr12Si15Ge
_chemical_formula_sum   'Ho8 Zr12 Si15 Ge1'
_cell_volume   727.27930087
_cell_formula_units_Z   1
loop_
 _symmetry_equiv_pos_site_id
 _symmetry_equiv_pos_as_xyz
  1  'x, y, z'
loop_
 _atom_site_type_symbol
 _atom_site_label
 _atom_site_symmetry_multiplicity
 _atom_site_fract_x
 _atom_site_fract_y
 _atom_site_fract_z
 _atom_site_occupancy
  Ho  Ho0  1  0.014219  0.176882  0.096717  1
  Ho  Ho1  1  0.985745  0.823594  0.903345  1
  Ho  Ho2  1  0.486068  0.676424  0.903407  1
  Ho  Ho3  1  0.986212  0.824362  0.597140  1
  Ho  Ho4  1  0.513841  0.323351  0.096884  1
  Ho  Ho5  1  0.012186  0.175442  0.402694  1
  Ho  Ho6  1  0.513294  0.323113  0.402706  1
  Ho  Ho7  1  0.489704  0.678084  0.597518  1
  Zr  Zr8  1  0.157107  0.498562  0.751661  1
  Zr  Zr9  1  0.842660  0.501450  0.249990  1
  Zr  Zr10  1  0.342781  0.999274  0.249832  1
  Zr  Zr11  1  0.657191  0.000906  0.750335  1
  Zr  Zr12  1  0.332477  0.174116  0.626279  1
  Zr  Zr13  1  0.669756  0.822978  0.374584  1
  Zr  Zr14  1  0.168482  0.679324  0.373997  1
  Zr  Zr15  1  0.670126  0.822663  0.124724  1
  Zr  Zr16  1  0.827978  0.322311  0.625029  1
  Zr  Zr17  1  0.329254  0.177230  0.875199  1
  Zr  Zr18  1  0.829230  0.322467  0.875235  1
  Zr  Zr19  1  0.170477  0.677367  0.124909  1
  Si  Si20  1  0.032962  0.116437  0.749942  1
  Si  Si21  1  0.966315  0.884537  0.249284  1
  Si  Si22  1  0.466165  0.616500  0.249788  1
  Si  Si23  1  0.533255  0.383699  0.750308  1
  Si  Si24  1  0.283248  0.871247  0.750443  1
  Si  Si25  1  0.716253  0.127985  0.249634  1
  Si  Si26  1  0.216097  0.372499  0.249960  1
  Si  Si27  1  0.784540  0.627511  0.750038  1
  Si  Si28  1  0.839235  0.532766  0.459150  1
  Si  Si29  1  0.343647  0.967570  0.459940  1
  Si  Si30  1  0.844665  0.531655  0.040292  1
  Si  Si31  1  0.656627  0.032549  0.539626  1
  Si  Si32  1  0.155077  0.468448  0.959809  1
  Si  Si33  1  0.654562  0.031673  0.959639  1
  Si  Si34  1  0.344942  0.968139  0.040271  1
  Ge  Ge35  1  0.163621  0.466886  0.539694  1
