# generated using pymatgen
data_Er12(FeC3)5
_symmetry_space_group_name_H-M   'P 1'
_cell_length_a   10.34689300
_cell_length_b   10.34671918
_cell_length_c   4.99007800
_cell_angle_alpha   90.00000000
_cell_angle_beta   90.00000000
_cell_angle_gamma   119.99944247
_symmetry_Int_Tables_number   1
_chemical_formula_structural   Er12(FeC3)5
_chemical_formula_sum   'Er12 Fe5 C15'
_cell_volume   462.65048937
_cell_formula_units_Z   1
loop_
 _symmetry_equiv_pos_site_id
 _symmetry_equiv_pos_as_xyz
  1  'x, y, z'
loop_
 _atom_site_type_symbol
 _atom_site_label
 _atom_site_symmetry_multiplicity
 _atom_site_fract_x
 _atom_site_fract_y
 _atom_site_fract_z
 _atom_site_occupancy
  Er  Er0  1  0.546150  0.730044  0.000000  1
  Er  Er1  1  0.269912  0.816103  0.000000  1
  Er  Er2  1  0.183907  0.453866  0.000000  1
  Er  Er3  1  0.453850  0.183893  0.000000  1
  Er  Er4  1  0.730088  0.546191  0.000000  1
  Er  Er5  1  0.816093  0.269960  0.000000  1
  Er  Er6  1  0.000000  0.565257  0.500000  1
  Er  Er7  1  0.434787  0.434744  0.500000  1
  Er  Er8  1  0.565213  0.999957  0.500000  1
  Er  Er9  1  0.000000  0.207735  0.500000  1
  Er  Er10  1  0.792312  0.792284  0.500000  1
  Er  Er11  1  0.207688  0.999972  0.500000  1
  Fe  Fe12  1  0.000000  0.845144  0.000000  1
  Fe  Fe13  1  0.154865  0.154881  0.000000  1
  Fe  Fe14  1  0.845135  0.000016  0.000000  1
  Fe  Fe15  1  0.333324  0.666652  0.500000  1
  Fe  Fe16  1  0.666676  0.333327  0.500000  1
  C  C17  1  0.526299  0.718052  0.500000  1
  C  C18  1  0.281945  0.808248  0.500000  1
  C  C19  1  0.191745  0.473695  0.500000  1
  C  C20  1  0.473701  0.191755  0.500000  1
  C  C21  1  0.718055  0.526304  0.500000  1
  C  C22  1  0.808255  0.281951  0.500000  1
  C  C23  1  0.000000  0.674531  0.000000  1
  C  C24  1  0.325456  0.325457  0.000000  1
  C  C25  1  0.674544  0.000000  0.000000  1
  C  C26  1  0.000000  0.544684  0.000000  1
  C  C27  1  0.455306  0.455284  0.000000  1
  C  C28  1  0.544694  0.999979  0.000000  1
  C  C29  1  0.000000  0.200782  0.000000  1
  C  C30  1  0.799214  0.799233  0.000000  1
  C  C31  1  0.200786  0.000019  0.000000  1
