# generated using pymatgen
data_Pr4YHo3(SiO5)4
_symmetry_space_group_name_H-M   'P 1'
_cell_length_a   8.13714502
_cell_length_b   8.14168330
_cell_length_c   10.81929420
_cell_angle_alpha   61.10590100
_cell_angle_beta   61.07241595
_cell_angle_gamma   50.24970205
_symmetry_Int_Tables_number   1
_chemical_formula_structural   Pr4YHo3(SiO5)4
_chemical_formula_sum   'Pr4 Y1 Ho3 Si4 O20'
_cell_volume   465.94609428
_cell_formula_units_Z   1
loop_
 _symmetry_equiv_pos_site_id
 _symmetry_equiv_pos_as_xyz
  1  'x, y, z'
loop_
 _atom_site_type_symbol
 _atom_site_label
 _atom_site_symmetry_multiplicity
 _atom_site_fract_x
 _atom_site_fract_y
 _atom_site_fract_z
 _atom_site_occupancy
  Pr  Pr0  1  0.783243  0.292008  0.035343  1
  Pr  Pr1  1  0.707889  0.217669  0.464303  1
  Pr  Pr2  1  0.217385  0.708298  0.964642  1
  Pr  Pr3  1  0.291380  0.783012  0.535595  1
  Y  Y4  1  0.479787  0.235197  0.836642  1
  Ho  Ho5  1  0.236399  0.478308  0.336789  1
  Ho  Ho6  1  0.521235  0.762963  0.163817  1
  Ho  Ho7  1  0.763476  0.522325  0.662799  1
  Si  Si8  1  0.727940  0.902875  0.307219  1
  Si  Si9  1  0.097257  0.271582  0.193196  1
  Si  Si10  1  0.271566  0.097351  0.692213  1
  Si  Si11  1  0.902748  0.727851  0.807501  1
  O  O12  1  0.421119  0.612125  0.110318  1
  O  O13  1  0.386963  0.578991  0.390200  1
  O  O14  1  0.579611  0.388747  0.889752  1
  O  O15  1  0.613384  0.422294  0.608642  1
  O  O16  1  0.866845  0.723401  0.433381  1
  O  O17  1  0.276103  0.131862  0.067468  1
  O  O18  1  0.132613  0.276966  0.566177  1
  O  O19  1  0.723701  0.864362  0.934937  1
  O  O20  1  0.566650  0.841276  0.316012  1
  O  O21  1  0.159358  0.432820  0.183800  1
  O  O22  1  0.433499  0.158596  0.682713  1
  O  O23  1  0.842101  0.566270  0.815737  1
  O  O24  1  0.159007  0.586759  0.823146  1
  O  O25  1  0.414462  0.840926  0.676080  1
  O  O26  1  0.840663  0.414512  0.176983  1
  O  O27  1  0.584971  0.159258  0.323567  1
  O  O28  1  0.906647  0.908278  0.647341  1
  O  O29  1  0.092994  0.091905  0.853201  1
  O  O30  1  0.091726  0.092893  0.353949  1
  O  O31  1  0.907275  0.908320  0.146539  1
