# generated using pymatgen
data_TiMn8NbAl2
_symmetry_space_group_name_H-M   'P 1'
_cell_length_a   4.71498900
_cell_length_b   4.71498853
_cell_length_c   7.79189900
_cell_angle_alpha   90.00000000
_cell_angle_beta   90.00000000
_cell_angle_gamma   119.99999627
_symmetry_Int_Tables_number   1
_chemical_formula_structural   TiMn8NbAl2
_chemical_formula_sum   'Ti1 Mn8 Nb1 Al2'
_cell_volume   150.01520751
_cell_formula_units_Z   1
loop_
 _symmetry_equiv_pos_site_id
 _symmetry_equiv_pos_as_xyz
  1  'x, y, z'
loop_
 _atom_site_type_symbol
 _atom_site_label
 _atom_site_symmetry_multiplicity
 _atom_site_fract_x
 _atom_site_fract_y
 _atom_site_fract_z
 _atom_site_occupancy
  Ti  Ti0  1  0.333333  0.666667  0.066574  1
  Mn  Mn1  1  0.651677  0.825839  0.752821  1
  Mn  Mn2  1  0.347274  0.173637  0.249020  1
  Mn  Mn3  1  0.826363  0.173637  0.249020  1
  Mn  Mn4  1  0.174161  0.348323  0.752821  1
  Mn  Mn5  1  0.174161  0.825839  0.752821  1
  Mn  Mn6  1  0.826363  0.652726  0.249020  1
  Mn  Mn7  1  0.000000  0.000000  0.493045  1
  Mn  Mn8  1  0.000000  0.000000  0.993168  1
  Nb  Nb9  1  0.666667  0.333333  0.567757  1
  Al  Al10  1  0.333333  0.666667  0.434041  1
  Al  Al11  1  0.666667  0.333333  0.939892  1
