# generated using pymatgen
data_Ho16MgIn2Rh4Au
_symmetry_space_group_name_H-M   'P 1'
_cell_length_a   9.57849621
_cell_length_b   9.57849612
_cell_length_c   9.57068361
_cell_angle_alpha   60.00471816
_cell_angle_beta   60.00472692
_cell_angle_gamma   59.86763219
_symmetry_Int_Tables_number   1
_chemical_formula_structural   Ho16MgIn2Rh4Au
_chemical_formula_sum   'Ho16 Mg1 In2 Rh4 Au1'
_cell_volume   620.32204681
_cell_formula_units_Z   1
loop_
 _symmetry_equiv_pos_site_id
 _symmetry_equiv_pos_as_xyz
  1  'x, y, z'
loop_
 _atom_site_type_symbol
 _atom_site_label
 _atom_site_symmetry_multiplicity
 _atom_site_fract_x
 _atom_site_fract_y
 _atom_site_fract_z
 _atom_site_occupancy
  Ho  Ho0  1  0.186799  0.186799  0.812269  1
  Ho  Ho1  1  0.601877  0.601877  0.196446  1
  Ho  Ho2  1  0.439091  0.060216  0.439689  1
  Ho  Ho3  1  0.441539  0.441539  0.057353  1
  Ho  Ho4  1  0.813178  0.180440  0.813215  1
  Ho  Ho5  1  0.186850  0.811828  0.186066  1
  Ho  Ho6  1  0.439749  0.058623  0.058316  1
  Ho  Ho7  1  0.180440  0.813178  0.813215  1
  Ho  Ho8  1  0.058623  0.439749  0.058316  1
  Ho  Ho9  1  0.812477  0.812477  0.181057  1
  Ho  Ho10  1  0.199503  0.600689  0.602391  1
  Ho  Ho11  1  0.060216  0.439091  0.439689  1
  Ho  Ho12  1  0.061523  0.061523  0.436385  1
  Ho  Ho13  1  0.811828  0.186850  0.186066  1
  Ho  Ho14  1  0.600689  0.199503  0.602391  1
  Ho  Ho15  1  0.597960  0.597960  0.599803  1
  Mg  Mg16  1  0.828374  0.828374  0.518354  1
  In  In17  1  0.504868  0.832626  0.831270  1
  In  In18  1  0.832626  0.504868  0.831270  1
  Rh  Rh19  1  0.392934  0.823112  0.391666  1
  Rh  Rh20  1  0.393084  0.393084  0.392342  1
  Rh  Rh21  1  0.823112  0.392934  0.391666  1
  Rh  Rh22  1  0.392143  0.392143  0.823699  1
  Au  Au23  1  0.840516  0.840516  0.837067  1
