# generated using pymatgen
data_MgNp2Sc(ReB6)2
_symmetry_space_group_name_H-M   'P 1'
_cell_length_a   3.59977400
_cell_length_b   8.94964021
_cell_length_c   11.30210803
_cell_angle_alpha   89.90310505
_cell_angle_beta   90.00000000
_cell_angle_gamma   90.00000000
_symmetry_Int_Tables_number   1
_chemical_formula_structural   MgNp2Sc(ReB6)2
_chemical_formula_sum   'Mg2 Np4 Sc2 Re4 B24'
_cell_volume   364.11590111
_cell_formula_units_Z   2
loop_
 _symmetry_equiv_pos_site_id
 _symmetry_equiv_pos_as_xyz
  1  'x, y, z'
loop_
 _atom_site_type_symbol
 _atom_site_label
 _atom_site_symmetry_multiplicity
 _atom_site_fract_x
 _atom_site_fract_y
 _atom_site_fract_z
 _atom_site_occupancy
  Mg  Mg0  1  0.000000  0.945278  0.374403  1
  Mg  Mg1  1  0.000000  0.054722  0.625597  1
  Np  Np2  1  0.000000  0.320377  0.414260  1
  Np  Np3  1  0.000000  0.679623  0.585740  1
  Np  Np4  1  0.000000  0.821427  0.085894  1
  Np  Np5  1  0.000000  0.178573  0.914106  1
  Sc  Sc6  1  0.000000  0.444782  0.126197  1
  Sc  Sc7  1  0.000000  0.555218  0.873803  1
  Re  Re8  1  0.000000  0.640732  0.320071  1
  Re  Re9  1  0.000000  0.359268  0.679929  1
  Re  Re10  1  0.000000  0.138766  0.180563  1
  Re  Re11  1  0.000000  0.861234  0.819437  1
  B  B12  1  0.500000  0.553699  0.433736  1
  B  B13  1  0.500000  0.446301  0.566264  1
  B  B14  1  0.500000  0.053104  0.066394  1
  B  B15  1  0.500000  0.946896  0.933606  1
  B  B16  1  0.500000  0.754264  0.419518  1
  B  B17  1  0.500000  0.245736  0.580482  1
  B  B18  1  0.500000  0.253087  0.080003  1
  B  B19  1  0.500000  0.746913  0.919997  1
  B  B20  1  0.500000  0.794230  0.262867  1
  B  B21  1  0.500000  0.205770  0.737133  1
  B  B22  1  0.500000  0.294010  0.235722  1
  B  B23  1  0.500000  0.705990  0.764278  1
  B  B24  1  0.500000  0.629902  0.182115  1
  B  B25  1  0.500000  0.370098  0.817885  1
  B  B26  1  0.500000  0.128651  0.317961  1
  B  B27  1  0.500000  0.871349  0.682039  1
  B  B28  1  0.500000  0.979397  0.212398  1
  B  B29  1  0.500000  0.020603  0.787602  1
  B  B30  1  0.500000  0.480313  0.286409  1
  B  B31  1  0.500000  0.519687  0.713591  1
  B  B32  1  0.500000  0.600165  0.027406  1
  B  B33  1  0.500000  0.399835  0.972594  1
  B  B34  1  0.500000  0.094892  0.473756  1
  B  B35  1  0.500000  0.905108  0.526244  1
