# generated using pymatgen
data_Pr6Th2Ag7As16Au
_symmetry_space_group_name_H-M   'P 1'
_cell_length_a   5.81286534
_cell_length_b   5.83988504
_cell_length_c   21.09081838
_cell_angle_alpha   89.77719155
_cell_angle_beta   89.98870331
_cell_angle_gamma   89.96273371
_symmetry_Int_Tables_number   1
_chemical_formula_structural   Pr6Th2Ag7As16Au
_chemical_formula_sum   'Pr6 Th2 Ag7 As16 Au1'
_cell_volume   715.95315676
_cell_formula_units_Z   1
loop_
 _symmetry_equiv_pos_site_id
 _symmetry_equiv_pos_as_xyz
  1  'x, y, z'
loop_
 _atom_site_type_symbol
 _atom_site_label
 _atom_site_symmetry_multiplicity
 _atom_site_fract_x
 _atom_site_fract_y
 _atom_site_fract_z
 _atom_site_occupancy
  Pr  Pr0  1  0.751877  0.988396  0.882669  1
  Pr  Pr1  1  0.249989  0.013331  0.116753  1
  Pr  Pr2  1  0.751395  0.490196  0.611990  1
  Pr  Pr3  1  0.250078  0.508704  0.388649  1
  Pr  Pr4  1  0.248079  0.486004  0.886768  1
  Pr  Pr5  1  0.750040  0.512483  0.112652  1
  Th  Th6  1  0.248093  0.993214  0.615360  1
  Th  Th7  1  0.749924  0.008641  0.385345  1
  Ag  Ag8  1  0.499730  0.734364  0.749322  1
  Ag  Ag9  1  0.999804  0.265808  0.250811  1
  Ag  Ag10  1  0.500202  0.265775  0.250811  1
  Ag  Ag11  1  0.000149  0.732595  0.749099  1
  Ag  Ag12  1  0.500625  0.236700  0.749161  1
  Ag  Ag13  1  0.999900  0.763945  0.250748  1
  Ag  Ag14  1  0.500111  0.763849  0.250753  1
  As  As15  1  0.749269  0.989953  0.657561  1
  As  As16  1  0.249997  0.010147  0.342278  1
  As  As17  1  0.249978  0.987089  0.837736  1
  As  As18  1  0.750008  0.013261  0.162404  1
  As  As19  1  0.250434  0.491006  0.656633  1
  As  As20  1  0.750009  0.510076  0.343200  1
  As  As21  1  0.750080  0.486831  0.837799  1
  As  As22  1  0.249982  0.513389  0.162271  1
  As  As23  1  0.003283  0.231094  0.500281  1
  As  As24  1  0.503082  0.769631  0.500232  1
  As  As25  1  0.983005  0.224892  0.999192  1
  As  As26  1  0.482477  0.775941  0.000245  1
  As  As27  1  0.996765  0.769255  0.500189  1
  As  As28  1  0.496233  0.230765  0.500426  1
  As  As29  1  0.017088  0.775004  0.000426  1
  As  As30  1  0.517103  0.224355  0.999063  1
  Au  Au31  1  0.001215  0.233307  0.749174  1
