# generated using pymatgen
data_Dy4Ho4Sc12GaSi15
_symmetry_space_group_name_H-M   'P 1'
_cell_length_a   7.09379967
_cell_length_b   7.38601826
_cell_length_c   14.01057299
_cell_angle_alpha   89.95660348
_cell_angle_beta   89.97481594
_cell_angle_gamma   90.01798076
_symmetry_Int_Tables_number   1
_chemical_formula_structural   Dy4Ho4Sc12GaSi15
_chemical_formula_sum   'Dy4 Ho4 Sc12 Ga1 Si15'
_cell_volume   734.08272864
_cell_formula_units_Z   1
loop_
 _symmetry_equiv_pos_site_id
 _symmetry_equiv_pos_as_xyz
  1  'x, y, z'
loop_
 _atom_site_type_symbol
 _atom_site_label
 _atom_site_symmetry_multiplicity
 _atom_site_fract_x
 _atom_site_fract_y
 _atom_site_fract_z
 _atom_site_occupancy
  Dy  Dy0  1  0.011928  0.175508  0.097006  1
  Dy  Dy1  1  0.987983  0.824769  0.903485  1
  Dy  Dy2  1  0.487765  0.676221  0.903454  1
  Dy  Dy3  1  0.987418  0.826531  0.597441  1
  Ho  Ho4  1  0.512136  0.323833  0.096947  1
  Ho  Ho5  1  0.011020  0.174244  0.401594  1
  Ho  Ho6  1  0.512926  0.323338  0.401626  1
  Ho  Ho7  1  0.489911  0.678264  0.597549  1
  Sc  Sc8  1  0.161090  0.502689  0.751388  1
  Sc  Sc9  1  0.838992  0.497366  0.249912  1
  Sc  Sc10  1  0.338962  0.002733  0.249755  1
  Sc  Sc11  1  0.661326  0.996721  0.750094  1
  Sc  Sc12  1  0.332409  0.174263  0.625916  1
  Sc  Sc13  1  0.668525  0.823946  0.374434  1
  Sc  Sc14  1  0.169942  0.677417  0.373579  1
  Sc  Sc15  1  0.669588  0.823573  0.125245  1
  Sc  Sc16  1  0.828603  0.323130  0.625474  1
  Sc  Sc17  1  0.330276  0.176010  0.875025  1
  Sc  Sc18  1  0.830419  0.323029  0.875032  1
  Sc  Sc19  1  0.169262  0.676707  0.125313  1
  Ga  Ga20  1  0.160385  0.462563  0.539201  1
  Si  Si21  1  0.033717  0.117636  0.750687  1
  Si  Si22  1  0.966433  0.883486  0.249734  1
  Si  Si23  1  0.467596  0.615652  0.249956  1
  Si  Si24  1  0.532228  0.384890  0.749725  1
  Si  Si25  1  0.284740  0.872714  0.750281  1
  Si  Si26  1  0.714430  0.127603  0.249620  1
  Si  Si27  1  0.214513  0.372210  0.249540  1
  Si  Si28  1  0.785611  0.627154  0.750684  1
  Si  Si29  1  0.841105  0.535655  0.460332  1
  Si  Si30  1  0.341524  0.964490  0.460207  1
  Si  Si31  1  0.841861  0.535270  0.038774  1
  Si  Si32  1  0.657546  0.035699  0.538992  1
  Si  Si33  1  0.157907  0.464271  0.961658  1
  Si  Si34  1  0.657348  0.035469  0.960748  1
  Si  Si35  1  0.342576  0.964948  0.039588  1
