# generated using pymatgen
data_DyHo3Al4Ru3Pt
_symmetry_space_group_name_H-M   'P 1'
_cell_length_a   4.07841800
_cell_length_b   6.97861087
_cell_length_c   8.08716414
_cell_angle_alpha   90.16810949
_cell_angle_beta   90.00000000
_cell_angle_gamma   90.00000000
_symmetry_Int_Tables_number   1
_chemical_formula_structural   DyHo3Al4Ru3Pt
_chemical_formula_sum   'Dy1 Ho3 Al4 Ru3 Pt1'
_cell_volume   230.17338566
_cell_formula_units_Z   1
loop_
 _symmetry_equiv_pos_site_id
 _symmetry_equiv_pos_as_xyz
  1  'x, y, z'
loop_
 _atom_site_type_symbol
 _atom_site_label
 _atom_site_symmetry_multiplicity
 _atom_site_fract_x
 _atom_site_fract_y
 _atom_site_fract_z
 _atom_site_occupancy
  Dy  Dy0  1  0.250000  0.028180  0.675904  1
  Ho  Ho1  1  0.250000  0.539132  0.818461  1
  Ho  Ho2  1  0.750000  0.966345  0.320625  1
  Ho  Ho3  1  0.750000  0.470082  0.183137  1
  Al  Al4  1  0.250000  0.136861  0.064541  1
  Al  Al5  1  0.250000  0.637699  0.439906  1
  Al  Al6  1  0.750000  0.855619  0.940178  1
  Al  Al7  1  0.750000  0.363223  0.557854  1
  Ru  Ru8  1  0.250000  0.267492  0.377244  1
  Ru  Ru9  1  0.250000  0.769560  0.119986  1
  Ru  Ru10  1  0.750000  0.734020  0.622066  1
  Pt  Pt11  1  0.750000  0.231785  0.880098  1
