# generated using pymatgen
data_Yb3Pr5(DyRu2)2
_symmetry_space_group_name_H-M   'P 1'
_cell_length_a   8.80440726
_cell_length_b   8.72898604
_cell_length_c   7.34759300
_cell_angle_alpha   83.50661480
_cell_angle_beta   83.69135444
_cell_angle_gamma   43.97627466
_symmetry_Int_Tables_number   1
_chemical_formula_structural   Yb3Pr5(DyRu2)2
_chemical_formula_sum   'Yb3 Pr5 Dy2 Ru4'
_cell_volume   389.24946507
_cell_formula_units_Z   1
loop_
 _symmetry_equiv_pos_site_id
 _symmetry_equiv_pos_as_xyz
  1  'x, y, z'
loop_
 _atom_site_type_symbol
 _atom_site_label
 _atom_site_symmetry_multiplicity
 _atom_site_fract_x
 _atom_site_fract_y
 _atom_site_fract_z
 _atom_site_occupancy
  Yb  Yb0  1  0.196837  0.980529  0.584960  1
  Yb  Yb1  1  0.015786  0.799989  0.914570  1
  Yb  Yb2  1  0.207634  0.363455  0.311114  1
  Pr  Pr3  1  0.637852  0.791944  0.187485  1
  Pr  Pr4  1  0.800890  0.629068  0.684373  1
  Pr  Pr5  1  0.363896  0.208480  0.811167  1
  Pr  Pr6  1  0.977951  0.202764  0.082074  1
  Pr  Pr7  1  0.797266  0.023029  0.418014  1
  Dy  Dy8  1  0.560272  0.439113  0.753501  1
  Dy  Dy9  1  0.423253  0.572526  0.251231  1
  Ru  Ru10  1  0.187265  0.596620  0.572099  1
  Ru  Ru11  1  0.412164  0.818097  0.931009  1
  Ru  Ru12  1  0.809419  0.394910  0.428023  1
  Ru  Ru13  1  0.609515  0.179476  0.070382  1
