# generated using pymatgen
data_CsBa2SnHg10
_symmetry_space_group_name_H-M   'P 1'
_cell_length_a   9.82620175
_cell_length_b   9.82620160
_cell_length_c   9.82620102
_cell_angle_alpha   147.83024489
_cell_angle_beta   117.44063728
_cell_angle_gamma   72.10318350
_symmetry_Int_Tables_number   1
_chemical_formula_structural   CsBa2SnHg10
_chemical_formula_sum   'Cs1 Ba2 Sn1 Hg10'
_cell_volume   441.38121766
_cell_formula_units_Z   1
loop_
 _symmetry_equiv_pos_site_id
 _symmetry_equiv_pos_as_xyz
  1  'x, y, z'
loop_
 _atom_site_type_symbol
 _atom_site_label
 _atom_site_symmetry_multiplicity
 _atom_site_fract_x
 _atom_site_fract_y
 _atom_site_fract_z
 _atom_site_occupancy
  Cs  Cs0  1  0.000000  0.000000  0.000000  1
  Ba  Ba1  1  0.698638  0.698638  0.000000  1
  Ba  Ba2  1  0.301362  0.301362  0.000000  1
  Sn  Sn3  1  0.500000  0.000000  0.500000  1
  Hg  Hg4  1  0.153101  0.858399  0.294702  1
  Hg  Hg5  1  0.846899  0.141601  0.705298  1
  Hg  Hg6  1  0.436303  0.141601  0.294702  1
  Hg  Hg7  1  0.563697  0.858399  0.705298  1
  Hg  Hg8  1  0.015958  0.665068  0.350888  1
  Hg  Hg9  1  0.984042  0.334932  0.649112  1
  Hg  Hg10  1  0.685820  0.334932  0.350888  1
  Hg  Hg11  1  0.314180  0.665068  0.649112  1
  Hg  Hg12  1  0.675560  0.500000  0.175560  1
  Hg  Hg13  1  0.324440  0.500000  0.824440  1
