# generated using pymatgen
data_Tb13Ho4Er3Sn16
_symmetry_space_group_name_H-M   'P 1'
_cell_length_a   8.04034067
_cell_length_b   8.18842841
_cell_length_c   15.48685134
_cell_angle_alpha   89.96710473
_cell_angle_beta   90.04039360
_cell_angle_gamma   90.01842694
_symmetry_Int_Tables_number   1
_chemical_formula_structural   Tb13Ho4Er3Sn16
_chemical_formula_sum   'Tb13 Ho4 Er3 Sn16'
_cell_volume   1019.61903480
_cell_formula_units_Z   1
loop_
 _symmetry_equiv_pos_site_id
 _symmetry_equiv_pos_as_xyz
  1  'x, y, z'
loop_
 _atom_site_type_symbol
 _atom_site_label
 _atom_site_symmetry_multiplicity
 _atom_site_fract_x
 _atom_site_fract_y
 _atom_site_fract_z
 _atom_site_occupancy
  Tb  Tb0  1  0.134109  0.337109  0.121842  1
  Tb  Tb1  1  0.633442  0.163154  0.122498  1
  Tb  Tb2  1  0.133494  0.336909  0.377985  1
  Tb  Tb3  1  0.366675  0.837103  0.622361  1
  Tb  Tb4  1  0.866831  0.662661  0.877857  1
  Tb  Tb5  1  0.519403  0.320550  0.902794  1
  Tb  Tb6  1  0.019477  0.179374  0.597180  1
  Tb  Tb7  1  0.480852  0.679626  0.403250  1
  Tb  Tb8  1  0.980079  0.820668  0.097167  1
  Tb  Tb9  1  0.480979  0.679614  0.096805  1
  Tb  Tb10  1  0.981484  0.820642  0.403522  1
  Tb  Tb11  1  0.518707  0.321075  0.596836  1
  Tb  Tb12  1  0.019043  0.178485  0.902337  1
  Ho  Ho13  1  0.365777  0.837767  0.876415  1
  Ho  Ho14  1  0.865029  0.662491  0.622840  1
  Ho  Ho15  1  0.634573  0.162514  0.377607  1
  Ho  Ho16  1  0.197594  0.503222  0.750239  1
  Er  Er17  1  0.697766  0.996858  0.749450  1
  Er  Er18  1  0.802190  0.496994  0.250816  1
  Er  Er19  1  0.302717  0.003021  0.249801  1
  Sn  Sn20  1  0.294262  0.035928  0.040952  1
  Sn  Sn21  1  0.793055  0.462012  0.459069  1
  Sn  Sn22  1  0.707194  0.962004  0.541508  1
  Sn  Sn23  1  0.207600  0.538582  0.957662  1
  Sn  Sn24  1  0.703056  0.962452  0.957529  1
  Sn  Sn25  1  0.203103  0.537935  0.542626  1
  Sn  Sn26  1  0.296620  0.037673  0.457750  1
  Sn  Sn27  1  0.794171  0.463168  0.042448  1
  Sn  Sn28  1  0.563625  0.618436  0.749872  1
  Sn  Sn29  1  0.063192  0.881386  0.749810  1
  Sn  Sn30  1  0.437010  0.381565  0.250459  1
  Sn  Sn31  1  0.936466  0.117763  0.250457  1
  Sn  Sn32  1  0.328822  0.148685  0.749928  1
  Sn  Sn33  1  0.828745  0.351882  0.749683  1
  Sn  Sn34  1  0.671347  0.851927  0.250463  1
  Sn  Sn35  1  0.171511  0.648768  0.250179  1
