# generated using pymatgen
data_Cs4NaInTe4
_symmetry_space_group_name_H-M   'P 1'
_cell_length_a   9.58203798
_cell_length_b   9.58203755
_cell_length_c   9.58203800
_cell_angle_alpha   132.70148554
_cell_angle_beta   129.60975644
_cell_angle_gamma   71.59487475
_symmetry_Int_Tables_number   1
_chemical_formula_structural   Cs4NaInTe4
_chemical_formula_sum   'Cs4 Na1 In1 Te4'
_cell_volume   487.41736715
_cell_formula_units_Z   1
loop_
 _symmetry_equiv_pos_site_id
 _symmetry_equiv_pos_as_xyz
  1  'x, y, z'
loop_
 _atom_site_type_symbol
 _atom_site_label
 _atom_site_symmetry_multiplicity
 _atom_site_fract_x
 _atom_site_fract_y
 _atom_site_fract_z
 _atom_site_occupancy
  Cs  Cs0  1  0.971993  0.634370  0.318070  1
  Cs  Cs1  1  0.683701  0.865630  0.837623  1
  Cs  Cs2  1  0.316299  0.153923  0.181930  1
  Cs  Cs3  1  0.028007  0.346077  0.662377  1
  Na  Na4  1  0.500000  0.250000  0.750000  1
  In  In5  1  0.500000  0.750000  0.250000  1
  Te  Te6  1  0.589690  0.421339  0.221652  1
  Te  Te7  1  0.199687  0.868038  0.278348  1
  Te  Te8  1  0.800313  0.078661  0.668352  1
  Te  Te9  1  0.410310  0.631962  0.831648  1
