# generated using pymatgen
data_Lu4HgPt11
_symmetry_space_group_name_H-M   'P 1'
_cell_length_a   4.12862500
_cell_length_b   5.79237455
_cell_length_c   11.60611652
_cell_angle_alpha   88.81626263
_cell_angle_beta   90.00000000
_cell_angle_gamma   90.00000000
_symmetry_Int_Tables_number   1
_chemical_formula_structural   Lu4HgPt11
_chemical_formula_sum   'Lu4 Hg1 Pt11'
_cell_volume   277.49573186
_cell_formula_units_Z   1
loop_
 _symmetry_equiv_pos_site_id
 _symmetry_equiv_pos_as_xyz
  1  'x, y, z'
loop_
 _atom_site_type_symbol
 _atom_site_label
 _atom_site_symmetry_multiplicity
 _atom_site_fract_x
 _atom_site_fract_y
 _atom_site_fract_z
 _atom_site_occupancy
  Lu  Lu0  1  0.500000  0.754442  0.375847  1
  Lu  Lu1  1  0.500000  0.729062  0.866023  1
  Lu  Lu2  1  0.500000  0.270938  0.133977  1
  Lu  Lu3  1  0.500000  0.245558  0.624153  1
  Hg  Hg4  1  0.000000  0.000000  0.000000  1
  Pt  Pt5  1  0.000000  0.009801  0.252307  1
  Pt  Pt6  1  0.000000  0.990199  0.747693  1
  Pt  Pt7  1  0.000000  0.500000  0.000000  1
  Pt  Pt8  1  0.000000  0.500000  0.500000  1
  Pt  Pt9  1  0.000000  0.511545  0.250634  1
  Pt  Pt10  1  0.000000  0.488455  0.749366  1
  Pt  Pt11  1  0.500000  0.254569  0.377216  1
  Pt  Pt12  1  0.500000  0.241010  0.874305  1
  Pt  Pt13  1  0.500000  0.758990  0.125695  1
  Pt  Pt14  1  0.500000  0.745431  0.622784  1
  Pt  Pt15  1  0.000000  0.000000  0.500000  1
