# generated using pymatgen
data_Pr9NdB2Br15
_symmetry_space_group_name_H-M   'P 1'
_cell_length_a   9.45800380
_cell_length_b   10.31684406
_cell_length_c   11.14040618
_cell_angle_alpha   91.13222703
_cell_angle_beta   114.45163803
_cell_angle_gamma   110.86802145
_symmetry_Int_Tables_number   1
_chemical_formula_structural   Pr9NdB2Br15
_chemical_formula_sum   'Pr9 Nd1 B2 Br15'
_cell_volume   906.59676426
_cell_formula_units_Z   1
loop_
 _symmetry_equiv_pos_site_id
 _symmetry_equiv_pos_as_xyz
  1  'x, y, z'
loop_
 _atom_site_type_symbol
 _atom_site_label
 _atom_site_symmetry_multiplicity
 _atom_site_fract_x
 _atom_site_fract_y
 _atom_site_fract_z
 _atom_site_occupancy
  Pr  Pr0  1  0.803301  0.411279  0.277034  1
  Pr  Pr1  1  0.196571  0.589274  0.723130  1
  Pr  Pr2  1  0.675882  0.745417  0.819476  1
  Pr  Pr3  1  0.323794  0.253575  0.180049  1
  Pr  Pr4  1  0.525669  0.704709  0.096288  1
  Pr  Pr5  1  0.473776  0.294988  0.903479  1
  Pr  Pr6  1  0.587101  0.038803  0.325812  1
  Pr  Pr7  1  0.411395  0.960616  0.673739  1
  Pr  Pr8  1  0.727378  0.075723  0.048346  1
  Nd  Nd9  1  0.277176  0.925770  0.952588  1
  B  B10  1  0.466440  0.817740  0.874804  1
  B  B11  1  0.534121  0.182128  0.125083  1
  Br  Br12  1  0.001676  0.998816  0.999468  1
  Br  Br13  1  0.635623  0.882153  0.583675  1
  Br  Br14  1  0.362537  0.116862  0.415580  1
  Br  Br15  1  0.882784  0.298607  0.527023  1
  Br  Br16  1  0.116128  0.700884  0.472660  1
  Br  Br17  1  0.288044  0.763966  0.177414  1
  Br  Br18  1  0.709453  0.236689  0.819143  1
  Br  Br19  1  0.056631  0.343867  0.226485  1
  Br  Br20  1  0.162167  0.055479  0.706189  1
  Br  Br21  1  0.836815  0.942702  0.296070  1
  Br  Br22  1  0.232104  0.410733  0.944562  1
  Br  Br23  1  0.766601  0.588671  0.054990  1
  Br  Br24  1  0.407579  0.463784  0.661073  1
  Br  Br25  1  0.590603  0.535468  0.338691  1
  Br  Br26  1  0.948652  0.661295  0.777149  1
