# generated using pymatgen
data_LiY6CuI12
_symmetry_space_group_name_H-M   'P 1'
_cell_length_a   9.85567613
_cell_length_b   9.85567732
_cell_length_c   9.85567800
_cell_angle_alpha   107.56016547
_cell_angle_beta   107.56016765
_cell_angle_gamma   107.56017704
_symmetry_Int_Tables_number   1
_chemical_formula_structural   LiY6CuI12
_chemical_formula_sum   'Li1 Y6 Cu1 I12'
_cell_volume   784.76782306
_cell_formula_units_Z   1
loop_
 _symmetry_equiv_pos_site_id
 _symmetry_equiv_pos_as_xyz
  1  'x, y, z'
loop_
 _atom_site_type_symbol
 _atom_site_label
 _atom_site_symmetry_multiplicity
 _atom_site_fract_x
 _atom_site_fract_y
 _atom_site_fract_z
 _atom_site_occupancy
  Li  Li0  1  0.500000  0.500000  0.500000  1
  Y  Y1  1  0.306425  0.104913  0.032586  1
  Y  Y2  1  0.104913  0.032586  0.306425  1
  Y  Y3  1  0.032586  0.306425  0.104913  1
  Y  Y4  1  0.693575  0.895087  0.967414  1
  Y  Y5  1  0.895087  0.967414  0.693575  1
  Y  Y6  1  0.967414  0.693575  0.895087  1
  Cu  Cu7  1  0.000000  0.000000  0.000000  1
  I  I8  1  0.220205  0.070915  0.681245  1
  I  I9  1  0.070915  0.681245  0.220205  1
  I  I10  1  0.681245  0.220205  0.070915  1
  I  I11  1  0.779795  0.929085  0.318755  1
  I  I12  1  0.929085  0.318755  0.779795  1
  I  I13  1  0.318755  0.779795  0.929085  1
  I  I14  1  0.381866  0.458749  0.162392  1
  I  I15  1  0.458749  0.162392  0.381866  1
  I  I16  1  0.162392  0.381866  0.458749  1
  I  I17  1  0.618134  0.541251  0.837608  1
  I  I18  1  0.541251  0.837608  0.618134  1
  I  I19  1  0.837608  0.618134  0.541251  1
