# generated using pymatgen
data_DyHo5NiI10
_symmetry_space_group_name_H-M   'P 1'
_cell_length_a   7.68190574
_cell_length_b   9.65014531
_cell_length_c   9.67635025
_cell_angle_alpha   107.05834838
_cell_angle_beta   96.92878730
_cell_angle_gamma   104.53144673
_symmetry_Int_Tables_number   1
_chemical_formula_structural   DyHo5NiI10
_chemical_formula_sum   'Dy1 Ho5 Ni1 I10'
_cell_volume   649.04027234
_cell_formula_units_Z   1
loop_
 _symmetry_equiv_pos_site_id
 _symmetry_equiv_pos_as_xyz
  1  'x, y, z'
loop_
 _atom_site_type_symbol
 _atom_site_label
 _atom_site_symmetry_multiplicity
 _atom_site_fract_x
 _atom_site_fract_y
 _atom_site_fract_z
 _atom_site_occupancy
  Dy  Dy0  1  0.112481  0.040382  0.764532  1
  Ho  Ho1  1  0.338209  0.119818  0.160909  1
  Ho  Ho2  1  0.661552  0.879977  0.839390  1
  Ho  Ho3  1  0.968848  0.277964  0.082952  1
  Ho  Ho4  1  0.031017  0.721315  0.916917  1
  Ho  Ho5  1  0.888411  0.959852  0.234802  1
  Ni  Ni6  1  0.999956  0.999746  0.000121  1
  I  I7  1  0.350498  0.450154  0.272267  1
  I  I8  1  0.648880  0.549827  0.727986  1
  I  I9  1  0.773830  0.255986  0.343994  1
  I  I10  1  0.226281  0.744163  0.655706  1
  I  I11  1  0.545724  0.185181  0.907096  1
  I  I12  1  0.454510  0.815104  0.093286  1
  I  I13  1  0.742145  0.912795  0.537285  1
  I  I14  1  0.257669  0.087703  0.462764  1
  I  I15  1  0.914646  0.627282  0.180401  1
  I  I16  1  0.085343  0.372752  0.819590  1
