# generated using pymatgen
data_Pr2Zn9Au8
_symmetry_space_group_name_H-M   'P 1'
_cell_length_a   7.11360348
_cell_length_b   7.11360448
_cell_length_c   6.97787741
_cell_angle_alpha   83.45081243
_cell_angle_beta   83.45082134
_cell_angle_gamma   82.09180375
_symmetry_Int_Tables_number   1
_chemical_formula_structural   Pr2Zn9Au8
_chemical_formula_sum   'Pr2 Zn9 Au8'
_cell_volume   345.72333244
_cell_formula_units_Z   1
loop_
 _symmetry_equiv_pos_site_id
 _symmetry_equiv_pos_as_xyz
  1  'x, y, z'
loop_
 _atom_site_type_symbol
 _atom_site_label
 _atom_site_symmetry_multiplicity
 _atom_site_fract_x
 _atom_site_fract_y
 _atom_site_fract_z
 _atom_site_occupancy
  Pr  Pr0  1  0.338263  0.338263  0.349917  1
  Pr  Pr1  1  0.661737  0.661737  0.650083  1
  Zn  Zn2  1  0.000000  0.000000  0.500000  1
  Zn  Zn3  1  0.000000  0.500000  0.000000  1
  Zn  Zn4  1  0.500000  0.000000  0.000000  1
  Zn  Zn5  1  0.710947  0.289053  0.000000  1
  Zn  Zn6  1  0.289053  0.710947  0.000000  1
  Zn  Zn7  1  0.153194  0.658614  0.656244  1
  Zn  Zn8  1  0.658614  0.153194  0.656244  1
  Zn  Zn9  1  0.341386  0.846806  0.343756  1
  Zn  Zn10  1  0.846806  0.341386  0.343756  1
  Au  Au11  1  0.312621  0.987586  0.693351  1
  Au  Au12  1  0.012414  0.687379  0.306649  1
  Au  Au13  1  0.687379  0.012414  0.306649  1
  Au  Au14  1  0.987586  0.312621  0.693351  1
  Au  Au15  1  0.628546  0.628546  0.167217  1
  Au  Au16  1  0.371454  0.371454  0.832783  1
  Au  Au17  1  0.111299  0.111299  0.106726  1
  Au  Au18  1  0.888701  0.888701  0.893274  1
