# generated using pymatgen
data_YbHo2TmMnOs7
_symmetry_space_group_name_H-M   'P 1'
_cell_length_a   5.28380753
_cell_length_b   5.28316776
_cell_length_c   8.80781493
_cell_angle_alpha   90.16041050
_cell_angle_beta   90.16044908
_cell_angle_gamma   60.22409573
_symmetry_Int_Tables_number   1
_chemical_formula_structural   YbHo2TmMnOs7
_chemical_formula_sum   'Yb1 Ho2 Tm1 Mn1 Os7'
_cell_volume   213.40972299
_cell_formula_units_Z   1
loop_
 _symmetry_equiv_pos_site_id
 _symmetry_equiv_pos_as_xyz
  1  'x, y, z'
loop_
 _atom_site_type_symbol
 _atom_site_label
 _atom_site_symmetry_multiplicity
 _atom_site_fract_x
 _atom_site_fract_y
 _atom_site_fract_z
 _atom_site_occupancy
  Yb  Yb0  1  0.665845  0.666106  0.437395  1
  Ho  Ho1  1  0.667328  0.667528  0.067266  1
  Ho  Ho2  1  0.331778  0.331864  0.934486  1
  Tm  Tm3  1  0.331062  0.331221  0.562104  1
  Mn  Mn4  1  0.169391  0.169559  0.250739  1
  Os  Os5  1  0.993929  0.994227  0.496803  1
  Os  Os6  1  0.997421  0.997671  0.001945  1
  Os  Os7  1  0.826092  0.348330  0.749440  1
  Os  Os8  1  0.349228  0.825526  0.749462  1
  Os  Os9  1  0.833183  0.832993  0.749250  1
  Os  Os10  1  0.178296  0.656526  0.250545  1
  Os  Os11  1  0.656449  0.178447  0.250561  1
