# generated using pymatgen
data_Nd3Mg3BiPtPb
_symmetry_space_group_name_H-M   'P 1'
_cell_length_a   7.81430200
_cell_length_b   7.81430160
_cell_length_c   4.51545200
_cell_angle_alpha   90.00000000
_cell_angle_beta   90.00000000
_cell_angle_gamma   120.00001018
_symmetry_Int_Tables_number   1
_chemical_formula_structural   Nd3Mg3BiPtPb
_chemical_formula_sum   'Nd3 Mg3 Bi1 Pt1 Pb1'
_cell_volume   238.78782375
_cell_formula_units_Z   1
loop_
 _symmetry_equiv_pos_site_id
 _symmetry_equiv_pos_as_xyz
  1  'x, y, z'
loop_
 _atom_site_type_symbol
 _atom_site_label
 _atom_site_symmetry_multiplicity
 _atom_site_fract_x
 _atom_site_fract_y
 _atom_site_fract_z
 _atom_site_occupancy
  Nd  Nd0  1  0.388872  0.393851  0.000000  1
  Nd  Nd1  1  0.606149  0.995020  0.000000  1
  Nd  Nd2  1  0.004980  0.611128  0.000000  1
  Mg  Mg3  1  0.003636  0.225005  0.500000  1
  Mg  Mg4  1  0.774995  0.778631  0.500000  1
  Mg  Mg5  1  0.221369  0.996364  0.500000  1
  Bi  Bi6  1  0.666667  0.333333  0.500000  1
  Pt  Pt7  1  0.000000  0.000000  0.000000  1
  Pb  Pb8  1  0.333333  0.666667  0.500000  1
