# generated using pymatgen
data_YHo5Al18(Si3Ru4)2
_symmetry_space_group_name_H-M   'P 1'
_cell_length_a   8.68079000
_cell_length_b   8.65686402
_cell_length_c   9.53461800
_cell_angle_alpha   90.00000000
_cell_angle_beta   90.00000000
_cell_angle_gamma   120.09147616
_symmetry_Int_Tables_number   1
_chemical_formula_structural   YHo5Al18(Si3Ru4)2
_chemical_formula_sum   'Y1 Ho5 Al18 Si6 Ru8'
_cell_volume   619.94436284
_cell_formula_units_Z   1
loop_
 _symmetry_equiv_pos_site_id
 _symmetry_equiv_pos_as_xyz
  1  'x, y, z'
loop_
 _atom_site_type_symbol
 _atom_site_label
 _atom_site_symmetry_multiplicity
 _atom_site_fract_x
 _atom_site_fract_y
 _atom_site_fract_z
 _atom_site_occupancy
  Y  Y0  1  0.193293  0.386586  0.250000  1
  Ho  Ho1  1  0.806601  0.613201  0.750000  1
  Ho  Ho2  1  0.610373  0.808218  0.250000  1
  Ho  Ho3  1  0.389684  0.191859  0.750000  1
  Ho  Ho4  1  0.197844  0.808218  0.250000  1
  Ho  Ho5  1  0.802176  0.191859  0.750000  1
  Al  Al6  1  0.164740  0.329480  0.580170  1
  Al  Al7  1  0.835253  0.670506  0.419943  1
  Al  Al8  1  0.670409  0.834779  0.578574  1
  Al  Al9  1  0.835253  0.670506  0.080057  1
  Al  Al10  1  0.329621  0.165159  0.421513  1
  Al  Al11  1  0.164740  0.329480  0.919830  1
  Al  Al12  1  0.164369  0.834779  0.578574  1
  Al  Al13  1  0.329621  0.165159  0.078487  1
  Al  Al14  1  0.835539  0.165159  0.421513  1
  Al  Al15  1  0.670409  0.834779  0.921426  1
  Al  Al16  1  0.835539  0.165159  0.078487  1
  Al  Al17  1  0.164369  0.834779  0.921426  1
  Al  Al18  1  0.873686  0.433894  0.250000  1
  Al  Al19  1  0.126200  0.566128  0.750000  1
  Al  Al20  1  0.560208  0.433894  0.250000  1
  Al  Al21  1  0.439927  0.566128  0.750000  1
  Al  Al22  1  0.999356  0.998711  0.250000  1
  Al  Al23  1  0.000537  0.001073  0.750000  1
  Si  Si24  1  0.332113  0.664227  0.039179  1
  Si  Si25  1  0.667989  0.335978  0.960655  1
  Si  Si26  1  0.667989  0.335978  0.539345  1
  Si  Si27  1  0.332113  0.664227  0.460821  1
  Si  Si28  1  0.562893  0.125788  0.250000  1
  Si  Si29  1  0.437086  0.874171  0.750000  1
  Ru  Ru30  1  0.500009  0.000018  0.000003  1
  Ru  Ru31  1  0.999938  0.500017  0.999934  1
  Ru  Ru32  1  0.500009  0.000018  0.499997  1
  Ru  Ru33  1  0.500079  0.500017  0.999934  1
  Ru  Ru34  1  0.999938  0.500017  0.500066  1
  Ru  Ru35  1  0.500079  0.500017  0.500066  1
  Ru  Ru36  1  0.000009  0.000019  0.000035  1
  Ru  Ru37  1  0.000009  0.000019  0.499965  1
