# generated using pymatgen
data_Cs2Ge3MoO9
_symmetry_space_group_name_H-M   'P 1'
_cell_length_a   7.38372700
_cell_length_b   7.38372702
_cell_length_c   10.74922300
_cell_angle_alpha   90.00000000
_cell_angle_beta   90.00000000
_cell_angle_gamma   120.00000265
_symmetry_Int_Tables_number   1
_chemical_formula_structural   Cs2Ge3MoO9
_chemical_formula_sum   'Cs4 Ge6 Mo2 O18'
_cell_volume   507.52677165
_cell_formula_units_Z   2
loop_
 _symmetry_equiv_pos_site_id
 _symmetry_equiv_pos_as_xyz
  1  'x, y, z'
loop_
 _atom_site_type_symbol
 _atom_site_label
 _atom_site_symmetry_multiplicity
 _atom_site_fract_x
 _atom_site_fract_y
 _atom_site_fract_z
 _atom_site_occupancy
  Cs  Cs0  1  0.333333  0.666667  0.059724  1
  Cs  Cs1  1  0.666667  0.333333  0.559724  1
  Cs  Cs2  1  0.666667  0.333333  0.940276  1
  Cs  Cs3  1  0.333333  0.666667  0.440276  1
  Ge  Ge4  1  0.373604  0.232644  0.250000  1
  Ge  Ge5  1  0.140961  0.373604  0.750000  1
  Ge  Ge6  1  0.232644  0.859039  0.750000  1
  Ge  Ge7  1  0.767356  0.140961  0.250000  1
  Ge  Ge8  1  0.859039  0.626396  0.250000  1
  Ge  Ge9  1  0.626396  0.767356  0.750000  1
  Mo  Mo10  1  0.000000  0.000000  0.000000  1
  Mo  Mo11  1  0.000000  0.000000  0.500000  1
  O  O12  1  0.494164  0.073437  0.250000  1
  O  O13  1  0.420727  0.494164  0.750000  1
  O  O14  1  0.073437  0.579273  0.750000  1
  O  O15  1  0.926563  0.420727  0.250000  1
  O  O16  1  0.579273  0.505836  0.250000  1
  O  O17  1  0.505836  0.926563  0.750000  1
  O  O18  1  0.241856  0.213315  0.111466  1
  O  O19  1  0.028541  0.241856  0.611466  1
  O  O20  1  0.213315  0.971459  0.611466  1
  O  O21  1  0.786685  0.028541  0.111466  1
  O  O22  1  0.971459  0.758144  0.111466  1
  O  O23  1  0.758144  0.786685  0.611466  1
  O  O24  1  0.758144  0.786685  0.888534  1
  O  O25  1  0.971459  0.758144  0.388534  1
  O  O26  1  0.786685  0.028541  0.388534  1
  O  O27  1  0.213315  0.971459  0.888534  1
  O  O28  1  0.028541  0.241856  0.888534  1
  O  O29  1  0.241856  0.213315  0.388534  1
