# generated using pymatgen
data_ErSc(B3W)2
_symmetry_space_group_name_H-M   'P 1'
_cell_length_a   3.12449400
_cell_length_b   5.37693295
_cell_length_c   6.70796300
_cell_angle_alpha   78.98159252
_cell_angle_beta   90.00000000
_cell_angle_gamma   90.00000000
_symmetry_Int_Tables_number   1
_chemical_formula_structural   ErSc(B3W)2
_chemical_formula_sum   'Er1 Sc1 B6 W2'
_cell_volume   110.61764450
_cell_formula_units_Z   1
loop_
 _symmetry_equiv_pos_site_id
 _symmetry_equiv_pos_as_xyz
  1  'x, y, z'
loop_
 _atom_site_type_symbol
 _atom_site_label
 _atom_site_symmetry_multiplicity
 _atom_site_fract_x
 _atom_site_fract_y
 _atom_site_fract_z
 _atom_site_occupancy
  Er  Er0  1  0.250000  0.174048  0.297218  1
  Sc  Sc1  1  0.750000  0.810627  0.718687  1
  B  B2  1  0.250000  0.597438  0.479307  1
  B  B3  1  0.750000  0.428444  0.524253  1
  B  B4  1  0.250000  0.586194  0.989799  1
  B  B5  1  0.750000  0.410555  0.004094  1
  B  B6  1  0.250000  0.914593  0.986143  1
  B  B7  1  0.750000  0.080484  0.004694  1
  W  W8  1  0.750000  0.690636  0.220170  1
  W  W9  1  0.250000  0.306982  0.775635  1
