# generated using pymatgen
data_Sc3Pa7Si8N3
_symmetry_space_group_name_H-M   'P 1'
_cell_length_a   10.04448600
_cell_length_b   10.04448510
_cell_length_c   4.25975800
_cell_angle_alpha   90.00000000
_cell_angle_beta   90.00000000
_cell_angle_gamma   120.00000298
_symmetry_Int_Tables_number   1
_chemical_formula_structural   Sc3Pa7Si8N3
_chemical_formula_sum   'Sc3 Pa7 Si8 N3'
_cell_volume   372.19534945
_cell_formula_units_Z   1
loop_
 _symmetry_equiv_pos_site_id
 _symmetry_equiv_pos_as_xyz
  1  'x, y, z'
loop_
 _atom_site_type_symbol
 _atom_site_label
 _atom_site_symmetry_multiplicity
 _atom_site_fract_x
 _atom_site_fract_y
 _atom_site_fract_z
 _atom_site_occupancy
  Sc  Sc0  1  0.500000  0.000000  0.500000  1
  Sc  Sc1  1  0.000000  0.500000  0.500000  1
  Sc  Sc2  1  0.500000  0.500000  0.500000  1
  Pa  Pa3  1  0.216239  0.783761  0.000000  1
  Pa  Pa4  1  0.216239  0.432480  0.000000  1
  Pa  Pa5  1  0.783761  0.567520  0.000000  1
  Pa  Pa6  1  0.432480  0.216239  0.000000  1
  Pa  Pa7  1  0.000000  0.000000  0.000000  1
  Pa  Pa8  1  0.567520  0.783761  0.000000  1
  Pa  Pa9  1  0.783761  0.216239  0.000000  1
  Si  Si10  1  0.666667  0.333333  0.500000  1
  Si  Si11  1  0.000000  0.768613  0.500000  1
  Si  Si12  1  0.333333  0.666667  0.500000  1
  Si  Si13  1  0.231387  0.231387  0.500000  1
  Si  Si14  1  0.768613  0.768613  0.500000  1
  Si  Si15  1  0.768613  0.000000  0.500000  1
  Si  Si16  1  0.231387  0.000000  0.500000  1
  Si  Si17  1  0.000000  0.231387  0.500000  1
  N  N18  1  0.500000  0.500000  0.000000  1
  N  N19  1  0.500000  0.000000  0.000000  1
  N  N20  1  0.000000  0.500000  0.000000  1
