# generated using pymatgen
data_Nd8HoLuSn6
_symmetry_space_group_name_H-M   'P 1'
_cell_length_a   9.21915100
_cell_length_b   9.21915178
_cell_length_c   6.76193800
_cell_angle_alpha   90.00000000
_cell_angle_beta   90.00000000
_cell_angle_gamma   120.00000797
_symmetry_Int_Tables_number   1
_chemical_formula_structural   Nd8HoLuSn6
_chemical_formula_sum   'Nd8 Ho1 Lu1 Sn6'
_cell_volume   497.71837500
_cell_formula_units_Z   1
loop_
 _symmetry_equiv_pos_site_id
 _symmetry_equiv_pos_as_xyz
  1  'x, y, z'
loop_
 _atom_site_type_symbol
 _atom_site_label
 _atom_site_symmetry_multiplicity
 _atom_site_fract_x
 _atom_site_fract_y
 _atom_site_fract_z
 _atom_site_occupancy
  Nd  Nd0  1  0.666667  0.333333  0.000000  1
  Nd  Nd1  1  0.333333  0.666667  0.000000  1
  Nd  Nd2  1  0.758447  0.758297  0.747692  1
  Nd  Nd3  1  0.241703  0.000151  0.747692  1
  Nd  Nd4  1  0.999849  0.241553  0.747692  1
  Nd  Nd5  1  0.241703  0.241553  0.252308  1
  Nd  Nd6  1  0.758447  0.000151  0.252308  1
  Nd  Nd7  1  0.999849  0.758297  0.252308  1
  Ho  Ho8  1  0.333333  0.666667  0.500000  1
  Lu  Lu9  1  0.666667  0.333333  0.500000  1
  Sn  Sn10  1  0.397624  0.397032  0.740954  1
  Sn  Sn11  1  0.602968  0.000592  0.740954  1
  Sn  Sn12  1  0.999408  0.602376  0.740954  1
  Sn  Sn13  1  0.602968  0.602376  0.259046  1
  Sn  Sn14  1  0.397624  0.000592  0.259046  1
  Sn  Sn15  1  0.999408  0.397032  0.259046  1
