# generated using pymatgen
data_Be2MoW2
_symmetry_space_group_name_H-M   'P 1'
_cell_length_a   6.24755937
_cell_length_b   6.24755817
_cell_length_c   3.22327900
_cell_angle_alpha   90.00000000
_cell_angle_beta   90.00000000
_cell_angle_gamma   89.93911428
_symmetry_Int_Tables_number   1
_chemical_formula_structural   Be2MoW2
_chemical_formula_sum   'Be4 Mo2 W4'
_cell_volume   125.81092441
_cell_formula_units_Z   2
loop_
 _symmetry_equiv_pos_site_id
 _symmetry_equiv_pos_as_xyz
  1  'x, y, z'
loop_
 _atom_site_type_symbol
 _atom_site_label
 _atom_site_symmetry_multiplicity
 _atom_site_fract_x
 _atom_site_fract_y
 _atom_site_fract_z
 _atom_site_occupancy
  Be  Be0  1  0.117102  0.617102  0.000000  1
  Be  Be1  1  0.882898  0.382898  0.000000  1
  Be  Be2  1  0.617887  0.882113  0.000000  1
  Be  Be3  1  0.382113  0.117887  0.000000  1
  Mo  Mo4  1  0.177536  0.322464  0.500000  1
  Mo  Mo5  1  0.822464  0.677536  0.500000  1
  W  W6  1  0.500000  0.500000  0.000000  1
  W  W7  1  0.000000  0.000000  0.000000  1
  W  W8  1  0.677262  0.177262  0.500000  1
  W  W9  1  0.322738  0.822738  0.500000  1
