# generated using pymatgen
data_Pr(LuSi2)2
_symmetry_space_group_name_H-M   'P 1'
_cell_length_a   3.89421141
_cell_length_b   4.18037799
_cell_length_c   9.11167400
_cell_angle_alpha   76.73844326
_cell_angle_beta   77.66110586
_cell_angle_gamma   89.99999724
_symmetry_Int_Tables_number   1
_chemical_formula_structural   Pr(LuSi2)2
_chemical_formula_sum   'Pr1 Lu2 Si4'
_cell_volume   140.85336411
_cell_formula_units_Z   1
loop_
 _symmetry_equiv_pos_site_id
 _symmetry_equiv_pos_as_xyz
  1  'x, y, z'
loop_
 _atom_site_type_symbol
 _atom_site_label
 _atom_site_symmetry_multiplicity
 _atom_site_fract_x
 _atom_site_fract_y
 _atom_site_fract_z
 _atom_site_occupancy
  Pr  Pr0  1  0.999963  0.999963  0.000077  1
  Lu  Lu1  1  0.684355  0.184355  0.631289  1
  Lu  Lu2  1  0.315656  0.815656  0.368690  1
  Si  Si3  1  0.848430  0.348430  0.303139  1
  Si  Si4  1  0.151582  0.651582  0.696834  1
  Si  Si5  1  0.569148  0.569148  0.861703  1
  Si  Si6  1  0.430866  0.430866  0.138269  1
