# generated using pymatgen
data_Sm8TmLu11Pb16
_symmetry_space_group_name_H-M   'P 1'
_cell_length_a   8.18037709
_cell_length_b   8.26307608
_cell_length_c   15.55732901
_cell_angle_alpha   89.99767108
_cell_angle_beta   89.99679385
_cell_angle_gamma   89.98374868
_symmetry_Int_Tables_number   1
_chemical_formula_structural   Sm8TmLu11Pb16
_chemical_formula_sum   'Sm8 Tm1 Lu11 Pb16'
_cell_volume   1051.59882708
_cell_formula_units_Z   1
loop_
 _symmetry_equiv_pos_site_id
 _symmetry_equiv_pos_as_xyz
  1  'x, y, z'
loop_
 _atom_site_type_symbol
 _atom_site_label
 _atom_site_symmetry_multiplicity
 _atom_site_fract_x
 _atom_site_fract_y
 _atom_site_fract_z
 _atom_site_occupancy
  Sm  Sm0  1  0.467232  0.677668  0.598701  1
  Sm  Sm1  1  0.967235  0.822262  0.901319  1
  Sm  Sm2  1  0.532788  0.322273  0.098695  1
  Sm  Sm3  1  0.032740  0.177680  0.401316  1
  Sm  Sm4  1  0.532741  0.322314  0.401223  1
  Sm  Sm5  1  0.032776  0.177732  0.098690  1
  Sm  Sm6  1  0.467218  0.677716  0.901319  1
  Sm  Sm7  1  0.967277  0.822217  0.598677  1
  Tm  Tm8  1  0.627104  0.158548  0.622068  1
  Lu  Lu9  1  0.127093  0.341493  0.877919  1
  Lu  Lu10  1  0.372880  0.841456  0.122091  1
  Lu  Lu11  1  0.872884  0.658536  0.377893  1
  Lu  Lu12  1  0.372883  0.841510  0.377924  1
  Lu  Lu13  1  0.872868  0.658506  0.122084  1
  Lu  Lu14  1  0.627118  0.158508  0.877926  1
  Lu  Lu15  1  0.127130  0.341461  0.622100  1
  Lu  Lu16  1  0.794920  0.493815  0.750053  1
  Lu  Lu17  1  0.294772  0.006281  0.750045  1
  Lu  Lu18  1  0.205147  0.506288  0.249999  1
  Lu  Lu19  1  0.705140  0.993680  0.249993  1
  Pb  Pb20  1  0.712297  0.962428  0.456707  1
  Pb  Pb21  1  0.212225  0.537429  0.043162  1
  Pb  Pb22  1  0.287796  0.037418  0.956858  1
  Pb  Pb23  1  0.787907  0.462834  0.543105  1
  Pb  Pb24  1  0.287537  0.037363  0.543111  1
  Pb  Pb25  1  0.787779  0.462576  0.956856  1
  Pb  Pb26  1  0.712233  0.962571  0.043147  1
  Pb  Pb27  1  0.212206  0.537439  0.456840  1
  Pb  Pb28  1  0.432027  0.370798  0.750081  1
  Pb  Pb29  1  0.932262  0.129328  0.750053  1
  Pb  Pb30  1  0.567843  0.629325  0.249994  1
  Pb  Pb31  1  0.067904  0.870687  0.249995  1
  Pb  Pb32  1  0.657041  0.848054  0.750047  1
  Pb  Pb33  1  0.157057  0.651802  0.750001  1
  Pb  Pb34  1  0.342967  0.151833  0.250004  1
  Pb  Pb35  1  0.842974  0.348171  0.250003  1
