# generated using pymatgen
data_Tb2Yb3Sm(MnC3)4
_symmetry_space_group_name_H-M   'P 1'
_cell_length_a   8.08571104
_cell_length_b   8.10483569
_cell_length_c   5.00754800
_cell_angle_alpha   90.00000000
_cell_angle_beta   90.00000000
_cell_angle_gamma   120.09935439
_symmetry_Int_Tables_number   1
_chemical_formula_structural   Tb2Yb3Sm(MnC3)4
_chemical_formula_sum   'Tb2 Yb3 Sm1 Mn4 C12'
_cell_volume   283.91119285
_cell_formula_units_Z   1
loop_
 _symmetry_equiv_pos_site_id
 _symmetry_equiv_pos_as_xyz
  1  'x, y, z'
loop_
 _atom_site_type_symbol
 _atom_site_label
 _atom_site_symmetry_multiplicity
 _atom_site_fract_x
 _atom_site_fract_y
 _atom_site_fract_z
 _atom_site_occupancy
  Tb  Tb0  1  0.069177  0.384047  0.750000  1
  Tb  Tb1  1  0.383005  0.314164  0.250000  1
  Yb  Yb2  1  0.613017  0.685583  0.750000  1
  Yb  Yb3  1  0.924382  0.613635  0.250000  1
  Yb  Yb4  1  0.684610  0.072201  0.250000  1
  Sm  Sm5  1  0.316506  0.930480  0.750000  1
  Mn  Mn6  1  0.995609  0.997258  0.501637  1
  Mn  Mn7  1  0.995609  0.997258  0.998363  1
  Mn  Mn8  1  0.669098  0.333183  0.750000  1
  Mn  Mn9  1  0.331635  0.661723  0.250000  1
  C  C10  1  0.954925  0.773319  0.750000  1
  C  C11  1  0.193669  0.961583  0.250000  1
  C  C12  1  0.774387  0.820413  0.250000  1
  C  C13  1  0.230221  0.194259  0.750000  1
  C  C14  1  0.820693  0.044334  0.750000  1
  C  C15  1  0.039913  0.222607  0.250000  1
  C  C16  1  0.859804  0.580308  0.750000  1
  C  C17  1  0.275907  0.850834  0.250000  1
  C  C18  1  0.581511  0.721675  0.250000  1
  C  C19  1  0.425485  0.284487  0.750000  1
  C  C20  1  0.138012  0.416194  0.250000  1
  C  C21  1  0.722825  0.140453  0.750000  1
