# generated using pymatgen
data_Ca14ErSb11
_symmetry_space_group_name_H-M   'P 1'
_cell_length_a   16.32875127
_cell_length_b   16.32875065
_cell_length_c   16.32875100
_cell_angle_alpha   118.33509099
_cell_angle_beta   118.33508982
_cell_angle_gamma   92.90873859
_symmetry_Int_Tables_number   1
_chemical_formula_structural   Ca14ErSb11
_chemical_formula_sum   'Ca56 Er4 Sb44'
_cell_volume   3151.61190325
_cell_formula_units_Z   4
loop_
 _symmetry_equiv_pos_site_id
 _symmetry_equiv_pos_as_xyz
  1  'x, y, z'
loop_
 _atom_site_type_symbol
 _atom_site_label
 _atom_site_symmetry_multiplicity
 _atom_site_fract_x
 _atom_site_fract_y
 _atom_site_fract_z
 _atom_site_occupancy
  Ca  Ca0  1  0.486386  0.091362  0.345600  1
  Ca  Ca1  1  0.004238  0.109213  0.845600  1
  Ca  Ca2  1  0.353307  0.373646  0.659804  1
  Ca  Ca3  1  0.859213  0.513614  0.604976  1
  Ca  Ca4  1  0.408638  0.013614  0.654400  1
  Ca  Ca5  1  0.125000  0.729756  0.104756  1
  Ca  Ca6  1  0.263614  0.158638  0.154400  1
  Ca  Ca7  1  0.472162  0.252542  0.132781  1
  Ca  Ca8  1  0.277838  0.997458  0.367219  1
  Ca  Ca9  1  0.626354  0.286157  0.979661  1
  Ca  Ca10  1  0.089380  0.722162  0.719620  1
  Ca  Ca11  1  0.443504  0.603307  0.479661  1
  Ca  Ca12  1  0.213843  0.873646  0.020339  1
  Ca  Ca13  1  0.126354  0.146693  0.340196  1
  Ca  Ca14  1  0.245762  0.591362  0.604976  1
  Ca  Ca15  1  0.504238  0.658638  0.895024  1
  Ca  Ca16  1  0.770244  0.375000  0.895244  1
  Ca  Ca17  1  0.396693  0.876354  0.840196  1
  Ca  Ca18  1  0.630240  0.910620  0.632781  1
  Ca  Ca19  1  0.479756  0.875000  0.104756  1
  Ca  Ca20  1  0.125000  0.229756  0.604756  1
  Ca  Ca21  1  0.625000  0.020244  0.895244  1
  Ca  Ca22  1  0.341362  0.236386  0.845600  1
  Ca  Ca23  1  0.359213  0.754238  0.345600  1
  Ca  Ca24  1  0.247458  0.027838  0.867219  1
  Ca  Ca25  1  0.943504  0.463843  0.840196  1
  Ca  Ca26  1  0.747458  0.880240  0.219620  1
  Ca  Ca27  1  0.036157  0.556496  0.159804  1
  Ca  Ca28  1  0.777838  0.410620  0.280380  1
  Ca  Ca29  1  0.160620  0.380240  0.132781  1
  Ca  Ca30  1  0.306496  0.646693  0.020339  1
  Ca  Ca31  1  0.002542  0.369760  0.280380  1
  Ca  Ca32  1  0.619760  0.752542  0.780380  1
  Ca  Ca33  1  0.660620  0.527838  0.780380  1
  Ca  Ca34  1  0.270244  0.375000  0.395244  1
  Ca  Ca35  1  0.763614  0.609213  0.104976  1
  Ca  Ca36  1  0.986386  0.640787  0.395024  1
  Ca  Ca37  1  0.853307  0.193504  0.979661  1
  Ca  Ca38  1  0.896693  0.056496  0.520339  1
  Ca  Ca39  1  0.713843  0.693504  0.340196  1
  Ca  Ca40  1  0.841362  0.995762  0.104976  1
  Ca  Ca41  1  0.119760  0.339380  0.867219  1
  Ca  Ca42  1  0.908638  0.254238  0.395024  1
  Ca  Ca43  1  0.890787  0.736386  0.895024  1
  Ca  Ca44  1  0.502542  0.222162  0.632781  1
  Ca  Ca45  1  0.625000  0.520244  0.395244  1
  Ca  Ca46  1  0.623646  0.103307  0.159804  1
  Ca  Ca47  1  0.589380  0.869760  0.367219  1
  Ca  Ca48  1  0.130240  0.497458  0.719620  1
  Ca  Ca49  1  0.979756  0.875000  0.604756  1
  Ca  Ca50  1  0.390787  0.495762  0.154400  1
  Ca  Ca51  1  0.536157  0.376354  0.479661  1
  Ca  Ca52  1  0.123646  0.963843  0.520339  1
  Ca  Ca53  1  0.972162  0.839380  0.219620  1
  Ca  Ca54  1  0.806496  0.786157  0.659804  1
  Ca  Ca55  1  0.745762  0.140787  0.654400  1
  Er  Er56  1  0.500000  0.500000  0.000000  1
  Er  Er57  1  0.750000  0.250000  0.500000  1
  Er  Er58  1  0.000000  0.000000  0.000000  1
  Er  Er59  1  0.250000  0.750000  0.500000  1
  Sb  Sb60  1  0.787253  0.935482  0.861669  1
  Sb  Sb61  1  0.448075  0.541951  0.644509  1
  Sb  Sb62  1  0.386154  0.386154  0.272309  1
  Sb  Sb63  1  0.863846  0.636154  0.500000  1
  Sb  Sb64  1  0.291951  0.147443  0.593876  1
  Sb  Sb65  1  0.573812  0.435482  0.148228  1
  Sb  Sb66  1  0.962747  0.314518  0.638331  1
  Sb  Sb67  1  0.564518  0.712747  0.138331  1
  Sb  Sb68  1  0.685482  0.323812  0.648228  1
  Sb  Sb69  1  0.185482  0.537253  0.361669  1
  Sb  Sb70  1  0.462747  0.824416  0.648228  1
  Sb  Sb71  1  0.301925  0.708049  0.855491  1
  Sb  Sb72  1  0.791951  0.198075  0.144509  1
  Sb  Sb73  1  0.553567  0.698075  0.406124  1
  Sb  Sb74  1  0.064518  0.926188  0.851772  1
  Sb  Sb75  1  0.948075  0.303567  0.906124  1
  Sb  Sb76  1  0.750000  0.750000  0.000000  1
  Sb  Sb77  1  0.852557  0.446433  0.144509  1
  Sb  Sb78  1  0.636154  0.136154  0.772309  1
  Sb  Sb79  1  0.696433  0.602557  0.644509  1
  Sb  Sb80  1  0.958049  0.051925  0.355491  1
  Sb  Sb81  1  0.801925  0.946433  0.593876  1
  Sb  Sb82  1  0.500000  0.000000  0.500000  1
  Sb  Sb83  1  0.113846  0.113846  0.727691  1
  Sb  Sb84  1  0.053567  0.647443  0.855491  1
  Sb  Sb85  1  0.074416  0.212747  0.148228  1
  Sb  Sb86  1  0.287253  0.425584  0.851772  1
  Sb  Sb87  1  0.397443  0.041951  0.093876  1
  Sb  Sb88  1  0.897443  0.803567  0.355491  1
  Sb  Sb89  1  0.175584  0.823812  0.638331  1
  Sb  Sb90  1  0.000000  0.500000  0.500000  1
  Sb  Sb91  1  0.196433  0.551925  0.093876  1
  Sb  Sb92  1  0.136154  0.363846  0.500000  1
  Sb  Sb93  1  0.176188  0.814518  0.351772  1
  Sb  Sb94  1  0.458049  0.102557  0.906124  1
  Sb  Sb95  1  0.073812  0.925584  0.138331  1
  Sb  Sb96  1  0.676188  0.324416  0.361669  1
  Sb  Sb97  1  0.352557  0.208049  0.406124  1
  Sb  Sb98  1  0.250000  0.250000  0.000000  1
  Sb  Sb99  1  0.574416  0.426188  0.861669  1
  Sb  Sb100  1  0.675584  0.037253  0.351772  1
  Sb  Sb101  1  0.886154  0.613846  0.000000  1
  Sb  Sb102  1  0.613846  0.886154  0.000000  1
  Sb  Sb103  1  0.363846  0.863846  0.227691  1
