# generated using pymatgen
data_Dy18HoTmBi12
_symmetry_space_group_name_H-M   'P 1'
_cell_length_a   8.25629416
_cell_length_b   9.52179320
_cell_length_c   12.04344024
_cell_angle_alpha   89.98429454
_cell_angle_beta   89.97923719
_cell_angle_gamma   89.99075491
_symmetry_Int_Tables_number   1
_chemical_formula_structural   Dy18HoTmBi12
_chemical_formula_sum   'Dy18 Ho1 Tm1 Bi12'
_cell_volume   946.79164016
_cell_formula_units_Z   1
loop_
 _symmetry_equiv_pos_site_id
 _symmetry_equiv_pos_as_xyz
  1  'x, y, z'
loop_
 _atom_site_type_symbol
 _atom_site_label
 _atom_site_symmetry_multiplicity
 _atom_site_fract_x
 _atom_site_fract_y
 _atom_site_fract_z
 _atom_site_occupancy
  Dy  Dy0  1  0.352108  0.750259  0.215778  1
  Dy  Dy1  1  0.852373  0.749998  0.284394  1
  Dy  Dy2  1  0.647403  0.249962  0.784364  1
  Dy  Dy3  1  0.147355  0.250128  0.715678  1
  Dy  Dy4  1  0.307840  0.063771  0.941677  1
  Dy  Dy5  1  0.807894  0.436162  0.558329  1
  Dy  Dy6  1  0.307393  0.436249  0.941351  1
  Dy  Dy7  1  0.807338  0.063722  0.558641  1
  Dy  Dy8  1  0.692480  0.936424  0.058524  1
  Dy  Dy9  1  0.192568  0.563825  0.441504  1
  Dy  Dy10  1  0.474826  0.249853  0.487964  1
  Dy  Dy11  1  0.974899  0.250129  0.012048  1
  Dy  Dy12  1  0.524389  0.750259  0.511754  1
  Dy  Dy13  1  0.024675  0.749882  0.988200  1
  Dy  Dy14  1  0.312821  0.249997  0.218714  1
  Dy  Dy15  1  0.812728  0.250002  0.281275  1
  Dy  Dy16  1  0.687124  0.749820  0.781316  1
  Dy  Dy17  1  0.187104  0.750265  0.718614  1
  Ho  Ho18  1  0.692608  0.564759  0.058544  1
  Tm  Tm19  1  0.192706  0.934769  0.441422  1
  Bi  Bi20  1  0.407435  0.749703  0.957301  1
  Bi  Bi21  1  0.907664  0.750526  0.542622  1
  Bi  Bi22  1  0.592979  0.251278  0.043141  1
  Bi  Bi23  1  0.093150  0.248072  0.456809  1
  Bi  Bi24  1  0.565247  0.995517  0.325586  1
  Bi  Bi25  1  0.065370  0.504542  0.174497  1
  Bi  Bi26  1  0.434498  0.495568  0.674459  1
  Bi  Bi27  1  0.934580  0.004470  0.825490  1
  Bi  Bi28  1  0.434505  0.004556  0.674320  1
  Bi  Bi29  1  0.934497  0.495488  0.825586  1
  Bi  Bi30  1  0.565687  0.504574  0.325463  1
  Bi  Bi31  1  0.065762  0.995473  0.174634  1
