# generated using pymatgen
data_CaTbNi12As7
_symmetry_space_group_name_H-M   'P 1'
_cell_length_a   9.37261300
_cell_length_b   9.37261292
_cell_length_c   3.82242400
_cell_angle_alpha   90.00000000
_cell_angle_beta   90.00000000
_cell_angle_gamma   120.00001087
_symmetry_Int_Tables_number   1
_chemical_formula_structural   CaTbNi12As7
_chemical_formula_sum   'Ca1 Tb1 Ni12 As7'
_cell_volume   290.79759471
_cell_formula_units_Z   1
loop_
 _symmetry_equiv_pos_site_id
 _symmetry_equiv_pos_as_xyz
  1  'x, y, z'
loop_
 _atom_site_type_symbol
 _atom_site_label
 _atom_site_symmetry_multiplicity
 _atom_site_fract_x
 _atom_site_fract_y
 _atom_site_fract_z
 _atom_site_occupancy
  Ca  Ca0  1  0.666667  0.333333  0.500000  1
  Tb  Tb1  1  0.000000  0.000000  0.000000  1
  Ni  Ni2  1  0.387669  0.284161  0.000000  1
  Ni  Ni3  1  0.896492  0.612331  0.000000  1
  Ni  Ni4  1  0.715839  0.103508  0.000000  1
  Ni  Ni5  1  0.613418  0.794710  0.000000  1
  Ni  Ni6  1  0.181293  0.386582  0.000000  1
  Ni  Ni7  1  0.205290  0.818707  0.000000  1
  Ni  Ni8  1  0.758137  0.716375  0.500000  1
  Ni  Ni9  1  0.958237  0.241863  0.500000  1
  Ni  Ni10  1  0.283625  0.041763  0.500000  1
  Ni  Ni11  1  0.429467  0.552743  0.500000  1
  Ni  Ni12  1  0.123276  0.570533  0.500000  1
  Ni  Ni13  1  0.447257  0.876724  0.500000  1
  As  As14  1  0.620146  0.549429  0.000000  1
  As  As15  1  0.929283  0.379854  0.000000  1
  As  As16  1  0.450571  0.070717  0.000000  1
  As  As17  1  0.739199  0.965150  0.500000  1
  As  As18  1  0.225951  0.260801  0.500000  1
  As  As19  1  0.034850  0.774049  0.500000  1
  As  As20  1  0.333333  0.666667  0.000000  1
