# generated using pymatgen
data_Ba3SrUSe6
_symmetry_space_group_name_H-M   'P 1'
_cell_length_a   9.01321644
_cell_length_b   9.01321638
_cell_length_c   9.01321702
_cell_angle_alpha   90.67726301
_cell_angle_beta   90.67726525
_cell_angle_gamma   90.67727146
_symmetry_Int_Tables_number   1
_chemical_formula_structural   Ba3SrUSe6
_chemical_formula_sum   'Ba6 Sr2 U2 Se12'
_cell_volume   732.06167404
_cell_formula_units_Z   2
loop_
 _symmetry_equiv_pos_site_id
 _symmetry_equiv_pos_as_xyz
  1  'x, y, z'
loop_
 _atom_site_type_symbol
 _atom_site_label
 _atom_site_symmetry_multiplicity
 _atom_site_fract_x
 _atom_site_fract_y
 _atom_site_fract_z
 _atom_site_occupancy
  Ba  Ba0  1  0.874871  0.625129  0.250000  1
  Ba  Ba1  1  0.250000  0.874871  0.625129  1
  Ba  Ba2  1  0.625129  0.250000  0.874871  1
  Ba  Ba3  1  0.750000  0.125129  0.374871  1
  Ba  Ba4  1  0.374871  0.750000  0.125129  1
  Ba  Ba5  1  0.125129  0.374871  0.750000  1
  Sr  Sr6  1  0.250000  0.250000  0.250000  1
  Sr  Sr7  1  0.750000  0.750000  0.750000  1
  U  U8  1  0.500000  0.500000  0.500000  1
  U  U9  1  0.000000  0.000000  0.000000  1
  Se  Se10  1  0.200155  0.553359  0.417260  1
  Se  Se11  1  0.417260  0.200155  0.553359  1
  Se  Se12  1  0.553359  0.417260  0.200155  1
  Se  Se13  1  0.917260  0.053359  0.700155  1
  Se  Se14  1  0.700155  0.917260  0.053359  1
  Se  Se15  1  0.053359  0.700155  0.917260  1
  Se  Se16  1  0.799845  0.446641  0.582740  1
  Se  Se17  1  0.582740  0.799845  0.446641  1
  Se  Se18  1  0.446641  0.582740  0.799845  1
  Se  Se19  1  0.082740  0.946641  0.299845  1
  Se  Se20  1  0.299845  0.082740  0.946641  1
  Se  Se21  1  0.946641  0.299845  0.082740  1
