# generated using pymatgen
data_SmDy5(WO7)2
_symmetry_space_group_name_H-M   'P 1'
_cell_length_a   6.48704980
_cell_length_b   6.48704991
_cell_length_c   7.53466502
_cell_angle_alpha   90.02784126
_cell_angle_beta   89.97216125
_cell_angle_gamma   109.24429175
_symmetry_Int_Tables_number   1
_chemical_formula_structural   SmDy5(WO7)2
_chemical_formula_sum   'Sm1 Dy5 W2 O14'
_cell_volume   299.35491788
_cell_formula_units_Z   1
loop_
 _symmetry_equiv_pos_site_id
 _symmetry_equiv_pos_as_xyz
  1  'x, y, z'
loop_
 _atom_site_type_symbol
 _atom_site_label
 _atom_site_symmetry_multiplicity
 _atom_site_fract_x
 _atom_site_fract_y
 _atom_site_fract_z
 _atom_site_occupancy
  Sm  Sm0  1  0.500000  0.500000  0.000000  1
  Dy  Dy1  1  0.500000  0.500000  0.500000  1
  Dy  Dy2  1  0.533117  0.001216  0.748395  1
  Dy  Dy3  1  0.001216  0.533117  0.251605  1
  Dy  Dy4  1  0.466883  0.998784  0.251605  1
  Dy  Dy5  1  0.998784  0.466883  0.748395  1
  W  W6  1  0.000000  0.000000  0.500000  1
  W  W7  1  0.000000  0.000000  0.000000  1
  O  O8  1  0.677902  0.925167  0.470971  1
  O  O9  1  0.925167  0.677902  0.529029  1
  O  O10  1  0.677442  0.925881  0.029164  1
  O  O11  1  0.925881  0.677442  0.970836  1
  O  O12  1  0.322098  0.074833  0.529029  1
  O  O13  1  0.074833  0.322098  0.470971  1
  O  O14  1  0.322558  0.074119  0.970836  1
  O  O15  1  0.074119  0.322558  0.029164  1
  O  O16  1  0.926555  0.073445  0.750167  1
  O  O17  1  0.073445  0.926555  0.249833  1
  O  O18  1  0.367203  0.632797  0.744714  1
  O  O19  1  0.632797  0.367203  0.255286  1
  O  O20  1  0.637987  0.362013  0.745063  1
  O  O21  1  0.362013  0.637987  0.254937  1
