# generated using pymatgen
data_Tb11DyB(CCl4)3
_symmetry_space_group_name_H-M   'P 1'
_cell_length_a   9.29807633
_cell_length_b   9.36599608
_cell_length_c   9.36546543
_cell_angle_alpha   109.61268327
_cell_angle_beta   109.32809480
_cell_angle_gamma   109.32958672
_symmetry_Int_Tables_number   1
_chemical_formula_structural   Tb11DyB(CCl4)3
_chemical_formula_sum   'Tb11 Dy1 B1 C3 Cl12'
_cell_volume   628.95207580
_cell_formula_units_Z   1
loop_
 _symmetry_equiv_pos_site_id
 _symmetry_equiv_pos_as_xyz
  1  'x, y, z'
loop_
 _atom_site_type_symbol
 _atom_site_label
 _atom_site_symmetry_multiplicity
 _atom_site_fract_x
 _atom_site_fract_y
 _atom_site_fract_z
 _atom_site_occupancy
  Tb  Tb0  1  0.750146  0.232146  0.267948  1
  Tb  Tb1  1  0.750170  0.019509  0.480730  1
  Tb  Tb2  1  0.230584  0.461188  0.480730  1
  Tb  Tb3  1  0.269296  0.756582  0.236225  1
  Tb  Tb4  1  0.033093  0.263806  0.020356  1
  Tb  Tb5  1  0.017985  0.035900  0.267931  1
  Tb  Tb6  1  0.487451  0.756577  0.020409  1
  Tb  Tb7  1  0.482177  0.232131  0.464240  1
  Tb  Tb8  1  0.012699  0.479529  0.743403  1
  Tb  Tb9  1  0.269476  0.019449  0.038894  1
  Tb  Tb10  1  0.230698  0.263754  0.743305  1
  Dy  Dy11  1  0.465727  0.478995  0.235614  1
  B  B12  1  0.250605  0.500019  0.000677  1
  C  C13  1  0.250958  0.250851  0.249975  1
  C  C14  1  0.499858  0.999913  0.249911  1
  C  C15  1  0.000124  0.250109  0.500132  1
  Cl  Cl16  1  0.249992  0.756667  0.743373  1
  Cl  Cl17  1  0.512378  0.505934  0.754330  1
  Cl  Cl18  1  0.987659  0.745667  0.994069  1
  Cl  Cl19  1  0.741962  0.248393  0.754350  1
  Cl  Cl20  1  0.993405  0.986733  0.743405  1
  Cl  Cl21  1  0.250032  0.993663  0.506360  1
  Cl  Cl22  1  0.755478  0.512631  0.505428  1
  Cl  Cl23  1  0.506537  0.249352  0.995042  1
  Cl  Cl24  1  0.757464  0.745081  0.251719  1
  Cl  Cl25  1  0.743686  0.993703  0.987339  1
  Cl  Cl26  1  0.993613  0.505941  0.251596  1
  Cl  Cl27  1  0.506748  0.755779  0.512510  1
