# generated using pymatgen
data_TmMn4TcP3
_symmetry_space_group_name_H-M   'P 1'
_cell_length_a   3.69978800
_cell_length_b   10.60537200
_cell_length_c   12.08220100
_cell_angle_alpha   90.00000000
_cell_angle_beta   90.00000000
_cell_angle_gamma   90.00000000
_symmetry_Int_Tables_number   1
_chemical_formula_structural   TmMn4TcP3
_chemical_formula_sum   'Tm4 Mn16 Tc4 P12'
_cell_volume   474.07690900
_cell_formula_units_Z   4
loop_
 _symmetry_equiv_pos_site_id
 _symmetry_equiv_pos_as_xyz
  1  'x, y, z'
loop_
 _atom_site_type_symbol
 _atom_site_label
 _atom_site_symmetry_multiplicity
 _atom_site_fract_x
 _atom_site_fract_y
 _atom_site_fract_z
 _atom_site_occupancy
  Tm  Tm0  1  0.250000  0.586855  0.706051  1
  Tm  Tm1  1  0.250000  0.913145  0.206051  1
  Tm  Tm2  1  0.750000  0.413145  0.293949  1
  Tm  Tm3  1  0.750000  0.086855  0.793949  1
  Mn  Mn4  1  0.250000  0.412302  0.494830  1
  Mn  Mn5  1  0.250000  0.087698  0.994830  1
  Mn  Mn6  1  0.750000  0.587698  0.505170  1
  Mn  Mn7  1  0.750000  0.912302  0.005170  1
  Mn  Mn8  1  0.250000  0.210164  0.183478  1
  Mn  Mn9  1  0.250000  0.289836  0.683478  1
  Mn  Mn10  1  0.750000  0.789836  0.816522  1
  Mn  Mn11  1  0.750000  0.710164  0.316522  1
  Mn  Mn12  1  0.250000  0.884162  0.692886  1
  Mn  Mn13  1  0.250000  0.615838  0.192886  1
  Mn  Mn14  1  0.750000  0.115838  0.307114  1
  Mn  Mn15  1  0.750000  0.384162  0.807114  1
  Mn  Mn16  1  0.250000  0.465697  0.934483  1
  Mn  Mn17  1  0.250000  0.034303  0.434483  1
  Mn  Mn18  1  0.750000  0.534303  0.065517  1
  Mn  Mn19  1  0.750000  0.965697  0.565517  1
  Tc  Tc20  1  0.250000  0.711320  0.983718  1
  Tc  Tc21  1  0.250000  0.788680  0.483718  1
  Tc  Tc22  1  0.750000  0.288680  0.016282  1
  Tc  Tc23  1  0.750000  0.211320  0.516282  1
  P  P24  1  0.250000  0.411570  0.116866  1
  P  P25  1  0.250000  0.088430  0.616866  1
  P  P26  1  0.750000  0.588430  0.883134  1
  P  P27  1  0.750000  0.911570  0.383134  1
  P  P28  1  0.250000  0.262300  0.875141  1
  P  P29  1  0.250000  0.237700  0.375141  1
  P  P30  1  0.750000  0.737700  0.124859  1
  P  P31  1  0.750000  0.762300  0.624859  1
  P  P32  1  0.250000  0.592188  0.384167  1
  P  P33  1  0.250000  0.907812  0.884167  1
  P  P34  1  0.750000  0.407812  0.615833  1
  P  P35  1  0.750000  0.092188  0.115833  1
