# generated using pymatgen
data_Tb16Mg3CdTcPd3
_symmetry_space_group_name_H-M   'P 1'
_cell_length_a   9.82025709
_cell_length_b   9.84348727
_cell_length_c   9.84348805
_cell_angle_alpha   59.12331785
_cell_angle_beta   58.99459473
_cell_angle_gamma   58.99458805
_symmetry_Int_Tables_number   1
_chemical_formula_structural   Tb16Mg3CdTcPd3
_chemical_formula_sum   'Tb16 Mg3 Cd1 Tc1 Pd3'
_cell_volume   658.05970513
_cell_formula_units_Z   1
loop_
 _symmetry_equiv_pos_site_id
 _symmetry_equiv_pos_as_xyz
  1  'x, y, z'
loop_
 _atom_site_type_symbol
 _atom_site_label
 _atom_site_symmetry_multiplicity
 _atom_site_fract_x
 _atom_site_fract_y
 _atom_site_fract_z
 _atom_site_occupancy
  Tb  Tb0  1  0.350897  0.351828  0.351828  1
  Tb  Tb1  1  0.348126  0.349238  0.950936  1
  Tb  Tb2  1  0.348126  0.950936  0.349238  1
  Tb  Tb3  1  0.953890  0.347819  0.347819  1
  Tb  Tb4  1  0.817585  0.187063  0.187063  1
  Tb  Tb5  1  0.188487  0.810116  0.810116  1
  Tb  Tb6  1  0.188200  0.816971  0.187269  1
  Tb  Tb7  1  0.810956  0.187426  0.811255  1
  Tb  Tb8  1  0.188200  0.187269  0.816971  1
  Tb  Tb9  1  0.810956  0.811255  0.187426  1
  Tb  Tb10  1  0.935667  0.566435  0.566435  1
  Tb  Tb11  1  0.557791  0.936622  0.936622  1
  Tb  Tb12  1  0.567329  0.932624  0.566756  1
  Tb  Tb13  1  0.938799  0.557149  0.934942  1
  Tb  Tb14  1  0.567329  0.566756  0.932624  1
  Tb  Tb15  1  0.938799  0.934942  0.557149  1
  Mg  Mg16  1  0.576256  0.579131  0.579131  1
  Mg  Mg17  1  0.576030  0.578998  0.261636  1
  Mg  Mg18  1  0.576030  0.261636  0.578998  1
  Cd  Cd19  1  0.254404  0.580437  0.580437  1
  Tc  Tc20  1  0.145161  0.143679  0.143679  1
  Pd  Pd21  1  0.145390  0.144801  0.571412  1
  Pd  Pd22  1  0.145390  0.571412  0.144801  1
  Pd  Pd23  1  0.570205  0.145461  0.145461  1
