# generated using pymatgen
data_SmY4Er15Sn16
_symmetry_space_group_name_H-M   'P 1'
_cell_length_a   8.01205656
_cell_length_b   8.12646572
_cell_length_c   15.37708100
_cell_angle_alpha   90.03322909
_cell_angle_beta   89.91623087
_cell_angle_gamma   89.94075379
_symmetry_Int_Tables_number   1
_chemical_formula_structural   SmY4Er15Sn16
_chemical_formula_sum   'Sm1 Y4 Er15 Sn16'
_cell_volume   1001.19540225
_cell_formula_units_Z   1
loop_
 _symmetry_equiv_pos_site_id
 _symmetry_equiv_pos_as_xyz
  1  'x, y, z'
loop_
 _atom_site_type_symbol
 _atom_site_label
 _atom_site_symmetry_multiplicity
 _atom_site_fract_x
 _atom_site_fract_y
 _atom_site_fract_z
 _atom_site_occupancy
  Sm  Sm0  1  0.979472  0.821093  0.096568  1
  Y  Y1  1  0.479346  0.678359  0.096171  1
  Y  Y2  1  0.978635  0.821330  0.403588  1
  Y  Y3  1  0.521134  0.321673  0.596857  1
  Y  Y4  1  0.020402  0.178560  0.903431  1
  Er  Er5  1  0.366376  0.837700  0.876700  1
  Er  Er6  1  0.867260  0.661965  0.622559  1
  Er  Er7  1  0.632140  0.162126  0.377442  1
  Er  Er8  1  0.133112  0.337763  0.122947  1
  Er  Er9  1  0.632397  0.162933  0.123075  1
  Er  Er10  1  0.131743  0.337626  0.377962  1
  Er  Er11  1  0.368625  0.837880  0.622646  1
  Er  Er12  1  0.867390  0.662108  0.876776  1
  Er  Er13  1  0.521714  0.321339  0.902549  1
  Er  Er14  1  0.022162  0.178680  0.597228  1
  Er  Er15  1  0.477842  0.678390  0.403120  1
  Er  Er16  1  0.198846  0.503963  0.749633  1
  Er  Er17  1  0.698747  0.996169  0.749924  1
  Er  Er18  1  0.800899  0.495790  0.250360  1
  Er  Er19  1  0.301460  0.004246  0.250661  1
  Sn  Sn20  1  0.296520  0.039824  0.041194  1
  Sn  Sn21  1  0.792198  0.462418  0.458115  1
  Sn  Sn22  1  0.707105  0.963189  0.541860  1
  Sn  Sn23  1  0.207609  0.536980  0.958001  1
  Sn  Sn24  1  0.702976  0.962477  0.957802  1
  Sn  Sn25  1  0.206635  0.538910  0.541426  1
  Sn  Sn26  1  0.293669  0.037711  0.458687  1
  Sn  Sn27  1  0.793536  0.459634  0.040921  1
  Sn  Sn28  1  0.564791  0.618627  0.750175  1
  Sn  Sn29  1  0.064901  0.881254  0.749131  1
  Sn  Sn30  1  0.434763  0.381158  0.250485  1
  Sn  Sn31  1  0.934838  0.120033  0.250360  1
  Sn  Sn32  1  0.331457  0.149056  0.750178  1
  Sn  Sn33  1  0.832042  0.350478  0.749506  1
  Sn  Sn34  1  0.667097  0.850907  0.250786  1
  Sn  Sn35  1  0.170158  0.647654  0.251178  1
