# generated using pymatgen
data_NaSrCrN3
_symmetry_space_group_name_H-M   'P 1'
_cell_length_a   6.15174764
_cell_length_b   6.15174760
_cell_length_c   12.13258500
_cell_angle_alpha   90.00000000
_cell_angle_beta   90.00000000
_cell_angle_gamma   125.14716993
_symmetry_Int_Tables_number   1
_chemical_formula_structural   NaSrCrN3
_chemical_formula_sum   'Na4 Sr4 Cr4 N12'
_cell_volume   375.43230741
_cell_formula_units_Z   4
loop_
 _symmetry_equiv_pos_site_id
 _symmetry_equiv_pos_as_xyz
  1  'x, y, z'
loop_
 _atom_site_type_symbol
 _atom_site_label
 _atom_site_symmetry_multiplicity
 _atom_site_fract_x
 _atom_site_fract_y
 _atom_site_fract_z
 _atom_site_occupancy
  Na  Na0  1  0.550734  0.449266  0.642925  1
  Na  Na1  1  0.449266  0.550734  0.357075  1
  Na  Na2  1  0.949266  0.050734  0.142925  1
  Na  Na3  1  0.050734  0.949266  0.857075  1
  Sr  Sr4  1  0.858786  0.141214  0.582499  1
  Sr  Sr5  1  0.141214  0.858786  0.417501  1
  Sr  Sr6  1  0.641214  0.358786  0.082499  1
  Sr  Sr7  1  0.358786  0.641214  0.917501  1
  Cr  Cr8  1  0.738793  0.261207  0.833949  1
  Cr  Cr9  1  0.261207  0.738793  0.166051  1
  Cr  Cr10  1  0.761207  0.238793  0.333949  1
  Cr  Cr11  1  0.238793  0.761207  0.666051  1
  N  N12  1  0.828769  0.171231  0.948209  1
  N  N13  1  0.171231  0.828769  0.051791  1
  N  N14  1  0.671231  0.328769  0.448209  1
  N  N15  1  0.328769  0.671231  0.551791  1
  N  N16  1  0.588789  0.411211  0.868489  1
  N  N17  1  0.411211  0.588789  0.131511  1
  N  N18  1  0.911211  0.088789  0.368489  1
  N  N19  1  0.088789  0.911211  0.631511  1
  N  N20  1  0.527126  0.972874  0.750000  1
  N  N21  1  0.972874  0.527126  0.250000  1
  N  N22  1  0.472874  0.027126  0.250000  1
  N  N23  1  0.027126  0.472874  0.750000  1
