# generated using pymatgen
data_RbHoTe4
_symmetry_space_group_name_H-M   'P 1'
_cell_length_a   6.85501800
_cell_length_b   6.85501800
_cell_length_c   9.23461500
_cell_angle_alpha   90.00000000
_cell_angle_beta   90.00000000
_cell_angle_gamma   90.00000000
_symmetry_Int_Tables_number   1
_chemical_formula_structural   RbHoTe4
_chemical_formula_sum   'Rb2 Ho2 Te8'
_cell_volume   433.94630325
_cell_formula_units_Z   2
loop_
 _symmetry_equiv_pos_site_id
 _symmetry_equiv_pos_as_xyz
  1  'x, y, z'
loop_
 _atom_site_type_symbol
 _atom_site_label
 _atom_site_symmetry_multiplicity
 _atom_site_fract_x
 _atom_site_fract_y
 _atom_site_fract_z
 _atom_site_occupancy
  Rb  Rb0  1  0.500000  0.500000  0.000000  1
  Rb  Rb1  1  0.000000  0.000000  0.000000  1
  Ho  Ho2  1  0.500000  0.500000  0.500000  1
  Ho  Ho3  1  0.000000  0.000000  0.500000  1
  Te  Te4  1  0.353050  0.853050  0.301591  1
  Te  Te5  1  0.146950  0.353050  0.301591  1
  Te  Te6  1  0.853050  0.646950  0.301591  1
  Te  Te7  1  0.353050  0.146950  0.698409  1
  Te  Te8  1  0.646950  0.853050  0.698409  1
  Te  Te9  1  0.646950  0.146950  0.301591  1
  Te  Te10  1  0.853050  0.353050  0.698409  1
  Te  Te11  1  0.146950  0.646950  0.698409  1
