# generated using pymatgen
data_Tb4ErTm3Ga3Co
_symmetry_space_group_name_H-M   'P 1'
_cell_length_a   9.93458901
_cell_length_b   9.93458705
_cell_length_c   6.97509100
_cell_angle_alpha   90.00221088
_cell_angle_beta   89.99778953
_cell_angle_gamma   119.99690590
_symmetry_Int_Tables_number   1
_chemical_formula_structural   Tb4ErTm3Ga3Co
_chemical_formula_sum   'Tb8 Er2 Tm6 Ga6 Co2'
_cell_volume   596.20247347
_cell_formula_units_Z   2
loop_
 _symmetry_equiv_pos_site_id
 _symmetry_equiv_pos_as_xyz
  1  'x, y, z'
loop_
 _atom_site_type_symbol
 _atom_site_label
 _atom_site_symmetry_multiplicity
 _atom_site_fract_x
 _atom_site_fract_y
 _atom_site_fract_z
 _atom_site_occupancy
  Tb  Tb0  1  0.536578  0.072691  0.791580  1
  Tb  Tb1  1  0.927309  0.463422  0.791580  1
  Tb  Tb2  1  0.536346  0.463654  0.791832  1
  Tb  Tb3  1  0.463762  0.927133  0.291157  1
  Tb  Tb4  1  0.072867  0.536238  0.291157  1
  Tb  Tb5  1  0.463436  0.536564  0.291047  1
  Tb  Tb6  1  0.999827  0.000173  0.769320  1
  Tb  Tb7  1  0.999929  0.000071  0.268054  1
  Er  Er8  1  0.826607  0.653275  0.486887  1
  Er  Er9  1  0.346725  0.173393  0.486887  1
  Tm  Tm10  1  0.826534  0.173466  0.486844  1
  Tm  Tm11  1  0.173445  0.346885  0.986753  1
  Tm  Tm12  1  0.653115  0.826555  0.986753  1
  Tm  Tm13  1  0.173459  0.826541  0.986815  1
  Tm  Tm14  1  0.666789  0.333211  0.174101  1
  Tm  Tm15  1  0.333331  0.666669  0.674752  1
  Ga  Ga16  1  0.836434  0.672833  0.043638  1
  Ga  Ga17  1  0.327167  0.163566  0.043638  1
  Ga  Ga18  1  0.836494  0.163506  0.044449  1
  Ga  Ga19  1  0.163323  0.327841  0.544701  1
  Ga  Ga20  1  0.672159  0.836677  0.544701  1
  Ga  Ga21  1  0.164138  0.835862  0.544790  1
  Co  Co22  1  0.666889  0.333111  0.552399  1
  Co  Co23  1  0.333336  0.666664  0.052242  1
