# generated using pymatgen
data_Yb6Y3TmSn8
_symmetry_space_group_name_H-M   'P 1'
_cell_length_a   7.81593073
_cell_length_b   8.42623351
_cell_length_c   16.07118680
_cell_angle_alpha   89.95759684
_cell_angle_beta   89.98153518
_cell_angle_gamma   90.10271267
_symmetry_Int_Tables_number   1
_chemical_formula_structural   Yb6Y3TmSn8
_chemical_formula_sum   'Yb12 Y6 Tm2 Sn16'
_cell_volume   1058.42795380
_cell_formula_units_Z   2
loop_
 _symmetry_equiv_pos_site_id
 _symmetry_equiv_pos_as_xyz
  1  'x, y, z'
loop_
 _atom_site_type_symbol
 _atom_site_label
 _atom_site_symmetry_multiplicity
 _atom_site_fract_x
 _atom_site_fract_y
 _atom_site_fract_z
 _atom_site_occupancy
  Yb  Yb0  1  0.176791  0.334013  0.620763  1
  Yb  Yb1  1  0.501854  0.687360  0.593459  1
  Yb  Yb2  1  0.002262  0.814562  0.908793  1
  Yb  Yb3  1  0.494749  0.311661  0.092146  1
  Yb  Yb4  1  0.997894  0.188985  0.407256  1
  Yb  Yb5  1  0.495561  0.311751  0.407895  1
  Yb  Yb6  1  0.996018  0.187864  0.092570  1
  Yb  Yb7  1  0.501874  0.687682  0.907203  1
  Yb  Yb8  1  0.004193  0.813171  0.591737  1
  Yb  Yb9  1  0.334157  0.989949  0.749373  1
  Yb  Yb10  1  0.164428  0.487350  0.249682  1
  Yb  Yb11  1  0.665749  0.011378  0.250355  1
  Y  Y12  1  0.673151  0.163761  0.622470  1
  Y  Y13  1  0.173847  0.332963  0.878806  1
  Y  Y14  1  0.326852  0.833970  0.121534  1
  Y  Y15  1  0.827919  0.663558  0.377994  1
  Y  Y16  1  0.326437  0.834416  0.377683  1
  Y  Y17  1  0.826365  0.664777  0.120921  1
  Tm  Tm18  1  0.672278  0.164067  0.878573  1
  Tm  Tm19  1  0.838289  0.510077  0.748716  1
  Sn  Sn20  1  0.674533  0.962957  0.459516  1
  Sn  Sn21  1  0.170050  0.535193  0.040220  1
  Sn  Sn22  1  0.330362  0.035835  0.959082  1
  Sn  Sn23  1  0.826243  0.467581  0.543632  1
  Sn  Sn24  1  0.334660  0.034375  0.540452  1
  Sn  Sn25  1  0.826412  0.465991  0.955063  1
  Sn  Sn26  1  0.671679  0.965159  0.039975  1
  Sn  Sn27  1  0.168712  0.536831  0.458051  1
  Sn  Sn28  1  0.477253  0.381977  0.753667  1
  Sn  Sn29  1  0.967735  0.127187  0.751356  1
  Sn  Sn30  1  0.528968  0.625834  0.249472  1
  Sn  Sn31  1  0.028841  0.873722  0.248559  1
  Sn  Sn32  1  0.719765  0.866096  0.751821  1
  Sn  Sn33  1  0.210871  0.628411  0.752669  1
  Sn  Sn34  1  0.282615  0.127185  0.249374  1
  Sn  Sn35  1  0.780635  0.372354  0.249164  1
