# generated using pymatgen
data_Sr8Fe7WO24
_symmetry_space_group_name_H-M   'P 1'
_cell_length_a   7.87725508
_cell_length_b   7.87725501
_cell_length_c   7.87725416
_cell_angle_alpha   89.99334490
_cell_angle_beta   89.99334352
_cell_angle_gamma   89.99334464
_symmetry_Int_Tables_number   1
_chemical_formula_structural   Sr8Fe7WO24
_chemical_formula_sum   'Sr8 Fe7 W1 O24'
_cell_volume   488.79264619
_cell_formula_units_Z   1
loop_
 _symmetry_equiv_pos_site_id
 _symmetry_equiv_pos_as_xyz
  1  'x, y, z'
loop_
 _atom_site_type_symbol
 _atom_site_label
 _atom_site_symmetry_multiplicity
 _atom_site_fract_x
 _atom_site_fract_y
 _atom_site_fract_z
 _atom_site_occupancy
  Sr  Sr0  1  0.757586  0.242389  0.757586  1
  Sr  Sr1  1  0.757607  0.242357  0.242357  1
  Sr  Sr2  1  0.757586  0.757586  0.242389  1
  Sr  Sr3  1  0.242357  0.242357  0.757607  1
  Sr  Sr4  1  0.242302  0.242302  0.242302  1
  Sr  Sr5  1  0.242389  0.757586  0.757586  1
  Sr  Sr6  1  0.242357  0.757607  0.242357  1
  Sr  Sr7  1  0.757589  0.757589  0.757589  1
  Fe  Fe8  1  0.500018  0.999998  0.999998  1
  Fe  Fe9  1  0.500006  0.000043  0.500006  1
  Fe  Fe10  1  0.500006  0.500006  0.000043  1
  Fe  Fe11  1  0.999975  0.999975  0.999975  1
  Fe  Fe12  1  0.999998  0.999998  0.500018  1
  Fe  Fe13  1  0.999998  0.500018  0.999998  1
  Fe  Fe14  1  0.000043  0.500006  0.500006  1
  W  W15  1  0.500072  0.500072  0.500072  1
  O  O16  1  0.752741  0.000044  0.000044  1
  O  O17  1  0.750952  0.000036  0.499989  1
  O  O18  1  0.750952  0.499989  0.000036  1
  O  O19  1  0.745061  0.499929  0.499929  1
  O  O20  1  0.247265  0.999927  0.999927  1
  O  O21  1  0.249055  0.999968  0.500099  1
  O  O22  1  0.249055  0.500099  0.999968  1
  O  O23  1  0.254926  0.500062  0.500062  1
  O  O24  1  0.500099  0.249055  0.999968  1
  O  O25  1  0.500062  0.254926  0.500062  1
  O  O26  1  0.499989  0.750952  0.000036  1
  O  O27  1  0.499929  0.745061  0.499929  1
  O  O28  1  0.999927  0.247265  0.999927  1
  O  O29  1  0.999968  0.249055  0.500099  1
  O  O30  1  0.000044  0.752741  0.000044  1
  O  O31  1  0.000036  0.750952  0.499989  1
  O  O32  1  0.499989  0.000036  0.750952  1
  O  O33  1  0.500099  0.999968  0.249055  1
  O  O34  1  0.499929  0.499929  0.745061  1
  O  O35  1  0.500062  0.500062  0.254926  1
  O  O36  1  0.000044  0.000044  0.752741  1
  O  O37  1  0.999927  0.999927  0.247265  1
  O  O38  1  0.000036  0.499989  0.750952  1
  O  O39  1  0.999968  0.500099  0.249055  1
