# generated using pymatgen
data_Nd8Ho12Bi11Pb5
_symmetry_space_group_name_H-M   'P 1'
_cell_length_a   8.40529500
_cell_length_b   8.38728898
_cell_length_c   15.70734700
_cell_angle_alpha   90.00000000
_cell_angle_beta   90.00000000
_cell_angle_gamma   90.24387684
_symmetry_Int_Tables_number   1
_chemical_formula_structural   Nd8Ho12Bi11Pb5
_chemical_formula_sum   'Nd8 Ho12 Bi11 Pb5'
_cell_volume   1107.32083349
_cell_formula_units_Z   1
loop_
 _symmetry_equiv_pos_site_id
 _symmetry_equiv_pos_as_xyz
  1  'x, y, z'
loop_
 _atom_site_type_symbol
 _atom_site_label
 _atom_site_symmetry_multiplicity
 _atom_site_fract_x
 _atom_site_fract_y
 _atom_site_fract_z
 _atom_site_occupancy
  Nd  Nd0  1  0.473768  0.680853  0.596480  1
  Nd  Nd1  1  0.973880  0.821022  0.903410  1
  Nd  Nd2  1  0.527247  0.319303  0.097567  1
  Nd  Nd3  1  0.025395  0.177622  0.403834  1
  Nd  Nd4  1  0.527247  0.319303  0.402433  1
  Nd  Nd5  1  0.025395  0.177622  0.096166  1
  Nd  Nd6  1  0.473768  0.680853  0.903520  1
  Nd  Nd7  1  0.973880  0.821022  0.596590  1
  Ho  Ho8  1  0.644338  0.149818  0.624481  1
  Ho  Ho9  1  0.141261  0.350539  0.875413  1
  Ho  Ho10  1  0.354827  0.849160  0.124775  1
  Ho  Ho11  1  0.862444  0.653468  0.374528  1
  Ho  Ho12  1  0.354827  0.849160  0.375225  1
  Ho  Ho13  1  0.862444  0.653468  0.125472  1
  Ho  Ho14  1  0.644338  0.149818  0.875519  1
  Ho  Ho15  1  0.141261  0.350539  0.624587  1
  Ho  Ho16  1  0.809766  0.504243  0.750000  1
  Ho  Ho17  1  0.310232  0.996166  0.750000  1
  Ho  Ho18  1  0.191588  0.496390  0.250000  1
  Ho  Ho19  1  0.691810  0.003742  0.250000  1
  Bi  Bi20  1  0.705175  0.957202  0.454442  1
  Bi  Bi21  1  0.208889  0.539976  0.045649  1
  Bi  Bi22  1  0.292329  0.042358  0.953367  1
  Bi  Bi23  1  0.791548  0.459229  0.545542  1
  Bi  Bi24  1  0.292329  0.042358  0.546633  1
  Bi  Bi25  1  0.791548  0.459229  0.954458  1
  Bi  Bi26  1  0.705175  0.957202  0.045558  1
  Bi  Bi27  1  0.208889  0.539976  0.454351  1
  Bi  Bi28  1  0.443978  0.369094  0.750000  1
  Bi  Bi29  1  0.943844  0.130196  0.750000  1
  Bi  Bi30  1  0.555992  0.630374  0.250000  1
  Pb  Pb31  1  0.055025  0.872208  0.250000  1
  Pb  Pb32  1  0.658207  0.844411  0.750000  1
  Pb  Pb33  1  0.158395  0.655663  0.750000  1
  Pb  Pb34  1  0.336363  0.152355  0.250000  1
  Pb  Pb35  1  0.842595  0.344056  0.250000  1
