# generated using pymatgen
data_Ho10(IrRu)3
_symmetry_space_group_name_H-M   'P 1'
_cell_length_a   10.78314445
_cell_length_b   10.77935100
_cell_length_c   6.37495785
_cell_angle_alpha   90.00000000
_cell_angle_beta   89.94062428
_cell_angle_gamma   90.00000000
_symmetry_Int_Tables_number   1
_chemical_formula_structural   Ho10(IrRu)3
_chemical_formula_sum   'Ho20 Ir6 Ru6'
_cell_volume   740.99473385
_cell_formula_units_Z   2
loop_
 _symmetry_equiv_pos_site_id
 _symmetry_equiv_pos_as_xyz
  1  'x, y, z'
loop_
 _atom_site_type_symbol
 _atom_site_label
 _atom_site_symmetry_multiplicity
 _atom_site_fract_x
 _atom_site_fract_y
 _atom_site_fract_z
 _atom_site_occupancy
  Ho  Ho0  1  0.293082  0.086216  0.378202  1
  Ho  Ho1  1  0.293082  0.913784  0.878202  1
  Ho  Ho2  1  0.707711  0.086339  0.877412  1
  Ho  Ho3  1  0.707711  0.913661  0.377412  1
  Ho  Ho4  1  0.587297  0.793537  0.878366  1
  Ho  Ho5  1  0.587297  0.206463  0.378366  1
  Ho  Ho6  1  0.413548  0.793724  0.377572  1
  Ho  Ho7  1  0.413548  0.206276  0.877572  1
  Ho  Ho8  1  0.206273  0.413592  0.621776  1
  Ho  Ho9  1  0.206273  0.586408  0.121776  1
  Ho  Ho10  1  0.793472  0.412721  0.122192  1
  Ho  Ho11  1  0.793472  0.587279  0.622192  1
  Ho  Ho12  1  0.913551  0.707163  0.121792  1
  Ho  Ho13  1  0.913551  0.292837  0.621792  1
  Ho  Ho14  1  0.086044  0.707636  0.622713  1
  Ho  Ho15  1  0.086044  0.292364  0.122713  1
  Ho  Ho16  1  0.998644  0.000532  0.499825  1
  Ho  Ho17  1  0.998644  0.999468  0.999825  1
  Ho  Ho18  1  0.499935  0.500294  0.000152  1
  Ho  Ho19  1  0.499935  0.499706  0.500152  1
  Ir  Ir20  1  0.153847  0.153538  0.750207  1
  Ir  Ir21  1  0.153847  0.846462  0.250207  1
  Ir  Ir22  1  0.652412  0.347914  0.749706  1
  Ir  Ir23  1  0.652412  0.652086  0.249706  1
  Ir  Ir24  1  0.347351  0.346908  0.250352  1
  Ir  Ir25  1  0.347351  0.653092  0.750352  1
  Ru  Ru26  1  0.847079  0.153010  0.249776  1
  Ru  Ru27  1  0.847079  0.846990  0.749776  1
  Ru  Ru28  1  0.500122  0.000223  0.122401  1
  Ru  Ru29  1  0.500122  0.999777  0.622401  1
  Ru  Ru30  1  0.999631  0.500321  0.877556  1
  Ru  Ru31  1  0.999631  0.499679  0.377556  1
