# generated using pymatgen
data_Nb2Ni2PdS8
_symmetry_space_group_name_H-M   'P 1'
_cell_length_a   10.35121000
_cell_length_b   14.47270400
_cell_length_c   3.35166800
_cell_angle_alpha   90.00000000
_cell_angle_beta   90.00000000
_cell_angle_gamma   90.00000000
_symmetry_Int_Tables_number   1
_chemical_formula_structural   Nb2Ni2PdS8
_chemical_formula_sum   'Nb4 Ni4 Pd2 S16'
_cell_volume   502.11337762
_cell_formula_units_Z   2
loop_
 _symmetry_equiv_pos_site_id
 _symmetry_equiv_pos_as_xyz
  1  'x, y, z'
loop_
 _atom_site_type_symbol
 _atom_site_label
 _atom_site_symmetry_multiplicity
 _atom_site_fract_x
 _atom_site_fract_y
 _atom_site_fract_z
 _atom_site_occupancy
  Nb  Nb0  1  0.298321  0.122687  0.000000  1
  Nb  Nb1  1  0.798321  0.377313  0.000000  1
  Nb  Nb2  1  0.201678  0.622687  0.000000  1
  Nb  Nb3  1  0.701679  0.877313  0.000000  1
  Ni  Ni4  1  0.129879  0.227400  0.500000  1
  Ni  Ni5  1  0.629878  0.272600  0.500000  1
  Ni  Ni6  1  0.370121  0.727400  0.500000  1
  Ni  Ni7  1  0.870122  0.772600  0.500000  1
  Pd  Pd8  1  0.500000  0.000000  0.500000  1
  Pd  Pd9  1  0.000000  0.500000  0.500000  1
  S  S10  1  0.062699  0.135696  0.000000  1
  S  S11  1  0.748120  0.213288  0.000000  1
  S  S12  1  0.248120  0.286712  0.000000  1
  S  S13  1  0.562699  0.364304  0.000000  1
  S  S14  1  0.437301  0.635696  0.000000  1
  S  S15  1  0.751880  0.713288  0.000000  1
  S  S16  1  0.251880  0.786713  0.000000  1
  S  S17  1  0.937301  0.864304  0.000000  1
  S  S18  1  0.728144  0.002231  0.500000  1
  S  S19  1  0.469682  0.161611  0.500000  1
  S  S20  1  0.969681  0.338389  0.500000  1
  S  S21  1  0.228144  0.497769  0.500000  1
  S  S22  1  0.771856  0.502232  0.500000  1
  S  S23  1  0.030319  0.661611  0.500000  1
  S  S24  1  0.530319  0.838389  0.500000  1
  S  S25  1  0.271856  0.997769  0.500000  1
