# generated using pymatgen
data_La3SmHfZr3F28
_symmetry_space_group_name_H-M   'P 1'
_cell_length_a   5.92428988
_cell_length_b   9.41562601
_cell_length_c   12.63422032
_cell_angle_alpha   62.07133704
_cell_angle_beta   90.02068162
_cell_angle_gamma   89.96442686
_symmetry_Int_Tables_number   1
_chemical_formula_structural   La3SmHfZr3F28
_chemical_formula_sum   'La3 Sm1 Hf1 Zr3 F28'
_cell_volume   622.66685577
_cell_formula_units_Z   1
loop_
 _symmetry_equiv_pos_site_id
 _symmetry_equiv_pos_as_xyz
  1  'x, y, z'
loop_
 _atom_site_type_symbol
 _atom_site_label
 _atom_site_symmetry_multiplicity
 _atom_site_fract_x
 _atom_site_fract_y
 _atom_site_fract_z
 _atom_site_occupancy
  La  La0  1  0.743129  0.809663  0.266948  1
  La  La1  1  0.242819  0.187345  0.234241  1
  La  La2  1  0.256804  0.184673  0.732327  1
  Sm  Sm3  1  0.757253  0.811558  0.766152  1
  Hf  Hf4  1  0.744859  0.270758  0.456853  1
  Zr  Zr5  1  0.244814  0.726446  0.040659  1
  Zr  Zr6  1  0.255850  0.725925  0.548724  1
  Zr  Zr7  1  0.755477  0.278037  0.953222  1
  F  F8  1  0.464272  0.713962  0.920802  1
  F  F9  1  0.955694  0.287699  0.574421  1
  F  F10  1  0.542790  0.290589  0.075121  1
  F  F11  1  0.043195  0.712092  0.427209  1
  F  F12  1  0.466620  0.282536  0.544435  1
  F  F13  1  0.961508  0.719550  0.948569  1
  F  F14  1  0.535905  0.716548  0.456810  1
  F  F15  1  0.038341  0.285707  0.043862  1
  F  F16  1  0.764986  0.523808  0.858627  1
  F  F17  1  0.265979  0.481905  0.641386  1
  F  F18  1  0.231527  0.482783  0.137916  1
  F  F19  1  0.733928  0.511869  0.363278  1
  F  F20  1  0.760461  0.034181  0.053641  1
  F  F21  1  0.260594  0.969392  0.447297  1
  F  F22  1  0.239381  0.970488  0.944609  1
  F  F23  1  0.740606  0.030668  0.558074  1
  F  F24  1  0.989101  0.734816  0.648690  1
  F  F25  1  0.489598  0.268752  0.854092  1
  F  F26  1  0.007557  0.266304  0.358317  1
  F  F27  1  0.509625  0.731369  0.142331  1
  F  F28  1  0.041732  0.743708  0.166233  1
  F  F29  1  0.544470  0.254153  0.333824  1
  F  F30  1  0.958502  0.258038  0.829201  1
  F  F31  1  0.465744  0.747200  0.670915  1
  F  F32  1  0.419989  0.968594  0.233791  1
  F  F33  1  0.918811  0.029762  0.266584  1
  F  F34  1  0.578878  0.022337  0.765978  1
  F  F35  1  0.069199  0.966789  0.734863  1
