# generated using pymatgen
data_Tb3Ho7In4(NiHg)4
_symmetry_space_group_name_H-M   'P 1'
_cell_length_a   7.79670114
_cell_length_b   18.04476230
_cell_length_c   3.61397700
_cell_angle_alpha   90.00000000
_cell_angle_beta   90.00000000
_cell_angle_gamma   89.97879152
_symmetry_Int_Tables_number   1
_chemical_formula_structural   Tb3Ho7In4(NiHg)4
_chemical_formula_sum   'Tb3 Ho7 In4 Ni4 Hg4'
_cell_volume   508.44901147
_cell_formula_units_Z   1
loop_
 _symmetry_equiv_pos_site_id
 _symmetry_equiv_pos_as_xyz
  1  'x, y, z'
loop_
 _atom_site_type_symbol
 _atom_site_label
 _atom_site_symmetry_multiplicity
 _atom_site_fract_x
 _atom_site_fract_y
 _atom_site_fract_z
 _atom_site_occupancy
  Tb  Tb0  1  0.499826  0.500140  0.000000  1
  Tb  Tb1  1  0.000216  0.999914  0.000000  1
  Tb  Tb2  1  0.752600  0.281415  0.000000  1
  Ho  Ho3  1  0.246998  0.718802  0.000000  1
  Ho  Ho4  1  0.747286  0.781407  0.000000  1
  Ho  Ho5  1  0.252782  0.218516  0.000000  1
  Ho  Ho6  1  0.612839  0.088252  0.000000  1
  Ho  Ho7  1  0.387154  0.911023  0.000000  1
  Ho  Ho8  1  0.887296  0.588829  0.000000  1
  Ho  Ho9  1  0.113185  0.411533  0.000000  1
  In  In10  1  0.573113  0.653167  0.500000  1
  In  In11  1  0.426156  0.347169  0.500000  1
  In  In12  1  0.928067  0.152474  0.500000  1
  In  In13  1  0.072643  0.847255  0.500000  1
  Ni  Ni14  1  0.537185  0.196619  0.500000  1
  Ni  Ni15  1  0.461519  0.802221  0.500000  1
  Ni  Ni16  1  0.960926  0.697376  0.500000  1
  Ni  Ni17  1  0.039531  0.302663  0.500000  1
  Hg  Hg18  1  0.707677  0.930807  0.500000  1
  Hg  Hg19  1  0.292232  0.068952  0.500000  1
  Hg  Hg20  1  0.792649  0.431883  0.500000  1
  Hg  Hg21  1  0.208120  0.569581  0.500000  1
