# generated using pymatgen
data_Ba4Sr4V3PN12
_symmetry_space_group_name_H-M   'P 1'
_cell_length_a   6.38535399
_cell_length_b   6.38535436
_cell_length_c   12.53916227
_cell_angle_alpha   89.73502112
_cell_angle_beta   90.26497775
_cell_angle_gamma   126.34362579
_symmetry_Int_Tables_number   1
_chemical_formula_structural   Ba4Sr4V3PN12
_chemical_formula_sum   'Ba4 Sr4 V3 P1 N12'
_cell_volume   411.79964572
_cell_formula_units_Z   1
loop_
 _symmetry_equiv_pos_site_id
 _symmetry_equiv_pos_as_xyz
  1  'x, y, z'
loop_
 _atom_site_type_symbol
 _atom_site_label
 _atom_site_symmetry_multiplicity
 _atom_site_fract_x
 _atom_site_fract_y
 _atom_site_fract_z
 _atom_site_occupancy
  Ba  Ba0  1  0.453394  0.546606  0.645718  1
  Ba  Ba1  1  0.552872  0.447128  0.359882  1
  Ba  Ba2  1  0.048358  0.951642  0.145809  1
  Ba  Ba3  1  0.946968  0.053032  0.854357  1
  Sr  Sr4  1  0.854181  0.145819  0.427943  1
  Sr  Sr5  1  0.353354  0.646646  0.075198  1
  Sr  Sr6  1  0.644199  0.355801  0.920215  1
  Sr  Sr7  1  0.143857  0.856143  0.579116  1
  V  V8  1  0.739176  0.260824  0.163800  1
  V  V9  1  0.241164  0.758836  0.337538  1
  V  V10  1  0.259780  0.740220  0.828477  1
  P  P11  1  0.761732  0.238268  0.663209  1
  N  N12  1  0.962210  0.504499  0.743229  1
  N  N13  1  0.526520  0.973716  0.250600  1
  N  N14  1  0.026284  0.473480  0.250600  1
  N  N15  1  0.495501  0.037790  0.743229  1
  N  N16  1  0.409898  0.590102  0.870359  1
  N  N17  1  0.585883  0.414117  0.127172  1
  N  N18  1  0.088036  0.911964  0.374531  1
  N  N19  1  0.673133  0.326867  0.559481  1
  N  N20  1  0.169943  0.830057  0.943847  1
  N  N21  1  0.828316  0.171684  0.048371  1
  N  N22  1  0.331645  0.668355  0.452830  1
  N  N23  1  0.903598  0.096402  0.634491  1
