# generated using pymatgen
data_Nd5Si2SnH
_symmetry_space_group_name_H-M   'P 1'
_cell_length_a   9.10933551
_cell_length_b   9.10933569
_cell_length_c   9.10933448
_cell_angle_alpha   128.02358788
_cell_angle_beta   128.02357807
_cell_angle_gamma   76.58682572
_symmetry_Int_Tables_number   1
_chemical_formula_structural   Nd5Si2SnH
_chemical_formula_sum   'Nd10 Si4 Sn2 H2'
_cell_volume   455.64091342
_cell_formula_units_Z   2
loop_
 _symmetry_equiv_pos_site_id
 _symmetry_equiv_pos_as_xyz
  1  'x, y, z'
loop_
 _atom_site_type_symbol
 _atom_site_label
 _atom_site_symmetry_multiplicity
 _atom_site_fract_x
 _atom_site_fract_y
 _atom_site_fract_z
 _atom_site_occupancy
  Nd  Nd0  1  0.500000  0.500000  0.000000  1
  Nd  Nd1  1  0.000000  0.000000  0.000000  1
  Nd  Nd2  1  0.524678  0.024678  0.834839  1
  Nd  Nd3  1  0.189841  0.689841  0.165161  1
  Nd  Nd4  1  0.024678  0.189841  0.500000  1
  Nd  Nd5  1  0.689841  0.524678  0.500000  1
  Nd  Nd6  1  0.475322  0.975322  0.165161  1
  Nd  Nd7  1  0.810159  0.310159  0.834839  1
  Nd  Nd8  1  0.975322  0.810159  0.500000  1
  Nd  Nd9  1  0.310159  0.475322  0.500000  1
  Si  Si10  1  0.881788  0.381788  0.263576  1
  Si  Si11  1  0.118212  0.618212  0.736424  1
  Si  Si12  1  0.381788  0.118212  0.500000  1
  Si  Si13  1  0.618212  0.881788  0.500000  1
  Sn  Sn14  1  0.250000  0.250000  0.000000  1
  Sn  Sn15  1  0.750000  0.750000  0.000000  1
  H  H16  1  0.250000  0.750000  0.500000  1
  H  H17  1  0.750000  0.250000  0.500000  1
