# generated using pymatgen
data_Nd16Mg4CuOs3
_symmetry_space_group_name_H-M   'P 1'
_cell_length_a   9.91745367
_cell_length_b   10.08214796
_cell_length_c   10.08214800
_cell_angle_alpha   59.99999986
_cell_angle_beta   59.44912352
_cell_angle_gamma   59.44912546
_symmetry_Int_Tables_number   1
_chemical_formula_structural   Nd16Mg4CuOs3
_chemical_formula_sum   'Nd16 Mg4 Cu1 Os3'
_cell_volume   706.84556473
_cell_formula_units_Z   1
loop_
 _symmetry_equiv_pos_site_id
 _symmetry_equiv_pos_as_xyz
  1  'x, y, z'
loop_
 _atom_site_type_symbol
 _atom_site_label
 _atom_site_symmetry_multiplicity
 _atom_site_fract_x
 _atom_site_fract_y
 _atom_site_fract_z
 _atom_site_occupancy
  Nd  Nd0  1  0.592680  0.598170  0.598170  1
  Nd  Nd1  1  0.592680  0.598170  0.210982  1
  Nd  Nd2  1  0.592680  0.210982  0.598170  1
  Nd  Nd3  1  0.223543  0.592153  0.592153  1
  Nd  Nd4  1  0.066233  0.439275  0.439275  1
  Nd  Nd5  1  0.436996  0.062554  0.062554  1
  Nd  Nd6  1  0.436996  0.062554  0.437896  1
  Nd  Nd7  1  0.066233  0.439275  0.055217  1
  Nd  Nd8  1  0.436996  0.437896  0.062554  1
  Nd  Nd9  1  0.066233  0.055217  0.439275  1
  Nd  Nd10  1  0.186329  0.811990  0.811990  1
  Nd  Nd11  1  0.805585  0.188280  0.188280  1
  Nd  Nd12  1  0.805585  0.188280  0.817856  1
  Nd  Nd13  1  0.186329  0.811990  0.189691  1
  Nd  Nd14  1  0.805585  0.817856  0.188280  1
  Nd  Nd15  1  0.186329  0.189691  0.811990  1
  Mg  Mg16  1  0.828566  0.828527  0.828527  1
  Mg  Mg17  1  0.828566  0.828527  0.514381  1
  Mg  Mg18  1  0.828566  0.514381  0.828527  1
  Mg  Mg19  1  0.513438  0.828854  0.828854  1
  Cu  Cu20  1  0.827790  0.390737  0.390737  1
  Os  Os21  1  0.395355  0.387270  0.387270  1
  Os  Os22  1  0.395355  0.387270  0.830105  1
  Os  Os23  1  0.395355  0.830105  0.387270  1
