# generated using pymatgen
data_Sr8Cd3Si12Ag
_symmetry_space_group_name_H-M   'P 1'
_cell_length_a   11.98701469
_cell_length_b   10.30435457
_cell_length_c   8.51810588
_cell_angle_alpha   78.44036426
_cell_angle_beta   57.32782377
_cell_angle_gamma   44.88187792
_symmetry_Int_Tables_number   1
_chemical_formula_structural   Sr8Cd3Si12Ag
_chemical_formula_sum   'Sr8 Cd3 Si12 Ag1'
_cell_volume   594.86908121
_cell_formula_units_Z   1
loop_
 _symmetry_equiv_pos_site_id
 _symmetry_equiv_pos_as_xyz
  1  'x, y, z'
loop_
 _atom_site_type_symbol
 _atom_site_label
 _atom_site_symmetry_multiplicity
 _atom_site_fract_x
 _atom_site_fract_y
 _atom_site_fract_z
 _atom_site_occupancy
  Sr  Sr0  1  0.127611  0.122687  0.871401  1
  Sr  Sr1  1  0.872128  0.877580  0.127189  1
  Sr  Sr2  1  0.130556  0.126492  0.372267  1
  Sr  Sr3  1  0.373040  0.371056  0.129661  1
  Sr  Sr4  1  0.622181  0.625395  0.377109  1
  Sr  Sr5  1  0.376867  0.375265  0.621757  1
  Sr  Sr6  1  0.628132  0.628428  0.871347  1
  Sr  Sr7  1  0.871005  0.872037  0.629064  1
  Cd  Cd8  1  0.082956  0.417025  0.081036  1
  Cd  Cd9  1  0.833111  0.166665  0.831114  1
  Cd  Cd10  1  0.166733  0.833561  0.168881  1
  Si  Si11  1  0.910343  0.596532  0.432231  1
  Si  Si12  1  0.073122  0.420675  0.589820  1
  Si  Si13  1  0.430508  0.063672  0.911828  1
  Si  Si14  1  0.591183  0.915021  0.071140  1
  Si  Si15  1  0.336443  0.652552  0.821810  1
  Si  Si16  1  0.653503  0.337513  0.188313  1
  Si  Si17  1  0.825080  0.184513  0.334443  1
  Si  Si18  1  0.183730  0.824417  0.656712  1
  Si  Si19  1  0.907688  0.592921  0.909601  1
  Si  Si20  1  0.586829  0.912556  0.585740  1
  Si  Si21  1  0.340183  0.659634  0.338442  1
  Si  Si22  1  0.659910  0.340730  0.661071  1
  Ag  Ag23  1  0.417163  0.083075  0.418019  1
