# generated using pymatgen
data_Er4TmIrPb3
_symmetry_space_group_name_H-M   'P 1'
_cell_length_a   9.14497609
_cell_length_b   9.14497461
_cell_length_c   6.79583300
_cell_angle_alpha   90.00000000
_cell_angle_beta   90.00000000
_cell_angle_gamma   119.98351918
_symmetry_Int_Tables_number   1
_chemical_formula_structural   Er4TmIrPb3
_chemical_formula_sum   'Er8 Tm2 Ir2 Pb6'
_cell_volume   492.27809176
_cell_formula_units_Z   2
loop_
 _symmetry_equiv_pos_site_id
 _symmetry_equiv_pos_as_xyz
  1  'x, y, z'
loop_
 _atom_site_type_symbol
 _atom_site_label
 _atom_site_symmetry_multiplicity
 _atom_site_fract_x
 _atom_site_fract_y
 _atom_site_fract_z
 _atom_site_occupancy
  Er  Er0  1  0.764711  0.764716  0.250000  1
  Er  Er1  1  0.999999  0.764582  0.750000  1
  Er  Er2  1  0.333386  0.666614  0.500000  1
  Er  Er3  1  0.235418  0.000001  0.250000  1
  Er  Er4  1  0.235284  0.235289  0.750000  1
  Er  Er5  1  0.666695  0.333305  0.500000  1
  Er  Er6  1  0.333386  0.666614  0.000000  1
  Er  Er7  1  0.666695  0.333305  0.000000  1
  Tm  Tm8  1  0.000002  0.235047  0.250000  1
  Tm  Tm9  1  0.764953  0.999998  0.750000  1
  Ir  Ir10  1  0.999652  0.000348  0.000000  1
  Ir  Ir11  1  0.999652  0.000348  0.500000  1
  Pb  Pb12  1  0.405639  0.000021  0.750000  1
  Pb  Pb13  1  0.594832  0.000132  0.250000  1
  Pb  Pb14  1  0.405200  0.405350  0.250000  1
  Pb  Pb15  1  0.999979  0.594361  0.250000  1
  Pb  Pb16  1  0.999868  0.405168  0.750000  1
  Pb  Pb17  1  0.594650  0.594800  0.750000  1
