# generated using pymatgen
data_Pr20Ga2Si9Au
_symmetry_space_group_name_H-M   'P 1'
_cell_length_a   7.83747700
_cell_length_b   7.83747700
_cell_length_c   14.53497600
_cell_angle_alpha   90.00000000
_cell_angle_beta   90.00000000
_cell_angle_gamma   90.00000000
_symmetry_Int_Tables_number   1
_chemical_formula_structural   Pr20Ga2Si9Au
_chemical_formula_sum   'Pr20 Ga2 Si9 Au1'
_cell_volume   892.82610040
_cell_formula_units_Z   1
loop_
 _symmetry_equiv_pos_site_id
 _symmetry_equiv_pos_as_xyz
  1  'x, y, z'
loop_
 _atom_site_type_symbol
 _atom_site_label
 _atom_site_symmetry_multiplicity
 _atom_site_fract_x
 _atom_site_fract_y
 _atom_site_fract_z
 _atom_site_occupancy
  Pr  Pr0  1  0.811087  0.837252  0.607132  1
  Pr  Pr1  1  0.186705  0.831607  0.108817  1
  Pr  Pr2  1  0.172728  0.817551  0.394410  1
  Pr  Pr3  1  0.000000  0.500000  0.722809  1
  Pr  Pr4  1  0.827272  0.182449  0.394410  1
  Pr  Pr5  1  0.682449  0.672728  0.394410  1
  Pr  Pr6  1  0.662748  0.311087  0.607132  1
  Pr  Pr7  1  0.337252  0.688913  0.607132  1
  Pr  Pr8  1  0.000000  0.500000  0.227614  1
  Pr  Pr9  1  0.668393  0.686705  0.108817  1
  Pr  Pr10  1  0.683293  0.329191  0.891501  1
  Pr  Pr11  1  0.829191  0.816707  0.891501  1
  Pr  Pr12  1  0.317551  0.327272  0.394410  1
  Pr  Pr13  1  0.188913  0.162748  0.607132  1
  Pr  Pr14  1  0.813295  0.168393  0.108817  1
  Pr  Pr15  1  0.316707  0.670809  0.891501  1
  Pr  Pr16  1  0.331607  0.313295  0.108817  1
  Pr  Pr17  1  0.500000  0.000000  0.270090  1
  Pr  Pr18  1  0.170809  0.183293  0.891501  1
  Pr  Pr19  1  0.500000  0.000000  0.770245  1
  Ga  Ga20  1  0.500000  0.000000  0.995121  1
  Ga  Ga21  1  0.000000  0.500000  0.004640  1
  Si  Si22  1  0.614701  0.387267  0.251479  1
  Si  Si23  1  0.113314  0.884649  0.749635  1
  Si  Si24  1  0.384649  0.386686  0.749635  1
  Si  Si25  1  0.385299  0.612733  0.251479  1
  Si  Si26  1  0.887267  0.885299  0.251479  1
  Si  Si27  1  0.615351  0.613314  0.749635  1
  Si  Si28  1  0.886686  0.115351  0.749635  1
  Si  Si29  1  0.500000  0.000000  0.493496  1
  Si  Si30  1  0.112733  0.114701  0.251479  1
  Au  Au31  1  0.000000  0.500000  0.504089  1
