# generated using pymatgen
data_Ca12CdSi11Au12
_symmetry_space_group_name_H-M   'P 1'
_cell_length_a   4.44946700
_cell_length_b   7.67886662
_cell_length_c   22.17082500
_cell_angle_alpha   89.82064789
_cell_angle_beta   90.00000000
_cell_angle_gamma   90.00000000
_symmetry_Int_Tables_number   1
_chemical_formula_structural   Ca12CdSi11Au12
_chemical_formula_sum   'Ca12 Cd1 Si11 Au12'
_cell_volume   757.50384304
_cell_formula_units_Z   1
loop_
 _symmetry_equiv_pos_site_id
 _symmetry_equiv_pos_as_xyz
  1  'x, y, z'
loop_
 _atom_site_type_symbol
 _atom_site_label
 _atom_site_symmetry_multiplicity
 _atom_site_fract_x
 _atom_site_fract_y
 _atom_site_fract_z
 _atom_site_occupancy
  Ca  Ca0  1  0.750000  0.209798  0.496999  1
  Ca  Ca1  1  0.250000  0.797270  0.166577  1
  Ca  Ca2  1  0.250000  0.788538  0.498591  1
  Ca  Ca3  1  0.250000  0.799277  0.834297  1
  Ca  Ca4  1  0.250000  0.702811  0.332247  1
  Ca  Ca5  1  0.750000  0.201857  0.838921  1
  Ca  Ca6  1  0.750000  0.286238  0.000380  1
  Ca  Ca7  1  0.750000  0.294956  0.663492  1
  Ca  Ca8  1  0.750000  0.296053  0.333247  1
  Ca  Ca9  1  0.250000  0.699736  0.662228  1
  Ca  Ca10  1  0.250000  0.713732  0.001922  1
  Ca  Ca11  1  0.750000  0.203504  0.167719  1
  Cd  Cd12  1  0.750000  0.910771  0.724992  1
  Si  Si13  1  0.250000  0.407090  0.564993  1
  Si  Si14  1  0.250000  0.083531  0.391152  1
  Si  Si15  1  0.250000  0.091676  0.069778  1
  Si  Si16  1  0.250000  0.418361  0.895290  1
  Si  Si17  1  0.750000  0.584902  0.108333  1
  Si  Si18  1  0.250000  0.426648  0.781064  1
  Si  Si19  1  0.750000  0.581900  0.223970  1
  Si  Si20  1  0.750000  0.588541  0.430249  1
  Si  Si21  1  0.750000  0.909179  0.934717  1
  Si  Si22  1  0.250000  0.081693  0.275793  1
  Si  Si23  1  0.750000  0.913225  0.597308  1
  Au  Au24  1  0.250000  0.083369  0.593174  1
  Au  Au25  1  0.250000  0.121774  0.742566  1
  Au  Au26  1  0.750000  0.585579  0.907609  1
  Au  Au27  1  0.750000  0.914580  0.403466  1
  Au  Au28  1  0.750000  0.580098  0.565120  1
  Au  Au29  1  0.750000  0.566530  0.765692  1
  Au  Au30  1  0.250000  0.416183  0.431821  1
  Au  Au31  1  0.250000  0.412512  0.238007  1
  Au  Au32  1  0.750000  0.916788  0.068121  1
  Au  Au33  1  0.250000  0.415700  0.094972  1
  Au  Au34  1  0.250000  0.083172  0.933549  1
  Au  Au35  1  0.750000  0.912426  0.261640  1
