# generated using pymatgen
data_La8BeSi11Pt4
_symmetry_space_group_name_H-M   'P 1'
_cell_length_a   8.33309005
_cell_length_b   8.33326051
_cell_length_c   8.81341900
_cell_angle_alpha   89.99573028
_cell_angle_beta   90.00600936
_cell_angle_gamma   120.03120431
_symmetry_Int_Tables_number   1
_chemical_formula_structural   La8BeSi11Pt4
_chemical_formula_sum   'La8 Be1 Si11 Pt4'
_cell_volume   529.85792752
_cell_formula_units_Z   1
loop_
 _symmetry_equiv_pos_site_id
 _symmetry_equiv_pos_as_xyz
  1  'x, y, z'
loop_
 _atom_site_type_symbol
 _atom_site_label
 _atom_site_symmetry_multiplicity
 _atom_site_fract_x
 _atom_site_fract_y
 _atom_site_fract_z
 _atom_site_occupancy
  La  La0  1  0.997955  0.002047  0.250379  1
  La  La1  1  0.998013  0.001986  0.749559  1
  La  La2  1  0.501601  0.498408  0.253907  1
  La  La3  1  0.499067  0.998565  0.255743  1
  La  La4  1  0.001421  0.500922  0.255744  1
  La  La5  1  0.500633  0.499376  0.746139  1
  La  La6  1  0.498082  0.996732  0.744106  1
  La  La7  1  0.003266  0.501916  0.744114  1
  Be  Be8  1  0.163308  0.836694  0.500212  1
  Si  Si9  1  0.168717  0.331771  0.500400  1
  Si  Si10  1  0.668221  0.831280  0.500399  1
  Si  Si11  1  0.834220  0.165774  0.499618  1
  Si  Si12  1  0.848735  0.677015  0.500025  1
  Si  Si13  1  0.322991  0.151266  0.500028  1
  Si  Si14  1  0.834777  0.165221  0.001499  1
  Si  Si15  1  0.833706  0.667812  0.001384  1
  Si  Si16  1  0.332197  0.166298  0.001388  1
  Si  Si17  1  0.165712  0.834295  0.998185  1
  Si  Si18  1  0.166640  0.331967  0.998408  1
  Si  Si19  1  0.668032  0.833364  0.998406  1
  Pt  Pt20  1  0.327295  0.672691  0.499511  1
  Pt  Pt21  1  0.664397  0.335609  0.500192  1
  Pt  Pt22  1  0.667639  0.332370  0.997117  1
  Pt  Pt23  1  0.333375  0.666623  0.003537  1
