# generated using pymatgen
data_Tb3Y(Er2Rh)4
_symmetry_space_group_name_H-M   'P 1'
_cell_length_a   6.27231019
_cell_length_b   7.16996873
_cell_length_c   9.37910000
_cell_angle_alpha   90.00000000
_cell_angle_beta   90.00000000
_cell_angle_gamma   89.88667528
_symmetry_Int_Tables_number   1
_chemical_formula_structural   Tb3Y(Er2Rh)4
_chemical_formula_sum   'Tb3 Y1 Er8 Rh4'
_cell_volume   421.79857330
_cell_formula_units_Z   1
loop_
 _symmetry_equiv_pos_site_id
 _symmetry_equiv_pos_as_xyz
  1  'x, y, z'
loop_
 _atom_site_type_symbol
 _atom_site_label
 _atom_site_symmetry_multiplicity
 _atom_site_fract_x
 _atom_site_fract_y
 _atom_site_fract_z
 _atom_site_occupancy
  Tb  Tb0  1  0.634094  0.032945  0.250000  1
  Tb  Tb1  1  0.133866  0.467555  0.750000  1
  Tb  Tb2  1  0.366176  0.967502  0.750000  1
  Y  Y3  1  0.866574  0.531893  0.250000  1
  Er  Er4  1  0.329594  0.677077  0.063786  1
  Er  Er5  1  0.170426  0.176700  0.436576  1
  Er  Er6  1  0.670285  0.323081  0.563709  1
  Er  Er7  1  0.829739  0.822953  0.936348  1
  Er  Er8  1  0.670285  0.323081  0.936291  1
  Er  Er9  1  0.829739  0.822953  0.563652  1
  Er  Er10  1  0.329594  0.677077  0.436214  1
  Er  Er11  1  0.170426  0.176700  0.063424  1
  Rh  Rh12  1  0.061504  0.882521  0.250000  1
  Rh  Rh13  1  0.437482  0.381533  0.250000  1
  Rh  Rh14  1  0.938888  0.117958  0.750000  1
  Rh  Rh15  1  0.561328  0.618469  0.750000  1
