# generated using pymatgen
data_Er11TmIn2(CoSi)2
_symmetry_space_group_name_H-M   'P 1'
_cell_length_a   8.39603220
_cell_length_b   8.39863149
_cell_length_c   8.39603332
_cell_angle_alpha   113.38132166
_cell_angle_beta   110.96265415
_cell_angle_gamma   104.19324828
_symmetry_Int_Tables_number   1
_chemical_formula_structural   Er11TmIn2(CoSi)2
_chemical_formula_sum   'Er11 Tm1 In2 Co2 Si2'
_cell_volume   452.74296287
_cell_formula_units_Z   1
loop_
 _symmetry_equiv_pos_site_id
 _symmetry_equiv_pos_as_xyz
  1  'x, y, z'
loop_
 _atom_site_type_symbol
 _atom_site_label
 _atom_site_symmetry_multiplicity
 _atom_site_fract_x
 _atom_site_fract_y
 _atom_site_fract_z
 _atom_site_occupancy
  Er  Er0  1  0.444068  0.241877  0.202023  1
  Er  Er1  1  0.556143  0.758141  0.798289  1
  Er  Er2  1  0.039853  0.241877  0.797809  1
  Er  Er3  1  0.959852  0.758141  0.201997  1
  Er  Er4  1  0.186853  0.288350  0.475522  1
  Er  Er5  1  0.812783  0.711578  0.524242  1
  Er  Er6  1  0.187336  0.711578  0.898795  1
  Er  Er7  1  0.812828  0.288350  0.101497  1
  Er  Er8  1  0.305955  0.616383  0.310428  1
  Er  Er9  1  0.694278  0.383588  0.689310  1
  Er  Er10  1  0.305855  0.995320  0.689465  1
  Tm  Tm11  1  0.694068  0.004891  0.310823  1
  In  In12  1  0.500045  0.500191  0.000146  1
  In  In13  1  0.000079  0.000015  0.999935  1
  Co  Co14  1  0.108306  0.608350  0.500044  1
  Co  Co15  1  0.891567  0.391496  0.499929  1
  Si  Si16  1  0.360452  0.999937  0.360260  1
  Si  Si17  1  0.639677  0.999937  0.639485  1
