# generated using pymatgen
data_AcGa2Au5
_symmetry_space_group_name_H-M   'P 1'
_cell_length_a   7.39750000
_cell_length_b   8.96040900
_cell_length_c   10.06115000
_cell_angle_alpha   90.00000000
_cell_angle_beta   90.00000000
_cell_angle_gamma   90.00000000
_symmetry_Int_Tables_number   1
_chemical_formula_structural   AcGa2Au5
_chemical_formula_sum   'Ac4 Ga8 Au20'
_cell_volume   666.89956063
_cell_formula_units_Z   4
loop_
 _symmetry_equiv_pos_site_id
 _symmetry_equiv_pos_as_xyz
  1  'x, y, z'
loop_
 _atom_site_type_symbol
 _atom_site_label
 _atom_site_symmetry_multiplicity
 _atom_site_fract_x
 _atom_site_fract_y
 _atom_site_fract_z
 _atom_site_occupancy
  Ac  Ac0  1  0.250000  0.254626  0.125244  1
  Ac  Ac1  1  0.250000  0.754626  0.374756  1
  Ac  Ac2  1  0.750000  0.745374  0.874756  1
  Ac  Ac3  1  0.750000  0.245374  0.625244  1
  Ga  Ga4  1  0.250000  0.047620  0.616375  1
  Ga  Ga5  1  0.250000  0.547620  0.883625  1
  Ga  Ga6  1  0.750000  0.952380  0.383625  1
  Ga  Ga7  1  0.750000  0.452380  0.116375  1
  Ga  Ga8  1  0.250000  0.358523  0.477689  1
  Ga  Ga9  1  0.250000  0.858523  0.022311  1
  Ga  Ga10  1  0.750000  0.641477  0.522311  1
  Ga  Ga11  1  0.750000  0.141477  0.977689  1
  Au  Au12  1  0.057785  0.106463  0.393288  1
  Au  Au13  1  0.442215  0.606463  0.106712  1
  Au  Au14  1  0.557785  0.893537  0.606712  1
  Au  Au15  1  0.942215  0.393537  0.893288  1
  Au  Au16  1  0.942215  0.893537  0.606712  1
  Au  Au17  1  0.557785  0.393537  0.893288  1
  Au  Au18  1  0.442215  0.106463  0.393288  1
  Au  Au19  1  0.057785  0.606463  0.106712  1
  Au  Au20  1  0.039224  0.060367  0.860924  1
  Au  Au21  1  0.460776  0.560367  0.639076  1
  Au  Au22  1  0.539224  0.939633  0.139076  1
  Au  Au23  1  0.960776  0.439633  0.360924  1
  Au  Au24  1  0.960776  0.939633  0.139076  1
  Au  Au25  1  0.539224  0.439633  0.360924  1
  Au  Au26  1  0.460776  0.060367  0.860924  1
  Au  Au27  1  0.039224  0.560367  0.639076  1
  Au  Au28  1  0.250000  0.299640  0.732684  1
  Au  Au29  1  0.250000  0.799640  0.767316  1
  Au  Au30  1  0.750000  0.700360  0.267316  1
  Au  Au31  1  0.750000  0.200360  0.232684  1
