# generated using pymatgen
data_La10Os3Pt
_symmetry_space_group_name_H-M   'P 1'
_cell_length_a   9.19561900
_cell_length_b   9.12351385
_cell_length_c   7.47716823
_cell_angle_alpha   84.41311685
_cell_angle_beta   84.43490018
_cell_angle_gamma   43.52696786
_symmetry_Int_Tables_number   1
_chemical_formula_structural   La10Os3Pt
_chemical_formula_sum   'La10 Os3 Pt1'
_cell_volume   429.65286190
_cell_formula_units_Z   1
loop_
 _symmetry_equiv_pos_site_id
 _symmetry_equiv_pos_as_xyz
  1  'x, y, z'
loop_
 _atom_site_type_symbol
 _atom_site_label
 _atom_site_symmetry_multiplicity
 _atom_site_fract_x
 _atom_site_fract_y
 _atom_site_fract_z
 _atom_site_occupancy
  La  La0  1  0.027042  0.793506  0.905582  1
  La  La1  1  0.197857  0.986537  0.592678  1
  La  La2  1  0.990226  0.197380  0.093403  1
  La  La3  1  0.810523  0.009918  0.418144  1
  La  La4  1  0.349602  0.212720  0.814925  1
  La  La5  1  0.785019  0.646590  0.679442  1
  La  La6  1  0.641231  0.782961  0.177594  1
  La  La7  1  0.201102  0.366467  0.324491  1
  La  La8  1  0.576002  0.430223  0.743813  1
  La  La9  1  0.429009  0.572528  0.251185  1
  Os  Os10  1  0.175248  0.602751  0.577578  1
  Os  Os11  1  0.397699  0.822928  0.925688  1
  Os  Os12  1  0.824404  0.396420  0.420914  1
  Pt  Pt13  1  0.595038  0.179070  0.074563  1
