# generated using pymatgen
data_Pr3Dy(WN3)4
_symmetry_space_group_name_H-M   'P 1'
_cell_length_a   7.38735475
_cell_length_b   7.38735492
_cell_length_c   6.33708871
_cell_angle_alpha   75.62328323
_cell_angle_beta   75.62328161
_cell_angle_gamma   83.80399339
_symmetry_Int_Tables_number   1
_chemical_formula_structural   Pr3Dy(WN3)4
_chemical_formula_sum   'Pr3 Dy1 W4 N12'
_cell_volume   324.11807026
_cell_formula_units_Z   1
loop_
 _symmetry_equiv_pos_site_id
 _symmetry_equiv_pos_as_xyz
  1  'x, y, z'
loop_
 _atom_site_type_symbol
 _atom_site_label
 _atom_site_symmetry_multiplicity
 _atom_site_fract_x
 _atom_site_fract_y
 _atom_site_fract_z
 _atom_site_occupancy
  Pr  Pr0  1  0.695797  0.304203  0.750000  1
  Pr  Pr1  1  0.088847  0.911153  0.750000  1
  Pr  Pr2  1  0.305579  0.694421  0.250000  1
  Dy  Dy3  1  0.907972  0.092028  0.250000  1
  W  W4  1  0.380732  0.200369  0.244232  1
  W  W5  1  0.621379  0.799403  0.750350  1
  W  W6  1  0.799631  0.619268  0.255768  1
  W  W7  1  0.200597  0.378621  0.749650  1
  N  N8  1  0.618620  0.111788  0.160285  1
  N  N9  1  0.361152  0.336762  0.476868  1
  N  N10  1  0.000699  0.221805  0.860171  1
  N  N11  1  0.386574  0.887348  0.847192  1
  N  N12  1  0.778195  0.999301  0.639829  1
  N  N13  1  0.112652  0.613426  0.652808  1
  N  N14  1  0.888212  0.381380  0.339715  1
  N  N15  1  0.631468  0.652541  0.528952  1
  N  N16  1  0.663238  0.638848  0.023132  1
  N  N17  1  0.347459  0.368532  0.971048  1
  N  N18  1  0.993716  0.782519  0.160066  1
  N  N19  1  0.217481  0.006284  0.339934  1
