# generated using pymatgen
data_Nb3ReSi3Mo2
_symmetry_space_group_name_H-M   'P 1'
_cell_length_a   6.92241443
_cell_length_b   6.92241339
_cell_length_c   3.35186300
_cell_angle_alpha   90.00000000
_cell_angle_beta   90.00000000
_cell_angle_gamma   120.09600736
_symmetry_Int_Tables_number   1
_chemical_formula_structural   Nb3ReSi3Mo2
_chemical_formula_sum   'Nb3 Re1 Si3 Mo2'
_cell_volume   138.96679889
_cell_formula_units_Z   1
loop_
 _symmetry_equiv_pos_site_id
 _symmetry_equiv_pos_as_xyz
  1  'x, y, z'
loop_
 _atom_site_type_symbol
 _atom_site_label
 _atom_site_symmetry_multiplicity
 _atom_site_fract_x
 _atom_site_fract_y
 _atom_site_fract_z
 _atom_site_occupancy
  Nb  Nb0  1  0.401581  0.993503  0.500000  1
  Nb  Nb1  1  0.993503  0.401581  0.500000  1
  Nb  Nb2  1  0.604466  0.604466  0.500000  1
  Re  Re3  1  0.259157  0.259157  0.000000  1
  Si  Si4  1  0.331894  0.661082  0.000000  1
  Si  Si5  1  0.661082  0.331894  0.000000  1
  Si  Si6  1  0.004629  0.004629  0.500000  1
  Mo  Mo7  1  0.743302  0.000385  0.000000  1
  Mo  Mo8  1  0.000385  0.743302  0.000000  1
