# generated using pymatgen
data_Gd6Zn22PRu
_symmetry_space_group_name_H-M   'P 1'
_cell_length_a   9.06221646
_cell_length_b   9.06221748
_cell_length_c   8.96493200
_cell_angle_alpha   60.35448948
_cell_angle_beta   60.35448581
_cell_angle_gamma   59.78457375
_symmetry_Int_Tables_number   1
_chemical_formula_structural   Gd6Zn22PRu
_chemical_formula_sum   'Gd6 Zn22 P1 Ru1'
_cell_volume   522.50173670
_cell_formula_units_Z   1
loop_
 _symmetry_equiv_pos_site_id
 _symmetry_equiv_pos_as_xyz
  1  'x, y, z'
loop_
 _atom_site_type_symbol
 _atom_site_label
 _atom_site_symmetry_multiplicity
 _atom_site_fract_x
 _atom_site_fract_y
 _atom_site_fract_z
 _atom_site_occupancy
  Gd  Gd0  1  0.721245  0.278755  0.290459  1
  Gd  Gd1  1  0.721245  0.278755  0.709541  1
  Gd  Gd2  1  0.715131  0.715131  0.284869  1
  Gd  Gd3  1  0.278755  0.721245  0.709541  1
  Gd  Gd4  1  0.278755  0.721245  0.290459  1
  Gd  Gd5  1  0.284869  0.284869  0.715131  1
  Zn  Zn6  1  0.624302  0.122324  0.126688  1
  Zn  Zn7  1  0.122324  0.624302  0.126688  1
  Zn  Zn8  1  0.124133  0.124133  0.621236  1
  Zn  Zn9  1  0.124133  0.124133  0.130501  1
  Zn  Zn10  1  0.375698  0.877676  0.873312  1
  Zn  Zn11  1  0.877676  0.375698  0.873312  1
  Zn  Zn12  1  0.875867  0.875867  0.378764  1
  Zn  Zn13  1  0.875867  0.875867  0.869499  1
  Zn  Zn14  1  0.500000  0.000000  0.000000  1
  Zn  Zn15  1  0.500000  0.000000  0.500000  1
  Zn  Zn16  1  0.500000  0.500000  0.000000  1
  Zn  Zn17  1  0.000000  0.500000  0.500000  1
  Zn  Zn18  1  0.000000  0.500000  0.000000  1
  Zn  Zn19  1  0.000000  0.000000  0.000000  1
  Zn  Zn20  1  0.016023  0.326968  0.328503  1
  Zn  Zn21  1  0.326968  0.016023  0.328503  1
  Zn  Zn22  1  0.332004  0.332004  0.007576  1
  Zn  Zn23  1  0.332004  0.332004  0.328415  1
  Zn  Zn24  1  0.983977  0.673032  0.671497  1
  Zn  Zn25  1  0.673032  0.983977  0.671497  1
  Zn  Zn26  1  0.667996  0.667996  0.992424  1
  Zn  Zn27  1  0.667996  0.667996  0.671585  1
  P  P28  1  0.500000  0.500000  0.500000  1
  Ru  Ru29  1  0.000000  0.000000  0.500000  1
