# generated using pymatgen
data_Dy2BeIr2
_symmetry_space_group_name_H-M   'P 1'
_cell_length_a   5.53450701
_cell_length_b   5.53450672
_cell_length_c   5.53450760
_cell_angle_alpha   140.35658151
_cell_angle_beta   116.33383372
_cell_angle_gamma   77.66481956
_symmetry_Int_Tables_number   1
_chemical_formula_structural   Dy2BeIr2
_chemical_formula_sum   'Dy2 Be1 Ir2'
_cell_volume   94.47654871
_cell_formula_units_Z   1
loop_
 _symmetry_equiv_pos_site_id
 _symmetry_equiv_pos_as_xyz
  1  'x, y, z'
loop_
 _atom_site_type_symbol
 _atom_site_label
 _atom_site_symmetry_multiplicity
 _atom_site_fract_x
 _atom_site_fract_y
 _atom_site_fract_z
 _atom_site_occupancy
  Dy  Dy0  1  0.696912  0.196912  0.500000  1
  Dy  Dy1  1  0.303087  0.803089  0.500001  1
  Be  Be2  1  0.000000  0.000000  0.000000  1
  Ir  Ir3  1  0.754660  0.500000  0.254660  1
  Ir  Ir4  1  0.245340  0.500001  0.745341  1
