# generated using pymatgen
data_ErHf2Fe9
_symmetry_space_group_name_H-M   'P 1'
_cell_length_a   8.42781285
_cell_length_b   8.42781305
_cell_length_c   8.42781213
_cell_angle_alpha   34.26090190
_cell_angle_beta   34.26089723
_cell_angle_gamma   34.26090530
_symmetry_Int_Tables_number   1
_chemical_formula_structural   ErHf2Fe9
_chemical_formula_sum   'Er1 Hf2 Fe9'
_cell_volume   169.18167125
_cell_formula_units_Z   1
loop_
 _symmetry_equiv_pos_site_id
 _symmetry_equiv_pos_as_xyz
  1  'x, y, z'
loop_
 _atom_site_type_symbol
 _atom_site_label
 _atom_site_symmetry_multiplicity
 _atom_site_fract_x
 _atom_site_fract_y
 _atom_site_fract_z
 _atom_site_occupancy
  Er  Er0  1  0.000000  0.000000  0.000000  1
  Hf  Hf1  1  0.142903  0.142903  0.142903  1
  Hf  Hf2  1  0.857097  0.857097  0.857097  1
  Fe  Fe3  1  0.413680  0.413680  0.918370  1
  Fe  Fe4  1  0.918370  0.413680  0.413680  1
  Fe  Fe5  1  0.586320  0.081630  0.586320  1
  Fe  Fe6  1  0.586320  0.586320  0.081630  1
  Fe  Fe7  1  0.413680  0.918370  0.413680  1
  Fe  Fe8  1  0.081630  0.586320  0.586320  1
  Fe  Fe9  1  0.333031  0.333031  0.333031  1
  Fe  Fe10  1  0.666969  0.666969  0.666969  1
  Fe  Fe11  1  0.500000  0.500000  0.500000  1
