# generated using pymatgen
data_Sm8FeSi16Mo11
_symmetry_space_group_name_H-M   'P 1'
_cell_length_a   6.83245953
_cell_length_b   7.01196107
_cell_length_c   13.05022600
_cell_angle_alpha   90.00000000
_cell_angle_beta   90.00000000
_cell_angle_gamma   89.88219020
_symmetry_Int_Tables_number   1
_chemical_formula_structural   Sm8FeSi16Mo11
_chemical_formula_sum   'Sm8 Fe1 Si16 Mo11'
_cell_volume   625.22117579
_cell_formula_units_Z   1
loop_
 _symmetry_equiv_pos_site_id
 _symmetry_equiv_pos_as_xyz
  1  'x, y, z'
loop_
 _atom_site_type_symbol
 _atom_site_label
 _atom_site_symmetry_multiplicity
 _atom_site_fract_x
 _atom_site_fract_y
 _atom_site_fract_z
 _atom_site_occupancy
  Sm  Sm0  1  0.002479  0.163938  0.093921  1
  Sm  Sm1  1  0.501203  0.334908  0.405500  1
  Sm  Sm2  1  0.499364  0.665493  0.903508  1
  Sm  Sm3  1  0.996844  0.834360  0.596267  1
  Sm  Sm4  1  0.996844  0.834360  0.903733  1
  Sm  Sm5  1  0.499364  0.665493  0.596492  1
  Sm  Sm6  1  0.501203  0.334908  0.094500  1
  Sm  Sm7  1  0.002479  0.163938  0.406079  1
  Fe  Fe8  1  0.346003  0.996279  0.750000  1
  Si  Si9  1  0.807069  0.376718  0.250000  1
  Si  Si10  1  0.305154  0.121699  0.250000  1
  Si  Si11  1  0.687111  0.887686  0.750000  1
  Si  Si12  1  0.192822  0.616821  0.750000  1
  Si  Si13  1  0.037519  0.859258  0.250000  1
  Si  Si14  1  0.535829  0.639017  0.250000  1
  Si  Si15  1  0.457638  0.348778  0.750000  1
  Si  Si16  1  0.966873  0.140258  0.750000  1
  Si  Si17  1  0.844865  0.456592  0.953543  1
  Si  Si18  1  0.345904  0.044972  0.552388  1
  Si  Si19  1  0.655757  0.956361  0.045963  1
  Si  Si20  1  0.155827  0.545235  0.453002  1
  Si  Si21  1  0.155827  0.545235  0.046998  1
  Si  Si22  1  0.655757  0.956361  0.454037  1
  Si  Si23  1  0.345904  0.044972  0.947612  1
  Si  Si24  1  0.844865  0.456592  0.546457  1
  Mo  Mo25  1  0.664475  0.997802  0.250000  1
  Mo  Mo26  1  0.166125  0.502211  0.250000  1
  Mo  Mo27  1  0.831845  0.498891  0.750000  1
  Mo  Mo28  1  0.830383  0.666089  0.125100  1
  Mo  Mo29  1  0.334551  0.833877  0.375875  1
  Mo  Mo30  1  0.669187  0.169405  0.874595  1
  Mo  Mo31  1  0.164403  0.336061  0.625023  1
  Mo  Mo32  1  0.164403  0.336061  0.874977  1
  Mo  Mo33  1  0.669187  0.169405  0.625405  1
  Mo  Mo34  1  0.334551  0.833877  0.124125  1
  Mo  Mo35  1  0.830383  0.666089  0.374900  1
