# generated using pymatgen
data_La4SiBr5
_symmetry_space_group_name_H-M   'P 1'
_cell_length_a   9.80287289
_cell_length_b   9.80287192
_cell_length_c   8.79533469
_cell_angle_alpha   77.89857998
_cell_angle_beta   77.89858157
_cell_angle_gamma   25.33993155
_symmetry_Int_Tables_number   1
_chemical_formula_structural   La4SiBr5
_chemical_formula_sum   'La4 Si1 Br5'
_cell_volume   353.28541033
_cell_formula_units_Z   1
loop_
 _symmetry_equiv_pos_site_id
 _symmetry_equiv_pos_as_xyz
  1  'x, y, z'
loop_
 _atom_site_type_symbol
 _atom_site_label
 _atom_site_symmetry_multiplicity
 _atom_site_fract_x
 _atom_site_fract_y
 _atom_site_fract_z
 _atom_site_occupancy
  La  La0  1  0.847156  0.847156  0.081038  1
  La  La1  1  0.152844  0.152844  0.918962  1
  La  La2  1  0.501533  0.501533  0.226860  1
  La  La3  1  0.498467  0.498467  0.773140  1
  Si  Si4  1  0.000000  0.000000  0.000000  1
  Br  Br5  1  0.671183  0.671183  0.163209  1
  Br  Br6  1  0.328817  0.328817  0.836791  1
  Br  Br7  1  0.664017  0.664017  0.670165  1
  Br  Br8  1  0.335983  0.335983  0.329835  1
  Br  Br9  1  0.000000  0.000000  0.500000  1
