# generated using pymatgen
data_La2DyY3IrI10
_symmetry_space_group_name_H-M   'P 1'
_cell_length_a   7.87345321
_cell_length_b   9.92579400
_cell_length_c   9.91552818
_cell_angle_alpha   106.78243743
_cell_angle_beta   95.79231433
_cell_angle_gamma   105.46721804
_symmetry_Int_Tables_number   1
_chemical_formula_structural   La2DyY3IrI10
_chemical_formula_sum   'La2 Dy1 Y3 Ir1 I10'
_cell_volume   701.60884329
_cell_formula_units_Z   1
loop_
 _symmetry_equiv_pos_site_id
 _symmetry_equiv_pos_as_xyz
  1  'x, y, z'
loop_
 _atom_site_type_symbol
 _atom_site_label
 _atom_site_symmetry_multiplicity
 _atom_site_fract_x
 _atom_site_fract_y
 _atom_site_fract_z
 _atom_site_occupancy
  La  La0  1  0.117761  0.044280  0.763398  1
  La  La1  1  0.882256  0.955835  0.236636  1
  Dy  Dy2  1  0.971571  0.286966  0.087231  1
  Y  Y3  1  0.028521  0.712291  0.912656  1
  Y  Y4  1  0.349643  0.127102  0.164583  1
  Y  Y5  1  0.650352  0.872903  0.835409  1
  Ir  Ir6  1  0.000013  0.000576  0.000181  1
  I  I7  1  0.346995  0.446862  0.269397  1
  I  I8  1  0.652667  0.553067  0.730449  1
  I  I9  1  0.270153  0.089816  0.456637  1
  I  I10  1  0.729867  0.910139  0.543364  1
  I  I11  1  0.082206  0.380139  0.825864  1
  I  I12  1  0.917790  0.619925  0.174248  1
  I  I13  1  0.444978  0.817982  0.087351  1
  I  I14  1  0.555162  0.182050  0.912738  1
  I  I15  1  0.772490  0.262700  0.341048  1
  I  I16  1  0.227577  0.737368  0.658809  1
