# generated using pymatgen
data_Pa4Tc5(Ge3Os)2
_symmetry_space_group_name_H-M   'P 1'
_cell_length_a   7.29588812
_cell_length_b   7.29596653
_cell_length_c   7.29588807
_cell_angle_alpha   109.58758865
_cell_angle_beta   109.23831336
_cell_angle_gamma   109.58757393
_symmetry_Int_Tables_number   1
_chemical_formula_structural   Pa4Tc5(Ge3Os)2
_chemical_formula_sum   'Pa4 Tc5 Ge6 Os2'
_cell_volume   298.96079280
_cell_formula_units_Z   1
loop_
 _symmetry_equiv_pos_site_id
 _symmetry_equiv_pos_as_xyz
  1  'x, y, z'
loop_
 _atom_site_type_symbol
 _atom_site_label
 _atom_site_symmetry_multiplicity
 _atom_site_fract_x
 _atom_site_fract_y
 _atom_site_fract_z
 _atom_site_occupancy
  Pa  Pa0  1  0.001716  0.003431  0.501716  1
  Pa  Pa1  1  0.994983  0.496835  0.994983  1
  Pa  Pa2  1  0.501716  0.003431  0.001716  1
  Pa  Pa3  1  0.501853  0.496835  0.501853  1
  Tc  Tc4  1  0.749775  0.248317  0.498542  1
  Tc  Tc5  1  0.751275  0.502550  0.251275  1
  Tc  Tc6  1  0.498542  0.248317  0.749775  1
  Tc  Tc7  1  0.251275  0.502550  0.751275  1
  Tc  Tc8  1  0.999887  0.999773  0.999887  1
  Ge  Ge9  1  0.689189  0.690314  0.001124  1
  Ge  Ge10  1  0.309169  0.997968  0.309169  1
  Ge  Ge11  1  0.001187  0.311775  0.310588  1
  Ge  Ge12  1  0.310588  0.311775  0.001187  1
  Ge  Ge13  1  0.688799  0.997968  0.688799  1
  Ge  Ge14  1  0.001124  0.690314  0.689189  1
  Os  Os15  1  0.250212  0.748923  0.498711  1
  Os  Os16  1  0.498711  0.748923  0.250212  1
