# generated using pymatgen
data_ErCo2GeC
_symmetry_space_group_name_H-M   'P 1'
_cell_length_a   5.62753813
_cell_length_b   5.62753838
_cell_length_c   6.82276800
_cell_angle_alpha   90.00000000
_cell_angle_beta   90.00000000
_cell_angle_gamma   141.24127575
_symmetry_Int_Tables_number   1
_chemical_formula_structural   ErCo2GeC
_chemical_formula_sum   'Er2 Co4 Ge2 C2'
_cell_volume   135.26988951
_cell_formula_units_Z   2
loop_
 _symmetry_equiv_pos_site_id
 _symmetry_equiv_pos_as_xyz
  1  'x, y, z'
loop_
 _atom_site_type_symbol
 _atom_site_label
 _atom_site_symmetry_multiplicity
 _atom_site_fract_x
 _atom_site_fract_y
 _atom_site_fract_z
 _atom_site_occupancy
  Er  Er0  1  0.548902  0.451098  0.250000  1
  Er  Er1  1  0.451098  0.548902  0.750000  1
  Co  Co2  1  0.839318  0.160682  0.055553  1
  Co  Co3  1  0.160682  0.839318  0.944447  1
  Co  Co4  1  0.160682  0.839318  0.555553  1
  Co  Co5  1  0.839318  0.160682  0.444447  1
  Ge  Ge6  1  0.270333  0.729667  0.250000  1
  Ge  Ge7  1  0.729667  0.270333  0.750000  1
  C  C8  1  0.000000  0.000000  0.000000  1
  C  C9  1  0.000000  0.000000  0.500000  1
