# generated using pymatgen
data_Ca3Tb9(PrSn2)8
_symmetry_space_group_name_H-M   'P 1'
_cell_length_a   8.05264078
_cell_length_b   8.40462375
_cell_length_c   15.88898000
_cell_angle_alpha   90.00000000
_cell_angle_beta   90.00000000
_cell_angle_gamma   89.95063035
_symmetry_Int_Tables_number   1
_chemical_formula_structural   Ca3Tb9(PrSn2)8
_chemical_formula_sum   'Ca3 Tb9 Pr8 Sn16'
_cell_volume   1075.35648681
_cell_formula_units_Z   1
loop_
 _symmetry_equiv_pos_site_id
 _symmetry_equiv_pos_as_xyz
  1  'x, y, z'
loop_
 _atom_site_type_symbol
 _atom_site_label
 _atom_site_symmetry_multiplicity
 _atom_site_fract_x
 _atom_site_fract_y
 _atom_site_fract_z
 _atom_site_occupancy
  Ca  Ca0  1  0.667048  0.002947  0.750000  1
  Ca  Ca1  1  0.832636  0.502839  0.250000  1
  Ca  Ca2  1  0.333006  0.997653  0.250000  1
  Tb  Tb3  1  0.336726  0.829095  0.875226  1
  Tb  Tb4  1  0.835146  0.670856  0.624578  1
  Tb  Tb5  1  0.663139  0.172459  0.376409  1
  Tb  Tb6  1  0.163218  0.329658  0.123103  1
  Tb  Tb7  1  0.663139  0.172459  0.123591  1
  Tb  Tb8  1  0.163218  0.329658  0.376897  1
  Tb  Tb9  1  0.336726  0.829095  0.624774  1
  Tb  Tb10  1  0.835146  0.670856  0.875422  1
  Tb  Tb11  1  0.166780  0.499103  0.750000  1
  Pr  Pr12  1  0.497148  0.320603  0.903104  1
  Pr  Pr13  1  0.995051  0.177735  0.595962  1
  Pr  Pr14  1  0.504932  0.679178  0.404473  1
  Pr  Pr15  1  0.005488  0.819765  0.095529  1
  Pr  Pr16  1  0.504932  0.679178  0.095527  1
  Pr  Pr17  1  0.005488  0.819765  0.404471  1
  Pr  Pr18  1  0.497148  0.320603  0.596896  1
  Pr  Pr19  1  0.995051  0.177735  0.904038  1
  Sn  Sn20  1  0.324831  0.040641  0.036876  1
  Sn  Sn21  1  0.823624  0.461944  0.462280  1
  Sn  Sn22  1  0.675298  0.959516  0.537533  1
  Sn  Sn23  1  0.175381  0.537221  0.958647  1
  Sn  Sn24  1  0.675298  0.959516  0.962467  1
  Sn  Sn25  1  0.175381  0.537221  0.541353  1
  Sn  Sn26  1  0.324831  0.040641  0.463124  1
  Sn  Sn27  1  0.823624  0.461944  0.037720  1
  Sn  Sn28  1  0.532948  0.613102  0.750000  1
  Sn  Sn29  1  0.035545  0.879093  0.750000  1
  Sn  Sn30  1  0.463391  0.384098  0.250000  1
  Sn  Sn31  1  0.963841  0.116441  0.250000  1
  Sn  Sn32  1  0.292916  0.142745  0.750000  1
  Sn  Sn33  1  0.802466  0.363760  0.750000  1
  Sn  Sn34  1  0.705081  0.864455  0.250000  1
  Sn  Sn35  1  0.204379  0.636421  0.250000  1
