# generated using pymatgen
data_TbPr4(ThS4)3
_symmetry_space_group_name_H-M   'P 1'
_cell_length_a   4.03961700
_cell_length_b   10.65425151
_cell_length_c   10.94190108
_cell_angle_alpha   89.76977255
_cell_angle_beta   90.00000000
_cell_angle_gamma   90.00000000
_symmetry_Int_Tables_number   1
_chemical_formula_structural   TbPr4(ThS4)3
_chemical_formula_sum   'Tb1 Pr4 Th3 S12'
_cell_volume   470.92572379
_cell_formula_units_Z   1
loop_
 _symmetry_equiv_pos_site_id
 _symmetry_equiv_pos_as_xyz
  1  'x, y, z'
loop_
 _atom_site_type_symbol
 _atom_site_label
 _atom_site_symmetry_multiplicity
 _atom_site_fract_x
 _atom_site_fract_y
 _atom_site_fract_z
 _atom_site_occupancy
  Tb  Tb0  1  0.250000  0.687772  0.488526  1
  Pr  Pr1  1  0.250000  0.001945  0.309082  1
  Pr  Pr2  1  0.750000  0.990702  0.691091  1
  Pr  Pr3  1  0.750000  0.506191  0.191528  1
  Pr  Pr4  1  0.250000  0.499019  0.804305  1
  Th  Th5  1  0.750000  0.314516  0.512894  1
  Th  Th6  1  0.750000  0.186814  0.012673  1
  Th  Th7  1  0.250000  0.812966  0.987377  1
  S  S8  1  0.250000  0.056556  0.880333  1
  S  S9  1  0.750000  0.944096  0.120083  1
  S  S10  1  0.750000  0.556885  0.614611  1
  S  S11  1  0.250000  0.448614  0.382058  1
  S  S12  1  0.250000  0.129414  0.548177  1
  S  S13  1  0.750000  0.865036  0.454349  1
  S  S14  1  0.750000  0.629352  0.951913  1
  S  S15  1  0.250000  0.371286  0.047565  1
  S  S16  1  0.250000  0.706298  0.228075  1
  S  S17  1  0.750000  0.295876  0.772677  1
  S  S18  1  0.750000  0.204517  0.273657  1
  S  S19  1  0.250000  0.792142  0.729026  1
