# generated using pymatgen
data_Li3Pr4CuPt4
_symmetry_space_group_name_H-M   'P 1'
_cell_length_a   4.13992900
_cell_length_b   7.27654287
_cell_length_c   8.60649800
_cell_angle_alpha   89.86950345
_cell_angle_beta   90.00000000
_cell_angle_gamma   90.00000000
_symmetry_Int_Tables_number   1
_chemical_formula_structural   Li3Pr4CuPt4
_chemical_formula_sum   'Li3 Pr4 Cu1 Pt4'
_cell_volume   259.26466510
_cell_formula_units_Z   1
loop_
 _symmetry_equiv_pos_site_id
 _symmetry_equiv_pos_as_xyz
  1  'x, y, z'
loop_
 _atom_site_type_symbol
 _atom_site_label
 _atom_site_symmetry_multiplicity
 _atom_site_fract_x
 _atom_site_fract_y
 _atom_site_fract_z
 _atom_site_occupancy
  Li  Li0  1  0.250000  0.629172  0.558516  1
  Li  Li1  1  0.250000  0.122244  0.945936  1
  Li  Li2  1  0.750000  0.372441  0.442891  1
  Pr  Pr3  1  0.250000  0.038955  0.306531  1
  Pr  Pr4  1  0.250000  0.551217  0.182880  1
  Pr  Pr5  1  0.750000  0.954098  0.690751  1
  Pr  Pr6  1  0.750000  0.455669  0.813955  1
  Cu  Cu7  1  0.750000  0.873636  0.061407  1
  Pt  Pt8  1  0.250000  0.249715  0.616493  1
  Pt  Pt9  1  0.250000  0.753870  0.882839  1
  Pt  Pt10  1  0.750000  0.750282  0.383233  1
  Pt  Pt11  1  0.750000  0.248700  0.114567  1
