# generated using pymatgen
data_Nd3Ho(UTc3)2
_symmetry_space_group_name_H-M   'P 1'
_cell_length_a   5.88838700
_cell_length_b   5.88838612
_cell_length_c   8.24534900
_cell_angle_alpha   90.00000000
_cell_angle_beta   90.00000000
_cell_angle_gamma   119.99999933
_symmetry_Int_Tables_number   1
_chemical_formula_structural   Nd3Ho(UTc3)2
_chemical_formula_sum   'Nd3 Ho1 U2 Tc6'
_cell_volume   247.58954558
_cell_formula_units_Z   1
loop_
 _symmetry_equiv_pos_site_id
 _symmetry_equiv_pos_as_xyz
  1  'x, y, z'
loop_
 _atom_site_type_symbol
 _atom_site_label
 _atom_site_symmetry_multiplicity
 _atom_site_fract_x
 _atom_site_fract_y
 _atom_site_fract_z
 _atom_site_occupancy
  Nd  Nd0  1  0.333333  0.666667  0.439671  1
  Nd  Nd1  1  0.666667  0.333333  0.561926  1
  Nd  Nd2  1  0.666667  0.333333  0.939700  1
  Ho  Ho3  1  0.333333  0.666667  0.057031  1
  U  U4  1  0.000000  0.000000  0.500322  1
  U  U5  1  0.000000  0.000000  0.999820  1
  Tc  Tc6  1  0.838504  0.161496  0.248920  1
  Tc  Tc7  1  0.838504  0.677009  0.248920  1
  Tc  Tc8  1  0.322991  0.161496  0.248920  1
  Tc  Tc9  1  0.161848  0.838152  0.751590  1
  Tc  Tc10  1  0.161848  0.323695  0.751590  1
  Tc  Tc11  1  0.676305  0.838152  0.751590  1
