# generated using pymatgen
data_NpSiNiP
_symmetry_space_group_name_H-M   'P 1'
_cell_length_a   4.08540600
_cell_length_b   3.91666457
_cell_length_c   8.13488637
_cell_angle_alpha   103.92977662
_cell_angle_beta   90.00000000
_cell_angle_gamma   90.00000000
_symmetry_Int_Tables_number   1
_chemical_formula_structural   NpSiNiP
_chemical_formula_sum   'Np2 Si2 Ni2 P2'
_cell_volume   126.33962349
_cell_formula_units_Z   2
loop_
 _symmetry_equiv_pos_site_id
 _symmetry_equiv_pos_as_xyz
  1  'x, y, z'
loop_
 _atom_site_type_symbol
 _atom_site_label
 _atom_site_symmetry_multiplicity
 _atom_site_fract_x
 _atom_site_fract_y
 _atom_site_fract_z
 _atom_site_occupancy
  Np  Np0  1  0.250000  0.401135  0.802271  1
  Np  Np1  1  0.750000  0.598865  0.197729  1
  Si  Si2  1  0.250000  0.751452  0.502905  1
  Si  Si3  1  0.750000  0.248548  0.497095  1
  Ni  Ni4  1  0.250000  0.176792  0.353584  1
  Ni  Ni5  1  0.750000  0.823208  0.646416  1
  P  P6  1  0.250000  0.037620  0.075240  1
  P  P7  1  0.750000  0.962380  0.924760  1
