# generated using pymatgen
data_Ce2P3Pd
_symmetry_space_group_name_H-M   'P 1'
_cell_length_a   4.09912600
_cell_length_b   7.60082900
_cell_length_c   15.59375100
_cell_angle_alpha   90.00000000
_cell_angle_beta   90.00000000
_cell_angle_gamma   90.00000000
_symmetry_Int_Tables_number   1
_chemical_formula_structural   Ce2P3Pd
_chemical_formula_sum   'Ce8 P12 Pd4'
_cell_volume   485.85069153
_cell_formula_units_Z   4
loop_
 _symmetry_equiv_pos_site_id
 _symmetry_equiv_pos_as_xyz
  1  'x, y, z'
loop_
 _atom_site_type_symbol
 _atom_site_label
 _atom_site_symmetry_multiplicity
 _atom_site_fract_x
 _atom_site_fract_y
 _atom_site_fract_z
 _atom_site_occupancy
  Ce  Ce0  1  0.250000  0.233676  0.472339  1
  Ce  Ce1  1  0.750000  0.893599  0.797034  1
  Ce  Ce2  1  0.750000  0.266324  0.972339  1
  Ce  Ce3  1  0.750000  0.393599  0.702966  1
  Ce  Ce4  1  0.250000  0.606401  0.297034  1
  Ce  Ce5  1  0.250000  0.106401  0.202966  1
  Ce  Ce6  1  0.750000  0.766324  0.527661  1
  Ce  Ce7  1  0.250000  0.733676  0.027661  1
  P  P8  1  0.250000  0.387460  0.087918  1
  P  P9  1  0.250000  0.706192  0.699066  1
  P  P10  1  0.750000  0.112540  0.587918  1
  P  P11  1  0.750000  0.293808  0.300934  1
  P  P12  1  0.750000  0.793808  0.199066  1
  P  P13  1  0.250000  0.887460  0.412082  1
  P  P14  1  0.250000  0.528404  0.588489  1
  P  P15  1  0.750000  0.612540  0.912082  1
  P  P16  1  0.750000  0.971596  0.088489  1
  P  P17  1  0.250000  0.206192  0.800934  1
  P  P18  1  0.750000  0.471596  0.411511  1
  P  P19  1  0.250000  0.028404  0.911511  1
  Pd  Pd20  1  0.250000  0.028476  0.662296  1
  Pd  Pd21  1  0.750000  0.971524  0.337704  1
  Pd  Pd22  1  0.250000  0.528476  0.837704  1
  Pd  Pd23  1  0.750000  0.471524  0.162296  1
