# generated using pymatgen
data_Gd2Er3Al2Ru3
_symmetry_space_group_name_H-M   'P 1'
_cell_length_a   8.32463217
_cell_length_b   8.32463238
_cell_length_c   8.32463200
_cell_angle_alpha   109.54476874
_cell_angle_beta   109.54476925
_cell_angle_gamma   109.54477321
_symmetry_Int_Tables_number   1
_chemical_formula_structural   Gd2Er3Al2Ru3
_chemical_formula_sum   'Gd4 Er6 Al4 Ru6'
_cell_volume   442.87888921
_cell_formula_units_Z   2
loop_
 _symmetry_equiv_pos_site_id
 _symmetry_equiv_pos_as_xyz
  1  'x, y, z'
loop_
 _atom_site_type_symbol
 _atom_site_label
 _atom_site_symmetry_multiplicity
 _atom_site_fract_x
 _atom_site_fract_y
 _atom_site_fract_z
 _atom_site_occupancy
  Gd  Gd0  1  0.784418  0.784418  0.784418  1
  Gd  Gd1  1  0.316706  0.567134  0.750734  1
  Gd  Gd2  1  0.750734  0.316706  0.567134  1
  Gd  Gd3  1  0.567134  0.750734  0.316706  1
  Er  Er4  1  0.714176  0.500592  0.001322  1
  Er  Er5  1  0.001322  0.714176  0.500592  1
  Er  Er6  1  0.500592  0.001322  0.714176  1
  Er  Er7  1  0.250842  0.178889  0.929375  1
  Er  Er8  1  0.929375  0.250842  0.178889  1
  Er  Er9  1  0.178889  0.929375  0.250842  1
  Al  Al10  1  0.405857  0.405857  0.405857  1
  Al  Al11  1  0.088716  0.499563  0.002706  1
  Al  Al12  1  0.002706  0.088716  0.499563  1
  Al  Al13  1  0.499563  0.002706  0.088716  1
  Ru  Ru14  1  0.879705  0.128793  0.751005  1
  Ru  Ru15  1  0.751005  0.879705  0.128793  1
  Ru  Ru16  1  0.128793  0.751005  0.879705  1
  Ru  Ru17  1  0.250090  0.624183  0.375196  1
  Ru  Ru18  1  0.375196  0.250090  0.624183  1
  Ru  Ru19  1  0.624183  0.375196  0.250090  1
