# generated using pymatgen
data_Er2Co9Si7Ru3
_symmetry_space_group_name_H-M   'P 1'
_cell_length_a   3.73114500
_cell_length_b   9.15616346
_cell_length_c   9.15616400
_cell_angle_alpha   120.00000196
_cell_angle_beta   90.00000000
_cell_angle_gamma   90.00000000
_symmetry_Int_Tables_number   1
_chemical_formula_structural   Er2Co9Si7Ru3
_chemical_formula_sum   'Er2 Co9 Si7 Ru3'
_cell_volume   270.89428956
_cell_formula_units_Z   1
loop_
 _symmetry_equiv_pos_site_id
 _symmetry_equiv_pos_as_xyz
  1  'x, y, z'
loop_
 _atom_site_type_symbol
 _atom_site_label
 _atom_site_symmetry_multiplicity
 _atom_site_fract_x
 _atom_site_fract_y
 _atom_site_fract_z
 _atom_site_occupancy
  Er  Er0  1  0.000000  0.666667  0.333333  1
  Er  Er1  1  0.500000  0.333333  0.666667  1
  Co  Co2  1  0.000000  0.568580  0.945689  1
  Co  Co3  1  0.000000  0.377109  0.431420  1
  Co  Co4  1  0.000000  0.054311  0.622891  1
  Co  Co5  1  0.000000  0.873012  0.156025  1
  Co  Co6  1  0.000000  0.283012  0.126988  1
  Co  Co7  1  0.000000  0.843975  0.716988  1
  Co  Co8  1  0.500000  0.948498  0.384123  1
  Co  Co9  1  0.500000  0.435624  0.051502  1
  Co  Co10  1  0.500000  0.615877  0.564376  1
  Si  Si11  1  0.000000  0.000000  0.000000  1
  Si  Si12  1  0.500000  0.708720  0.113502  1
  Si  Si13  1  0.500000  0.404782  0.291280  1
  Si  Si14  1  0.500000  0.886498  0.595218  1
  Si  Si15  1  0.000000  0.593304  0.705766  1
  Si  Si16  1  0.000000  0.112464  0.406696  1
  Si  Si17  1  0.000000  0.294234  0.887536  1
  Ru  Ru18  1  0.500000  0.783298  0.899083  1
  Ru  Ru19  1  0.500000  0.115785  0.216702  1
  Ru  Ru20  1  0.500000  0.100917  0.884215  1
