# generated using pymatgen
data_NdCrOs2C
_symmetry_space_group_name_H-M   'P 1'
_cell_length_a   5.92146874
_cell_length_b   5.92147041
_cell_length_c   7.23997400
_cell_angle_alpha   90.00000000
_cell_angle_beta   90.00000000
_cell_angle_gamma   140.81012658
_symmetry_Int_Tables_number   1
_chemical_formula_structural   NdCrOs2C
_chemical_formula_sum   'Nd2 Cr2 Os4 C2'
_cell_volume   160.41282736
_cell_formula_units_Z   2
loop_
 _symmetry_equiv_pos_site_id
 _symmetry_equiv_pos_as_xyz
  1  'x, y, z'
loop_
 _atom_site_type_symbol
 _atom_site_label
 _atom_site_symmetry_multiplicity
 _atom_site_fract_x
 _atom_site_fract_y
 _atom_site_fract_z
 _atom_site_occupancy
  Nd  Nd0  1  0.542238  0.457762  0.250000  1
  Nd  Nd1  1  0.457762  0.542238  0.750000  1
  Cr  Cr2  1  0.272949  0.727051  0.250000  1
  Cr  Cr3  1  0.727051  0.272949  0.750000  1
  Os  Os4  1  0.832006  0.167994  0.055822  1
  Os  Os5  1  0.167994  0.832006  0.944178  1
  Os  Os6  1  0.167994  0.832006  0.555822  1
  Os  Os7  1  0.832006  0.167994  0.444178  1
  C  C8  1  0.000000  0.000000  0.000000  1
  C  C9  1  0.000000  0.000000  0.500000  1
