# generated using pymatgen
data_Sm2Lu3Si4
_symmetry_space_group_name_H-M   'P 1'
_cell_length_a   7.35476900
_cell_length_b   7.65695500
_cell_length_c   14.52254100
_cell_angle_alpha   90.00000000
_cell_angle_beta   90.00000000
_cell_angle_gamma   90.00000000
_symmetry_Int_Tables_number   1
_chemical_formula_structural   Sm2Lu3Si4
_chemical_formula_sum   'Sm8 Lu12 Si16'
_cell_volume   817.83886086
_cell_formula_units_Z   4
loop_
 _symmetry_equiv_pos_site_id
 _symmetry_equiv_pos_as_xyz
  1  'x, y, z'
loop_
 _atom_site_type_symbol
 _atom_site_label
 _atom_site_symmetry_multiplicity
 _atom_site_fract_x
 _atom_site_fract_y
 _atom_site_fract_z
 _atom_site_occupancy
  Sm  Sm0  1  0.013637  0.175090  0.097784  1
  Sm  Sm1  1  0.986363  0.824910  0.902216  1
  Sm  Sm2  1  0.486363  0.675090  0.902216  1
  Sm  Sm3  1  0.986363  0.824910  0.597784  1
  Sm  Sm4  1  0.513637  0.324910  0.097784  1
  Sm  Sm5  1  0.013637  0.175090  0.402216  1
  Sm  Sm6  1  0.513637  0.324910  0.402216  1
  Sm  Sm7  1  0.486363  0.675090  0.597784  1
  Lu  Lu8  1  0.161588  0.507640  0.750000  1
  Lu  Lu9  1  0.838412  0.492360  0.250000  1
  Lu  Lu10  1  0.338412  0.007640  0.250000  1
  Lu  Lu11  1  0.661588  0.992360  0.750000  1
  Lu  Lu12  1  0.329027  0.176884  0.623727  1
  Lu  Lu13  1  0.670973  0.823116  0.376273  1
  Lu  Lu14  1  0.170973  0.676884  0.376273  1
  Lu  Lu15  1  0.670973  0.823116  0.123727  1
  Lu  Lu16  1  0.829027  0.323116  0.623727  1
  Lu  Lu17  1  0.329027  0.176884  0.876273  1
  Lu  Lu18  1  0.829027  0.323116  0.876273  1
  Lu  Lu19  1  0.170973  0.676884  0.123727  1
  Si  Si20  1  0.034258  0.115948  0.750000  1
  Si  Si21  1  0.965742  0.884052  0.250000  1
  Si  Si22  1  0.465742  0.615948  0.250000  1
  Si  Si23  1  0.534258  0.384052  0.750000  1
  Si  Si24  1  0.283282  0.874787  0.750000  1
  Si  Si25  1  0.716718  0.125213  0.250000  1
  Si  Si26  1  0.216718  0.374787  0.250000  1
  Si  Si27  1  0.783282  0.625213  0.750000  1
  Si  Si28  1  0.155991  0.466162  0.539094  1
  Si  Si29  1  0.844009  0.533838  0.460906  1
  Si  Si30  1  0.344009  0.966162  0.460906  1
  Si  Si31  1  0.844009  0.533838  0.039094  1
  Si  Si32  1  0.655991  0.033838  0.539094  1
  Si  Si33  1  0.155991  0.466162  0.960906  1
  Si  Si34  1  0.655991  0.033838  0.960906  1
  Si  Si35  1  0.344009  0.966162  0.039094  1
