# generated using pymatgen
data_NdTaP7Ru12
_symmetry_space_group_name_H-M   'P 1'
_cell_length_a   9.41764200
_cell_length_b   9.41764131
_cell_length_c   3.91010500
_cell_angle_alpha   90.00000000
_cell_angle_beta   90.00000000
_cell_angle_gamma   120.00000147
_symmetry_Int_Tables_number   1
_chemical_formula_structural   NdTaP7Ru12
_chemical_formula_sum   'Nd1 Ta1 P7 Ru12'
_cell_volume   300.33321695
_cell_formula_units_Z   1
loop_
 _symmetry_equiv_pos_site_id
 _symmetry_equiv_pos_as_xyz
  1  'x, y, z'
loop_
 _atom_site_type_symbol
 _atom_site_label
 _atom_site_symmetry_multiplicity
 _atom_site_fract_x
 _atom_site_fract_y
 _atom_site_fract_z
 _atom_site_occupancy
  Nd  Nd0  1  0.333333  0.666667  0.000000  1
  Ta  Ta1  1  0.666667  0.333333  0.500000  1
  P  P2  1  0.602151  0.719544  0.500000  1
  P  P3  1  0.000000  0.000000  0.000000  1
  P  P4  1  0.280456  0.882608  0.500000  1
  P  P5  1  0.117392  0.397849  0.500000  1
  P  P6  1  0.886835  0.572482  0.000000  1
  P  P7  1  0.427518  0.314354  0.000000  1
  P  P8  1  0.685646  0.113165  0.000000  1
  Ru  Ru9  1  0.561185  0.961882  0.500000  1
  Ru  Ru10  1  0.400698  0.438815  0.500000  1
  Ru  Ru11  1  0.912889  0.122196  0.500000  1
  Ru  Ru12  1  0.209308  0.087111  0.500000  1
  Ru  Ru13  1  0.877804  0.790692  0.500000  1
  Ru  Ru14  1  0.726231  0.888328  0.000000  1
  Ru  Ru15  1  0.111672  0.837903  0.000000  1
  Ru  Ru16  1  0.162097  0.273769  0.000000  1
  Ru  Ru17  1  0.430886  0.080851  0.000000  1
  Ru  Ru18  1  0.919149  0.350036  0.000000  1
  Ru  Ru19  1  0.649964  0.569114  0.000000  1
  Ru  Ru20  1  0.038118  0.599302  0.500000  1
