# generated using pymatgen
data_La4Nd6PdRu3
_symmetry_space_group_name_H-M   'P 1'
_cell_length_a   9.16206558
_cell_length_b   9.21218503
_cell_length_c   7.33127352
_cell_angle_alpha   84.34545428
_cell_angle_beta   84.32290672
_cell_angle_gamma   42.38801660
_symmetry_Int_Tables_number   1
_chemical_formula_structural   La4Nd6PdRu3
_chemical_formula_sum   'La4 Nd6 Pd1 Ru3'
_cell_volume   414.80323342
_cell_formula_units_Z   1
loop_
 _symmetry_equiv_pos_site_id
 _symmetry_equiv_pos_as_xyz
  1  'x, y, z'
loop_
 _atom_site_type_symbol
 _atom_site_label
 _atom_site_symmetry_multiplicity
 _atom_site_fract_x
 _atom_site_fract_y
 _atom_site_fract_z
 _atom_site_occupancy
  La  La0  1  0.007154  0.806362  0.926679  1
  La  La1  1  0.201995  0.989436  0.591589  1
  La  La2  1  0.986928  0.200534  0.091289  1
  La  La3  1  0.782606  0.030460  0.405205  1
  Nd  Nd4  1  0.367249  0.198852  0.817857  1
  Nd  Nd5  1  0.786467  0.638137  0.685886  1
  Nd  Nd6  1  0.644017  0.786466  0.187387  1
  Nd  Nd7  1  0.209265  0.352637  0.310034  1
  Nd  Nd8  1  0.573055  0.428388  0.750635  1
  Nd  Nd9  1  0.429671  0.577953  0.242558  1
  Pd  Pd10  1  0.184027  0.594265  0.572659  1
  Ru  Ru11  1  0.395134  0.829963  0.915674  1
  Ru  Ru12  1  0.828587  0.393019  0.421946  1
  Ru  Ru13  1  0.603845  0.173530  0.080604  1
