# generated using pymatgen
data_LiLaHo15Cd3Ni4
_symmetry_space_group_name_H-M   'P 1'
_cell_length_a   9.54533974
_cell_length_b   9.54533920
_cell_length_c   9.54533990
_cell_angle_alpha   59.78077636
_cell_angle_beta   59.78078027
_cell_angle_gamma   59.78077911
_symmetry_Int_Tables_number   1
_chemical_formula_structural   LiLaHo15Cd3Ni4
_chemical_formula_sum   'Li1 La1 Ho15 Cd3 Ni4'
_cell_volume   611.91659191
_cell_formula_units_Z   1
loop_
 _symmetry_equiv_pos_site_id
 _symmetry_equiv_pos_as_xyz
  1  'x, y, z'
loop_
 _atom_site_type_symbol
 _atom_site_label
 _atom_site_symmetry_multiplicity
 _atom_site_fract_x
 _atom_site_fract_y
 _atom_site_fract_z
 _atom_site_occupancy
  Li  Li0  1  0.571379  0.571379  0.571379  1
  La  La1  1  0.346925  0.346925  0.346925  1
  Ho  Ho2  1  0.348398  0.348398  0.952446  1
  Ho  Ho3  1  0.348398  0.952446  0.348398  1
  Ho  Ho4  1  0.952446  0.348398  0.348398  1
  Ho  Ho5  1  0.814257  0.189744  0.189744  1
  Ho  Ho6  1  0.187136  0.814169  0.814169  1
  Ho  Ho7  1  0.189744  0.814257  0.189744  1
  Ho  Ho8  1  0.814169  0.187136  0.814169  1
  Ho  Ho9  1  0.189744  0.189744  0.814257  1
  Ho  Ho10  1  0.814169  0.814169  0.187136  1
  Ho  Ho11  1  0.934977  0.565213  0.565213  1
  Ho  Ho12  1  0.563527  0.936698  0.936698  1
  Ho  Ho13  1  0.565213  0.934977  0.565213  1
  Ho  Ho14  1  0.936698  0.563527  0.936698  1
  Ho  Ho15  1  0.565213  0.565213  0.934977  1
  Ho  Ho16  1  0.936698  0.936698  0.563527  1
  Cd  Cd17  1  0.583405  0.583405  0.255243  1
  Cd  Cd18  1  0.583405  0.255243  0.583405  1
  Cd  Cd19  1  0.255243  0.583405  0.583405  1
  Ni  Ni20  1  0.143372  0.143372  0.143372  1
  Ni  Ni21  1  0.140000  0.140000  0.575484  1
  Ni  Ni22  1  0.140000  0.575484  0.140000  1
  Ni  Ni23  1  0.575484  0.140000  0.140000  1
