# generated using pymatgen
data_HoPa2Ga5
_symmetry_space_group_name_H-M   'P 1'
_cell_length_a   6.07422300
_cell_length_b   9.51833600
_cell_length_c   11.64315900
_cell_angle_alpha   90.00000000
_cell_angle_beta   90.00000000
_cell_angle_gamma   90.00000000
_symmetry_Int_Tables_number   1
_chemical_formula_structural   HoPa2Ga5
_chemical_formula_sum   'Ho4 Pa8 Ga20'
_cell_volume   673.16664938
_cell_formula_units_Z   4
loop_
 _symmetry_equiv_pos_site_id
 _symmetry_equiv_pos_as_xyz
  1  'x, y, z'
loop_
 _atom_site_type_symbol
 _atom_site_label
 _atom_site_symmetry_multiplicity
 _atom_site_fract_x
 _atom_site_fract_y
 _atom_site_fract_z
 _atom_site_occupancy
  Ho  Ho0  1  0.856378  0.750000  0.072479  1
  Ho  Ho1  1  0.643622  0.750000  0.572479  1
  Ho  Ho2  1  0.143622  0.250000  0.927521  1
  Ho  Ho3  1  0.356378  0.250000  0.427521  1
  Pa  Pa4  1  0.882123  0.503059  0.352128  1
  Pa  Pa5  1  0.617877  0.996941  0.852128  1
  Pa  Pa6  1  0.117877  0.003059  0.647872  1
  Pa  Pa7  1  0.382123  0.496941  0.147872  1
  Pa  Pa8  1  0.117877  0.496941  0.647872  1
  Pa  Pa9  1  0.382123  0.003059  0.147872  1
  Pa  Pa10  1  0.882123  0.996941  0.352128  1
  Pa  Pa11  1  0.617877  0.503059  0.852128  1
  Ga  Ga12  1  0.873118  0.052091  0.090588  1
  Ga  Ga13  1  0.626882  0.447909  0.590588  1
  Ga  Ga14  1  0.126882  0.552091  0.909412  1
  Ga  Ga15  1  0.373118  0.947909  0.409412  1
  Ga  Ga16  1  0.126882  0.947909  0.909412  1
  Ga  Ga17  1  0.373118  0.552091  0.409412  1
  Ga  Ga18  1  0.873118  0.447909  0.090588  1
  Ga  Ga19  1  0.626882  0.052091  0.590588  1
  Ga  Ga20  1  0.157515  0.750000  0.263266  1
  Ga  Ga21  1  0.342485  0.750000  0.763266  1
  Ga  Ga22  1  0.842485  0.250000  0.736734  1
  Ga  Ga23  1  0.657515  0.250000  0.236734  1
  Ga  Ga24  1  0.388048  0.750000  0.995314  1
  Ga  Ga25  1  0.111952  0.750000  0.495314  1
  Ga  Ga26  1  0.611952  0.250000  0.004686  1
  Ga  Ga27  1  0.888048  0.250000  0.504686  1
  Ga  Ga28  1  0.598332  0.750000  0.293005  1
  Ga  Ga29  1  0.901668  0.750000  0.793005  1
  Ga  Ga30  1  0.401668  0.250000  0.706995  1
  Ga  Ga31  1  0.098332  0.250000  0.206995  1
