# generated using pymatgen
data_PrTh4P12Ru19
_symmetry_space_group_name_H-M   'P 1'
_cell_length_a   12.67545703
_cell_length_b   12.67545688
_cell_length_c   4.02442600
_cell_angle_alpha   90.00000000
_cell_angle_beta   90.00000000
_cell_angle_gamma   120.00760880
_symmetry_Int_Tables_number   1
_chemical_formula_structural   PrTh4P12Ru19
_chemical_formula_sum   'Pr1 Th4 P12 Ru19'
_cell_volume   559.92327971
_cell_formula_units_Z   1
loop_
 _symmetry_equiv_pos_site_id
 _symmetry_equiv_pos_as_xyz
  1  'x, y, z'
loop_
 _atom_site_type_symbol
 _atom_site_label
 _atom_site_symmetry_multiplicity
 _atom_site_fract_x
 _atom_site_fract_y
 _atom_site_fract_z
 _atom_site_occupancy
  Pr  Pr0  1  0.187930  0.187930  0.500000  1
  Th  Th1  1  0.814224  0.000414  0.500000  1
  Th  Th2  1  0.000414  0.814224  0.500000  1
  Th  Th3  1  0.332987  0.666643  0.000000  1
  Th  Th4  1  0.666643  0.332987  0.000000  1
  P  P5  1  0.187830  0.001366  0.000000  1
  P  P6  1  0.001366  0.187830  0.000000  1
  P  P7  1  0.812521  0.812521  0.000000  1
  P  P8  1  0.524279  0.694807  0.500000  1
  P  P9  1  0.304856  0.829547  0.500000  1
  P  P10  1  0.171071  0.475175  0.500000  1
  P  P11  1  0.475175  0.171071  0.500000  1
  P  P12  1  0.694807  0.524279  0.500000  1
  P  P13  1  0.829547  0.304856  0.500000  1
  P  P14  1  0.625129  0.999950  0.000000  1
  P  P15  1  0.999950  0.625129  0.000000  1
  P  P16  1  0.374469  0.374469  0.000000  1
  Ru  Ru17  1  0.445113  0.998970  0.000000  1
  Ru  Ru18  1  0.998970  0.445113  0.000000  1
  Ru  Ru19  1  0.554679  0.554679  0.000000  1
  Ru  Ru20  1  0.283970  0.999307  0.500000  1
  Ru  Ru21  1  0.999307  0.283970  0.500000  1
  Ru  Ru22  1  0.715613  0.715613  0.500000  1
  Ru  Ru23  1  0.623182  0.807023  0.000000  1
  Ru  Ru24  1  0.192531  0.815877  0.000000  1
  Ru  Ru25  1  0.184052  0.379563  0.000000  1
  Ru  Ru26  1  0.379563  0.184052  0.000000  1
  Ru  Ru27  1  0.807023  0.623182  0.000000  1
  Ru  Ru28  1  0.815877  0.192531  0.000000  1
  Ru  Ru29  1  0.507057  0.873616  0.500000  1
  Ru  Ru30  1  0.125775  0.632540  0.500000  1
  Ru  Ru31  1  0.367433  0.493237  0.500000  1
  Ru  Ru32  1  0.493237  0.367433  0.500000  1
  Ru  Ru33  1  0.873616  0.507057  0.500000  1
  Ru  Ru34  1  0.632540  0.125775  0.500000  1
  Ru  Ru35  1  0.997265  0.997265  0.000000  1
