# generated using pymatgen
data_CrSb12Ru2Au
_symmetry_space_group_name_H-M   'P 1'
_cell_length_a   8.26138224
_cell_length_b   8.20914084
_cell_length_c   9.50856141
_cell_angle_alpha   54.70032318
_cell_angle_beta   54.26076128
_cell_angle_gamma   70.08381141
_symmetry_Int_Tables_number   1
_chemical_formula_structural   CrSb12Ru2Au
_chemical_formula_sum   'Cr1 Sb12 Ru2 Au1'
_cell_volume   427.18141937
_cell_formula_units_Z   1
loop_
 _symmetry_equiv_pos_site_id
 _symmetry_equiv_pos_as_xyz
  1  'x, y, z'
loop_
 _atom_site_type_symbol
 _atom_site_label
 _atom_site_symmetry_multiplicity
 _atom_site_fract_x
 _atom_site_fract_y
 _atom_site_fract_z
 _atom_site_occupancy
  Cr  Cr0  1  0.500000  0.000000  0.500000  1
  Sb  Sb1  1  0.155195  0.156608  0.176378  1
  Sb  Sb2  1  0.844805  0.843392  0.823622  1
  Sb  Sb3  1  0.843761  0.854965  0.501984  1
  Sb  Sb4  1  0.156239  0.145035  0.498016  1
  Sb  Sb5  1  0.805220  0.502606  0.336374  1
  Sb  Sb6  1  0.194780  0.497394  0.663626  1
  Sb  Sb7  1  0.504494  0.818894  0.333566  1
  Sb  Sb8  1  0.495506  0.181106  0.666434  1
  Sb  Sb9  1  0.643527  0.335255  0.860249  1
  Sb  Sb10  1  0.356473  0.664745  0.139751  1
  Sb  Sb11  1  0.667428  0.341867  0.151096  1
  Sb  Sb12  1  0.332572  0.658133  0.848904  1
  Ru  Ru13  1  0.000000  0.500000  0.000000  1
  Ru  Ru14  1  0.500000  0.000000  0.000000  1
  Au  Au15  1  0.000000  0.500000  0.500000  1
