# generated using pymatgen
data_Y3TmRe3PN12
_symmetry_space_group_name_H-M   'P 1'
_cell_length_a   7.30938810
_cell_length_b   7.28677283
_cell_length_c   6.08988037
_cell_angle_alpha   73.96215534
_cell_angle_beta   74.07746194
_cell_angle_gamma   83.05319838
_symmetry_Int_Tables_number   1
_chemical_formula_structural   Y3TmRe3PN12
_chemical_formula_sum   'Y3 Tm1 Re3 P1 N12'
_cell_volume   299.41590570
_cell_formula_units_Z   1
loop_
 _symmetry_equiv_pos_site_id
 _symmetry_equiv_pos_as_xyz
  1  'x, y, z'
loop_
 _atom_site_type_symbol
 _atom_site_label
 _atom_site_symmetry_multiplicity
 _atom_site_fract_x
 _atom_site_fract_y
 _atom_site_fract_z
 _atom_site_occupancy
  Y  Y0  1  0.104572  0.903915  0.249974  1
  Y  Y1  1  0.701980  0.278819  0.258812  1
  Y  Y2  1  0.303237  0.707834  0.736853  1
  Tm  Tm3  1  0.901034  0.087010  0.762845  1
  Re  Re4  1  0.198536  0.378932  0.223367  1
  Re  Re5  1  0.379607  0.199037  0.723267  1
  Re  Re6  1  0.784897  0.629209  0.785421  1
  P  P7  1  0.618034  0.809970  0.277137  1
  N  N8  1  0.668196  0.650699  0.093983  1
  N  N9  1  0.393175  0.863272  0.332034  1
  N  N10  1  0.362703  0.341264  0.423922  1
  N  N11  1  0.125375  0.626334  0.149405  1
  N  N12  1  0.003227  0.215061  0.343000  1
  N  N13  1  0.771889  0.976474  0.160787  1
  N  N14  1  0.215374  0.004243  0.836332  1
  N  N15  1  0.630979  0.122658  0.661743  1
  N  N16  1  0.344193  0.363095  0.920366  1
  N  N17  1  0.860059  0.381773  0.839951  1
  N  N18  1  0.643655  0.682350  0.554025  1
  N  N19  1  0.989277  0.778050  0.666775  1
