# generated using pymatgen
data_Ca2AcAsO6
_symmetry_space_group_name_H-M   'P 1'
_cell_length_a   7.55133093
_cell_length_b   7.55133040
_cell_length_c   5.75349500
_cell_angle_alpha   90.00000000
_cell_angle_beta   90.00000000
_cell_angle_gamma   105.89982364
_symmetry_Int_Tables_number   1
_chemical_formula_structural   Ca2AcAsO6
_chemical_formula_sum   'Ca4 Ac2 As2 O12'
_cell_volume   315.52760945
_cell_formula_units_Z   2
loop_
 _symmetry_equiv_pos_site_id
 _symmetry_equiv_pos_as_xyz
  1  'x, y, z'
loop_
 _atom_site_type_symbol
 _atom_site_label
 _atom_site_symmetry_multiplicity
 _atom_site_fract_x
 _atom_site_fract_y
 _atom_site_fract_z
 _atom_site_occupancy
  Ca  Ca0  1  0.292460  0.104343  0.769190  1
  Ca  Ca1  1  0.895657  0.707540  0.769190  1
  Ca  Ca2  1  0.104343  0.292460  0.269190  1
  Ca  Ca3  1  0.707540  0.895657  0.269190  1
  Ac  Ac4  1  0.606002  0.393998  0.251401  1
  Ac  Ac5  1  0.393998  0.606002  0.751401  1
  As  As6  1  0.815014  0.184986  0.801809  1
  As  As7  1  0.184986  0.815014  0.301809  1
  O  O8  1  0.342503  0.332311  0.514010  1
  O  O9  1  0.598505  0.097415  0.923432  1
  O  O10  1  0.097415  0.598505  0.423432  1
  O  O11  1  0.667689  0.657497  0.514010  1
  O  O12  1  0.192001  0.807999  0.999852  1
  O  O13  1  0.657497  0.667689  0.014010  1
  O  O14  1  0.807999  0.192001  0.499852  1
  O  O15  1  0.332311  0.342503  0.014010  1
  O  O16  1  0.050426  0.949574  0.407672  1
  O  O17  1  0.401495  0.902585  0.423432  1
  O  O18  1  0.949574  0.050426  0.907672  1
  O  O19  1  0.902585  0.401495  0.923432  1
