# generated using pymatgen
data_TmPu(CI)2
_symmetry_space_group_name_H-M   'P 1'
_cell_length_a   4.08175640
_cell_length_b   4.08175744
_cell_length_c   10.98260765
_cell_angle_alpha   87.25989802
_cell_angle_beta   87.25989655
_cell_angle_gamma   56.59788854
_symmetry_Int_Tables_number   1
_chemical_formula_structural   TmPu(CI)2
_chemical_formula_sum   'Tm1 Pu1 C2 I2'
_cell_volume   152.53006592
_cell_formula_units_Z   1
loop_
 _symmetry_equiv_pos_site_id
 _symmetry_equiv_pos_as_xyz
  1  'x, y, z'
loop_
 _atom_site_type_symbol
 _atom_site_label
 _atom_site_symmetry_multiplicity
 _atom_site_fract_x
 _atom_site_fract_y
 _atom_site_fract_z
 _atom_site_occupancy
  Tm  Tm0  1  0.141191  0.141191  0.873189  1
  Pu  Pu1  1  0.860209  0.860209  0.130112  1
  C  C2  1  0.426046  0.426046  0.961672  1
  C  C3  1  0.578821  0.578821  0.025601  1
  I  I4  1  0.817477  0.817477  0.683336  1
  I  I5  1  0.176257  0.176257  0.326091  1
