# generated using pymatgen
data_Tb9Ho10LuPt16
_symmetry_space_group_name_H-M   'P 1'
_cell_length_a   7.42954580
_cell_length_b   7.52993062
_cell_length_c   14.70840100
_cell_angle_alpha   89.99438451
_cell_angle_beta   90.16498823
_cell_angle_gamma   90.02266067
_symmetry_Int_Tables_number   1
_chemical_formula_structural   Tb9Ho10LuPt16
_chemical_formula_sum   'Tb9 Ho10 Lu1 Pt16'
_cell_volume   822.84278315
_cell_formula_units_Z   1
loop_
 _symmetry_equiv_pos_site_id
 _symmetry_equiv_pos_as_xyz
  1  'x, y, z'
loop_
 _atom_site_type_symbol
 _atom_site_label
 _atom_site_symmetry_multiplicity
 _atom_site_fract_x
 _atom_site_fract_y
 _atom_site_fract_z
 _atom_site_occupancy
  Tb  Tb0  1  0.140921  0.330937  0.620531  1
  Tb  Tb1  1  0.484796  0.675825  0.594861  1
  Tb  Tb2  1  0.986188  0.824951  0.905926  1
  Tb  Tb3  1  0.515131  0.325227  0.095442  1
  Tb  Tb4  1  0.015713  0.172251  0.402569  1
  Tb  Tb5  1  0.516047  0.324715  0.404410  1
  Tb  Tb6  1  0.013504  0.174488  0.095558  1
  Tb  Tb7  1  0.485438  0.674053  0.905751  1
  Tb  Tb8  1  0.984641  0.825838  0.595061  1
  Ho  Ho9  1  0.641242  0.168678  0.622034  1
  Ho  Ho10  1  0.142207  0.331265  0.878604  1
  Ho  Ho11  1  0.358164  0.831980  0.122002  1
  Ho  Ho12  1  0.858275  0.669588  0.377782  1
  Ho  Ho13  1  0.360268  0.831966  0.377337  1
  Ho  Ho14  1  0.857439  0.669285  0.122075  1
  Ho  Ho15  1  0.642186  0.168617  0.878928  1
  Ho  Ho16  1  0.802913  0.511459  0.750535  1
  Ho  Ho17  1  0.303589  0.988568  0.750748  1
  Ho  Ho18  1  0.196553  0.488911  0.249802  1
  Lu  Lu19  1  0.696782  0.010584  0.249326  1
  Pt  Pt20  1  0.694127  0.971716  0.457344  1
  Pt  Pt21  1  0.191889  0.529916  0.042225  1
  Pt  Pt22  1  0.307994  0.029947  0.958443  1
  Pt  Pt23  1  0.804048  0.472315  0.541867  1
  Pt  Pt24  1  0.308685  0.026923  0.541671  1
  Pt  Pt25  1  0.808107  0.469967  0.958739  1
  Pt  Pt26  1  0.691892  0.970806  0.043024  1
  Pt  Pt27  1  0.192850  0.529703  0.455906  1
  Pt  Pt28  1  0.436161  0.383961  0.750652  1
  Pt  Pt29  1  0.935641  0.115626  0.750774  1
  Pt  Pt30  1  0.564785  0.617956  0.249607  1
  Pt  Pt31  1  0.062107  0.884585  0.249571  1
  Pt  Pt32  1  0.665025  0.857830  0.750900  1
  Pt  Pt33  1  0.165263  0.642243  0.750896  1
  Pt  Pt34  1  0.337009  0.141267  0.249549  1
  Pt  Pt35  1  0.832424  0.356054  0.249547  1
