# generated using pymatgen
data_YbCd(AsO2)4
_symmetry_space_group_name_H-M   'P 1'
_cell_length_a   5.43828100
_cell_length_b   4.71300916
_cell_length_c   18.66827000
_cell_angle_alpha   89.83662263
_cell_angle_beta   90.00000000
_cell_angle_gamma   90.00000000
_symmetry_Int_Tables_number   1
_chemical_formula_structural   YbCd(AsO2)4
_chemical_formula_sum   'Yb2 Cd2 As8 O16'
_cell_volume   478.47828845
_cell_formula_units_Z   2
loop_
 _symmetry_equiv_pos_site_id
 _symmetry_equiv_pos_as_xyz
  1  'x, y, z'
loop_
 _atom_site_type_symbol
 _atom_site_label
 _atom_site_symmetry_multiplicity
 _atom_site_fract_x
 _atom_site_fract_y
 _atom_site_fract_z
 _atom_site_occupancy
  Yb  Yb0  1  0.985827  0.282224  0.763181  1
  Yb  Yb1  1  0.485827  0.717776  0.736819  1
  Cd  Cd2  1  0.001133  0.742527  0.252137  1
  Cd  Cd3  1  0.501133  0.257473  0.247863  1
  As  As4  1  0.286025  0.501121  0.412082  1
  As  As5  1  0.786025  0.498879  0.087918  1
  As  As6  1  0.712321  0.529603  0.587239  1
  As  As7  1  0.212321  0.470397  0.912761  1
  As  As8  1  0.695154  0.999921  0.409050  1
  As  As9  1  0.195154  0.000079  0.090950  1
  As  As10  1  0.292155  0.044529  0.600524  1
  As  As11  1  0.792155  0.955471  0.899476  1
  O  O12  1  0.229087  0.468240  0.318292  1
  O  O13  1  0.729087  0.531760  0.181708  1
  O  O14  1  0.806484  0.525714  0.677356  1
  O  O15  1  0.306484  0.474286  0.822644  1
  O  O16  1  0.724130  0.972515  0.314165  1
  O  O17  1  0.224130  0.027485  0.185835  1
  O  O18  1  0.286108  0.103922  0.694424  1
  O  O19  1  0.786108  0.896078  0.805576  1
  O  O20  1  0.373600  0.876586  0.418227  1
  O  O21  1  0.873600  0.123414  0.081773  1
  O  O22  1  0.607314  0.160281  0.578932  1
  O  O23  1  0.107314  0.839719  0.921068  1
  O  O24  1  0.893392  0.333452  0.891089  1
  O  O25  1  0.393392  0.666548  0.608911  1
  O  O26  1  0.107271  0.623152  0.090043  1
  O  O27  1  0.607271  0.376848  0.409957  1
