# generated using pymatgen
data_PuN(OF3)2
_symmetry_space_group_name_H-M   'P 1'
_cell_length_a   5.47397245
_cell_length_b   5.47397241
_cell_length_c   5.88773191
_cell_angle_alpha   90.20364493
_cell_angle_beta   90.20364758
_cell_angle_gamma   98.93656230
_symmetry_Int_Tables_number   1
_chemical_formula_structural   PuN(OF3)2
_chemical_formula_sum   'Pu1 N1 O2 F6'
_cell_volume   174.27799561
_cell_formula_units_Z   1
loop_
 _symmetry_equiv_pos_site_id
 _symmetry_equiv_pos_as_xyz
  1  'x, y, z'
loop_
 _atom_site_type_symbol
 _atom_site_label
 _atom_site_symmetry_multiplicity
 _atom_site_fract_x
 _atom_site_fract_y
 _atom_site_fract_z
 _atom_site_occupancy
  Pu  Pu0  1  0.500000  0.500000  0.000000  1
  N  N1  1  0.000000  0.000000  0.500000  1
  O  O2  1  0.136747  0.863253  0.500000  1
  O  O3  1  0.863253  0.136747  0.500000  1
  F  F4  1  0.707283  0.707283  0.254371  1
  F  F5  1  0.295929  0.295929  0.249600  1
  F  F6  1  0.704071  0.704071  0.750400  1
  F  F7  1  0.292717  0.292717  0.745629  1
  F  F8  1  0.745970  0.254030  0.000000  1
  F  F9  1  0.254030  0.745970  0.000000  1
