# generated using pymatgen
data_Dy2ThZnAu5
_symmetry_space_group_name_H-M   'P 1'
_cell_length_a   8.47898438
_cell_length_b   8.47898407
_cell_length_c   13.58401200
_cell_angle_alpha   90.00000000
_cell_angle_beta   90.00000000
_cell_angle_gamma   127.30864199
_symmetry_Int_Tables_number   1
_chemical_formula_structural   Dy2ThZnAu5
_chemical_formula_sum   'Dy8 Th4 Zn4 Au20'
_cell_volume   776.76832550
_cell_formula_units_Z   4
loop_
 _symmetry_equiv_pos_site_id
 _symmetry_equiv_pos_as_xyz
  1  'x, y, z'
loop_
 _atom_site_type_symbol
 _atom_site_label
 _atom_site_symmetry_multiplicity
 _atom_site_fract_x
 _atom_site_fract_y
 _atom_site_fract_z
 _atom_site_occupancy
  Dy  Dy0  1  0.630723  0.369277  0.460627  1
  Dy  Dy1  1  0.369277  0.630723  0.539373  1
  Dy  Dy2  1  0.630723  0.369277  0.039373  1
  Dy  Dy3  1  0.369277  0.630723  0.960627  1
  Dy  Dy4  1  0.882013  0.117987  0.951860  1
  Dy  Dy5  1  0.117987  0.882013  0.048140  1
  Dy  Dy6  1  0.882013  0.117987  0.548140  1
  Dy  Dy7  1  0.117987  0.882013  0.451860  1
  Th  Th8  1  0.930179  0.069821  0.250000  1
  Th  Th9  1  0.069821  0.930179  0.750000  1
  Th  Th10  1  0.319615  0.680385  0.250000  1
  Th  Th11  1  0.680385  0.319615  0.750000  1
  Zn  Zn12  1  0.718804  0.281196  0.250000  1
  Zn  Zn13  1  0.281196  0.718804  0.750000  1
  Zn  Zn14  1  0.534198  0.465802  0.250000  1
  Zn  Zn15  1  0.465802  0.534198  0.750000  1
  Au  Au16  1  0.318299  0.064863  0.250000  1
  Au  Au17  1  0.064863  0.318299  0.750000  1
  Au  Au18  1  0.681701  0.935137  0.750000  1
  Au  Au19  1  0.935137  0.681701  0.250000  1
  Au  Au20  1  0.570482  0.005138  0.398365  1
  Au  Au21  1  0.005138  0.570482  0.601635  1
  Au  Au22  1  0.570482  0.005138  0.101635  1
  Au  Au23  1  0.005138  0.570482  0.898365  1
  Au  Au24  1  0.429518  0.994862  0.601635  1
  Au  Au25  1  0.994862  0.429518  0.398365  1
  Au  Au26  1  0.429518  0.994862  0.898365  1
  Au  Au27  1  0.994862  0.429518  0.101635  1
  Au  Au28  1  0.684464  0.739894  0.396614  1
  Au  Au29  1  0.739894  0.684464  0.603386  1
  Au  Au30  1  0.684464  0.739894  0.103386  1
  Au  Au31  1  0.739894  0.684464  0.896614  1
  Au  Au32  1  0.315536  0.260106  0.603386  1
  Au  Au33  1  0.260106  0.315536  0.396614  1
  Au  Au34  1  0.315536  0.260106  0.896614  1
  Au  Au35  1  0.260106  0.315536  0.103386  1
