# generated using pymatgen
data_Ho5Tm5(Sn3P)2
_symmetry_space_group_name_H-M   'P 1'
_cell_length_a   9.00373024
_cell_length_b   9.00013824
_cell_length_c   6.62543100
_cell_angle_alpha   90.00000000
_cell_angle_beta   90.00000000
_cell_angle_gamma   119.98679374
_symmetry_Int_Tables_number   1
_chemical_formula_structural   Ho5Tm5(Sn3P)2
_chemical_formula_sum   'Ho5 Tm5 Sn6 P2'
_cell_volume   465.02275012
_cell_formula_units_Z   1
loop_
 _symmetry_equiv_pos_site_id
 _symmetry_equiv_pos_as_xyz
  1  'x, y, z'
loop_
 _atom_site_type_symbol
 _atom_site_label
 _atom_site_symmetry_multiplicity
 _atom_site_fract_x
 _atom_site_fract_y
 _atom_site_fract_z
 _atom_site_occupancy
  Ho  Ho0  1  0.757965  0.757903  0.750000  1
  Ho  Ho1  1  0.242035  0.999938  0.750000  1
  Ho  Ho2  1  0.000000  0.242079  0.750000  1
  Ho  Ho3  1  0.242072  0.241994  0.250000  1
  Ho  Ho4  1  0.757928  0.999922  0.250000  1
  Tm  Tm5  1  0.666756  0.333469  0.000042  1
  Tm  Tm6  1  0.333244  0.666714  0.000042  1
  Tm  Tm7  1  0.333244  0.666714  0.499958  1
  Tm  Tm8  1  0.666756  0.333469  0.499958  1
  Tm  Tm9  1  0.000000  0.758686  0.250000  1
  Sn  Sn10  1  0.399749  0.399753  0.750000  1
  Sn  Sn11  1  0.600251  0.000005  0.750000  1
  Sn  Sn12  1  0.000000  0.600316  0.750000  1
  Sn  Sn13  1  0.601207  0.600589  0.250000  1
  Sn  Sn14  1  0.398793  0.999381  0.250000  1
  Sn  Sn15  1  0.000000  0.400172  0.250000  1
  P  P16  1  0.000000  0.999447  0.000534  1
  P  P17  1  0.000000  0.999447  0.499466  1
