# generated using pymatgen
data_Zr10InBi5S2
_symmetry_space_group_name_H-M   'P 1'
_cell_length_a   8.70519300
_cell_length_b   8.66287973
_cell_length_c   6.21375000
_cell_angle_alpha   90.00000000
_cell_angle_beta   90.00000000
_cell_angle_gamma   120.16171158
_symmetry_Int_Tables_number   1
_chemical_formula_structural   Zr10InBi5S2
_chemical_formula_sum   'Zr10 In1 Bi5 S2'
_cell_volume   405.14930634
_cell_formula_units_Z   1
loop_
 _symmetry_equiv_pos_site_id
 _symmetry_equiv_pos_as_xyz
  1  'x, y, z'
loop_
 _atom_site_type_symbol
 _atom_site_label
 _atom_site_symmetry_multiplicity
 _atom_site_fract_x
 _atom_site_fract_y
 _atom_site_fract_z
 _atom_site_occupancy
  Zr  Zr0  1  0.246444  0.000000  0.750000  1
  Zr  Zr1  1  0.756176  0.000000  0.250000  1
  Zr  Zr2  1  0.995020  0.241027  0.750000  1
  Zr  Zr3  1  0.000622  0.757223  0.250000  1
  Zr  Zr4  1  0.753992  0.758973  0.750000  1
  Zr  Zr5  1  0.243400  0.242777  0.250000  1
  Zr  Zr6  1  0.334672  0.668392  0.502974  1
  Zr  Zr7  1  0.666282  0.331608  0.502974  1
  Zr  Zr8  1  0.666282  0.331608  0.997026  1
  Zr  Zr9  1  0.334672  0.668392  0.997026  1
  In  In10  1  0.599195  0.000000  0.750000  1
  Bi  Bi11  1  0.403153  0.000000  0.250000  1
  Bi  Bi12  1  0.999176  0.601278  0.750000  1
  Bi  Bi13  1  0.000105  0.400190  0.250000  1
  Bi  Bi14  1  0.397897  0.398722  0.750000  1
  Bi  Bi15  1  0.599918  0.599810  0.250000  1
  S  S16  1  0.001494  0.000000  0.500528  1
  S  S17  1  0.001494  0.000000  0.999472  1
