# generated using pymatgen
data_Yb9YPb6F2
_symmetry_space_group_name_H-M   'P 1'
_cell_length_a   9.39445028
_cell_length_b   9.39444940
_cell_length_c   9.39444916
_cell_angle_alpha   127.93568030
_cell_angle_beta   127.93567866
_cell_angle_gamma   76.72924950
_symmetry_Int_Tables_number   1
_chemical_formula_structural   Yb9YPb6F2
_chemical_formula_sum   'Yb9 Y1 Pb6 F2'
_cell_volume   500.85895812
_cell_formula_units_Z   1
loop_
 _symmetry_equiv_pos_site_id
 _symmetry_equiv_pos_as_xyz
  1  'x, y, z'
loop_
 _atom_site_type_symbol
 _atom_site_label
 _atom_site_symmetry_multiplicity
 _atom_site_fract_x
 _atom_site_fract_y
 _atom_site_fract_z
 _atom_site_occupancy
  Yb  Yb0  1  0.500000  0.500000  0.000000  1
  Yb  Yb1  1  0.502701  0.002837  0.813071  1
  Yb  Yb2  1  0.189766  0.689631  0.186929  1
  Yb  Yb3  1  0.002837  0.189766  0.500135  1
  Yb  Yb4  1  0.689631  0.502701  0.499865  1
  Yb  Yb5  1  0.497299  0.997163  0.186929  1
  Yb  Yb6  1  0.810234  0.310369  0.813071  1
  Yb  Yb7  1  0.997163  0.810234  0.499865  1
  Yb  Yb8  1  0.310369  0.497299  0.500135  1
  Y  Y9  1  0.000000  0.000000  0.000000  1
  Pb  Pb10  1  0.249318  0.249318  0.000000  1
  Pb  Pb11  1  0.750682  0.750682  0.000000  1
  Pb  Pb12  1  0.865951  0.363720  0.229672  1
  Pb  Pb13  1  0.134049  0.636280  0.770329  1
  Pb  Pb14  1  0.363720  0.134049  0.497768  1
  Pb  Pb15  1  0.636280  0.865951  0.502232  1
  F  F16  1  0.250000  0.750000  0.500000  1
  F  F17  1  0.750000  0.250000  0.500000  1
