# generated using pymatgen
data_Er13Tm7(Ir3Rh)3
_symmetry_space_group_name_H-M   'P 1'
_cell_length_a   10.75599604
_cell_length_b   10.75475802
_cell_length_c   6.32734902
_cell_angle_alpha   90.00440052
_cell_angle_beta   89.99182140
_cell_angle_gamma   89.99555729
_symmetry_Int_Tables_number   1
_chemical_formula_structural   Er13Tm7(Ir3Rh)3
_chemical_formula_sum   'Er13 Tm7 Ir9 Rh3'
_cell_volume   731.93591976
_cell_formula_units_Z   1
loop_
 _symmetry_equiv_pos_site_id
 _symmetry_equiv_pos_as_xyz
  1  'x, y, z'
loop_
 _atom_site_type_symbol
 _atom_site_label
 _atom_site_symmetry_multiplicity
 _atom_site_fract_x
 _atom_site_fract_y
 _atom_site_fract_z
 _atom_site_occupancy
  Er  Er0  1  0.290298  0.088119  0.377754  1
  Er  Er1  1  0.290246  0.911658  0.877606  1
  Er  Er2  1  0.709768  0.088362  0.877624  1
  Er  Er3  1  0.709640  0.911963  0.377815  1
  Er  Er4  1  0.588262  0.790305  0.877710  1
  Er  Er5  1  0.588052  0.209651  0.377849  1
  Er  Er6  1  0.411924  0.790354  0.377850  1
  Er  Er7  1  0.411698  0.209690  0.877722  1
  Er  Er8  1  0.208794  0.412015  0.621231  1
  Er  Er9  1  0.209145  0.588150  0.123246  1
  Er  Er10  1  0.790891  0.411725  0.123297  1
  Er  Er11  1  0.791174  0.587909  0.621248  1
  Er  Er12  1  0.911906  0.709243  0.123279  1
  Tm  Tm13  1  0.912092  0.291168  0.621026  1
  Tm  Tm14  1  0.087950  0.708827  0.621046  1
  Tm  Tm15  1  0.088092  0.290889  0.123196  1
  Tm  Tm16  1  0.000009  0.000010  0.500459  1
  Tm  Tm17  1  0.000039  0.000110  0.000204  1
  Tm  Tm18  1  0.500006  0.499978  0.000212  1
  Tm  Tm19  1  0.500006  0.499994  0.500409  1
  Ir  Ir20  1  0.846039  0.153301  0.249957  1
  Ir  Ir21  1  0.846134  0.846559  0.749899  1
  Ir  Ir22  1  0.153806  0.153532  0.750201  1
  Ir  Ir23  1  0.154084  0.846764  0.250014  1
  Ir  Ir24  1  0.653541  0.345955  0.749882  1
  Ir  Ir25  1  0.653146  0.654162  0.249718  1
  Ir  Ir26  1  0.346673  0.345811  0.249639  1
  Ir  Ir27  1  0.346456  0.654054  0.749866  1
  Ir  Ir28  1  0.000078  0.499865  0.376993  1
  Rh  Rh29  1  0.499986  0.000020  0.122794  1
  Rh  Rh30  1  0.500007  0.000009  0.622873  1
  Rh  Rh31  1  0.000059  0.499848  0.877380  1
