# generated using pymatgen
data_Sr2Tb2TmSn4
_symmetry_space_group_name_H-M   'P 1'
_cell_length_a   8.05927900
_cell_length_b   8.52878400
_cell_length_c   16.27469800
_cell_angle_alpha   90.00000000
_cell_angle_beta   90.00000000
_cell_angle_gamma   90.00000000
_symmetry_Int_Tables_number   1
_chemical_formula_structural   Sr2Tb2TmSn4
_chemical_formula_sum   'Sr8 Tb8 Tm4 Sn16'
_cell_volume   1118.65519705
_cell_formula_units_Z   4
loop_
 _symmetry_equiv_pos_site_id
 _symmetry_equiv_pos_as_xyz
  1  'x, y, z'
loop_
 _atom_site_type_symbol
 _atom_site_label
 _atom_site_symmetry_multiplicity
 _atom_site_fract_x
 _atom_site_fract_y
 _atom_site_fract_z
 _atom_site_occupancy
  Sr  Sr0  1  0.503300  0.677327  0.594032  1
  Sr  Sr1  1  0.003300  0.822673  0.905968  1
  Sr  Sr2  1  0.496700  0.322673  0.094032  1
  Sr  Sr3  1  0.996700  0.177327  0.405968  1
  Sr  Sr4  1  0.496700  0.322673  0.405968  1
  Sr  Sr5  1  0.996700  0.177327  0.094032  1
  Sr  Sr6  1  0.503300  0.677327  0.905968  1
  Sr  Sr7  1  0.003300  0.822673  0.594032  1
  Tb  Tb8  1  0.673779  0.165386  0.623667  1
  Tb  Tb9  1  0.173779  0.334614  0.876333  1
  Tb  Tb10  1  0.326221  0.834614  0.123667  1
  Tb  Tb11  1  0.826221  0.665386  0.376333  1
  Tb  Tb12  1  0.326221  0.834614  0.376333  1
  Tb  Tb13  1  0.826221  0.665386  0.123667  1
  Tb  Tb14  1  0.673779  0.165386  0.876333  1
  Tb  Tb15  1  0.173779  0.334614  0.623667  1
  Tm  Tm16  1  0.839513  0.505252  0.750000  1
  Tm  Tm17  1  0.339513  0.994748  0.750000  1
  Tm  Tm18  1  0.160487  0.494748  0.250000  1
  Tm  Tm19  1  0.660487  0.005252  0.250000  1
  Sn  Sn20  1  0.662723  0.959574  0.457187  1
  Sn  Sn21  1  0.162723  0.540426  0.042813  1
  Sn  Sn22  1  0.337277  0.040426  0.957187  1
  Sn  Sn23  1  0.837277  0.459574  0.542813  1
  Sn  Sn24  1  0.337277  0.040426  0.542813  1
  Sn  Sn25  1  0.837277  0.459574  0.957187  1
  Sn  Sn26  1  0.662723  0.959574  0.042813  1
  Sn  Sn27  1  0.162723  0.540426  0.457187  1
  Sn  Sn28  1  0.474471  0.366249  0.750000  1
  Sn  Sn29  1  0.974471  0.133751  0.750000  1
  Sn  Sn30  1  0.525529  0.633751  0.250000  1
  Sn  Sn31  1  0.025529  0.866249  0.250000  1
  Sn  Sn32  1  0.707998  0.867742  0.750000  1
  Sn  Sn33  1  0.207998  0.632258  0.750000  1
  Sn  Sn34  1  0.292002  0.132258  0.250000  1
  Sn  Sn35  1  0.792002  0.367742  0.250000  1
