# generated using pymatgen
data_KAc3(PIr)4
_symmetry_space_group_name_H-M   'P 1'
_cell_length_a   6.42522975
_cell_length_b   6.42522975
_cell_length_c   6.42522975
_cell_angle_alpha   90.08760145
_cell_angle_beta   90.08760145
_cell_angle_gamma   89.91239855
_symmetry_Int_Tables_number   1
_chemical_formula_structural   KAc3(PIr)4
_chemical_formula_sum   'K1 Ac3 P4 Ir4'
_cell_volume   265.25554041
_cell_formula_units_Z   1
loop_
 _symmetry_equiv_pos_site_id
 _symmetry_equiv_pos_as_xyz
  1  'x, y, z'
loop_
 _atom_site_type_symbol
 _atom_site_label
 _atom_site_symmetry_multiplicity
 _atom_site_fract_x
 _atom_site_fract_y
 _atom_site_fract_z
 _atom_site_occupancy
  K  K0  1  0.382741  0.882741  0.617259  1
  Ac  Ac1  1  0.883408  0.621871  0.388809  1
  Ac  Ac2  1  0.611191  0.383408  0.878129  1
  Ac  Ac3  1  0.121871  0.111191  0.116592  1
  P  P4  1  0.662875  0.162875  0.337125  1
  P  P5  1  0.162913  0.337203  0.661407  1
  P  P6  1  0.338593  0.662913  0.162797  1
  P  P7  1  0.837203  0.838593  0.837087  1
  Ir  Ir8  1  0.085034  0.585034  0.914966  1
  Ir  Ir9  1  0.592426  0.911837  0.090093  1
  Ir  Ir10  1  0.909907  0.092426  0.588163  1
  Ir  Ir11  1  0.411837  0.409907  0.407574  1
