# generated using pymatgen
data_Er2Si5NiRh2
_symmetry_space_group_name_H-M   'P 1'
_cell_length_a   8.00037217
_cell_length_b   8.02926855
_cell_length_c   8.02926803
_cell_angle_alpha   138.54145045
_cell_angle_beta   104.45314170
_cell_angle_gamma   90.10783545
_symmetry_Int_Tables_number   1
_chemical_formula_structural   Er2Si5NiRh2
_chemical_formula_sum   'Er4 Si10 Ni2 Rh4'
_cell_volume   315.99318677
_cell_formula_units_Z   2
loop_
 _symmetry_equiv_pos_site_id
 _symmetry_equiv_pos_as_xyz
  1  'x, y, z'
loop_
 _atom_site_type_symbol
 _atom_site_label
 _atom_site_symmetry_multiplicity
 _atom_site_fract_x
 _atom_site_fract_y
 _atom_site_fract_z
 _atom_site_occupancy
  Er  Er0  1  0.865717  0.631881  0.233836  1
  Er  Er1  1  0.134283  0.368119  0.766164  1
  Er  Er2  1  0.400102  0.132314  0.267787  1
  Er  Er3  1  0.599898  0.867686  0.732213  1
  Si  Si4  1  0.500000  0.727030  0.227030  1
  Si  Si5  1  0.500000  0.272970  0.772970  1
  Si  Si6  1  0.231779  0.987091  0.763629  1
  Si  Si7  1  0.768221  0.531850  0.755312  1
  Si  Si8  1  0.768221  0.012909  0.236371  1
  Si  Si9  1  0.231779  0.468150  0.244688  1
  Si  Si10  1  0.052755  0.893967  0.158789  1
  Si  Si11  1  0.947245  0.106033  0.841211  1
  Si  Si12  1  0.732299  0.392693  0.339605  1
  Si  Si13  1  0.267701  0.607307  0.660395  1
  Ni  Ni14  1  0.475361  0.360570  0.114791  1
  Ni  Ni15  1  0.524639  0.639430  0.885209  1
  Rh  Rh16  1  0.000000  0.751017  0.751017  1
  Rh  Rh17  1  0.000000  0.248983  0.248983  1
  Rh  Rh18  1  0.257261  0.863747  0.393513  1
  Rh  Rh19  1  0.742739  0.136253  0.606487  1
