# generated using pymatgen
data_KBaCrN3
_symmetry_space_group_name_H-M   'P 1'
_cell_length_a   6.58021351
_cell_length_b   6.58021286
_cell_length_c   12.90766200
_cell_angle_alpha   90.00000000
_cell_angle_beta   90.00000000
_cell_angle_gamma   127.63234782
_symmetry_Int_Tables_number   1
_chemical_formula_structural   KBaCrN3
_chemical_formula_sum   'K4 Ba4 Cr4 N12'
_cell_volume   442.61136158
_cell_formula_units_Z   4
loop_
 _symmetry_equiv_pos_site_id
 _symmetry_equiv_pos_as_xyz
  1  'x, y, z'
loop_
 _atom_site_type_symbol
 _atom_site_label
 _atom_site_symmetry_multiplicity
 _atom_site_fract_x
 _atom_site_fract_y
 _atom_site_fract_z
 _atom_site_occupancy
  K  K0  1  0.550610  0.449390  0.644042  1
  K  K1  1  0.449390  0.550610  0.355958  1
  K  K2  1  0.949390  0.050610  0.144042  1
  K  K3  1  0.050610  0.949390  0.855958  1
  Ba  Ba4  1  0.854633  0.145367  0.583217  1
  Ba  Ba5  1  0.145367  0.854633  0.416783  1
  Ba  Ba6  1  0.645367  0.354633  0.083217  1
  Ba  Ba7  1  0.354633  0.645367  0.916783  1
  Cr  Cr8  1  0.729349  0.270651  0.829744  1
  Cr  Cr9  1  0.270651  0.729349  0.170256  1
  Cr  Cr10  1  0.770651  0.229349  0.329744  1
  Cr  Cr11  1  0.229349  0.770651  0.670256  1
  N  N12  1  0.814790  0.185210  0.935553  1
  N  N13  1  0.185210  0.814790  0.064447  1
  N  N14  1  0.685210  0.314790  0.435553  1
  N  N15  1  0.314790  0.685210  0.564447  1
  N  N16  1  0.592394  0.407606  0.868448  1
  N  N17  1  0.407606  0.592394  0.131552  1
  N  N18  1  0.907606  0.092394  0.368448  1
  N  N19  1  0.092394  0.907606  0.631552  1
  N  N20  1  0.511287  0.988713  0.750000  1
  N  N21  1  0.988713  0.511287  0.250000  1
  N  N22  1  0.488713  0.011287  0.250000  1
  N  N23  1  0.011287  0.488713  0.750000  1
