# generated using pymatgen
data_Dy3Er5In3Ru
_symmetry_space_group_name_H-M   'P 1'
_cell_length_a   10.34183200
_cell_length_b   10.34183266
_cell_length_c   7.03289500
_cell_angle_alpha   90.00000000
_cell_angle_beta   90.00000000
_cell_angle_gamma   119.99999788
_symmetry_Int_Tables_number   1
_chemical_formula_structural   Dy3Er5In3Ru
_chemical_formula_sum   'Dy6 Er10 In6 Ru2'
_cell_volume   651.41800683
_cell_formula_units_Z   2
loop_
 _symmetry_equiv_pos_site_id
 _symmetry_equiv_pos_as_xyz
  1  'x, y, z'
loop_
 _atom_site_type_symbol
 _atom_site_label
 _atom_site_symmetry_multiplicity
 _atom_site_fract_x
 _atom_site_fract_y
 _atom_site_fract_z
 _atom_site_occupancy
  Dy  Dy0  1  0.532739  0.065478  0.794342  1
  Dy  Dy1  1  0.934522  0.467261  0.794342  1
  Dy  Dy2  1  0.532739  0.467261  0.794342  1
  Dy  Dy3  1  0.467261  0.934522  0.294342  1
  Dy  Dy4  1  0.065478  0.532739  0.294342  1
  Dy  Dy5  1  0.467261  0.532739  0.294342  1
  Er  Er6  1  0.822923  0.645847  0.498310  1
  Er  Er7  1  0.354153  0.177077  0.498310  1
  Er  Er8  1  0.822923  0.177077  0.498310  1
  Er  Er9  1  0.177077  0.354153  0.998310  1
  Er  Er10  1  0.645847  0.822923  0.998310  1
  Er  Er11  1  0.177077  0.822923  0.998310  1
  Er  Er12  1  0.666667  0.333333  0.173196  1
  Er  Er13  1  0.333333  0.666667  0.673196  1
  Er  Er14  1  0.000000  0.000000  0.778559  1
  Er  Er15  1  0.000000  0.000000  0.278559  1
  In  In16  1  0.837399  0.674798  0.040117  1
  In  In17  1  0.325202  0.162601  0.040117  1
  In  In18  1  0.837399  0.162601  0.040117  1
  In  In19  1  0.162601  0.325202  0.540117  1
  In  In20  1  0.674798  0.837399  0.540117  1
  In  In21  1  0.162601  0.837399  0.540117  1
  Ru  Ru22  1  0.666667  0.333333  0.567887  1
  Ru  Ru23  1  0.333333  0.666667  0.067887  1
