# generated using pymatgen
data_Ho4TmInGa2
_symmetry_space_group_name_H-M   'P 1'
_cell_length_a   7.68955500
_cell_length_b   7.68955500
_cell_length_c   14.27431300
_cell_angle_alpha   90.00000000
_cell_angle_beta   90.00000000
_cell_angle_gamma   90.00000000
_symmetry_Int_Tables_number   1
_chemical_formula_structural   Ho4TmInGa2
_chemical_formula_sum   'Ho16 Tm4 In4 Ga8'
_cell_volume   844.02950900
_cell_formula_units_Z   4
loop_
 _symmetry_equiv_pos_site_id
 _symmetry_equiv_pos_as_xyz
  1  'x, y, z'
loop_
 _atom_site_type_symbol
 _atom_site_label
 _atom_site_symmetry_multiplicity
 _atom_site_fract_x
 _atom_site_fract_y
 _atom_site_fract_z
 _atom_site_occupancy
  Ho  Ho0  1  0.673488  0.661010  0.606140  1
  Ho  Ho1  1  0.673488  0.338990  0.106140  1
  Ho  Ho2  1  0.826512  0.838990  0.393860  1
  Ho  Ho3  1  0.173488  0.838990  0.893860  1
  Ho  Ho4  1  0.326512  0.338990  0.606140  1
  Ho  Ho5  1  0.326512  0.661010  0.106140  1
  Ho  Ho6  1  0.173488  0.161010  0.393860  1
  Ho  Ho7  1  0.826512  0.161010  0.893860  1
  Ho  Ho8  1  0.661010  0.326512  0.393860  1
  Ho  Ho9  1  0.338990  0.326512  0.893860  1
  Ho  Ho10  1  0.161010  0.826512  0.606140  1
  Ho  Ho11  1  0.838990  0.826512  0.106140  1
  Ho  Ho12  1  0.338990  0.673488  0.393860  1
  Ho  Ho13  1  0.661010  0.673488  0.893860  1
  Ho  Ho14  1  0.838990  0.173488  0.606140  1
  Ho  Ho15  1  0.161010  0.173488  0.106140  1
  Tm  Tm16  1  0.000000  0.500000  0.759785  1
  Tm  Tm17  1  0.000000  0.500000  0.259785  1
  Tm  Tm18  1  0.500000  0.000000  0.240215  1
  Tm  Tm19  1  0.500000  0.000000  0.740215  1
  In  In20  1  0.000000  0.500000  0.496099  1
  In  In21  1  0.000000  0.500000  0.996099  1
  In  In22  1  0.500000  0.000000  0.503901  1
  In  In23  1  0.500000  0.000000  0.003901  1
  Ga  Ga24  1  0.875489  0.875489  0.750000  1
  Ga  Ga25  1  0.875489  0.124511  0.250000  1
  Ga  Ga26  1  0.624511  0.624511  0.250000  1
  Ga  Ga27  1  0.375489  0.624511  0.750000  1
  Ga  Ga28  1  0.124511  0.124511  0.750000  1
  Ga  Ga29  1  0.124511  0.875489  0.250000  1
  Ga  Ga30  1  0.375489  0.375489  0.250000  1
  Ga  Ga31  1  0.624511  0.375489  0.750000  1
