# generated using pymatgen
data_Sn2B(Rh3Pb)2
_symmetry_space_group_name_H-M   'P 1'
_cell_length_a   5.74628800
_cell_length_b   5.74628767
_cell_length_c   13.93530700
_cell_angle_alpha   90.00000000
_cell_angle_beta   90.00000000
_cell_angle_gamma   120.00000192
_symmetry_Int_Tables_number   1
_chemical_formula_structural   Sn2B(Rh3Pb)2
_chemical_formula_sum   'Sn4 B2 Rh12 Pb4'
_cell_volume   398.49411893
_cell_formula_units_Z   2
loop_
 _symmetry_equiv_pos_site_id
 _symmetry_equiv_pos_as_xyz
  1  'x, y, z'
loop_
 _atom_site_type_symbol
 _atom_site_label
 _atom_site_symmetry_multiplicity
 _atom_site_fract_x
 _atom_site_fract_y
 _atom_site_fract_z
 _atom_site_occupancy
  Sn  Sn0  1  0.000000  0.000000  0.750000  1
  Sn  Sn1  1  0.000000  0.000000  0.250000  1
  Sn  Sn2  1  0.333333  0.666667  0.750000  1
  Sn  Sn3  1  0.666667  0.333333  0.250000  1
  B  B4  1  0.000000  0.000000  0.500000  1
  B  B5  1  0.000000  0.000000  0.000000  1
  Rh  Rh6  1  0.333176  0.166589  0.405350  1
  Rh  Rh7  1  0.833411  0.166589  0.405350  1
  Rh  Rh8  1  0.833411  0.666824  0.405350  1
  Rh  Rh9  1  0.166589  0.333176  0.905350  1
  Rh  Rh10  1  0.666824  0.833411  0.594650  1
  Rh  Rh11  1  0.666824  0.833411  0.905350  1
  Rh  Rh12  1  0.333176  0.166589  0.094650  1
  Rh  Rh13  1  0.166589  0.333176  0.594650  1
  Rh  Rh14  1  0.166589  0.833411  0.594650  1
  Rh  Rh15  1  0.833411  0.166589  0.094650  1
  Rh  Rh16  1  0.833411  0.666824  0.094650  1
  Rh  Rh17  1  0.166589  0.833411  0.905350  1
  Pb  Pb18  1  0.333333  0.666667  0.419815  1
  Pb  Pb19  1  0.666667  0.333333  0.919815  1
  Pb  Pb20  1  0.666667  0.333333  0.580185  1
  Pb  Pb21  1  0.333333  0.666667  0.080185  1
