# generated using pymatgen
data_Tm7Lu9(In3Co)2
_symmetry_space_group_name_H-M   'P 1'
_cell_length_a   10.17515500
_cell_length_b   10.17942450
_cell_length_c   6.91131006
_cell_angle_alpha   89.98713728
_cell_angle_beta   90.00000000
_cell_angle_gamma   119.98612978
_symmetry_Int_Tables_number   1
_chemical_formula_structural   Tm7Lu9(In3Co)2
_chemical_formula_sum   'Tm7 Lu9 In6 Co2'
_cell_volume   620.03461465
_cell_formula_units_Z   1
loop_
 _symmetry_equiv_pos_site_id
 _symmetry_equiv_pos_as_xyz
  1  'x, y, z'
loop_
 _atom_site_type_symbol
 _atom_site_label
 _atom_site_symmetry_multiplicity
 _atom_site_fract_x
 _atom_site_fract_y
 _atom_site_fract_z
 _atom_site_occupancy
  Tm  Tm0  1  0.534268  0.068537  0.521133  1
  Tm  Tm1  1  0.930530  0.465491  0.521594  1
  Tm  Tm2  1  0.534960  0.465491  0.521594  1
  Tm  Tm3  1  0.465559  0.931117  0.021358  1
  Tm  Tm4  1  0.068854  0.535018  0.022015  1
  Tm  Tm5  1  0.466165  0.535018  0.022015  1
  Tm  Tm6  1  0.178295  0.356589  0.728429  1
  Lu  Lu7  1  0.642068  0.820854  0.727268  1
  Lu  Lu8  1  0.178786  0.820854  0.727268  1
  Lu  Lu9  1  0.821133  0.642266  0.227898  1
  Lu  Lu10  1  0.357826  0.179133  0.227955  1
  Lu  Lu11  1  0.821307  0.179133  0.227955  1
  Lu  Lu12  1  0.666674  0.333347  0.913788  1
  Lu  Lu13  1  0.333428  0.666856  0.412824  1
  Lu  Lu14  1  0.999894  0.999788  0.508426  1
  Lu  Lu15  1  0.999700  0.999400  0.009174  1
  In  In16  1  0.837117  0.674233  0.771017  1
  In  In17  1  0.326457  0.162236  0.771130  1
  In  In18  1  0.835779  0.162236  0.771130  1
  In  In19  1  0.162815  0.325630  0.269800  1
  In  In20  1  0.675464  0.838063  0.269720  1
  In  In21  1  0.162599  0.838063  0.269720  1
  Co  Co22  1  0.666697  0.333394  0.296247  1
  Co  Co23  1  0.333627  0.667254  0.796222  1
