# generated using pymatgen
data_ErTm3Mn16(CoP3)4
_symmetry_space_group_name_H-M   'P 1'
_cell_length_a   3.57236300
_cell_length_b   10.53846104
_cell_length_c   12.15894505
_cell_angle_alpha   90.00991022
_cell_angle_beta   90.00000000
_cell_angle_gamma   90.00000000
_symmetry_Int_Tables_number   1
_chemical_formula_structural   ErTm3Mn16(CoP3)4
_chemical_formula_sum   'Er1 Tm3 Mn16 Co4 P12'
_cell_volume   457.75032992
_cell_formula_units_Z   1
loop_
 _symmetry_equiv_pos_site_id
 _symmetry_equiv_pos_as_xyz
  1  'x, y, z'
loop_
 _atom_site_type_symbol
 _atom_site_label
 _atom_site_symmetry_multiplicity
 _atom_site_fract_x
 _atom_site_fract_y
 _atom_site_fract_z
 _atom_site_occupancy
  Er  Er0  1  0.250000  0.583870  0.708173  1
  Tm  Tm1  1  0.250000  0.916216  0.208118  1
  Tm  Tm2  1  0.750000  0.416240  0.291974  1
  Tm  Tm3  1  0.750000  0.083702  0.791914  1
  Mn  Mn4  1  0.250000  0.712359  0.987535  1
  Mn  Mn5  1  0.250000  0.787626  0.487548  1
  Mn  Mn6  1  0.750000  0.287657  0.012421  1
  Mn  Mn7  1  0.750000  0.212403  0.512423  1
  Mn  Mn8  1  0.250000  0.407444  0.492120  1
  Mn  Mn9  1  0.250000  0.092402  0.992165  1
  Mn  Mn10  1  0.750000  0.592497  0.507561  1
  Mn  Mn11  1  0.750000  0.907532  0.007802  1
  Mn  Mn12  1  0.250000  0.217095  0.176302  1
  Mn  Mn13  1  0.250000  0.282712  0.676176  1
  Mn  Mn14  1  0.750000  0.783068  0.823821  1
  Mn  Mn15  1  0.750000  0.717187  0.323771  1
  Mn  Mn16  1  0.250000  0.878588  0.697907  1
  Mn  Mn17  1  0.250000  0.621574  0.197923  1
  Mn  Mn18  1  0.750000  0.121485  0.302161  1
  Mn  Mn19  1  0.750000  0.378282  0.802194  1
  Co  Co20  1  0.250000  0.463974  0.933879  1
  Co  Co21  1  0.250000  0.036033  0.433737  1
  Co  Co22  1  0.750000  0.536038  0.066228  1
  Co  Co23  1  0.750000  0.963986  0.566224  1
  P  P24  1  0.250000  0.420668  0.112600  1
  P  P25  1  0.250000  0.079396  0.612608  1
  P  P26  1  0.750000  0.579347  0.887645  1
  P  P27  1  0.750000  0.920612  0.387341  1
  P  P28  1  0.250000  0.264808  0.871519  1
  P  P29  1  0.250000  0.235171  0.371559  1
  P  P30  1  0.750000  0.735259  0.128455  1
  P  P31  1  0.750000  0.765109  0.628341  1
  P  P32  1  0.250000  0.591895  0.385879  1
  P  P33  1  0.250000  0.908123  0.885842  1
  P  P34  1  0.750000  0.407859  0.613976  1
  P  P35  1  0.750000  0.091782  0.114157  1
