# generated using pymatgen
data_YbLu(TaS2)8
_symmetry_space_group_name_H-M   'P 1'
_cell_length_a   6.70222500
_cell_length_b   6.70222429
_cell_length_c   13.76493300
_cell_angle_alpha   90.00000000
_cell_angle_beta   90.00000000
_cell_angle_gamma   120.00000845
_symmetry_Int_Tables_number   1
_chemical_formula_structural   YbLu(TaS2)8
_chemical_formula_sum   'Yb1 Lu1 Ta8 S16'
_cell_volume   535.47926323
_cell_formula_units_Z   1
loop_
 _symmetry_equiv_pos_site_id
 _symmetry_equiv_pos_as_xyz
  1  'x, y, z'
loop_
 _atom_site_type_symbol
 _atom_site_label
 _atom_site_symmetry_multiplicity
 _atom_site_fract_x
 _atom_site_fract_y
 _atom_site_fract_z
 _atom_site_occupancy
  Yb  Yb0  1  0.000000  0.000000  0.500000  1
  Lu  Lu1  1  0.000000  0.000000  0.000000  1
  Ta  Ta2  1  0.505020  0.494980  0.755242  1
  Ta  Ta3  1  0.010038  0.505020  0.244758  1
  Ta  Ta4  1  0.494980  0.989962  0.244758  1
  Ta  Ta5  1  0.505020  0.010038  0.755242  1
  Ta  Ta6  1  0.989962  0.494980  0.755242  1
  Ta  Ta7  1  0.494980  0.505020  0.244758  1
  Ta  Ta8  1  0.000000  0.000000  0.755663  1
  Ta  Ta9  1  0.000000  0.000000  0.244337  1
  S  S10  1  0.831890  0.168110  0.356909  1
  S  S11  1  0.831890  0.663780  0.356909  1
  S  S12  1  0.336220  0.168110  0.356909  1
  S  S13  1  0.662902  0.831451  0.868935  1
  S  S14  1  0.168110  0.336220  0.643091  1
  S  S15  1  0.168549  0.831451  0.868935  1
  S  S16  1  0.168549  0.337098  0.868935  1
  S  S17  1  0.831451  0.168549  0.131065  1
  S  S18  1  0.337098  0.168549  0.131065  1
  S  S19  1  0.663780  0.831890  0.643091  1
  S  S20  1  0.333333  0.666667  0.129299  1
  S  S21  1  0.666667  0.333333  0.639266  1
  S  S22  1  0.666667  0.333333  0.870701  1
  S  S23  1  0.333333  0.666667  0.360734  1
  S  S24  1  0.831451  0.662902  0.131065  1
  S  S25  1  0.168110  0.831890  0.643091  1
