# generated using pymatgen
data_DyHo3(Er2Ir)4
_symmetry_space_group_name_H-M   'P 1'
_cell_length_a   6.35873603
_cell_length_b   7.22621980
_cell_length_c   9.12135000
_cell_angle_alpha   90.00000000
_cell_angle_beta   90.00000000
_cell_angle_gamma   90.02130134
_symmetry_Int_Tables_number   1
_chemical_formula_structural   DyHo3(Er2Ir)4
_chemical_formula_sum   'Dy1 Ho3 Er8 Ir4'
_cell_volume   419.12257549
_cell_formula_units_Z   1
loop_
 _symmetry_equiv_pos_site_id
 _symmetry_equiv_pos_as_xyz
  1  'x, y, z'
loop_
 _atom_site_type_symbol
 _atom_site_label
 _atom_site_symmetry_multiplicity
 _atom_site_fract_x
 _atom_site_fract_y
 _atom_site_fract_z
 _atom_site_occupancy
  Dy  Dy0  1  0.870747  0.533984  0.250000  1
  Ho  Ho1  1  0.629641  0.034414  0.250000  1
  Ho  Ho2  1  0.129113  0.465803  0.750000  1
  Ho  Ho3  1  0.370749  0.965838  0.750000  1
  Er  Er4  1  0.328616  0.677119  0.062026  1
  Er  Er5  1  0.171814  0.176903  0.437830  1
  Er  Er6  1  0.671543  0.322753  0.562568  1
  Er  Er7  1  0.828134  0.823101  0.937560  1
  Er  Er8  1  0.671543  0.322753  0.937432  1
  Er  Er9  1  0.828134  0.823101  0.562440  1
  Er  Er10  1  0.328616  0.677119  0.437974  1
  Er  Er11  1  0.171814  0.176903  0.062170  1
  Ir  Ir12  1  0.045293  0.883858  0.250000  1
  Ir  Ir13  1  0.454261  0.383095  0.250000  1
  Ir  Ir14  1  0.955423  0.116558  0.750000  1
  Ir  Ir15  1  0.544557  0.616698  0.750000  1
