# generated using pymatgen
data_Tb10Pr6MgHg3Ir4
_symmetry_space_group_name_H-M   'P 1'
_cell_length_a   9.78253334
_cell_length_b   9.79346243
_cell_length_c   9.79346200
_cell_angle_alpha   60.00000146
_cell_angle_beta   59.96303775
_cell_angle_gamma   59.96304411
_symmetry_Int_Tables_number   1
_chemical_formula_structural   Tb10Pr6MgHg3Ir4
_chemical_formula_sum   'Tb10 Pr6 Mg1 Hg3 Ir4'
_cell_volume   663.08012291
_cell_formula_units_Z   1
loop_
 _symmetry_equiv_pos_site_id
 _symmetry_equiv_pos_as_xyz
  1  'x, y, z'
loop_
 _atom_site_type_symbol
 _atom_site_label
 _atom_site_symmetry_multiplicity
 _atom_site_fract_x
 _atom_site_fract_y
 _atom_site_fract_z
 _atom_site_occupancy
  Tb  Tb0  1  0.347006  0.346216  0.346216  1
  Tb  Tb1  1  0.347006  0.346216  0.960563  1
  Tb  Tb2  1  0.347006  0.960563  0.346216  1
  Tb  Tb3  1  0.954494  0.348503  0.348503  1
  Tb  Tb4  1  0.810458  0.188967  0.188967  1
  Tb  Tb5  1  0.184846  0.814094  0.814094  1
  Tb  Tb6  1  0.184846  0.814094  0.186968  1
  Tb  Tb7  1  0.810458  0.188967  0.811609  1
  Tb  Tb8  1  0.184846  0.186968  0.814094  1
  Tb  Tb9  1  0.810458  0.811609  0.188967  1
  Pr  Pr10  1  0.940623  0.560094  0.560094  1
  Pr  Pr11  1  0.558034  0.940977  0.940977  1
  Pr  Pr12  1  0.558034  0.940977  0.560012  1
  Pr  Pr13  1  0.940623  0.560094  0.939190  1
  Pr  Pr14  1  0.558034  0.560012  0.940977  1
  Pr  Pr15  1  0.940623  0.939190  0.560094  1
  Mg  Mg16  1  0.286222  0.571260  0.571260  1
  Hg  Hg17  1  0.579874  0.584280  0.584280  1
  Hg  Hg18  1  0.579874  0.584280  0.251566  1
  Hg  Hg19  1  0.579874  0.251566  0.584280  1
  Ir  Ir20  1  0.140527  0.141984  0.141984  1
  Ir  Ir21  1  0.140527  0.141984  0.575504  1
  Ir  Ir22  1  0.140527  0.575504  0.141984  1
  Ir  Ir23  1  0.575184  0.141605  0.141605  1
