# generated using pymatgen
data_Zr10GaAgSb6
_symmetry_space_group_name_H-M   'P 1'
_cell_length_a   8.71585100
_cell_length_b   8.71585092
_cell_length_c   5.91411100
_cell_angle_alpha   90.00000000
_cell_angle_beta   90.00000000
_cell_angle_gamma   120.00000410
_symmetry_Int_Tables_number   1
_chemical_formula_structural   Zr10GaAgSb6
_chemical_formula_sum   'Zr10 Ga1 Ag1 Sb6'
_cell_volume   389.08068843
_cell_formula_units_Z   1
loop_
 _symmetry_equiv_pos_site_id
 _symmetry_equiv_pos_as_xyz
  1  'x, y, z'
loop_
 _atom_site_type_symbol
 _atom_site_label
 _atom_site_symmetry_multiplicity
 _atom_site_fract_x
 _atom_site_fract_y
 _atom_site_fract_z
 _atom_site_occupancy
  Zr  Zr0  1  0.666667  0.333333  0.000000  1
  Zr  Zr1  1  0.333333  0.666667  0.000000  1
  Zr  Zr2  1  0.333333  0.666667  0.500000  1
  Zr  Zr3  1  0.666667  0.333333  0.500000  1
  Zr  Zr4  1  0.725990  0.725990  0.760155  1
  Zr  Zr5  1  0.274010  0.000000  0.760155  1
  Zr  Zr6  1  0.000000  0.274010  0.760155  1
  Zr  Zr7  1  0.274010  0.274010  0.239845  1
  Zr  Zr8  1  0.725990  0.000000  0.239845  1
  Zr  Zr9  1  0.000000  0.725990  0.239845  1
  Ga  Ga10  1  0.000000  0.000000  0.000000  1
  Ag  Ag11  1  0.000000  0.000000  0.500000  1
  Sb  Sb12  1  0.384259  0.384259  0.746536  1
  Sb  Sb13  1  0.615741  0.000000  0.746536  1
  Sb  Sb14  1  0.000000  0.615741  0.746536  1
  Sb  Sb15  1  0.615741  0.615741  0.253464  1
  Sb  Sb16  1  0.384259  0.000000  0.253464  1
  Sb  Sb17  1  0.000000  0.384259  0.253464  1
