# generated using pymatgen
data_LaGd3(HO)4
_symmetry_space_group_name_H-M   'P 1'
_cell_length_a   7.76308400
_cell_length_b   7.76308400
_cell_length_c   5.48325900
_cell_angle_alpha   90.00000000
_cell_angle_beta   90.00000000
_cell_angle_gamma   90.00000000
_symmetry_Int_Tables_number   1
_chemical_formula_structural   LaGd3(HO)4
_chemical_formula_sum   'La2 Gd6 H8 O8'
_cell_volume   330.45119826
_cell_formula_units_Z   2
loop_
 _symmetry_equiv_pos_site_id
 _symmetry_equiv_pos_as_xyz
  1  'x, y, z'
loop_
 _atom_site_type_symbol
 _atom_site_label
 _atom_site_symmetry_multiplicity
 _atom_site_fract_x
 _atom_site_fract_y
 _atom_site_fract_z
 _atom_site_occupancy
  La  La0  1  0.500000  0.000000  0.051025  1
  La  La1  1  0.000000  0.500000  0.948975  1
  Gd  Gd2  1  0.250000  0.750000  0.500000  1
  Gd  Gd3  1  0.250000  0.250000  0.500000  1
  Gd  Gd4  1  0.750000  0.750000  0.500000  1
  Gd  Gd5  1  0.750000  0.250000  0.500000  1
  Gd  Gd6  1  0.500000  0.500000  0.000000  1
  Gd  Gd7  1  0.000000  0.000000  0.000000  1
  H  H8  1  0.500000  0.766638  0.750361  1
  H  H9  1  0.500000  0.233362  0.750361  1
  H  H10  1  0.733362  0.000000  0.750361  1
  H  H11  1  0.266638  0.000000  0.750361  1
  H  H12  1  0.766638  0.500000  0.249639  1
  H  H13  1  0.000000  0.733362  0.249639  1
  H  H14  1  0.000000  0.266638  0.249639  1
  H  H15  1  0.233362  0.500000  0.249639  1
  O  O16  1  0.270279  0.500000  0.738076  1
  O  O17  1  0.000000  0.229721  0.738076  1
  O  O18  1  0.000000  0.770279  0.738076  1
  O  O19  1  0.729721  0.500000  0.738076  1
  O  O20  1  0.229721  0.000000  0.261924  1
  O  O21  1  0.770279  0.000000  0.261924  1
  O  O22  1  0.500000  0.270279  0.261924  1
  O  O23  1  0.500000  0.729721  0.261924  1
