# generated using pymatgen
data_Er7Co6Sn22Pd
_symmetry_space_group_name_H-M   'P 1'
_cell_length_a   9.63598500
_cell_length_b   9.63598456
_cell_length_c   9.88309800
_cell_angle_alpha   90.00000000
_cell_angle_beta   90.00000000
_cell_angle_gamma   120.00000495
_symmetry_Int_Tables_number   1
_chemical_formula_structural   Er7Co6Sn22Pd
_chemical_formula_sum   'Er7 Co6 Sn22 Pd1'
_cell_volume   794.72325679
_cell_formula_units_Z   1
loop_
 _symmetry_equiv_pos_site_id
 _symmetry_equiv_pos_as_xyz
  1  'x, y, z'
loop_
 _atom_site_type_symbol
 _atom_site_label
 _atom_site_symmetry_multiplicity
 _atom_site_fract_x
 _atom_site_fract_y
 _atom_site_fract_z
 _atom_site_occupancy
  Er  Er0  1  0.480411  0.519589  0.307054  1
  Er  Er1  1  0.519589  0.480411  0.692946  1
  Er  Er2  1  0.480411  0.960823  0.307054  1
  Er  Er3  1  0.519589  0.039177  0.692946  1
  Er  Er4  1  0.039177  0.519589  0.307054  1
  Er  Er5  1  0.960823  0.480411  0.692946  1
  Er  Er6  1  0.000000  0.000000  0.000000  1
  Co  Co7  1  0.831302  0.168698  0.197038  1
  Co  Co8  1  0.168698  0.831302  0.802962  1
  Co  Co9  1  0.831302  0.662605  0.197038  1
  Co  Co10  1  0.168698  0.337395  0.802962  1
  Co  Co11  1  0.337395  0.168698  0.197038  1
  Co  Co12  1  0.662605  0.831302  0.802962  1
  Sn  Sn13  1  0.111649  0.888351  0.282862  1
  Sn  Sn14  1  0.888351  0.111649  0.717138  1
  Sn  Sn15  1  0.111649  0.223297  0.282862  1
  Sn  Sn16  1  0.888351  0.776703  0.717138  1
  Sn  Sn17  1  0.776703  0.888351  0.282862  1
  Sn  Sn18  1  0.223297  0.111649  0.717138  1
  Sn  Sn19  1  0.784662  0.215338  0.454814  1
  Sn  Sn20  1  0.215338  0.784662  0.545186  1
  Sn  Sn21  1  0.784662  0.569323  0.454814  1
  Sn  Sn22  1  0.215338  0.430677  0.545186  1
  Sn  Sn23  1  0.430677  0.215338  0.454814  1
  Sn  Sn24  1  0.569323  0.784662  0.545186  1
  Sn  Sn25  1  0.346333  0.000000  0.000000  1
  Sn  Sn26  1  0.653667  0.000000  0.000000  1
  Sn  Sn27  1  0.000000  0.346333  0.000000  1
  Sn  Sn28  1  0.000000  0.653667  0.000000  1
  Sn  Sn29  1  0.653667  0.653667  0.000000  1
  Sn  Sn30  1  0.346333  0.346333  0.000000  1
  Sn  Sn31  1  0.333333  0.666667  0.123841  1
  Sn  Sn32  1  0.666667  0.333333  0.876159  1
  Sn  Sn33  1  0.333333  0.666667  0.816701  1
  Sn  Sn34  1  0.666667  0.333333  0.183299  1
  Pd  Pd35  1  0.000000  0.000000  0.500000  1
