# generated using pymatgen
data_Tb11Tl9PdPt3
_symmetry_space_group_name_H-M   'P 1'
_cell_length_a   13.20868000
_cell_length_b   13.20702017
_cell_length_c   3.72130900
_cell_angle_alpha   90.00000000
_cell_angle_beta   90.00000000
_cell_angle_gamma   112.45038070
_symmetry_Int_Tables_number   1
_chemical_formula_structural   Tb11Tl9PdPt3
_chemical_formula_sum   'Tb11 Tl9 Pd1 Pt3'
_cell_volume   599.97193702
_cell_formula_units_Z   1
loop_
 _symmetry_equiv_pos_site_id
 _symmetry_equiv_pos_as_xyz
  1  'x, y, z'
loop_
 _atom_site_type_symbol
 _atom_site_label
 _atom_site_symmetry_multiplicity
 _atom_site_fract_x
 _atom_site_fract_y
 _atom_site_fract_z
 _atom_site_occupancy
  Tb  Tb0  1  0.419495  0.075678  0.000000  1
  Tb  Tb1  1  0.580455  0.924402  0.000000  1
  Tb  Tb2  1  0.075765  0.419058  0.000000  1
  Tb  Tb3  1  0.925857  0.580967  0.000000  1
  Tb  Tb4  1  0.160167  0.840788  0.000000  1
  Tb  Tb5  1  0.840158  0.160131  0.000000  1
  Tb  Tb6  1  0.371430  0.627813  0.000000  1
  Tb  Tb7  1  0.626262  0.369047  0.000000  1
  Tb  Tb8  1  0.308805  0.309184  0.000000  1
  Tb  Tb9  1  0.690301  0.693192  0.000000  1
  Tb  Tb10  1  0.000168  0.999476  0.000000  1
  Tl  Tl11  1  0.366848  0.846388  0.500000  1
  Tl  Tl12  1  0.633549  0.152896  0.500000  1
  Tl  Tl13  1  0.845597  0.368888  0.500000  1
  Tl  Tl14  1  0.152942  0.632826  0.500000  1
  Tl  Tl15  1  0.214963  0.066159  0.500000  1
  Tl  Tl16  1  0.785491  0.934324  0.500000  1
  Tl  Tl17  1  0.065999  0.214654  0.500000  1
  Tl  Tl18  1  0.932058  0.783248  0.500000  1
  Tl  Tl19  1  0.502477  0.500610  0.500000  1
  Pd  Pd20  1  0.752167  0.550707  0.500000  1
  Pt  Pt21  1  0.449659  0.247951  0.500000  1
  Pt  Pt22  1  0.551210  0.752346  0.500000  1
  Pt  Pt23  1  0.248177  0.449265  0.500000  1
