# generated using pymatgen
data_NaSbOF4
_symmetry_space_group_name_H-M   'P 1'
_cell_length_a   6.03966200
_cell_length_b   5.39407120
_cell_length_c   14.79675983
_cell_angle_alpha   70.93378203
_cell_angle_beta   90.00000000
_cell_angle_gamma   90.00000000
_symmetry_Int_Tables_number   1
_chemical_formula_structural   NaSbOF4
_chemical_formula_sum   'Na4 Sb4 O4 F16'
_cell_volume   455.60958188
_cell_formula_units_Z   4
loop_
 _symmetry_equiv_pos_site_id
 _symmetry_equiv_pos_as_xyz
  1  'x, y, z'
loop_
 _atom_site_type_symbol
 _atom_site_label
 _atom_site_symmetry_multiplicity
 _atom_site_fract_x
 _atom_site_fract_y
 _atom_site_fract_z
 _atom_site_occupancy
  Na  Na0  1  0.647890  0.643630  0.877082  1
  Na  Na1  1  0.147890  0.356370  0.622918  1
  Na  Na2  1  0.352110  0.356370  0.122918  1
  Na  Na3  1  0.852110  0.643630  0.377082  1
  Sb  Sb4  1  0.137087  0.101557  0.910357  1
  Sb  Sb5  1  0.637087  0.898443  0.589643  1
  Sb  Sb6  1  0.862913  0.898443  0.089643  1
  Sb  Sb7  1  0.362913  0.101557  0.410357  1
  O  O8  1  0.632030  0.883451  0.456478  1
  O  O9  1  0.132030  0.116549  0.043522  1
  O  O10  1  0.367970  0.116549  0.543522  1
  O  O11  1  0.867970  0.883451  0.956478  1
  F  F12  1  0.168664  0.794242  0.442867  1
  F  F13  1  0.668664  0.205758  0.057133  1
  F  F14  1  0.831336  0.205758  0.557133  1
  F  F15  1  0.331336  0.794242  0.942867  1
  F  F16  1  0.965136  0.422034  0.858938  1
  F  F17  1  0.465136  0.577966  0.641062  1
  F  F18  1  0.034864  0.577966  0.141062  1
  F  F19  1  0.534864  0.422034  0.358938  1
  F  F20  1  0.125176  0.078520  0.782557  1
  F  F21  1  0.625176  0.921480  0.717443  1
  F  F22  1  0.874824  0.921480  0.217443  1
  F  F23  1  0.374824  0.078520  0.282557  1
  F  F24  1  0.400869  0.314216  0.877458  1
  F  F25  1  0.900869  0.685784  0.622542  1
  F  F26  1  0.599131  0.685784  0.122542  1
  F  F27  1  0.099131  0.314216  0.377458  1
