# generated using pymatgen
data_La2Zn3H3Pd14
_symmetry_space_group_name_H-M   'P 1'
_cell_length_a   6.98670655
_cell_length_b   6.98670567
_cell_length_c   6.98670589
_cell_angle_alpha   82.97032307
_cell_angle_beta   82.97032440
_cell_angle_gamma   82.97033433
_symmetry_Int_Tables_number   1
_chemical_formula_structural   La2Zn3H3Pd14
_chemical_formula_sum   'La2 Zn3 H3 Pd14'
_cell_volume   333.93831089
_cell_formula_units_Z   1
loop_
 _symmetry_equiv_pos_site_id
 _symmetry_equiv_pos_as_xyz
  1  'x, y, z'
loop_
 _atom_site_type_symbol
 _atom_site_label
 _atom_site_symmetry_multiplicity
 _atom_site_fract_x
 _atom_site_fract_y
 _atom_site_fract_z
 _atom_site_occupancy
  La  La0  1  0.659545  0.659545  0.659545  1
  La  La1  1  0.340455  0.340455  0.340455  1
  Zn  Zn2  1  0.000000  0.000000  0.500000  1
  Zn  Zn3  1  0.500000  0.000000  0.000000  1
  Zn  Zn4  1  0.000000  0.500000  0.000000  1
  H  H5  1  0.500000  0.500000  0.000000  1
  H  H6  1  0.000000  0.500000  0.500000  1
  H  H7  1  0.500000  0.000000  0.500000  1
  Pd  Pd8  1  0.706799  0.293201  0.000000  1
  Pd  Pd9  1  0.000000  0.706799  0.293201  1
  Pd  Pd10  1  0.293201  0.000000  0.706799  1
  Pd  Pd11  1  0.000000  0.293201  0.706799  1
  Pd  Pd12  1  0.706799  0.000000  0.293201  1
  Pd  Pd13  1  0.293201  0.706799  0.000000  1
  Pd  Pd14  1  0.347146  0.347146  0.858547  1
  Pd  Pd15  1  0.858547  0.347146  0.347146  1
  Pd  Pd16  1  0.347146  0.858547  0.347146  1
  Pd  Pd17  1  0.652854  0.652854  0.141453  1
  Pd  Pd18  1  0.141453  0.652854  0.652854  1
  Pd  Pd19  1  0.652854  0.141453  0.652854  1
  Pd  Pd20  1  0.898830  0.898830  0.898830  1
  Pd  Pd21  1  0.101170  0.101170  0.101170  1
