# generated using pymatgen
data_Sr14HoSb11
_symmetry_space_group_name_H-M   'P 1'
_cell_length_a   17.47725707
_cell_length_b   17.47725751
_cell_length_c   17.47725700
_cell_angle_alpha   93.91138331
_cell_angle_beta   117.76805034
_cell_angle_gamma   117.76804455
_symmetry_Int_Tables_number   1
_chemical_formula_structural   Sr14HoSb11
_chemical_formula_sum   'Sr56 Ho4 Sb44'
_cell_volume   3892.43255551
_cell_formula_units_Z   4
loop_
 _symmetry_equiv_pos_site_id
 _symmetry_equiv_pos_as_xyz
  1  'x, y, z'
loop_
 _atom_site_type_symbol
 _atom_site_label
 _atom_site_symmetry_multiplicity
 _atom_site_fract_x
 _atom_site_fract_y
 _atom_site_fract_z
 _atom_site_occupancy
  Sr  Sr0  1  0.228630  0.977721  0.066631  1
  Sr  Sr1  1  0.728630  0.566631  0.477721  1
  Sr  Sr2  1  0.618145  0.402766  0.871888  1
  Sr  Sr3  1  0.146088  0.750000  0.896088  1
  Sr  Sr4  1  0.353912  0.250000  0.603912  1
  Sr  Sr5  1  0.271370  0.338002  0.749091  1
  Sr  Sr6  1  0.881855  0.628112  0.097234  1
  Sr  Sr7  1  0.911089  0.477721  0.249091  1
  Sr  Sr8  1  0.411089  0.749091  0.977721  1
  Sr  Sr9  1  0.645013  0.111647  0.518023  1
  Sr  Sr10  1  0.406377  0.518023  0.373010  1
  Sr  Sr11  1  0.854987  0.981977  0.388353  1
  Sr  Sr12  1  0.381855  0.597234  0.128112  1
  Sr  Sr13  1  0.728630  0.661998  0.250909  1
  Sr  Sr14  1  0.411089  0.161998  0.433369  1
  Sr  Sr15  1  0.469122  0.097234  0.715378  1
  Sr  Sr16  1  0.645013  0.033366  0.126990  1
  Sr  Sr17  1  0.145013  0.018023  0.611647  1
  Sr  Sr18  1  0.088911  0.522279  0.750909  1
  Sr  Sr19  1  0.354987  0.966634  0.873010  1
  Sr  Sr20  1  0.853912  0.103912  0.750000  1
  Sr  Sr21  1  0.088911  0.066631  0.338002  1
  Sr  Sr22  1  0.969122  0.253743  0.371888  1
  Sr  Sr23  1  0.406377  0.388353  0.033366  1
  Sr  Sr24  1  0.911089  0.933369  0.661998  1
  Sr  Sr25  1  0.228630  0.750909  0.161998  1
  Sr  Sr26  1  0.469122  0.871888  0.753743  1
  Sr  Sr27  1  0.093623  0.126990  0.981977  1
  Sr  Sr28  1  0.271370  0.433369  0.522279  1
  Sr  Sr29  1  0.646088  0.396088  0.250000  1
  Sr  Sr30  1  0.381855  0.284622  0.253743  1
  Sr  Sr31  1  0.030878  0.784622  0.402766  1
  Sr  Sr32  1  0.593623  0.611647  0.966634  1
  Sr  Sr33  1  0.969122  0.215378  0.597234  1
  Sr  Sr34  1  0.093623  0.466634  0.111647  1
  Sr  Sr35  1  0.118145  0.246257  0.215378  1
  Sr  Sr36  1  0.771370  0.249091  0.838002  1
  Sr  Sr37  1  0.146088  0.896088  0.250000  1
  Sr  Sr38  1  0.530878  0.902766  0.284622  1
  Sr  Sr39  1  0.118145  0.371888  0.902766  1
  Sr  Sr40  1  0.906377  0.533366  0.888353  1
  Sr  Sr41  1  0.646088  0.750000  0.396088  1
  Sr  Sr42  1  0.906377  0.873010  0.018023  1
  Sr  Sr43  1  0.854987  0.373010  0.466634  1
  Sr  Sr44  1  0.353912  0.603912  0.750000  1
  Sr  Sr45  1  0.145013  0.626990  0.533366  1
  Sr  Sr46  1  0.588911  0.838002  0.566631  1
  Sr  Sr47  1  0.853912  0.250000  0.103912  1
  Sr  Sr48  1  0.593623  0.481977  0.626990  1
  Sr  Sr49  1  0.030878  0.746257  0.628112  1
  Sr  Sr50  1  0.530878  0.128112  0.246257  1
  Sr  Sr51  1  0.881855  0.753743  0.784622  1
  Sr  Sr52  1  0.588911  0.250909  0.022279  1
  Sr  Sr53  1  0.354987  0.888353  0.481977  1
  Sr  Sr54  1  0.618145  0.715378  0.746257  1
  Sr  Sr55  1  0.771370  0.022279  0.933369  1
  Ho  Ho56  1  0.250000  0.125000  0.875000  1
  Ho  Ho57  1  0.750000  0.375000  0.625000  1
  Ho  Ho58  1  0.750000  0.875000  0.125000  1
  Ho  Ho59  1  0.250000  0.625000  0.375000  1
  Sb  Sb60  1  0.343069  0.521140  0.915911  1
  Sb  Sb61  1  0.884847  0.081135  0.185885  1
  Sb  Sb62  1  0.656931  0.478860  0.084089  1
  Sb  Sb63  1  0.615153  0.314115  0.418865  1
  Sb  Sb64  1  0.105228  0.178071  0.521140  1
  Sb  Sb65  1  0.104752  0.185885  0.801038  1
  Sb  Sb66  1  0.516460  0.508230  0.258230  1
  Sb  Sb67  1  0.105228  0.427157  0.584089  1
  Sb  Sb68  1  0.750000  0.125000  0.375000  1
  Sb  Sb69  1  0.604752  0.301038  0.685885  1
  Sb  Sb70  1  0.395248  0.698962  0.314115  1
  Sb  Sb71  1  0.394772  0.915911  0.072843  1
  Sb  Sb72  1  0.384847  0.198962  0.803713  1
  Sb  Sb73  1  0.894772  0.821929  0.478860  1
  Sb  Sb74  1  0.250000  0.375000  0.125000  1
  Sb  Sb75  1  0.250000  0.741770  0.758230  1
  Sb  Sb76  1  0.115153  0.696287  0.301038  1
  Sb  Sb77  1  0.615153  0.801038  0.196287  1
  Sb  Sb78  1  0.104752  0.418865  0.303713  1
  Sb  Sb79  1  0.605228  0.084089  0.927157  1
  Sb  Sb80  1  0.895248  0.814115  0.198962  1
  Sb  Sb81  1  0.894772  0.572843  0.415911  1
  Sb  Sb82  1  0.250000  0.875000  0.625000  1
  Sb  Sb83  1  0.384847  0.685885  0.581135  1
  Sb  Sb84  1  0.016460  0.758230  0.008230  1
  Sb  Sb85  1  0.604752  0.803713  0.918865  1
  Sb  Sb86  1  0.156931  0.584089  0.978860  1
  Sb  Sb87  1  0.395248  0.196287  0.081135  1
  Sb  Sb88  1  0.843069  0.927157  0.821929  1
  Sb  Sb89  1  0.483540  0.491770  0.741770  1
  Sb  Sb90  1  0.983540  0.241770  0.991770  1
  Sb  Sb91  1  0.394772  0.978860  0.321929  1
  Sb  Sb92  1  0.750000  0.991770  0.508230  1
  Sb  Sb93  1  0.605228  0.021140  0.678071  1
  Sb  Sb94  1  0.115153  0.918865  0.814115  1
  Sb  Sb95  1  0.343069  0.321929  0.427157  1
  Sb  Sb96  1  0.156931  0.072843  0.178071  1
  Sb  Sb97  1  0.750000  0.258230  0.241770  1
  Sb  Sb98  1  0.750000  0.625000  0.875000  1
  Sb  Sb99  1  0.250000  0.008230  0.491770  1
  Sb  Sb100  1  0.895248  0.581135  0.696287  1
  Sb  Sb101  1  0.656931  0.678071  0.572843  1
  Sb  Sb102  1  0.884847  0.303713  0.698962  1
  Sb  Sb103  1  0.843069  0.415911  0.021140  1
