# generated using pymatgen
data_Tb2DyTm9Co4BiRu
_symmetry_space_group_name_H-M   'P 1'
_cell_length_a   8.24839805
_cell_length_b   8.24839623
_cell_length_c   8.23635998
_cell_angle_alpha   110.77924269
_cell_angle_beta   111.08162443
_cell_angle_gamma   106.65312928
_symmetry_Int_Tables_number   1
_chemical_formula_structural   Tb2DyTm9Co4BiRu
_chemical_formula_sum   'Tb2 Dy1 Tm9 Co4 Bi1 Ru1'
_cell_volume   430.24225852
_cell_formula_units_Z   1
loop_
 _symmetry_equiv_pos_site_id
 _symmetry_equiv_pos_as_xyz
  1  'x, y, z'
loop_
 _atom_site_type_symbol
 _atom_site_label
 _atom_site_symmetry_multiplicity
 _atom_site_fract_x
 _atom_site_fract_y
 _atom_site_fract_z
 _atom_site_occupancy
  Tb  Tb0  1  0.284546  0.183577  0.468125  1
  Tb  Tb1  1  0.715702  0.817027  0.532727  1
  Dy  Dy2  1  0.283987  0.815189  0.099175  1
  Tm  Tm3  1  0.716772  0.183884  0.900657  1
  Tm  Tm4  1  0.621253  0.310761  0.308710  1
  Tm  Tm5  1  0.379201  0.689669  0.691006  1
  Tm  Tm6  1  0.001337  0.311804  0.691006  1
  Tm  Tm7  1  0.997949  0.687458  0.308710  1
  Tm  Tm8  1  0.211189  0.407984  0.195045  1
  Tm  Tm9  1  0.787985  0.591316  0.804584  1
  Tm  Tm10  1  0.213270  0.016601  0.804584  1
  Tm  Tm11  1  0.787059  0.983854  0.195045  1
  Co  Co12  1  0.999716  0.375672  0.375388  1
  Co  Co13  1  0.999740  0.624085  0.623825  1
  Co  Co14  1  0.388935  0.888862  0.501075  1
  Co  Co15  1  0.612213  0.112140  0.501075  1
  Bi  Bi16  1  0.499987  0.499972  0.999959  1
  Ru  Ru17  1  0.999160  0.000145  0.999304  1
