# generated using pymatgen
data_PaCo(SeO5)2
_symmetry_space_group_name_H-M   'P 1'
_cell_length_a   6.13561941
_cell_length_b   5.34914921
_cell_length_c   7.42395870
_cell_angle_alpha   79.26359339
_cell_angle_beta   70.58681728
_cell_angle_gamma   103.27668082
_symmetry_Int_Tables_number   1
_chemical_formula_structural   PaCo(SeO5)2
_chemical_formula_sum   'Pa1 Co1 Se2 O10'
_cell_volume   214.31278142
_cell_formula_units_Z   1
loop_
 _symmetry_equiv_pos_site_id
 _symmetry_equiv_pos_as_xyz
  1  'x, y, z'
loop_
 _atom_site_type_symbol
 _atom_site_label
 _atom_site_symmetry_multiplicity
 _atom_site_fract_x
 _atom_site_fract_y
 _atom_site_fract_z
 _atom_site_occupancy
  Pa  Pa0  1  0.000000  0.000000  0.500000  1
  Co  Co1  1  0.000000  0.000000  0.000000  1
  Se  Se2  1  0.302378  0.657164  0.766020  1
  Se  Se3  1  0.697622  0.342836  0.233980  1
  O  O4  1  0.214064  0.365392  0.942490  1
  O  O5  1  0.785936  0.634608  0.057510  1
  O  O6  1  0.595031  0.723752  0.620625  1
  O  O7  1  0.404969  0.276248  0.379375  1
  O  O8  1  0.959524  0.062204  0.756547  1
  O  O9  1  0.040476  0.937796  0.243453  1
  O  O10  1  0.292775  0.903224  0.878004  1
  O  O11  1  0.707225  0.096776  0.121996  1
  O  O12  1  0.149695  0.656300  0.614758  1
  O  O13  1  0.850305  0.343700  0.385242  1
