# generated using pymatgen
data_Y10OsRu3
_symmetry_space_group_name_H-M   'P 1'
_cell_length_a   6.39730890
_cell_length_b   7.34075751
_cell_length_c   8.52301214
_cell_angle_alpha   96.67797909
_cell_angle_beta   112.11582210
_cell_angle_gamma   90.03203171
_symmetry_Int_Tables_number   1
_chemical_formula_structural   Y10OsRu3
_chemical_formula_sum   'Y10 Os1 Ru3'
_cell_volume   367.85788320
_cell_formula_units_Z   1
loop_
 _symmetry_equiv_pos_site_id
 _symmetry_equiv_pos_as_xyz
  1  'x, y, z'
loop_
 _atom_site_type_symbol
 _atom_site_label
 _atom_site_symmetry_multiplicity
 _atom_site_fract_x
 _atom_site_fract_y
 _atom_site_fract_z
 _atom_site_occupancy
  Y  Y0  1  0.978646  0.915025  0.185510  1
  Y  Y1  1  0.794328  0.585062  0.814278  1
  Y  Y2  1  0.022280  0.085183  0.816622  1
  Y  Y3  1  0.205793  0.415951  0.186034  1
  Y  Y4  1  0.641168  0.816694  0.435084  1
  Y  Y5  1  0.205715  0.683832  0.565858  1
  Y  Y6  1  0.359737  0.182888  0.563953  1
  Y  Y7  1  0.792790  0.315485  0.433681  1
  Y  Y8  1  0.421566  0.750167  0.000106  1
  Y  Y9  1  0.578087  0.249835  0.000611  1
  Os  Os10  1  0.396475  0.076943  0.219549  1
  Ru  Ru11  1  0.824381  0.577274  0.220597  1
  Ru  Ru12  1  0.603940  0.922830  0.779294  1
  Ru  Ru13  1  0.175094  0.422833  0.778823  1
