# generated using pymatgen
data_Ho4Pd2RuPtO14
_symmetry_space_group_name_H-M   'P 1'
_cell_length_a   7.25634440
_cell_length_b   7.25634448
_cell_length_c   7.26019086
_cell_angle_alpha   59.57736071
_cell_angle_beta   59.57736150
_cell_angle_gamma   59.54358493
_symmetry_Int_Tables_number   1
_chemical_formula_structural   Ho4Pd2RuPtO14
_chemical_formula_sum   'Ho4 Pd2 Ru1 Pt1 O14'
_cell_volume   267.64772426
_cell_formula_units_Z   1
loop_
 _symmetry_equiv_pos_site_id
 _symmetry_equiv_pos_as_xyz
  1  'x, y, z'
loop_
 _atom_site_type_symbol
 _atom_site_label
 _atom_site_symmetry_multiplicity
 _atom_site_fract_x
 _atom_site_fract_y
 _atom_site_fract_z
 _atom_site_occupancy
  Ho  Ho0  1  0.625000  0.625000  0.125000  1
  Ho  Ho1  1  0.625000  0.125000  0.625000  1
  Ho  Ho2  1  0.125000  0.625000  0.625000  1
  Ho  Ho3  1  0.625000  0.625000  0.625000  1
  Pd  Pd4  1  0.125000  0.625000  0.125000  1
  Pd  Pd5  1  0.625000  0.125000  0.125000  1
  Ru  Ru6  1  0.125000  0.125000  0.125000  1
  Pt  Pt7  1  0.125000  0.125000  0.625000  1
  O  O8  1  0.466701  0.034561  0.468645  1
  O  O9  1  0.215439  0.783299  0.781355  1
  O  O10  1  0.790770  0.212078  0.212241  1
  O  O11  1  0.212078  0.790770  0.212241  1
  O  O12  1  0.782408  0.782408  0.215416  1
  O  O13  1  0.212403  0.212403  0.788378  1
  O  O14  1  0.467592  0.467592  0.034584  1
  O  O15  1  0.034561  0.466701  0.468645  1
  O  O16  1  0.459230  0.037922  0.037759  1
  O  O17  1  0.037597  0.037597  0.461622  1
  O  O18  1  0.783299  0.215439  0.781355  1
  O  O19  1  0.037922  0.459230  0.037759  1
  O  O20  1  0.499777  0.499777  0.500083  1
  O  O21  1  0.750223  0.750223  0.749917  1
