# generated using pymatgen
data_Li4Ca2DyHoSi8
_symmetry_space_group_name_H-M   'P 1'
_cell_length_a   3.78847600
_cell_length_b   7.78772530
_cell_length_c   10.41034042
_cell_angle_alpha   89.40702310
_cell_angle_beta   90.00000000
_cell_angle_gamma   90.00000000
_symmetry_Int_Tables_number   1
_chemical_formula_structural   Li4Ca2DyHoSi8
_chemical_formula_sum   'Li4 Ca2 Dy1 Ho1 Si8'
_cell_volume   307.12617890
_cell_formula_units_Z   1
loop_
 _symmetry_equiv_pos_site_id
 _symmetry_equiv_pos_as_xyz
  1  'x, y, z'
loop_
 _atom_site_type_symbol
 _atom_site_label
 _atom_site_symmetry_multiplicity
 _atom_site_fract_x
 _atom_site_fract_y
 _atom_site_fract_z
 _atom_site_occupancy
  Li  Li0  1  0.250000  0.998266  0.389751  1
  Li  Li1  1  0.750000  0.000501  0.609776  1
  Li  Li2  1  0.250000  0.491554  0.109360  1
  Li  Li3  1  0.750000  0.510394  0.890265  1
  Ca  Ca4  1  0.250000  0.636373  0.634708  1
  Ca  Ca5  1  0.750000  0.362426  0.365419  1
  Dy  Dy6  1  0.750000  0.869930  0.135017  1
  Ho  Ho7  1  0.250000  0.130214  0.865296  1
  Si  Si8  1  0.750000  0.262504  0.061465  1
  Si  Si9  1  0.250000  0.739602  0.937585  1
  Si  Si10  1  0.750000  0.771951  0.426646  1
  Si  Si11  1  0.250000  0.226338  0.574416  1
  Si  Si12  1  0.750000  0.844483  0.826336  1
  Si  Si13  1  0.250000  0.157349  0.172907  1
  Si  Si14  1  0.750000  0.331085  0.684814  1
  Si  Si15  1  0.250000  0.667032  0.316239  1
