# generated using pymatgen
data_DyYHfZrIr2
_symmetry_space_group_name_H-M   'P 1'
_cell_length_a   4.55279100
_cell_length_b   7.10736818
_cell_length_c   8.32343720
_cell_angle_alpha   89.54540632
_cell_angle_beta   90.00000000
_cell_angle_gamma   90.00000000
_symmetry_Int_Tables_number   1
_chemical_formula_structural   DyYHfZrIr2
_chemical_formula_sum   'Dy2 Y2 Hf2 Zr2 Ir4'
_cell_volume   269.32431571
_cell_formula_units_Z   2
loop_
 _symmetry_equiv_pos_site_id
 _symmetry_equiv_pos_as_xyz
  1  'x, y, z'
loop_
 _atom_site_type_symbol
 _atom_site_label
 _atom_site_symmetry_multiplicity
 _atom_site_fract_x
 _atom_site_fract_y
 _atom_site_fract_z
 _atom_site_occupancy
  Dy  Dy0  1  0.250000  0.983756  0.324430  1
  Dy  Dy1  1  0.250000  0.484975  0.176683  1
  Y  Y2  1  0.750000  0.015794  0.676396  1
  Y  Y3  1  0.750000  0.514775  0.822599  1
  Hf  Hf4  1  0.250000  0.359333  0.572808  1
  Hf  Hf5  1  0.750000  0.640602  0.426378  1
  Zr  Zr6  1  0.250000  0.857214  0.925830  1
  Zr  Zr7  1  0.750000  0.142754  0.074971  1
  Ir  Ir8  1  0.250000  0.233439  0.905992  1
  Ir  Ir9  1  0.250000  0.729764  0.589591  1
  Ir  Ir10  1  0.750000  0.766922  0.095510  1
  Ir  Ir11  1  0.750000  0.270666  0.408813  1
