# generated using pymatgen
data_Ce8Al2Zn6Ir7Ru
_symmetry_space_group_name_H-M   'P 1'
_cell_length_a   3.95487300
_cell_length_b   7.40386465
_cell_length_c   16.23890728
_cell_angle_alpha   89.84720146
_cell_angle_beta   90.00000000
_cell_angle_gamma   90.00000000
_symmetry_Int_Tables_number   1
_chemical_formula_structural   Ce8Al2Zn6Ir7Ru
_chemical_formula_sum   'Ce8 Al2 Zn6 Ir7 Ru1'
_cell_volume   475.49534611
_cell_formula_units_Z   1
loop_
 _symmetry_equiv_pos_site_id
 _symmetry_equiv_pos_as_xyz
  1  'x, y, z'
loop_
 _atom_site_type_symbol
 _atom_site_label
 _atom_site_symmetry_multiplicity
 _atom_site_fract_x
 _atom_site_fract_y
 _atom_site_fract_z
 _atom_site_occupancy
  Ce  Ce0  1  0.750000  0.951963  0.217890  1
  Ce  Ce1  1  0.250000  0.171137  0.559997  1
  Ce  Ce2  1  0.750000  0.824017  0.444972  1
  Ce  Ce3  1  0.750000  0.452874  0.282953  1
  Ce  Ce4  1  0.750000  0.325470  0.057844  1
  Ce  Ce5  1  0.250000  0.670583  0.940054  1
  Ce  Ce6  1  0.250000  0.050581  0.783513  1
  Ce  Ce7  1  0.250000  0.554410  0.713716  1
  Al  Al8  1  0.250000  0.620660  0.151818  1
  Al  Al9  1  0.250000  0.119452  0.349086  1
  Zn  Zn10  1  0.750000  0.496795  0.559312  1
  Zn  Zn11  1  0.750000  0.382397  0.846880  1
  Zn  Zn12  1  0.750000  0.997778  0.940731  1
  Zn  Zn13  1  0.750000  0.881624  0.651870  1
  Zn  Zn14  1  0.250000  0.497624  0.438721  1
  Zn  Zn15  1  0.250000  0.997753  0.062384  1
  Ir  Ir16  1  0.750000  0.754315  0.814744  1
  Ir  Ir17  1  0.250000  0.246636  0.936814  1
  Ir  Ir18  1  0.750000  0.242957  0.431187  1
  Ir  Ir19  1  0.250000  0.758038  0.312343  1
  Ir  Ir20  1  0.750000  0.742740  0.068476  1
  Ir  Ir21  1  0.750000  0.254665  0.685537  1
  Ir  Ir22  1  0.250000  0.258600  0.187755  1
  Ru  Ru23  1  0.250000  0.746930  0.561402  1
