# generated using pymatgen
data_La5Tb4Nd11Sn16
_symmetry_space_group_name_H-M   'P 1'
_cell_length_a   8.30802914
_cell_length_b   8.44563946
_cell_length_c   16.05789066
_cell_angle_alpha   90.01289106
_cell_angle_beta   89.94952503
_cell_angle_gamma   89.83799317
_symmetry_Int_Tables_number   1
_chemical_formula_structural   La5Tb4Nd11Sn16
_chemical_formula_sum   'La5 Tb4 Nd11 Sn16'
_cell_volume   1126.72292171
_cell_formula_units_Z   1
loop_
 _symmetry_equiv_pos_site_id
 _symmetry_equiv_pos_as_xyz
  1  'x, y, z'
loop_
 _atom_site_type_symbol
 _atom_site_label
 _atom_site_symmetry_multiplicity
 _atom_site_fract_x
 _atom_site_fract_y
 _atom_site_fract_z
 _atom_site_occupancy
  La  La0  1  0.980010  0.818388  0.098393  1
  La  La1  1  0.479852  0.680779  0.097750  1
  La  La2  1  0.980367  0.818575  0.402276  1
  La  La3  1  0.519752  0.318751  0.597741  1
  La  La4  1  0.019471  0.181932  0.901981  1
  Tb  Tb5  1  0.200489  0.503238  0.749894  1
  Tb  Tb6  1  0.700311  0.996796  0.749981  1
  Tb  Tb7  1  0.799328  0.496328  0.250299  1
  Tb  Tb8  1  0.299910  0.003643  0.250564  1
  Nd  Nd9  1  0.368438  0.838785  0.879364  1
  Nd  Nd10  1  0.868636  0.661047  0.620007  1
  Nd  Nd11  1  0.631595  0.161212  0.379965  1
  Nd  Nd12  1  0.131899  0.339283  0.119972  1
  Nd  Nd13  1  0.631914  0.161132  0.120576  1
  Nd  Nd14  1  0.131860  0.338962  0.380385  1
  Nd  Nd15  1  0.367983  0.838717  0.620280  1
  Nd  Nd16  1  0.867612  0.660885  0.879811  1
  Nd  Nd17  1  0.520789  0.319059  0.900338  1
  Nd  Nd18  1  0.020786  0.180848  0.599559  1
  Nd  Nd19  1  0.479074  0.680583  0.400942  1
  Sn  Sn20  1  0.292165  0.035585  0.044901  1
  Sn  Sn21  1  0.790033  0.466062  0.454623  1
  Sn  Sn22  1  0.709623  0.966136  0.545452  1
  Sn  Sn23  1  0.210258  0.533785  0.954217  1
  Sn  Sn24  1  0.707356  0.966085  0.954766  1
  Sn  Sn25  1  0.209225  0.535253  0.544458  1
  Sn  Sn26  1  0.290878  0.035038  0.455767  1
  Sn  Sn27  1  0.789860  0.463620  0.044130  1
  Sn  Sn28  1  0.566679  0.618089  0.750084  1
  Sn  Sn29  1  0.066380  0.881768  0.749731  1
  Sn  Sn30  1  0.433569  0.381713  0.250442  1
  Sn  Sn31  1  0.933783  0.118786  0.250032  1
  Sn  Sn32  1  0.325168  0.145195  0.750455  1
  Sn  Sn33  1  0.824554  0.355069  0.749360  1
  Sn  Sn34  1  0.673731  0.854644  0.251062  1
  Sn  Sn35  1  0.176662  0.644230  0.250440  1
