# generated using pymatgen
data_Hf19Si16Tc
_symmetry_space_group_name_H-M   'P 1'
_cell_length_a   7.04161395
_cell_length_b   7.04161395
_cell_length_c   12.81844848
_cell_angle_alpha   89.86628714
_cell_angle_beta   89.86628714
_cell_angle_gamma   89.97499118
_symmetry_Int_Tables_number   1
_chemical_formula_structural   Hf19Si16Tc
_chemical_formula_sum   'Hf19 Si16 Tc1'
_cell_volume   635.59062085
_cell_formula_units_Z   1
loop_
 _symmetry_equiv_pos_site_id
 _symmetry_equiv_pos_as_xyz
  1  'x, y, z'
loop_
 _atom_site_type_symbol
 _atom_site_label
 _atom_site_symmetry_multiplicity
 _atom_site_fract_x
 _atom_site_fract_y
 _atom_site_fract_z
 _atom_site_occupancy
  Hf  Hf0  1  0.324306  0.675694  0.250000  1
  Hf  Hf1  1  0.823939  0.823945  0.502230  1
  Hf  Hf2  1  0.176055  0.176061  0.997770  1
  Hf  Hf3  1  0.496115  0.152088  0.532425  1
  Hf  Hf4  1  0.504604  0.848390  0.030726  1
  Hf  Hf5  1  0.651467  0.003853  0.283391  1
  Hf  Hf6  1  0.345546  0.997303  0.782279  1
  Hf  Hf7  1  0.847912  0.503885  0.967575  1
  Hf  Hf8  1  0.151610  0.495396  0.469274  1
  Hf  Hf9  1  0.002697  0.654454  0.717721  1
  Hf  Hf10  1  0.996147  0.348533  0.216609  1
  Hf  Hf11  1  0.499758  0.355041  0.123870  1
  Hf  Hf12  1  0.502563  0.644053  0.628932  1
  Hf  Hf13  1  0.855221  0.000243  0.876146  1
  Hf  Hf14  1  0.145983  0.999291  0.377620  1
  Hf  Hf15  1  0.644959  0.500242  0.376130  1
  Hf  Hf16  1  0.355947  0.497437  0.871068  1
  Hf  Hf17  1  0.000709  0.854017  0.122380  1
  Hf  Hf18  1  0.999757  0.144779  0.623854  1
  Si  Si19  1  0.795935  0.147291  0.071796  1
  Si  Si20  1  0.204093  0.850876  0.572836  1
  Si  Si21  1  0.647139  0.703074  0.823563  1
  Si  Si22  1  0.353707  0.295976  0.322245  1
  Si  Si23  1  0.852709  0.204065  0.428204  1
  Si  Si24  1  0.149124  0.795907  0.927164  1
  Si  Si25  1  0.704024  0.646293  0.177755  1
  Si  Si26  1  0.296926  0.352861  0.676437  1
  Si  Si27  1  0.553740  0.201397  0.932093  1
  Si  Si28  1  0.451172  0.802014  0.436700  1
  Si  Si29  1  0.696743  0.957573  0.686683  1
  Si  Si30  1  0.302319  0.049492  0.185638  1
  Si  Si31  1  0.798603  0.446260  0.567907  1
  Si  Si32  1  0.197986  0.548828  0.063300  1
  Si  Si33  1  0.950508  0.697681  0.314362  1
  Si  Si34  1  0.042427  0.303257  0.813317  1
  Tc  Tc35  1  0.677549  0.322451  0.750000  1
