# generated using pymatgen
data_Pa(SO4)2
_symmetry_space_group_name_H-M   'P 1'
_cell_length_a   8.83974400
_cell_length_b   9.28748100
_cell_length_c   13.32498900
_cell_angle_alpha   90.00000000
_cell_angle_beta   90.00000000
_cell_angle_gamma   90.00000000
_symmetry_Int_Tables_number   1
_chemical_formula_structural   Pa(SO4)2
_chemical_formula_sum   'Pa8 S16 O64'
_cell_volume   1093.96766489
_cell_formula_units_Z   8
loop_
 _symmetry_equiv_pos_site_id
 _symmetry_equiv_pos_as_xyz
  1  'x, y, z'
loop_
 _atom_site_type_symbol
 _atom_site_label
 _atom_site_symmetry_multiplicity
 _atom_site_fract_x
 _atom_site_fract_y
 _atom_site_fract_z
 _atom_site_occupancy
  Pa  Pa0  1  0.780924  0.034596  0.104546  1
  Pa  Pa1  1  0.719076  0.534596  0.895454  1
  Pa  Pa2  1  0.280924  0.965404  0.395454  1
  Pa  Pa3  1  0.219076  0.465404  0.604546  1
  Pa  Pa4  1  0.219076  0.965404  0.895454  1
  Pa  Pa5  1  0.280924  0.465404  0.104546  1
  Pa  Pa6  1  0.719076  0.034596  0.604546  1
  Pa  Pa7  1  0.780924  0.534596  0.395454  1
  S  S8  1  0.992266  0.722152  0.065249  1
  S  S9  1  0.507734  0.222152  0.934751  1
  S  S10  1  0.492266  0.277848  0.434751  1
  S  S11  1  0.007734  0.777848  0.565249  1
  S  S12  1  0.007734  0.277848  0.934751  1
  S  S13  1  0.492266  0.777848  0.065249  1
  S  S14  1  0.507734  0.722152  0.565249  1
  S  S15  1  0.992266  0.222152  0.434751  1
  S  S16  1  0.812874  0.895059  0.845566  1
  S  S17  1  0.687126  0.395059  0.154434  1
  S  S18  1  0.312873  0.104941  0.654434  1
  S  S19  1  0.187126  0.604941  0.345566  1
  S  S20  1  0.187126  0.104941  0.154434  1
  S  S21  1  0.312873  0.604941  0.845566  1
  S  S22  1  0.687126  0.895059  0.345566  1
  S  S23  1  0.812874  0.395059  0.654434  1
  O  O24  1  0.880842  0.795622  0.129425  1
  O  O25  1  0.619158  0.295622  0.870575  1
  O  O26  1  0.380842  0.204378  0.370575  1
  O  O27  1  0.119158  0.704378  0.629425  1
  O  O28  1  0.119158  0.204378  0.870575  1
  O  O29  1  0.380842  0.704378  0.129425  1
  O  O30  1  0.619158  0.795622  0.629425  1
  O  O31  1  0.880842  0.295622  0.370575  1
  O  O32  1  0.919739  0.643826  0.981597  1
  O  O33  1  0.580261  0.143826  0.018403  1
  O  O34  1  0.419739  0.356174  0.518403  1
  O  O35  1  0.080261  0.856174  0.481597  1
  O  O36  1  0.080261  0.356174  0.018403  1
  O  O37  1  0.419739  0.856174  0.981597  1
  O  O38  1  0.580261  0.643826  0.481597  1
  O  O39  1  0.919739  0.143826  0.518403  1
  O  O40  1  0.076681  0.617648  0.127773  1
  O  O41  1  0.423319  0.117648  0.872227  1
  O  O42  1  0.576681  0.382352  0.372227  1
  O  O43  1  0.923319  0.882352  0.627773  1
  O  O44  1  0.923319  0.382352  0.872227  1
  O  O45  1  0.576681  0.882352  0.127773  1
  O  O46  1  0.423319  0.617648  0.627773  1
  O  O47  1  0.076681  0.117648  0.372227  1
  O  O48  1  0.096188  0.831740  0.022822  1
  O  O49  1  0.403812  0.331740  0.977178  1
  O  O50  1  0.596188  0.168260  0.477178  1
  O  O51  1  0.903812  0.668260  0.522822  1
  O  O52  1  0.903812  0.168260  0.977178  1
  O  O53  1  0.596188  0.668260  0.022822  1
  O  O54  1  0.403812  0.831740  0.522822  1
  O  O55  1  0.096188  0.331740  0.477178  1
  O  O56  1  0.764014  0.913751  0.950805  1
  O  O57  1  0.735986  0.413751  0.049195  1
  O  O58  1  0.264014  0.086249  0.549195  1
  O  O59  1  0.235986  0.586249  0.450805  1
  O  O60  1  0.235986  0.086249  0.049195  1
  O  O61  1  0.264014  0.586249  0.950805  1
  O  O62  1  0.735986  0.913751  0.450805  1
  O  O63  1  0.764014  0.413751  0.549195  1
  O  O64  1  0.731624  0.997811  0.781435  1
  O  O65  1  0.768376  0.497811  0.218565  1
  O  O66  1  0.231624  0.002189  0.718565  1
  O  O67  1  0.268376  0.502189  0.281435  1
  O  O68  1  0.268376  0.002189  0.218565  1
  O  O69  1  0.231624  0.502189  0.781435  1
  O  O70  1  0.768376  0.997811  0.281435  1
  O  O71  1  0.731624  0.497811  0.718565  1
  O  O72  1  0.776031  0.746463  0.813213  1
  O  O73  1  0.723969  0.246463  0.186787  1
  O  O74  1  0.276031  0.253537  0.686787  1
  O  O75  1  0.223969  0.753537  0.313213  1
  O  O76  1  0.223969  0.253537  0.186787  1
  O  O77  1  0.276031  0.753537  0.813213  1
  O  O78  1  0.723969  0.746463  0.313213  1
  O  O79  1  0.776031  0.246463  0.686787  1
  O  O80  1  0.977992  0.916732  0.836634  1
  O  O81  1  0.522008  0.416732  0.163366  1
  O  O82  1  0.477992  0.083268  0.663366  1
  O  O83  1  0.022008  0.583268  0.336634  1
  O  O84  1  0.022008  0.083268  0.163366  1
  O  O85  1  0.477992  0.583268  0.836634  1
  O  O86  1  0.522008  0.916732  0.336634  1
  O  O87  1  0.977992  0.416732  0.663366  1
