# generated using pymatgen
data_AcPr2Nd3(RuI3)2
_symmetry_space_group_name_H-M   'P 1'
_cell_length_a   4.35839300
_cell_length_b   9.59093640
_cell_length_c   12.68203844
_cell_angle_alpha   86.69816692
_cell_angle_beta   90.00000000
_cell_angle_gamma   90.00000000
_symmetry_Int_Tables_number   1
_chemical_formula_structural   AcPr2Nd3(RuI3)2
_chemical_formula_sum   'Ac1 Pr2 Nd3 Ru2 I6'
_cell_volume   529.24275979
_cell_formula_units_Z   1
loop_
 _symmetry_equiv_pos_site_id
 _symmetry_equiv_pos_as_xyz
  1  'x, y, z'
loop_
 _atom_site_type_symbol
 _atom_site_label
 _atom_site_symmetry_multiplicity
 _atom_site_fract_x
 _atom_site_fract_y
 _atom_site_fract_z
 _atom_site_occupancy
  Ac  Ac0  1  0.750000  0.685982  0.117086  1
  Pr  Pr1  1  0.250000  0.890898  0.330298  1
  Pr  Pr2  1  0.250000  0.906251  0.890871  1
  Nd  Nd3  1  0.250000  0.304502  0.880909  1
  Nd  Nd4  1  0.750000  0.116756  0.671458  1
  Nd  Nd5  1  0.750000  0.096936  0.106247  1
  Ru  Ru6  1  0.250000  0.894029  0.121052  1
  Ru  Ru7  1  0.750000  0.109566  0.879748  1
  I  I8  1  0.250000  0.877089  0.619502  1
  I  I9  1  0.750000  0.132028  0.380881  1
  I  I10  1  0.750000  0.646382  0.386972  1
  I  I11  1  0.250000  0.357943  0.622943  1
  I  I12  1  0.250000  0.382889  0.134704  1
  I  I13  1  0.750000  0.598748  0.857327  1
