# generated using pymatgen
data_TbHo5Pa2(ReB6)4
_symmetry_space_group_name_H-M   'P 1'
_cell_length_a   3.69906300
_cell_length_b   9.16300219
_cell_length_c   11.53089206
_cell_angle_alpha   90.33281667
_cell_angle_beta   90.00000000
_cell_angle_gamma   90.00000000
_symmetry_Int_Tables_number   1
_chemical_formula_structural   TbHo5Pa2(ReB6)4
_chemical_formula_sum   'Tb1 Ho5 Pa2 Re4 B24'
_cell_volume   390.82748548
_cell_formula_units_Z   1
loop_
 _symmetry_equiv_pos_site_id
 _symmetry_equiv_pos_as_xyz
  1  'x, y, z'
loop_
 _atom_site_type_symbol
 _atom_site_label
 _atom_site_symmetry_multiplicity
 _atom_site_fract_x
 _atom_site_fract_y
 _atom_site_fract_z
 _atom_site_occupancy
  Tb  Tb0  1  0.000000  0.823997  0.085621  1
  Ho  Ho1  1  0.000000  0.176008  0.914473  1
  Ho  Ho2  1  0.000000  0.944765  0.372552  1
  Ho  Ho3  1  0.000000  0.055298  0.627507  1
  Ho  Ho4  1  0.000000  0.443693  0.126518  1
  Ho  Ho5  1  0.000000  0.556089  0.873380  1
  Pa  Pa6  1  0.000000  0.321556  0.413169  1
  Pa  Pa7  1  0.000000  0.678453  0.586836  1
  Re  Re8  1  0.000000  0.634995  0.324852  1
  Re  Re9  1  0.000000  0.364884  0.675323  1
  Re  Re10  1  0.000000  0.140796  0.181717  1
  Re  Re11  1  0.000000  0.859583  0.818133  1
  B  B12  1  0.500000  0.553540  0.432939  1
  B  B13  1  0.500000  0.446453  0.567095  1
  B  B14  1  0.500000  0.053738  0.067274  1
  B  B15  1  0.500000  0.946685  0.932502  1
  B  B16  1  0.500000  0.748320  0.419502  1
  B  B17  1  0.500000  0.251669  0.580566  1
  B  B18  1  0.500000  0.247989  0.080137  1
  B  B19  1  0.500000  0.751998  0.919457  1
  B  B20  1  0.500000  0.791344  0.265753  1
  B  B21  1  0.500000  0.208506  0.734520  1
  B  B22  1  0.500000  0.292059  0.233803  1
  B  B23  1  0.500000  0.707932  0.766121  1
  B  B24  1  0.500000  0.631196  0.185595  1
  B  B25  1  0.500000  0.368516  0.814588  1
  B  B26  1  0.500000  0.132110  0.314094  1
  B  B27  1  0.500000  0.867934  0.685920  1
  B  B28  1  0.500000  0.982612  0.212298  1
  B  B29  1  0.500000  0.017831  0.787844  1
  B  B30  1  0.500000  0.482942  0.286707  1
  B  B31  1  0.500000  0.516997  0.713308  1
  B  B32  1  0.500000  0.604639  0.029297  1
  B  B33  1  0.500000  0.394880  0.970580  1
  B  B34  1  0.500000  0.110270  0.469518  1
  B  B35  1  0.500000  0.889722  0.530502  1
