# generated using pymatgen
data_Ho10Sn5BiSe2
_symmetry_space_group_name_H-M   'P 1'
_cell_length_a   9.11197329
_cell_length_b   9.11197344
_cell_length_c   6.67482900
_cell_angle_alpha   90.00000000
_cell_angle_beta   90.00000000
_cell_angle_gamma   120.12351325
_symmetry_Int_Tables_number   1
_chemical_formula_structural   Ho10Sn5BiSe2
_chemical_formula_sum   'Ho10 Sn5 Bi1 Se2'
_cell_volume   479.35116727
_cell_formula_units_Z   1
loop_
 _symmetry_equiv_pos_site_id
 _symmetry_equiv_pos_as_xyz
  1  'x, y, z'
loop_
 _atom_site_type_symbol
 _atom_site_label
 _atom_site_symmetry_multiplicity
 _atom_site_fract_x
 _atom_site_fract_y
 _atom_site_fract_z
 _atom_site_occupancy
  Ho  Ho0  1  0.669886  0.332347  0.002006  1
  Ho  Ho1  1  0.332347  0.669886  0.002006  1
  Ho  Ho2  1  0.332347  0.669886  0.497994  1
  Ho  Ho3  1  0.669886  0.332347  0.497994  1
  Ho  Ho4  1  0.749330  0.749330  0.750000  1
  Ho  Ho5  1  0.251272  0.994308  0.750000  1
  Ho  Ho6  1  0.994308  0.251272  0.750000  1
  Ho  Ho7  1  0.252390  0.252390  0.250000  1
  Ho  Ho8  1  0.746046  0.999718  0.250000  1
  Ho  Ho9  1  0.999718  0.746046  0.250000  1
  Sn  Sn10  1  0.603432  0.000204  0.750000  1
  Sn  Sn11  1  0.000204  0.603432  0.750000  1
  Sn  Sn12  1  0.604818  0.604818  0.250000  1
  Sn  Sn13  1  0.396103  0.000840  0.250000  1
  Sn  Sn14  1  0.000840  0.396103  0.250000  1
  Bi  Bi15  1  0.394963  0.394963  0.750000  1
  Se  Se16  1  0.001056  0.001056  0.999745  1
  Se  Se17  1  0.001056  0.001056  0.500255  1
