# generated using pymatgen
data_La4Nd2Ga3Sn7
_symmetry_space_group_name_H-M   'P 1'
_cell_length_a   6.57526001
_cell_length_b   6.57526031
_cell_length_c   10.36707206
_cell_angle_alpha   90.08702579
_cell_angle_beta   90.08703036
_cell_angle_gamma   102.39496406
_symmetry_Int_Tables_number   1
_chemical_formula_structural   La4Nd2Ga3Sn7
_chemical_formula_sum   'La4 Nd2 Ga3 Sn7'
_cell_volume   437.76191468
_cell_formula_units_Z   1
loop_
 _symmetry_equiv_pos_site_id
 _symmetry_equiv_pos_as_xyz
  1  'x, y, z'
loop_
 _atom_site_type_symbol
 _atom_site_label
 _atom_site_symmetry_multiplicity
 _atom_site_fract_x
 _atom_site_fract_y
 _atom_site_fract_z
 _atom_site_occupancy
  La  La0  1  0.205106  0.800148  0.499873  1
  La  La1  1  0.202770  0.795383  0.000785  1
  La  La2  1  0.800148  0.205106  0.499873  1
  La  La3  1  0.795383  0.202770  0.000785  1
  Nd  Nd4  1  0.637550  0.637550  0.241473  1
  Nd  Nd5  1  0.362274  0.362274  0.751011  1
  Ga  Ga6  1  0.313343  0.313343  0.044548  1
  Ga  Ga7  1  0.685695  0.685695  0.953372  1
  Ga  Ga8  1  0.310222  0.310222  0.454475  1
  Sn  Sn9  1  0.026399  0.026399  0.249350  1
  Sn  Sn10  1  0.975431  0.975431  0.752850  1
  Sn  Sn11  1  0.679689  0.679689  0.542153  1
  Sn  Sn12  1  0.490190  0.090421  0.249672  1
  Sn  Sn13  1  0.917314  0.508062  0.755054  1
  Sn  Sn14  1  0.508062  0.917314  0.755054  1
  Sn  Sn15  1  0.090421  0.490190  0.249672  1
