# generated using pymatgen
data_Er4Pa2CrCo17P12
_symmetry_space_group_name_H-M   'P 1'
_cell_length_a   3.69696500
_cell_length_b   10.50276500
_cell_length_c   12.11907400
_cell_angle_alpha   90.00000000
_cell_angle_beta   90.00000000
_cell_angle_gamma   90.00000000
_symmetry_Int_Tables_number   1
_chemical_formula_structural   Er4Pa2CrCo17P12
_chemical_formula_sum   'Er4 Pa2 Cr1 Co17 P12'
_cell_volume   470.56370280
_cell_formula_units_Z   1
loop_
 _symmetry_equiv_pos_site_id
 _symmetry_equiv_pos_as_xyz
  1  'x, y, z'
loop_
 _atom_site_type_symbol
 _atom_site_label
 _atom_site_symmetry_multiplicity
 _atom_site_fract_x
 _atom_site_fract_y
 _atom_site_fract_z
 _atom_site_occupancy
  Er  Er0  1  0.250000  0.934379  0.794868  1
  Er  Er1  1  0.250000  0.565621  0.794868  1
  Er  Er2  1  0.750000  0.066220  0.203583  1
  Er  Er3  1  0.750000  0.433780  0.203583  1
  Pa  Pa4  1  0.750000  0.250000  0.470760  1
  Pa  Pa5  1  0.250000  0.750000  0.529278  1
  Cr  Cr6  1  0.250000  0.250000  0.845322  1
  Co  Co7  1  0.750000  0.750000  0.158210  1
  Co  Co8  1  0.250000  0.250000  0.303086  1
  Co  Co9  1  0.750000  0.750000  0.697265  1
  Co  Co10  1  0.750000  0.250000  0.013411  1
  Co  Co11  1  0.250000  0.750000  0.984824  1
  Co  Co12  1  0.250000  0.416555  0.007677  1
  Co  Co13  1  0.250000  0.083445  0.007677  1
  Co  Co14  1  0.750000  0.583439  0.992234  1
  Co  Co15  1  0.750000  0.916561  0.992234  1
  Co  Co16  1  0.250000  0.449085  0.568153  1
  Co  Co17  1  0.250000  0.050915  0.568153  1
  Co  Co18  1  0.750000  0.550228  0.432722  1
  Co  Co19  1  0.750000  0.949772  0.432722  1
  Co  Co20  1  0.250000  0.870387  0.289676  1
  Co  Co21  1  0.250000  0.629613  0.289676  1
  Co  Co22  1  0.750000  0.130157  0.709965  1
  Co  Co23  1  0.750000  0.369843  0.709965  1
  P  P24  1  0.250000  0.250000  0.121462  1
  P  P25  1  0.750000  0.750000  0.878633  1
  P  P26  1  0.250000  0.250000  0.657320  1
  P  P27  1  0.750000  0.750000  0.343497  1
  P  P28  1  0.250000  0.442604  0.381661  1
  P  P29  1  0.250000  0.057396  0.381661  1
  P  P30  1  0.750000  0.557552  0.618083  1
  P  P31  1  0.750000  0.942448  0.618083  1
  P  P32  1  0.250000  0.902141  0.106466  1
  P  P33  1  0.250000  0.597859  0.106466  1
  P  P34  1  0.750000  0.096955  0.893378  1
  P  P35  1  0.750000  0.403045  0.893378  1
