# generated using pymatgen
data_Rb10BaSr(TaAs4)2
_symmetry_space_group_name_H-M   'P 1'
_cell_length_a   10.87942898
_cell_length_b   10.81541087
_cell_length_c   8.27343335
_cell_angle_alpha   87.98172239
_cell_angle_beta   88.76753548
_cell_angle_gamma   120.74683275
_symmetry_Int_Tables_number   1
_chemical_formula_structural   Rb10BaSr(TaAs4)2
_chemical_formula_sum   'Rb10 Ba1 Sr1 Ta2 As8'
_cell_volume   835.25327728
_cell_formula_units_Z   1
loop_
 _symmetry_equiv_pos_site_id
 _symmetry_equiv_pos_as_xyz
  1  'x, y, z'
loop_
 _atom_site_type_symbol
 _atom_site_label
 _atom_site_symmetry_multiplicity
 _atom_site_fract_x
 _atom_site_fract_y
 _atom_site_fract_z
 _atom_site_occupancy
  Rb  Rb0  1  0.466128  0.527613  0.495843  1
  Rb  Rb1  1  0.061743  0.530213  0.497412  1
  Rb  Rb2  1  0.524974  0.465216  0.997334  1
  Rb  Rb3  1  0.526891  0.058402  0.002941  1
  Rb  Rb4  1  0.865641  0.142209  0.681699  1
  Rb  Rb5  1  0.292884  0.152797  0.716402  1
  Rb  Rb6  1  0.854883  0.716656  0.656394  1
  Rb  Rb7  1  0.143560  0.863381  0.179065  1
  Rb  Rb8  1  0.712763  0.854923  0.159725  1
  Rb  Rb9  1  0.152574  0.291735  0.219415  1
  Ba  Ba10  1  0.935130  0.463398  0.993175  1
  Sr  Sr11  1  0.466659  0.940465  0.498703  1
  Ta  Ta12  1  0.667999  0.327481  0.395896  1
  Ta  Ta13  1  0.332247  0.672530  0.889055  1
  As  As14  1  0.684100  0.336609  0.697978  1
  As  As15  1  0.339768  0.687895  0.192652  1
  As  As16  1  0.787747  0.195479  0.293670  1
  As  As17  1  0.408501  0.186953  0.325782  1
  As  As18  1  0.795877  0.579482  0.269954  1
  As  As19  1  0.203817  0.795237  0.780201  1
  As  As20  1  0.581446  0.800770  0.762835  1
  As  As21  1  0.194666  0.410551  0.822447  1
