# generated using pymatgen
data_Y4GeBi5Rh7
_symmetry_space_group_name_H-M   'P 1'
_cell_length_a   7.73945595
_cell_length_b   7.73945732
_cell_length_c   7.73945711
_cell_angle_alpha   106.91196594
_cell_angle_beta   110.76580084
_cell_angle_gamma   110.76581008
_symmetry_Int_Tables_number   1
_chemical_formula_structural   Y4GeBi5Rh7
_chemical_formula_sum   'Y4 Ge1 Bi5 Rh7'
_cell_volume   356.33858394
_cell_formula_units_Z   1
loop_
 _symmetry_equiv_pos_site_id
 _symmetry_equiv_pos_as_xyz
  1  'x, y, z'
loop_
 _atom_site_type_symbol
 _atom_site_label
 _atom_site_symmetry_multiplicity
 _atom_site_fract_x
 _atom_site_fract_y
 _atom_site_fract_z
 _atom_site_occupancy
  Y  Y0  1  0.000000  0.986160  0.531086  1
  Y  Y1  1  0.000000  0.531086  0.986160  1
  Y  Y2  1  0.455073  0.986160  0.986160  1
  Y  Y3  1  0.544927  0.531086  0.531086  1
  Ge  Ge4  1  0.000000  0.644800  0.644800  1
  Bi  Bi5  1  0.688342  0.704541  0.016199  1
  Bi  Bi6  1  0.311658  0.016199  0.327856  1
  Bi  Bi7  1  0.000000  0.303758  0.303758  1
  Bi  Bi8  1  0.311658  0.327856  0.016199  1
  Bi  Bi9  1  0.688342  0.016199  0.704541  1
  Rh  Rh10  1  0.754716  0.257446  0.502730  1
  Rh  Rh11  1  0.754716  0.502730  0.257446  1
  Rh  Rh12  1  0.500000  0.262120  0.762120  1
  Rh  Rh13  1  0.245284  0.502730  0.748014  1
  Rh  Rh14  1  0.245284  0.748014  0.502730  1
  Rh  Rh15  1  0.500000  0.762120  0.262120  1
  Rh  Rh16  1  0.000000  0.916993  0.916993  1
