# generated using pymatgen
data_Pr3Mg2Ag3Ru
_symmetry_space_group_name_H-M   'P 1'
_cell_length_a   7.88477503
_cell_length_b   7.77993851
_cell_length_c   4.07603600
_cell_angle_alpha   90.00000000
_cell_angle_beta   90.00000000
_cell_angle_gamma   119.41687163
_symmetry_Int_Tables_number   1
_chemical_formula_structural   Pr3Mg2Ag3Ru
_chemical_formula_sum   'Pr3 Mg2 Ag3 Ru1'
_cell_volume   217.79913437
_cell_formula_units_Z   1
loop_
 _symmetry_equiv_pos_site_id
 _symmetry_equiv_pos_as_xyz
  1  'x, y, z'
loop_
 _atom_site_type_symbol
 _atom_site_label
 _atom_site_symmetry_multiplicity
 _atom_site_fract_x
 _atom_site_fract_y
 _atom_site_fract_z
 _atom_site_occupancy
  Pr  Pr0  1  0.439901  0.413122  0.500000  1
  Pr  Pr1  1  0.602909  0.018073  0.500000  1
  Pr  Pr2  1  0.959140  0.572448  0.500000  1
  Mg  Mg3  1  0.253262  0.004584  0.000000  1
  Mg  Mg4  1  0.999438  0.250897  0.000000  1
  Ag  Ag5  1  0.747913  0.751382  0.000000  1
  Ag  Ag6  1  0.323454  0.663075  0.000000  1
  Ag  Ag7  1  0.012920  0.011603  0.500000  1
  Ru  Ru8  1  0.661061  0.314817  0.000000  1
