# generated using pymatgen
data_CeDy2Ir9
_symmetry_space_group_name_H-M   'P 1'
_cell_length_a   9.29365184
_cell_length_b   9.29365175
_cell_length_c   9.29365203
_cell_angle_alpha   33.30175096
_cell_angle_beta   33.30174979
_cell_angle_gamma   33.30174138
_symmetry_Int_Tables_number   1
_chemical_formula_structural   CeDy2Ir9
_chemical_formula_sum   'Ce1 Dy2 Ir9'
_cell_volume   215.44745179
_cell_formula_units_Z   1
loop_
 _symmetry_equiv_pos_site_id
 _symmetry_equiv_pos_as_xyz
  1  'x, y, z'
loop_
 _atom_site_type_symbol
 _atom_site_label
 _atom_site_symmetry_multiplicity
 _atom_site_fract_x
 _atom_site_fract_y
 _atom_site_fract_z
 _atom_site_occupancy
  Ce  Ce0  1  0.000000  0.000000  0.000000  1
  Dy  Dy1  1  0.860377  0.860377  0.860377  1
  Dy  Dy2  1  0.139623  0.139623  0.139623  1
  Ir  Ir3  1  0.417677  0.917331  0.417677  1
  Ir  Ir4  1  0.417677  0.417677  0.917331  1
  Ir  Ir5  1  0.917331  0.417677  0.417677  1
  Ir  Ir6  1  0.582323  0.082669  0.582323  1
  Ir  Ir7  1  0.582323  0.582323  0.082669  1
  Ir  Ir8  1  0.082669  0.582323  0.582323  1
  Ir  Ir9  1  0.667034  0.667034  0.667034  1
  Ir  Ir10  1  0.332966  0.332966  0.332966  1
  Ir  Ir11  1  0.500000  0.500000  0.500000  1
