# generated using pymatgen
data_Y12ZnCo4Sb
_symmetry_space_group_name_H-M   'P 1'
_cell_length_a   8.34875912
_cell_length_b   8.34875829
_cell_length_c   8.34875912
_cell_angle_alpha   111.83017694
_cell_angle_beta   108.94368972
_cell_angle_gamma   107.66821511
_symmetry_Int_Tables_number   1
_chemical_formula_structural   Y12ZnCo4Sb
_chemical_formula_sum   'Y12 Zn1 Co4 Sb1'
_cell_volume   447.33955178
_cell_formula_units_Z   1
loop_
 _symmetry_equiv_pos_site_id
 _symmetry_equiv_pos_as_xyz
  1  'x, y, z'
loop_
 _atom_site_type_symbol
 _atom_site_label
 _atom_site_symmetry_multiplicity
 _atom_site_fract_x
 _atom_site_fract_y
 _atom_site_fract_z
 _atom_site_occupancy
  Y  Y0  1  0.429098  0.228104  0.200993  1
  Y  Y1  1  0.570902  0.771896  0.799007  1
  Y  Y2  1  0.027113  0.228104  0.799007  1
  Y  Y3  1  0.972887  0.771896  0.200993  1
  Y  Y4  1  0.179597  0.281353  0.460950  1
  Y  Y5  1  0.820403  0.718647  0.539050  1
  Y  Y6  1  0.179597  0.718647  0.898244  1
  Y  Y7  1  0.820403  0.281353  0.101756  1
  Y  Y8  1  0.323600  0.635717  0.312117  1
  Y  Y9  1  0.676400  0.364283  0.687883  1
  Y  Y10  1  0.323600  0.011484  0.687883  1
  Y  Y11  1  0.676400  0.988516  0.312117  1
  Zn  Zn12  1  0.000000  0.000000  0.000000  1
  Co  Co13  1  0.347132  0.000000  0.347132  1
  Co  Co14  1  0.652868  0.000000  0.652868  1
  Co  Co15  1  0.113331  0.613331  0.500000  1
  Co  Co16  1  0.886669  0.386669  0.500000  1
  Sb  Sb17  1  0.500000  0.500000  0.000000  1
