# generated using pymatgen
data_TbPrP7Ru12
_symmetry_space_group_name_H-M   'P 1'
_cell_length_a   9.45566800
_cell_length_b   9.45566553
_cell_length_c   3.97025200
_cell_angle_alpha   90.00000000
_cell_angle_beta   90.00000000
_cell_angle_gamma   120.00000071
_symmetry_Int_Tables_number   1
_chemical_formula_structural   TbPrP7Ru12
_chemical_formula_sum   'Tb1 Pr1 P7 Ru12'
_cell_volume   307.42063743
_cell_formula_units_Z   1
loop_
 _symmetry_equiv_pos_site_id
 _symmetry_equiv_pos_as_xyz
  1  'x, y, z'
loop_
 _atom_site_type_symbol
 _atom_site_label
 _atom_site_symmetry_multiplicity
 _atom_site_fract_x
 _atom_site_fract_y
 _atom_site_fract_z
 _atom_site_occupancy
  Tb  Tb0  1  0.666667  0.333333  0.500000  1
  Pr  Pr1  1  0.333333  0.666667  0.000000  1
  P  P2  1  0.605146  0.718222  0.500000  1
  P  P3  1  0.000000  0.000000  0.000000  1
  P  P4  1  0.281778  0.886925  0.500000  1
  P  P5  1  0.113075  0.394854  0.500000  1
  P  P6  1  0.887270  0.572814  0.000000  1
  P  P7  1  0.427186  0.314457  0.000000  1
  P  P8  1  0.685543  0.112730  0.000000  1
  Ru  Ru9  1  0.559781  0.954545  0.500000  1
  Ru  Ru10  1  0.394766  0.440219  0.500000  1
  Ru  Ru11  1  0.914471  0.119667  0.500000  1
  Ru  Ru12  1  0.205196  0.085529  0.500000  1
  Ru  Ru13  1  0.880333  0.794804  0.500000  1
  Ru  Ru14  1  0.729101  0.892838  0.000000  1
  Ru  Ru15  1  0.107162  0.836262  0.000000  1
  Ru  Ru16  1  0.163738  0.270899  0.000000  1
  Ru  Ru17  1  0.421717  0.068139  0.000000  1
  Ru  Ru18  1  0.931861  0.353578  0.000000  1
  Ru  Ru19  1  0.646422  0.578283  0.000000  1
  Ru  Ru20  1  0.045455  0.605234  0.500000  1
