# generated using pymatgen
data_Er6Zn23As
_symmetry_space_group_name_H-M   'P 1'
_cell_length_a   9.04846340
_cell_length_b   9.04846390
_cell_length_c   9.04846400
_cell_angle_alpha   59.99999965
_cell_angle_beta   59.99999782
_cell_angle_gamma   60.00000249
_symmetry_Int_Tables_number   1
_chemical_formula_structural   Er6Zn23As
_chemical_formula_sum   'Er6 Zn23 As1'
_cell_volume   523.85314711
_cell_formula_units_Z   1
loop_
 _symmetry_equiv_pos_site_id
 _symmetry_equiv_pos_as_xyz
  1  'x, y, z'
loop_
 _atom_site_type_symbol
 _atom_site_label
 _atom_site_symmetry_multiplicity
 _atom_site_fract_x
 _atom_site_fract_y
 _atom_site_fract_z
 _atom_site_occupancy
  Er  Er0  1  0.715571  0.284429  0.284429  1
  Er  Er1  1  0.715571  0.284429  0.715571  1
  Er  Er2  1  0.715571  0.715571  0.284429  1
  Er  Er3  1  0.284429  0.715571  0.715571  1
  Er  Er4  1  0.284429  0.715571  0.284429  1
  Er  Er5  1  0.284429  0.284429  0.715571  1
  Zn  Zn6  1  0.623009  0.125664  0.125664  1
  Zn  Zn7  1  0.125664  0.623009  0.125664  1
  Zn  Zn8  1  0.125664  0.125664  0.623009  1
  Zn  Zn9  1  0.125664  0.125664  0.125664  1
  Zn  Zn10  1  0.376991  0.874336  0.874336  1
  Zn  Zn11  1  0.874336  0.376991  0.874336  1
  Zn  Zn12  1  0.874336  0.874336  0.376991  1
  Zn  Zn13  1  0.874336  0.874336  0.874336  1
  Zn  Zn14  1  0.500000  0.000000  0.000000  1
  Zn  Zn15  1  0.500000  0.000000  0.500000  1
  Zn  Zn16  1  0.500000  0.500000  0.000000  1
  Zn  Zn17  1  0.000000  0.500000  0.500000  1
  Zn  Zn18  1  0.000000  0.500000  0.000000  1
  Zn  Zn19  1  0.000000  0.000000  0.500000  1
  Zn  Zn20  1  0.000000  0.000000  0.000000  1
  Zn  Zn21  1  0.006821  0.331059  0.331059  1
  Zn  Zn22  1  0.331059  0.006821  0.331059  1
  Zn  Zn23  1  0.331059  0.331059  0.006821  1
  Zn  Zn24  1  0.331059  0.331059  0.331059  1
  Zn  Zn25  1  0.993179  0.668941  0.668941  1
  Zn  Zn26  1  0.668941  0.993179  0.668941  1
  Zn  Zn27  1  0.668941  0.668941  0.993179  1
  Zn  Zn28  1  0.668941  0.668941  0.668941  1
  As  As29  1  0.500000  0.500000  0.500000  1
