# generated using pymatgen
data_Cs2MgSn3S8
_symmetry_space_group_name_H-M   'P 1'
_cell_length_a   6.53052200
_cell_length_b   7.25054800
_cell_length_c   17.13735000
_cell_angle_alpha   90.00000000
_cell_angle_beta   90.00000000
_cell_angle_gamma   90.00000000
_symmetry_Int_Tables_number   1
_chemical_formula_structural   Cs2MgSn3S8
_chemical_formula_sum   'Cs4 Mg2 Sn6 S16'
_cell_volume   811.45117856
_cell_formula_units_Z   2
loop_
 _symmetry_equiv_pos_site_id
 _symmetry_equiv_pos_as_xyz
  1  'x, y, z'
loop_
 _atom_site_type_symbol
 _atom_site_label
 _atom_site_symmetry_multiplicity
 _atom_site_fract_x
 _atom_site_fract_y
 _atom_site_fract_z
 _atom_site_occupancy
  Cs  Cs0  1  0.361302  0.000000  0.000000  1
  Cs  Cs1  1  0.626854  0.500000  0.500000  1
  Cs  Cs2  1  0.021259  0.000000  0.500000  1
  Cs  Cs3  1  0.972756  0.500000  0.000000  1
  Mg  Mg4  1  0.002307  0.000000  0.248927  1
  Mg  Mg5  1  0.002307  0.000000  0.751073  1
  Sn  Sn6  1  0.999533  0.500000  0.250016  1
  Sn  Sn7  1  0.999533  0.500000  0.749984  1
  Sn  Sn8  1  0.500597  0.243743  0.249256  1
  Sn  Sn9  1  0.500597  0.756257  0.750744  1
  Sn  Sn10  1  0.500597  0.756257  0.249256  1
  Sn  Sn11  1  0.500597  0.243743  0.750744  1
  S  S12  1  0.829910  0.252192  0.334185  1
  S  S13  1  0.829910  0.747808  0.665815  1
  S  S14  1  0.170793  0.748148  0.164778  1
  S  S15  1  0.170793  0.251852  0.835222  1
  S  S16  1  0.170793  0.251852  0.164778  1
  S  S17  1  0.170793  0.748148  0.835222  1
  S  S18  1  0.829910  0.747808  0.334185  1
  S  S19  1  0.829910  0.252192  0.665815  1
  S  S20  1  0.667312  0.000000  0.162926  1
  S  S21  1  0.667312  0.000000  0.837074  1
  S  S22  1  0.330082  0.500000  0.334754  1
  S  S23  1  0.330082  0.500000  0.665246  1
  S  S24  1  0.341750  0.000000  0.336850  1
  S  S25  1  0.341750  0.000000  0.663150  1
  S  S26  1  0.665327  0.500000  0.163792  1
  S  S27  1  0.665327  0.500000  0.836208  1
