# generated using pymatgen
data_Nd3(ZnSb3)2
_symmetry_space_group_name_H-M   'P 1'
_cell_length_a   4.28598900
_cell_length_b   10.51713300
_cell_length_c   13.37046200
_cell_angle_alpha   90.00000000
_cell_angle_beta   90.00000000
_cell_angle_gamma   90.00000000
_symmetry_Int_Tables_number   1
_chemical_formula_structural   Nd3(ZnSb3)2
_chemical_formula_sum   'Nd6 Zn4 Sb12'
_cell_volume   602.69117485
_cell_formula_units_Z   2
loop_
 _symmetry_equiv_pos_site_id
 _symmetry_equiv_pos_as_xyz
  1  'x, y, z'
loop_
 _atom_site_type_symbol
 _atom_site_label
 _atom_site_symmetry_multiplicity
 _atom_site_fract_x
 _atom_site_fract_y
 _atom_site_fract_z
 _atom_site_occupancy
  Nd  Nd0  1  0.750000  0.253983  0.750000  1
  Nd  Nd1  1  0.750000  0.264123  0.411537  1
  Nd  Nd2  1  0.250000  0.735877  0.911537  1
  Nd  Nd3  1  0.250000  0.735877  0.588463  1
  Nd  Nd4  1  0.250000  0.746017  0.250000  1
  Nd  Nd5  1  0.750000  0.264123  0.088463  1
  Zn  Zn6  1  0.250000  0.002594  0.093239  1
  Zn  Zn7  1  0.250000  0.002594  0.406761  1
  Zn  Zn8  1  0.750000  0.997406  0.593239  1
  Zn  Zn9  1  0.750000  0.997406  0.906761  1
  Sb  Sb10  1  0.750000  0.502562  0.250000  1
  Sb  Sb11  1  0.750000  0.492395  0.916589  1
  Sb  Sb12  1  0.750000  0.836689  0.750000  1
  Sb  Sb13  1  0.750000  0.840960  0.419202  1
  Sb  Sb14  1  0.250000  0.159040  0.919202  1
  Sb  Sb15  1  0.250000  0.159040  0.580798  1
  Sb  Sb16  1  0.250000  0.163311  0.250000  1
  Sb  Sb17  1  0.250000  0.507605  0.083411  1
  Sb  Sb18  1  0.250000  0.497438  0.750000  1
  Sb  Sb19  1  0.250000  0.507605  0.416589  1
  Sb  Sb20  1  0.750000  0.492395  0.583411  1
  Sb  Sb21  1  0.750000  0.840960  0.080798  1
