# generated using pymatgen
data_ZrNb2Cd4Fe5O16
_symmetry_space_group_name_H-M   'P 1'
_cell_length_a   6.39289519
_cell_length_b   6.42834656
_cell_length_c   11.25676964
_cell_angle_alpha   72.80115255
_cell_angle_beta   89.83349859
_cell_angle_gamma   119.82997112
_symmetry_Int_Tables_number   1
_chemical_formula_structural   ZrNb2Cd4Fe5O16
_chemical_formula_sum   'Zr1 Nb2 Cd4 Fe5 O16'
_cell_volume   377.03623637
_cell_formula_units_Z   1
loop_
 _symmetry_equiv_pos_site_id
 _symmetry_equiv_pos_as_xyz
  1  'x, y, z'
loop_
 _atom_site_type_symbol
 _atom_site_label
 _atom_site_symmetry_multiplicity
 _atom_site_fract_x
 _atom_site_fract_y
 _atom_site_fract_z
 _atom_site_occupancy
  Zr  Zr0  1  0.000021  0.999990  0.499998  1
  Nb  Nb1  1  0.744460  0.484181  0.759148  1
  Nb  Nb2  1  0.255590  0.515847  0.240874  1
  Cd  Cd3  1  0.937011  0.875096  0.198517  1
  Cd  Cd4  1  0.435405  0.869198  0.705374  1
  Cd  Cd5  1  0.564655  0.130850  0.294568  1
  Cd  Cd6  1  0.063007  0.124915  0.801482  1
  Fe  Fe7  1  0.499976  0.499983  0.999966  1
  Fe  Fe8  1  0.499968  0.000040  0.999994  1
  Fe  Fe9  1  0.500150  0.500044  0.499998  1
  Fe  Fe10  1  0.999978  0.500022  0.500027  1
  Fe  Fe11  1  0.999683  0.499809  0.000078  1
  O  O12  1  0.858302  0.727940  0.406452  1
  O  O13  1  0.366965  0.731512  0.912348  1
  O  O14  1  0.632960  0.268553  0.087608  1
  O  O15  1  0.141762  0.272002  0.593552  1
  O  O16  1  0.087723  0.743974  0.626290  1
  O  O17  1  0.581565  0.718109  0.136817  1
  O  O18  1  0.656172  0.300981  0.632012  1
  O  O19  1  0.141531  0.287652  0.136791  1
  O  O20  1  0.659512  0.744160  0.627960  1
  O  O21  1  0.134379  0.718942  0.135011  1
  O  O22  1  0.865605  0.281032  0.865006  1
  O  O23  1  0.340525  0.255837  0.372035  1
  O  O24  1  0.858444  0.712356  0.863194  1
  O  O25  1  0.343905  0.699039  0.367997  1
  O  O26  1  0.418445  0.281942  0.863174  1
  O  O27  1  0.912299  0.255993  0.373729  1
