# generated using pymatgen
data_Ta3Ti7(ZnGa3)2
_symmetry_space_group_name_H-M   'P 1'
_cell_length_a   7.88325200
_cell_length_b   7.88325244
_cell_length_c   5.40247600
_cell_angle_alpha   90.00000000
_cell_angle_beta   90.00000000
_cell_angle_gamma   119.99999817
_symmetry_Int_Tables_number   1
_chemical_formula_structural   Ta3Ti7(ZnGa3)2
_chemical_formula_sum   'Ta3 Ti7 Zn2 Ga6'
_cell_volume   290.75977847
_cell_formula_units_Z   1
loop_
 _symmetry_equiv_pos_site_id
 _symmetry_equiv_pos_as_xyz
  1  'x, y, z'
loop_
 _atom_site_type_symbol
 _atom_site_label
 _atom_site_symmetry_multiplicity
 _atom_site_fract_x
 _atom_site_fract_y
 _atom_site_fract_z
 _atom_site_occupancy
  Ta  Ta0  1  0.333333  0.666667  0.000000  1
  Ta  Ta1  1  0.666667  0.333333  0.500000  1
  Ta  Ta2  1  0.666667  0.333333  0.000000  1
  Ti  Ti3  1  0.333333  0.666667  0.500000  1
  Ti  Ti4  1  0.302644  0.001098  0.245347  1
  Ti  Ti5  1  0.302644  0.301545  0.754653  1
  Ti  Ti6  1  0.998902  0.697356  0.754653  1
  Ti  Ti7  1  0.998902  0.301545  0.245347  1
  Ti  Ti8  1  0.698455  0.697356  0.245347  1
  Ti  Ti9  1  0.698455  0.001098  0.754653  1
  Zn  Zn10  1  0.000000  0.000000  0.000000  1
  Zn  Zn11  1  0.000000  0.000000  0.500000  1
  Ga  Ga12  1  0.635982  0.997946  0.252756  1
  Ga  Ga13  1  0.635982  0.638036  0.747244  1
  Ga  Ga14  1  0.002054  0.364018  0.747244  1
  Ga  Ga15  1  0.002054  0.638036  0.252756  1
  Ga  Ga16  1  0.361964  0.364018  0.252756  1
  Ga  Ga17  1  0.361964  0.997946  0.747244  1
