# generated using pymatgen
data_Tb4Pd3PtPb2
_symmetry_space_group_name_H-M   'P 1'
_cell_length_a   7.98809900
_cell_length_b   7.98809900
_cell_length_c   3.62059900
_cell_angle_alpha   90.00000000
_cell_angle_beta   90.00000000
_cell_angle_gamma   89.99885238
_symmetry_Int_Tables_number   1
_chemical_formula_structural   Tb4Pd3PtPb2
_chemical_formula_sum   'Tb4 Pd3 Pt1 Pb2'
_cell_volume   231.02942880
_cell_formula_units_Z   1
loop_
 _symmetry_equiv_pos_site_id
 _symmetry_equiv_pos_as_xyz
  1  'x, y, z'
loop_
 _atom_site_type_symbol
 _atom_site_label
 _atom_site_symmetry_multiplicity
 _atom_site_fract_x
 _atom_site_fract_y
 _atom_site_fract_z
 _atom_site_occupancy
  Tb  Tb0  1  0.664698  0.172187  0.500000  1
  Tb  Tb1  1  0.174911  0.325089  0.500000  1
  Tb  Tb2  1  0.829966  0.670034  0.500000  1
  Tb  Tb3  1  0.327813  0.835302  0.500000  1
  Pd  Pd4  1  0.125798  0.625097  0.000000  1
  Pd  Pd5  1  0.629317  0.870683  0.000000  1
  Pd  Pd6  1  0.874903  0.374202  0.000000  1
  Pt  Pt7  1  0.377059  0.122941  0.000000  1
  Pb  Pb8  1  0.995712  0.000177  0.000000  1
  Pb  Pb9  1  0.499823  0.504288  0.000000  1
