# generated using pymatgen
data_Ac2ThCo2Sn7
_symmetry_space_group_name_H-M   'P 1'
_cell_length_a   13.94902065
_cell_length_b   13.94902198
_cell_length_c   4.66226800
_cell_angle_alpha   90.00000000
_cell_angle_beta   90.00000000
_cell_angle_gamma   160.24005653
_symmetry_Int_Tables_number   1
_chemical_formula_structural   Ac2ThCo2Sn7
_chemical_formula_sum   'Ac2 Th1 Co2 Sn7'
_cell_volume   306.69327605
_cell_formula_units_Z   1
loop_
 _symmetry_equiv_pos_site_id
 _symmetry_equiv_pos_as_xyz
  1  'x, y, z'
loop_
 _atom_site_type_symbol
 _atom_site_label
 _atom_site_symmetry_multiplicity
 _atom_site_fract_x
 _atom_site_fract_y
 _atom_site_fract_z
 _atom_site_occupancy
  Ac  Ac0  1  0.183694  0.816306  0.000000  1
  Ac  Ac1  1  0.816306  0.183694  0.000000  1
  Th  Th2  1  0.500000  0.500000  0.500000  1
  Co  Co3  1  0.624224  0.375776  0.500000  1
  Co  Co4  1  0.375776  0.624224  0.500000  1
  Sn  Sn5  1  0.717779  0.282221  0.500000  1
  Sn  Sn6  1  0.282221  0.717779  0.500000  1
  Sn  Sn7  1  0.586606  0.413394  0.000000  1
  Sn  Sn8  1  0.000000  0.000000  0.000000  1
  Sn  Sn9  1  0.413394  0.586606  0.000000  1
  Sn  Sn10  1  0.912693  0.087307  0.500000  1
  Sn  Sn11  1  0.087307  0.912693  0.500000  1
