# generated using pymatgen
data_Ce2Er3Co2
_symmetry_space_group_name_H-M   'P 1'
_cell_length_a   6.24923347
_cell_length_b   6.73942770
_cell_length_c   8.68449235
_cell_angle_alpha   94.39290496
_cell_angle_beta   111.08745787
_cell_angle_gamma   90.00000156
_symmetry_Int_Tables_number   1
_chemical_formula_structural   Ce2Er3Co2
_chemical_formula_sum   'Ce4 Er6 Co4'
_cell_volume   340.11244343
_cell_formula_units_Z   2
loop_
 _symmetry_equiv_pos_site_id
 _symmetry_equiv_pos_as_xyz
  1  'x, y, z'
loop_
 _atom_site_type_symbol
 _atom_site_label
 _atom_site_symmetry_multiplicity
 _atom_site_fract_x
 _atom_site_fract_y
 _atom_site_fract_z
 _atom_site_occupancy
  Ce  Ce0  1  0.796660  0.599795  0.810981  1
  Ce  Ce1  1  0.985681  0.900205  0.189019  1
  Ce  Ce2  1  0.203340  0.400205  0.189019  1
  Ce  Ce3  1  0.014319  0.099795  0.810981  1
  Er  Er4  1  0.212443  0.679219  0.571715  1
  Er  Er5  1  0.640729  0.820781  0.428285  1
  Er  Er6  1  0.787557  0.320781  0.428285  1
  Er  Er7  1  0.359271  0.179219  0.571715  1
  Er  Er8  1  0.419418  0.750000  0.000000  1
  Er  Er9  1  0.580582  0.250000  0.000000  1
  Co  Co10  1  0.625572  0.904765  0.777907  1
  Co  Co11  1  0.847664  0.595235  0.222093  1
  Co  Co12  1  0.374428  0.095235  0.222093  1
  Co  Co13  1  0.152336  0.404765  0.777907  1
