# generated using pymatgen
data_SmErNi6(BPt)2
_symmetry_space_group_name_H-M   'P 1'
_cell_length_a   5.11054100
_cell_length_b   5.11121251
_cell_length_c   7.15061000
_cell_angle_alpha   90.00000000
_cell_angle_beta   90.00000000
_cell_angle_gamma   119.99564760
_symmetry_Int_Tables_number   1
_chemical_formula_structural   SmErNi6(BPt)2
_chemical_formula_sum   'Sm1 Er1 Ni6 B2 Pt2'
_cell_volume   161.76463575
_cell_formula_units_Z   1
loop_
 _symmetry_equiv_pos_site_id
 _symmetry_equiv_pos_as_xyz
  1  'x, y, z'
loop_
 _atom_site_type_symbol
 _atom_site_label
 _atom_site_symmetry_multiplicity
 _atom_site_fract_x
 _atom_site_fract_y
 _atom_site_fract_z
 _atom_site_occupancy
  Sm  Sm0  1  0.000177  0.000000  0.000000  1
  Er  Er1  1  0.000278  0.000000  0.500000  1
  Ni  Ni2  1  0.500037  0.000000  0.306339  1
  Ni  Ni3  1  0.500233  0.500577  0.306216  1
  Ni  Ni4  1  0.999656  0.499423  0.306216  1
  Ni  Ni5  1  0.500037  0.000000  0.693661  1
  Ni  Ni6  1  0.500233  0.500577  0.693784  1
  Ni  Ni7  1  0.999656  0.499423  0.693784  1
  B  B8  1  0.332931  0.666586  0.500000  1
  B  B9  1  0.666344  0.333414  0.500000  1
  Pt  Pt10  1  0.333470  0.666726  0.000000  1
  Pt  Pt11  1  0.666745  0.333274  0.000000  1
