# generated using pymatgen
data_Dy2Y17SnIr12
_symmetry_space_group_name_H-M   'P 1'
_cell_length_a   10.91279000
_cell_length_b   10.91279000
_cell_length_c   6.34728200
_cell_angle_alpha   90.00000000
_cell_angle_beta   90.00000000
_cell_angle_gamma   90.00000000
_symmetry_Int_Tables_number   1
_chemical_formula_structural   Dy2Y17SnIr12
_chemical_formula_sum   'Dy2 Y17 Sn1 Ir12'
_cell_volume   755.89137460
_cell_formula_units_Z   1
loop_
 _symmetry_equiv_pos_site_id
 _symmetry_equiv_pos_as_xyz
  1  'x, y, z'
loop_
 _atom_site_type_symbol
 _atom_site_label
 _atom_site_symmetry_multiplicity
 _atom_site_fract_x
 _atom_site_fract_y
 _atom_site_fract_z
 _atom_site_occupancy
  Dy  Dy0  1  0.500000  0.500000  0.000000  1
  Dy  Dy1  1  0.500000  0.500000  0.500000  1
  Y  Y2  1  0.284274  0.084809  0.380199  1
  Y  Y3  1  0.291846  0.910815  0.882804  1
  Y  Y4  1  0.708154  0.089185  0.882804  1
  Y  Y5  1  0.715726  0.915191  0.380199  1
  Y  Y6  1  0.589134  0.791275  0.882180  1
  Y  Y7  1  0.588155  0.208218  0.378711  1
  Y  Y8  1  0.411845  0.791782  0.378711  1
  Y  Y9  1  0.410866  0.208725  0.882180  1
  Y  Y10  1  0.208218  0.411845  0.621289  1
  Y  Y11  1  0.208725  0.589134  0.117820  1
  Y  Y12  1  0.791275  0.410866  0.117820  1
  Y  Y13  1  0.791782  0.588155  0.621289  1
  Y  Y14  1  0.910815  0.708154  0.117196  1
  Y  Y15  1  0.915191  0.284274  0.619801  1
  Y  Y16  1  0.084809  0.715726  0.619801  1
  Y  Y17  1  0.089185  0.291846  0.117196  1
  Y  Y18  1  0.000000  0.000000  0.000000  1
  Sn  Sn19  1  0.000000  0.000000  0.500000  1
  Ir  Ir20  1  0.848173  0.155093  0.248525  1
  Ir  Ir21  1  0.844907  0.848173  0.751475  1
  Ir  Ir22  1  0.155093  0.151827  0.751475  1
  Ir  Ir23  1  0.151827  0.844907  0.248525  1
  Ir  Ir24  1  0.654295  0.347533  0.746068  1
  Ir  Ir25  1  0.652467  0.654295  0.253932  1
  Ir  Ir26  1  0.347533  0.345705  0.253932  1
  Ir  Ir27  1  0.345705  0.652467  0.746068  1
  Ir  Ir28  1  0.500000  0.000000  0.126948  1
  Ir  Ir29  1  0.500000  0.000000  0.621413  1
  Ir  Ir30  1  0.000000  0.500000  0.873052  1
  Ir  Ir31  1  0.000000  0.500000  0.378587  1
