# generated using pymatgen
data_TbTm11InCo5
_symmetry_space_group_name_H-M   'P 1'
_cell_length_a   8.16449586
_cell_length_b   8.16449695
_cell_length_c   8.16005171
_cell_angle_alpha   111.03550870
_cell_angle_beta   110.79443171
_cell_angle_gamma   106.64411242
_symmetry_Int_Tables_number   1
_chemical_formula_structural   TbTm11InCo5
_chemical_formula_sum   'Tb1 Tm11 In1 Co5'
_cell_volume   417.83779399
_cell_formula_units_Z   1
loop_
 _symmetry_equiv_pos_site_id
 _symmetry_equiv_pos_as_xyz
  1  'x, y, z'
loop_
 _atom_site_type_symbol
 _atom_site_label
 _atom_site_symmetry_multiplicity
 _atom_site_fract_x
 _atom_site_fract_y
 _atom_site_fract_z
 _atom_site_occupancy
  Tb  Tb0  1  0.288434  0.185902  0.474335  1
  Tm  Tm1  1  0.711693  0.814825  0.526519  1
  Tm  Tm2  1  0.288249  0.813703  0.101952  1
  Tm  Tm3  1  0.712271  0.185325  0.897597  1
  Tm  Tm4  1  0.619994  0.314472  0.304813  1
  Tm  Tm5  1  0.380483  0.686467  0.695078  1
  Tm  Tm6  1  0.008610  0.314595  0.695078  1
  Tm  Tm7  1  0.990342  0.684819  0.304813  1
  Tm  Tm8  1  0.212586  0.405650  0.191601  1
  Tm  Tm9  1  0.788122  0.595666  0.808463  1
  Tm  Tm10  1  0.212798  0.020342  0.808463  1
  Tm  Tm11  1  0.785950  0.979013  0.191601  1
  In  In12  1  0.500166  0.500226  0.000393  1
  Co  Co13  1  0.999369  0.377022  0.376391  1
  Co  Co14  1  0.000081  0.623289  0.623370  1
  Co  Co15  1  0.387716  0.886390  0.500204  1
  Co  Co16  1  0.613813  0.112488  0.500204  1
  Co  Co17  1  0.999320  0.999806  0.999126  1
