# generated using pymatgen
data_Ho5Re2BC6
_symmetry_space_group_name_H-M   'P 1'
_cell_length_a   8.29993129
_cell_length_b   8.29993067
_cell_length_c   3.40538300
_cell_angle_alpha   90.00000000
_cell_angle_beta   90.00000000
_cell_angle_gamma   122.34435270
_symmetry_Int_Tables_number   1
_chemical_formula_structural   Ho5Re2BC6
_chemical_formula_sum   'Ho5 Re2 B1 C6'
_cell_volume   198.19535573
_cell_formula_units_Z   1
loop_
 _symmetry_equiv_pos_site_id
 _symmetry_equiv_pos_as_xyz
  1  'x, y, z'
loop_
 _atom_site_type_symbol
 _atom_site_label
 _atom_site_symmetry_multiplicity
 _atom_site_fract_x
 _atom_site_fract_y
 _atom_site_fract_z
 _atom_site_occupancy
  Ho  Ho0  1  0.500000  0.500000  0.000000  1
  Ho  Ho1  1  0.077792  0.329822  0.500000  1
  Ho  Ho2  1  0.922208  0.670178  0.500000  1
  Ho  Ho3  1  0.670178  0.922208  0.500000  1
  Ho  Ho4  1  0.329822  0.077792  0.500000  1
  Re  Re5  1  0.714583  0.285417  0.000000  1
  Re  Re6  1  0.285417  0.714583  0.000000  1
  B  B7  1  0.000000  0.000000  0.000000  1
  C  C8  1  0.627458  0.372542  0.500000  1
  C  C9  1  0.372542  0.627458  0.500000  1
  C  C10  1  0.183140  0.183140  0.000000  1
  C  C11  1  0.816860  0.816860  0.000000  1
  C  C12  1  0.000000  0.500000  0.000000  1
  C  C13  1  0.500000  0.000000  0.000000  1
