# generated using pymatgen
data_La3Eu2HoIn6O18
_symmetry_space_group_name_H-M   'P 1'
_cell_length_a   6.53743300
_cell_length_b   6.53743372
_cell_length_c   12.42940100
_cell_angle_alpha   90.00000000
_cell_angle_beta   90.00000000
_cell_angle_gamma   119.99999434
_symmetry_Int_Tables_number   1
_chemical_formula_structural   La3Eu2HoIn6O18
_chemical_formula_sum   'La3 Eu2 Ho1 In6 O18'
_cell_volume   460.03979980
_cell_formula_units_Z   1
loop_
 _symmetry_equiv_pos_site_id
 _symmetry_equiv_pos_as_xyz
  1  'x, y, z'
loop_
 _atom_site_type_symbol
 _atom_site_label
 _atom_site_symmetry_multiplicity
 _atom_site_fract_x
 _atom_site_fract_y
 _atom_site_fract_z
 _atom_site_occupancy
  La  La0  1  0.333333  0.666667  0.466258  1
  La  La1  1  0.666667  0.333333  0.464092  1
  La  La2  1  0.333333  0.666667  0.970723  1
  Eu  Eu3  1  0.000000  0.000000  0.991570  1
  Eu  Eu4  1  0.000000  0.000000  0.494026  1
  Ho  Ho5  1  0.666667  0.333333  0.960840  1
  In  In6  1  0.668818  0.667971  0.729476  1
  In  In7  1  0.999153  0.331182  0.729476  1
  In  In8  1  0.333387  0.329953  0.224659  1
  In  In9  1  0.996566  0.666613  0.224659  1
  In  In10  1  0.332029  0.000847  0.729476  1
  In  In11  1  0.670047  0.003434  0.224659  1
  O  O12  1  0.689288  0.679084  0.899348  1
  O  O13  1  0.989796  0.310712  0.899348  1
  O  O14  1  0.304338  0.309008  0.394694  1
  O  O15  1  0.004670  0.695662  0.394694  1
  O  O16  1  0.320916  0.010204  0.899348  1
  O  O17  1  0.690992  0.995330  0.394694  1
  O  O18  1  0.654414  0.652114  0.560573  1
  O  O19  1  0.997700  0.345586  0.560573  1
  O  O20  1  0.365170  0.344310  0.055994  1
  O  O21  1  0.979140  0.634830  0.055994  1
  O  O22  1  0.347886  0.002300  0.560573  1
  O  O23  1  0.655690  0.020860  0.055994  1
  O  O24  1  0.000000  0.000000  0.706341  1
  O  O25  1  0.000000  0.000000  0.197591  1
  O  O26  1  0.666667  0.333333  0.752165  1
  O  O27  1  0.333333  0.666667  0.235264  1
  O  O28  1  0.666667  0.333333  0.251214  1
  O  O29  1  0.333333  0.666667  0.747454  1
