# generated using pymatgen
data_Y3Ho(MnOs)4
_symmetry_space_group_name_H-M   'P 1'
_cell_length_a   5.33738300
_cell_length_b   5.31224617
_cell_length_c   9.19929608
_cell_angle_alpha   72.33617105
_cell_angle_beta   90.00000000
_cell_angle_gamma   120.15665887
_symmetry_Int_Tables_number   1
_chemical_formula_structural   Y3Ho(MnOs)4
_chemical_formula_sum   'Y3 Ho1 Mn4 Os4'
_cell_volume   211.18671888
_cell_formula_units_Z   1
loop_
 _symmetry_equiv_pos_site_id
 _symmetry_equiv_pos_as_xyz
  1  'x, y, z'
loop_
 _atom_site_type_symbol
 _atom_site_label
 _atom_site_symmetry_multiplicity
 _atom_site_fract_x
 _atom_site_fract_y
 _atom_site_fract_z
 _atom_site_occupancy
  Y  Y0  1  0.811480  0.122960  0.561209  1
  Y  Y1  1  0.188858  0.877714  0.438371  1
  Y  Y2  1  0.688409  0.876819  0.938821  1
  Ho  Ho3  1  0.310983  0.121967  0.061252  1
  Mn  Mn4  1  0.750201  0.500406  0.249353  1
  Mn  Mn5  1  0.250184  0.499704  0.750732  1
  Mn  Mn6  1  0.250205  0.500406  0.249353  1
  Mn  Mn7  1  0.749520  0.499704  0.750732  1
  Os  Os8  1  0.999856  0.499711  0.000328  1
  Os  Os9  1  0.500016  0.500033  0.499970  1
  Os  Os10  1  0.749978  0.999957  0.249439  1
  Os  Os11  1  0.250309  0.000620  0.750442  1
