# generated using pymatgen
data_La8Pr8Cd4IrRu3
_symmetry_space_group_name_H-M   'P 1'
_cell_length_a   10.03510858
_cell_length_b   10.03566141
_cell_length_c   10.10808800
_cell_angle_alpha   59.76097758
_cell_angle_beta   59.75913762
_cell_angle_gamma   60.20424016
_symmetry_Int_Tables_number   1
_chemical_formula_structural   La8Pr8Cd4IrRu3
_chemical_formula_sum   'La8 Pr8 Cd4 Ir1 Ru3'
_cell_volume   718.28766494
_cell_formula_units_Z   1
loop_
 _symmetry_equiv_pos_site_id
 _symmetry_equiv_pos_as_xyz
  1  'x, y, z'
loop_
 _atom_site_type_symbol
 _atom_site_label
 _atom_site_symmetry_multiplicity
 _atom_site_fract_x
 _atom_site_fract_y
 _atom_site_fract_z
 _atom_site_occupancy
  La  La0  1  0.343436  0.345555  0.347942  1
  La  La1  1  0.343436  0.345555  0.963065  1
  La  La2  1  0.344657  0.961355  0.346993  1
  La  La3  1  0.963162  0.345713  0.345562  1
  La  La4  1  0.814752  0.189929  0.187952  1
  La  La5  1  0.189399  0.811485  0.811853  1
  La  La6  1  0.189399  0.811485  0.187263  1
  La  La7  1  0.814752  0.189929  0.807367  1
  Pr  Pr8  1  0.193476  0.193142  0.806691  1
  Pr  Pr9  1  0.808553  0.806774  0.192337  1
  Pr  Pr10  1  0.936173  0.564422  0.562704  1
  Pr  Pr11  1  0.563362  0.936703  0.936602  1
  Pr  Pr12  1  0.563362  0.936703  0.563332  1
  Pr  Pr13  1  0.936173  0.564422  0.936703  1
  Pr  Pr14  1  0.562570  0.563788  0.936821  1
  Pr  Pr15  1  0.939328  0.939620  0.560527  1
  Cd  Cd16  1  0.580435  0.580269  0.578442  1
  Cd  Cd17  1  0.580435  0.580269  0.260852  1
  Cd  Cd18  1  0.578306  0.260174  0.580759  1
  Cd  Cd19  1  0.260303  0.578112  0.580792  1
  Ir  Ir20  1  0.580110  0.145654  0.137119  1
  Ru  Ru21  1  0.133404  0.131205  0.147959  1
  Ru  Ru22  1  0.133404  0.131205  0.587432  1
  Ru  Ru23  1  0.147611  0.586529  0.132930  1
