# generated using pymatgen
data_LaHg3Pt2(RhO7)2
_symmetry_space_group_name_H-M   'P 1'
_cell_length_a   7.31854758
_cell_length_b   7.39469934
_cell_length_c   7.29620534
_cell_angle_alpha   60.31885471
_cell_angle_beta   59.89865375
_cell_angle_gamma   60.34007540
_symmetry_Int_Tables_number   1
_chemical_formula_structural   LaHg3Pt2(RhO7)2
_chemical_formula_sum   'La1 Hg3 Pt2 Rh2 O14'
_cell_volume   280.37243213
_cell_formula_units_Z   1
loop_
 _symmetry_equiv_pos_site_id
 _symmetry_equiv_pos_as_xyz
  1  'x, y, z'
loop_
 _atom_site_type_symbol
 _atom_site_label
 _atom_site_symmetry_multiplicity
 _atom_site_fract_x
 _atom_site_fract_y
 _atom_site_fract_z
 _atom_site_occupancy
  La  La0  1  0.125000  0.625000  0.125000  1
  Hg  Hg1  1  0.125000  0.125000  0.125000  1
  Hg  Hg2  1  0.625000  0.125000  0.125000  1
  Hg  Hg3  1  0.125000  0.125000  0.625000  1
  Pt  Pt4  1  0.625000  0.625000  0.125000  1
  Pt  Pt5  1  0.625000  0.125000  0.625000  1
  Rh  Rh6  1  0.625000  0.625000  0.625000  1
  Rh  Rh7  1  0.125000  0.625000  0.625000  1
  O  O8  1  0.703463  0.297933  0.295143  1
  O  O9  1  0.700569  0.301992  0.698893  1
  O  O10  1  0.992269  0.025745  0.989715  1
  O  O11  1  0.296743  0.697339  0.297942  1
  O  O12  1  0.707976  0.697339  0.297942  1
  O  O13  1  0.949106  0.555077  0.546711  1
  O  O14  1  0.300894  0.694923  0.703289  1
  O  O15  1  0.257731  0.224255  0.260285  1
  O  O16  1  0.953257  0.552661  0.952058  1
  O  O17  1  0.549431  0.948008  0.551107  1
  O  O18  1  0.542024  0.552661  0.952058  1
  O  O19  1  0.951452  0.948008  0.551107  1
  O  O20  1  0.546537  0.952067  0.954857  1
  O  O21  1  0.298548  0.301992  0.698893  1
