# generated using pymatgen
data_Ti3BeAsPRu3
_symmetry_space_group_name_H-M   'P 1'
_cell_length_a   6.45853400
_cell_length_b   6.45853492
_cell_length_c   3.42815000
_cell_angle_alpha   90.00000000
_cell_angle_beta   90.00000000
_cell_angle_gamma   120.00000553
_symmetry_Int_Tables_number   1
_chemical_formula_structural   Ti3BeAsPRu3
_chemical_formula_sum   'Ti3 Be1 As1 P1 Ru3'
_cell_volume   123.83927081
_cell_formula_units_Z   1
loop_
 _symmetry_equiv_pos_site_id
 _symmetry_equiv_pos_as_xyz
  1  'x, y, z'
loop_
 _atom_site_type_symbol
 _atom_site_label
 _atom_site_symmetry_multiplicity
 _atom_site_fract_x
 _atom_site_fract_y
 _atom_site_fract_z
 _atom_site_occupancy
  Ti  Ti0  1  0.394371  0.409922  0.500000  1
  Ti  Ti1  1  0.590078  0.984449  0.500000  1
  Ti  Ti2  1  0.015551  0.605629  0.500000  1
  Be  Be3  1  0.000000  0.000000  0.500000  1
  As  As4  1  0.666667  0.333333  0.000000  1
  P  P5  1  0.333333  0.666667  0.000000  1
  Ru  Ru6  1  0.009071  0.249497  0.000000  1
  Ru  Ru7  1  0.240426  0.990929  0.000000  1
  Ru  Ru8  1  0.750503  0.759574  0.000000  1
