# generated using pymatgen
data_KBaNdTeO6
_symmetry_space_group_name_H-M   'P 1'
_cell_length_a   6.04757400
_cell_length_b   6.07679308
_cell_length_c   8.58621200
_cell_angle_alpha   89.99058081
_cell_angle_beta   90.00000000
_cell_angle_gamma   90.00000000
_symmetry_Int_Tables_number   1
_chemical_formula_structural   KBaNdTeO6
_chemical_formula_sum   'K2 Ba2 Nd2 Te2 O12'
_cell_volume   315.54204901
_cell_formula_units_Z   2
loop_
 _symmetry_equiv_pos_site_id
 _symmetry_equiv_pos_as_xyz
  1  'x, y, z'
loop_
 _atom_site_type_symbol
 _atom_site_label
 _atom_site_symmetry_multiplicity
 _atom_site_fract_x
 _atom_site_fract_y
 _atom_site_fract_z
 _atom_site_occupancy
  K  K0  1  0.250000  0.751070  0.000719  1
  K  K1  1  0.750000  0.248930  0.999281  1
  Ba  Ba2  1  0.250000  0.752010  0.499835  1
  Ba  Ba3  1  0.750000  0.247990  0.500165  1
  Nd  Nd4  1  0.750000  0.748598  0.763737  1
  Nd  Nd5  1  0.250000  0.251402  0.236263  1
  Te  Te6  1  0.250000  0.249579  0.744906  1
  Te  Te7  1  0.750000  0.750421  0.255094  1
  O  O8  1  0.250000  0.264239  0.970191  1
  O  O9  1  0.250000  0.234616  0.514419  1
  O  O10  1  0.750000  0.765384  0.485581  1
  O  O11  1  0.750000  0.735761  0.029809  1
  O  O12  1  0.478732  0.477312  0.730055  1
  O  O13  1  0.020989  0.021470  0.744342  1
  O  O14  1  0.479011  0.021470  0.744342  1
  O  O15  1  0.021268  0.477312  0.730055  1
  O  O16  1  0.979011  0.978530  0.255658  1
  O  O17  1  0.521268  0.522688  0.269945  1
  O  O18  1  0.978732  0.522688  0.269945  1
  O  O19  1  0.520989  0.978530  0.255658  1
