# generated using pymatgen
data_Ho16Cd2Hg2Ir3Pd
_symmetry_space_group_name_H-M   'P 1'
_cell_length_a   9.57164518
_cell_length_b   9.57164573
_cell_length_c   9.57014462
_cell_angle_alpha   60.30923791
_cell_angle_beta   60.30924358
_cell_angle_gamma   60.33263144
_symmetry_Int_Tables_number   1
_chemical_formula_structural   Ho16Cd2Hg2Ir3Pd
_chemical_formula_sum   'Ho16 Cd2 Hg2 Ir3 Pd1'
_cell_volume   624.42598012
_cell_formula_units_Z   1
loop_
 _symmetry_equiv_pos_site_id
 _symmetry_equiv_pos_as_xyz
  1  'x, y, z'
loop_
 _atom_site_type_symbol
 _atom_site_label
 _atom_site_symmetry_multiplicity
 _atom_site_fract_x
 _atom_site_fract_y
 _atom_site_fract_z
 _atom_site_occupancy
  Ho  Ho0  1  0.597750  0.597750  0.597518  1
  Ho  Ho1  1  0.604841  0.604841  0.195275  1
  Ho  Ho2  1  0.605835  0.193040  0.605075  1
  Ho  Ho3  1  0.193040  0.605835  0.605075  1
  Ho  Ho4  1  0.054207  0.440626  0.441155  1
  Ho  Ho5  1  0.438242  0.060140  0.060098  1
  Ho  Ho6  1  0.440626  0.054207  0.441155  1
  Ho  Ho7  1  0.060140  0.438242  0.060098  1
  Ho  Ho8  1  0.440305  0.440305  0.054761  1
  Ho  Ho9  1  0.059522  0.059522  0.439141  1
  Ho  Ho10  1  0.187958  0.812761  0.813248  1
  Ho  Ho11  1  0.814064  0.186356  0.188694  1
  Ho  Ho12  1  0.812761  0.187958  0.813248  1
  Ho  Ho13  1  0.186356  0.814064  0.188694  1
  Ho  Ho14  1  0.812531  0.812531  0.189432  1
  Ho  Ho15  1  0.187241  0.187241  0.814770  1
  Cd  Cd16  1  0.830255  0.506431  0.830866  1
  Cd  Cd17  1  0.506431  0.830255  0.830866  1
  Hg  Hg18  1  0.834012  0.834012  0.835700  1
  Hg  Hg19  1  0.834202  0.834202  0.494769  1
  Ir  Ir20  1  0.391433  0.391433  0.823268  1
  Ir  Ir21  1  0.391246  0.823588  0.391781  1
  Ir  Ir22  1  0.823588  0.391246  0.391781  1
  Pd  Pd23  1  0.393415  0.393415  0.393530  1
