# generated using pymatgen
data_Nd2Al4Si2Rh
_symmetry_space_group_name_H-M   'P 1'
_cell_length_a   4.21165121
_cell_length_b   4.21169232
_cell_length_c   10.28892200
_cell_angle_alpha   101.87442591
_cell_angle_beta   101.87454350
_cell_angle_gamma   89.99810598
_symmetry_Int_Tables_number   1
_chemical_formula_structural   Nd2Al4Si2Rh
_chemical_formula_sum   'Nd2 Al4 Si2 Rh1'
_cell_volume   174.60864646
_cell_formula_units_Z   1
loop_
 _symmetry_equiv_pos_site_id
 _symmetry_equiv_pos_as_xyz
  1  'x, y, z'
loop_
 _atom_site_type_symbol
 _atom_site_label
 _atom_site_symmetry_multiplicity
 _atom_site_fract_x
 _atom_site_fract_y
 _atom_site_fract_z
 _atom_site_occupancy
  Nd  Nd0  1  0.185723  0.185715  0.371824  1
  Nd  Nd1  1  0.814273  0.814275  0.628178  1
  Al  Al2  1  0.569108  0.068432  0.137601  1
  Al  Al3  1  0.068431  0.569109  0.137600  1
  Al  Al4  1  0.931558  0.430949  0.862400  1
  Al  Al5  1  0.430946  0.931562  0.862399  1
  Si  Si6  1  0.658206  0.658206  0.316252  1
  Si  Si7  1  0.341803  0.341802  0.683747  1
  Rh  Rh8  1  0.999956  0.999957  0.999999  1
