# generated using pymatgen
data_Ca4CuH12Ir
_symmetry_space_group_name_H-M   'P 1'
_cell_length_a   7.13011217
_cell_length_b   7.13011200
_cell_length_c   5.18393468
_cell_angle_alpha   90.00267363
_cell_angle_beta   90.00267409
_cell_angle_gamma   137.38239126
_symmetry_Int_Tables_number   1
_chemical_formula_structural   Ca4CuH12Ir
_chemical_formula_sum   'Ca4 Cu1 H12 Ir1'
_cell_volume   178.44584149
_cell_formula_units_Z   1
loop_
 _symmetry_equiv_pos_site_id
 _symmetry_equiv_pos_as_xyz
  1  'x, y, z'
loop_
 _atom_site_type_symbol
 _atom_site_label
 _atom_site_symmetry_multiplicity
 _atom_site_fract_x
 _atom_site_fract_y
 _atom_site_fract_z
 _atom_site_occupancy
  Ca  Ca0  1  0.150064  0.849936  0.500000  1
  Ca  Ca1  1  0.650292  0.349708  0.000000  1
  Ca  Ca2  1  0.849936  0.150064  0.500000  1
  Ca  Ca3  1  0.349708  0.650292  0.000000  1
  Cu  Cu4  1  0.000000  0.000000  0.000000  1
  H  H5  1  0.999941  0.500065  0.750647  1
  H  H6  1  0.499935  0.000059  0.249353  1
  H  H7  1  0.000059  0.499935  0.249353  1
  H  H8  1  0.500065  0.999941  0.750647  1
  H  H9  1  0.373450  0.626550  0.500000  1
  H  H10  1  0.880322  0.119678  0.000000  1
  H  H11  1  0.626550  0.373450  0.500000  1
  H  H12  1  0.119678  0.880322  0.000000  1
  H  H13  1  0.266869  0.266869  0.733120  1
  H  H14  1  0.733131  0.733131  0.266880  1
  H  H15  1  0.266672  0.266672  0.267027  1
  H  H16  1  0.733328  0.733328  0.732973  1
  Ir  Ir17  1  0.500000  0.500000  0.500000  1
