# generated using pymatgen
data_Ho2MnCoGe2C
_symmetry_space_group_name_H-M   'P 1'
_cell_length_a   5.69833952
_cell_length_b   5.69833943
_cell_length_c   6.81818024
_cell_angle_alpha   125.43403938
_cell_angle_beta   125.43403982
_cell_angle_gamma   40.60183062
_symmetry_Int_Tables_number   1
_chemical_formula_structural   Ho2MnCoGe2C
_chemical_formula_sum   'Ho2 Mn1 Co1 Ge2 C1'
_cell_volume   113.25608222
_cell_formula_units_Z   1
loop_
 _symmetry_equiv_pos_site_id
 _symmetry_equiv_pos_as_xyz
  1  'x, y, z'
loop_
 _atom_site_type_symbol
 _atom_site_label
 _atom_site_symmetry_multiplicity
 _atom_site_fract_x
 _atom_site_fract_y
 _atom_site_fract_z
 _atom_site_occupancy
  Ho  Ho0  1  0.556850  0.556850  0.287726  1
  Ho  Ho1  1  0.442010  0.442010  0.712424  1
  Mn  Mn2  1  0.194530  0.194530  0.086390  1
  Co  Co3  1  0.802494  0.802494  0.910839  1
  Ge  Ge4  1  0.839318  0.839318  0.295375  1
  Ge  Ge5  1  0.162422  0.162422  0.704673  1
  C  C6  1  0.002377  0.002377  0.002575  1
