# generated using pymatgen
data_Nd8Si13Hg
_symmetry_space_group_name_H-M   'P 1'
_cell_length_a   7.62916712
_cell_length_b   7.65469965
_cell_length_c   11.76261757
_cell_angle_alpha   89.80494966
_cell_angle_beta   89.62269171
_cell_angle_gamma   134.87151467
_symmetry_Int_Tables_number   1
_chemical_formula_structural   Nd8Si13Hg
_chemical_formula_sum   'Nd8 Si13 Hg1'
_cell_volume   486.77531275
_cell_formula_units_Z   1
loop_
 _symmetry_equiv_pos_site_id
 _symmetry_equiv_pos_as_xyz
  1  'x, y, z'
loop_
 _atom_site_type_symbol
 _atom_site_label
 _atom_site_symmetry_multiplicity
 _atom_site_fract_x
 _atom_site_fract_y
 _atom_site_fract_z
 _atom_site_occupancy
  Nd  Nd0  1  0.491958  0.495075  0.507641  1
  Nd  Nd1  1  0.506578  0.506597  0.997083  1
  Nd  Nd2  1  0.995760  0.999038  0.245421  1
  Nd  Nd3  1  0.999268  0.006103  0.752714  1
  Nd  Nd4  1  0.004944  0.500802  0.630642  1
  Nd  Nd5  1  0.499513  0.991832  0.377751  1
  Nd  Nd6  1  0.994016  0.494684  0.117032  1
  Nd  Nd7  1  0.502941  0.000608  0.876360  1
  Si  Si8  1  0.550294  0.416511  0.242073  1
  Si  Si9  1  0.423167  0.581810  0.751180  1
  Si  Si10  1  0.906659  0.582007  0.870121  1
  Si  Si11  1  0.566488  0.887764  0.132241  1
  Si  Si12  1  0.128945  0.428732  0.362739  1
  Si  Si13  1  0.430415  0.104065  0.631176  1
  Si  Si14  1  0.087948  0.425226  0.873932  1
  Si  Si15  1  0.418561  0.079713  0.131354  1
  Si  Si16  1  0.912888  0.083293  0.494333  1
  Si  Si17  1  0.082174  0.917458  0.509058  1
  Si  Si18  1  0.094669  0.925663  0.996319  1
  Si  Si19  1  0.919613  0.091293  0.003600  1
  Si  Si20  1  0.576076  0.913678  0.626364  1
  Hg  Hg21  1  0.907126  0.568048  0.370868  1
