# generated using pymatgen
data_Ac3Nd2Sn10(IrPt)2
_symmetry_space_group_name_H-M   'P 1'
_cell_length_a   14.38978900
_cell_length_b   14.36657600
_cell_length_c   4.77905300
_cell_angle_alpha   90.00000000
_cell_angle_beta   90.00000000
_cell_angle_gamma   90.00000000
_symmetry_Int_Tables_number   1
_chemical_formula_structural   Ac3Nd2Sn10(IrPt)2
_chemical_formula_sum   'Ac6 Nd4 Sn20 Ir4 Pt4'
_cell_volume   987.98317186
_cell_formula_units_Z   2
loop_
 _symmetry_equiv_pos_site_id
 _symmetry_equiv_pos_as_xyz
  1  'x, y, z'
loop_
 _atom_site_type_symbol
 _atom_site_label
 _atom_site_symmetry_multiplicity
 _atom_site_fract_x
 _atom_site_fract_y
 _atom_site_fract_z
 _atom_site_occupancy
  Ac  Ac0  1  0.500000  0.500000  0.000000  1
  Ac  Ac1  1  0.000000  0.000000  0.000000  1
  Ac  Ac2  1  0.889064  0.388051  0.500000  1
  Ac  Ac3  1  0.110936  0.611949  0.500000  1
  Ac  Ac4  1  0.389064  0.111949  0.500000  1
  Ac  Ac5  1  0.610936  0.888051  0.500000  1
  Nd  Nd6  1  0.674973  0.177846  0.500000  1
  Nd  Nd7  1  0.325027  0.822154  0.500000  1
  Nd  Nd8  1  0.174973  0.322154  0.500000  1
  Nd  Nd9  1  0.825027  0.677846  0.500000  1
  Sn  Sn10  1  0.568655  0.071766  0.000000  1
  Sn  Sn11  1  0.431345  0.928234  0.000000  1
  Sn  Sn12  1  0.068655  0.428234  0.000000  1
  Sn  Sn13  1  0.931345  0.571766  0.000000  1
  Sn  Sn14  1  0.654665  0.700221  0.000000  1
  Sn  Sn15  1  0.345335  0.299779  0.000000  1
  Sn  Sn16  1  0.154665  0.799779  0.000000  1
  Sn  Sn17  1  0.845335  0.200221  0.000000  1
  Sn  Sn18  1  0.302752  0.657296  0.000000  1
  Sn  Sn19  1  0.697248  0.342704  0.000000  1
  Sn  Sn20  1  0.197248  0.157296  0.000000  1
  Sn  Sn21  1  0.802752  0.842704  0.000000  1
  Sn  Sn22  1  0.663708  0.505729  0.500000  1
  Sn  Sn23  1  0.336292  0.494271  0.500000  1
  Sn  Sn24  1  0.163708  0.994271  0.500000  1
  Sn  Sn25  1  0.836292  0.005729  0.500000  1
  Sn  Sn26  1  0.494210  0.664897  0.500000  1
  Sn  Sn27  1  0.505790  0.335103  0.500000  1
  Sn  Sn28  1  0.005790  0.164897  0.500000  1
  Sn  Sn29  1  0.994210  0.835103  0.500000  1
  Ir  Ir30  1  0.470750  0.744179  0.000000  1
  Ir  Ir31  1  0.529250  0.255821  0.000000  1
  Ir  Ir32  1  0.029250  0.244179  0.000000  1
  Ir  Ir33  1  0.970750  0.755821  0.000000  1
  Pt  Pt34  1  0.745740  0.528867  0.000000  1
  Pt  Pt35  1  0.254260  0.471133  0.000000  1
  Pt  Pt36  1  0.245740  0.971133  0.000000  1
  Pt  Pt37  1  0.754260  0.028867  0.000000  1
