# generated using pymatgen
data_Co6Si2Tc3Mo
_symmetry_space_group_name_H-M   'P 1'
_cell_length_a   4.72877700
_cell_length_b   4.72877674
_cell_length_c   7.36161300
_cell_angle_alpha   90.00000000
_cell_angle_beta   90.00000000
_cell_angle_gamma   119.99999482
_symmetry_Int_Tables_number   1
_chemical_formula_structural   Co6Si2Tc3Mo
_chemical_formula_sum   'Co6 Si2 Tc3 Mo1'
_cell_volume   142.56118000
_cell_formula_units_Z   1
loop_
 _symmetry_equiv_pos_site_id
 _symmetry_equiv_pos_as_xyz
  1  'x, y, z'
loop_
 _atom_site_type_symbol
 _atom_site_label
 _atom_site_symmetry_multiplicity
 _atom_site_fract_x
 _atom_site_fract_y
 _atom_site_fract_z
 _atom_site_occupancy
  Co  Co0  1  0.828007  0.171993  0.250089  1
  Co  Co1  1  0.828007  0.656014  0.250089  1
  Co  Co2  1  0.343986  0.171993  0.250089  1
  Co  Co3  1  0.171335  0.828665  0.749411  1
  Co  Co4  1  0.171335  0.342670  0.749411  1
  Co  Co5  1  0.657330  0.828665  0.749411  1
  Si  Si6  1  0.000000  0.000000  0.498717  1
  Si  Si7  1  0.000000  0.000000  0.999806  1
  Tc  Tc8  1  0.333333  0.666667  0.432571  1
  Tc  Tc9  1  0.666667  0.333333  0.568656  1
  Tc  Tc10  1  0.666667  0.333333  0.930157  1
  Mo  Mo11  1  0.333333  0.666667  0.071594  1
