# generated using pymatgen
data_Dy9Lu7Cd4Ru3Pt
_symmetry_space_group_name_H-M   'P 1'
_cell_length_a   9.54583206
_cell_length_b   9.59632835
_cell_length_c   9.60913311
_cell_angle_alpha   59.56196662
_cell_angle_beta   59.48976115
_cell_angle_gamma   59.54115735
_symmetry_Int_Tables_number   1
_chemical_formula_structural   Dy9Lu7Cd4Ru3Pt
_chemical_formula_sum   'Dy9 Lu7 Cd4 Ru3 Pt1'
_cell_volume   615.78771901
_cell_formula_units_Z   1
loop_
 _symmetry_equiv_pos_site_id
 _symmetry_equiv_pos_as_xyz
  1  'x, y, z'
loop_
 _atom_site_type_symbol
 _atom_site_label
 _atom_site_symmetry_multiplicity
 _atom_site_fract_x
 _atom_site_fract_y
 _atom_site_fract_z
 _atom_site_occupancy
  Dy  Dy0  1  0.814265  0.188810  0.805263  1
  Dy  Dy1  1  0.187260  0.187240  0.812393  1
  Dy  Dy2  1  0.815680  0.805529  0.189182  1
  Dy  Dy3  1  0.938243  0.561373  0.560046  1
  Dy  Dy4  1  0.556017  0.938517  0.939685  1
  Dy  Dy5  1  0.556251  0.940100  0.563928  1
  Dy  Dy6  1  0.938046  0.560551  0.939673  1
  Dy  Dy7  1  0.555293  0.565172  0.940297  1
  Dy  Dy8  1  0.938963  0.939425  0.559209  1
  Lu  Lu9  1  0.345256  0.351315  0.349757  1
  Lu  Lu10  1  0.345297  0.350839  0.957060  1
  Lu  Lu11  1  0.345059  0.956515  0.350562  1
  Lu  Lu12  1  0.967420  0.343732  0.343903  1
  Lu  Lu13  1  0.814450  0.188552  0.190093  1
  Lu  Lu14  1  0.186827  0.810761  0.811435  1
  Lu  Lu15  1  0.187127  0.811463  0.188276  1
  Cd  Cd16  1  0.579462  0.580030  0.580153  1
  Cd  Cd17  1  0.580265  0.579962  0.258874  1
  Cd  Cd18  1  0.580773  0.258954  0.579791  1
  Cd  Cd19  1  0.256283  0.581508  0.581174  1
  Ru  Ru20  1  0.145041  0.138080  0.139261  1
  Ru  Ru21  1  0.147022  0.139963  0.575305  1
  Ru  Ru22  1  0.147447  0.576407  0.139742  1
  Pt  Pt23  1  0.572262  0.145199  0.144933  1
