# generated using pymatgen
data_NdThMn3Ni9P7
_symmetry_space_group_name_H-M   'P 1'
_cell_length_a   9.18440800
_cell_length_b   9.18440881
_cell_length_c   3.76143600
_cell_angle_alpha   90.00000000
_cell_angle_beta   90.00000000
_cell_angle_gamma   119.99999806
_symmetry_Int_Tables_number   1
_chemical_formula_structural   NdThMn3Ni9P7
_chemical_formula_sum   'Nd1 Th1 Mn3 Ni9 P7'
_cell_volume   274.78099479
_cell_formula_units_Z   1
loop_
 _symmetry_equiv_pos_site_id
 _symmetry_equiv_pos_as_xyz
  1  'x, y, z'
loop_
 _atom_site_type_symbol
 _atom_site_label
 _atom_site_symmetry_multiplicity
 _atom_site_fract_x
 _atom_site_fract_y
 _atom_site_fract_z
 _atom_site_occupancy
  Nd  Nd0  1  0.333333  0.666667  0.000000  1
  Th  Th1  1  0.000000  0.000000  0.500000  1
  Mn  Mn2  1  0.783074  0.234633  0.500000  1
  Mn  Mn3  1  0.765367  0.548441  0.500000  1
  Mn  Mn4  1  0.451559  0.216926  0.500000  1
  Ni  Ni5  1  0.035252  0.269155  0.000000  1
  Ni  Ni6  1  0.730845  0.766096  0.000000  1
  Ni  Ni7  1  0.233904  0.964748  0.000000  1
  Ni  Ni8  1  0.539566  0.058215  0.000000  1
  Ni  Ni9  1  0.941785  0.481351  0.000000  1
  Ni  Ni10  1  0.518649  0.460434  0.000000  1
  Ni  Ni11  1  0.616568  0.901406  0.500000  1
  Ni  Ni12  1  0.098594  0.715160  0.500000  1
  Ni  Ni13  1  0.284840  0.383432  0.500000  1
  P  P14  1  0.770337  0.036043  0.000000  1
  P  P15  1  0.963957  0.734294  0.000000  1
  P  P16  1  0.265706  0.229663  0.000000  1
  P  P17  1  0.372600  0.933011  0.500000  1
  P  P18  1  0.066989  0.439589  0.500000  1
  P  P19  1  0.560411  0.627400  0.500000  1
  P  P20  1  0.666667  0.333333  0.000000  1
