# generated using pymatgen
data_Cs4Na2DyAlAs4
_symmetry_space_group_name_H-M   'P 1'
_cell_length_a   9.76205409
_cell_length_b   9.76205369
_cell_length_c   9.76205406
_cell_angle_alpha   137.18627303
_cell_angle_beta   138.91416821
_cell_angle_gamma   60.83718803
_symmetry_Int_Tables_number   1
_chemical_formula_structural   Cs4Na2DyAlAs4
_chemical_formula_sum   'Cs4 Na2 Dy1 Al1 As4'
_cell_volume   410.99844274
_cell_formula_units_Z   1
loop_
 _symmetry_equiv_pos_site_id
 _symmetry_equiv_pos_as_xyz
  1  'x, y, z'
loop_
 _atom_site_type_symbol
 _atom_site_label
 _atom_site_symmetry_multiplicity
 _atom_site_fract_x
 _atom_site_fract_y
 _atom_site_fract_z
 _atom_site_occupancy
  Cs  Cs0  1  0.671698  0.400303  0.716665  1
  Cs  Cs1  1  0.828302  0.044968  0.228607  1
  Cs  Cs2  1  0.183639  0.955032  0.783335  1
  Cs  Cs3  1  0.316361  0.599697  0.271393  1
  Na  Na4  1  0.750000  0.000000  0.750000  1
  Na  Na5  1  0.250000  0.000000  0.250000  1
  Dy  Dy6  1  0.750000  0.500000  0.250000  1
  Al  Al7  1  0.250000  0.500000  0.750000  1
  As  As8  1  0.390108  0.202739  0.769471  1
  As  As9  1  0.566732  0.797261  0.187369  1
  As  As10  1  0.109892  0.379362  0.312631  1
  As  As11  1  0.933268  0.620638  0.730529  1
