# generated using pymatgen
data_Tb2DyMg3Ga2Ag
_symmetry_space_group_name_H-M   'P 1'
_cell_length_a   7.40615719
_cell_length_b   7.40615671
_cell_length_c   4.36308900
_cell_angle_alpha   90.00000000
_cell_angle_beta   90.00000000
_cell_angle_gamma   119.97407884
_symmetry_Int_Tables_number   1
_chemical_formula_structural   Tb2DyMg3Ga2Ag
_chemical_formula_sum   'Tb2 Dy1 Mg3 Ga2 Ag1'
_cell_volume   207.31174358
_cell_formula_units_Z   1
loop_
 _symmetry_equiv_pos_site_id
 _symmetry_equiv_pos_as_xyz
  1  'x, y, z'
loop_
 _atom_site_type_symbol
 _atom_site_label
 _atom_site_symmetry_multiplicity
 _atom_site_fract_x
 _atom_site_fract_y
 _atom_site_fract_z
 _atom_site_occupancy
  Tb  Tb0  1  0.577413  0.999992  0.000000  1
  Tb  Tb1  1  0.999992  0.577413  0.000000  1
  Dy  Dy2  1  0.422536  0.422536  0.000000  1
  Mg  Mg3  1  0.246130  0.000066  0.500000  1
  Mg  Mg4  1  0.000066  0.246130  0.500000  1
  Mg  Mg5  1  0.753796  0.753796  0.500000  1
  Ga  Ga6  1  0.333385  0.666558  0.500000  1
  Ga  Ga7  1  0.666558  0.333385  0.500000  1
  Ag  Ag8  1  0.000123  0.000123  0.000000  1
