# generated using pymatgen
data_K4Nb4SiP4(W2O17)2
_symmetry_space_group_name_H-M   'P 1'
_cell_length_a   10.78115900
_cell_length_b   10.78115900
_cell_length_c   6.52508000
_cell_angle_alpha   90.00000000
_cell_angle_beta   90.00000000
_cell_angle_gamma   90.00000000
_symmetry_Int_Tables_number   1
_chemical_formula_structural   K4Nb4SiP4(W2O17)2
_chemical_formula_sum   'K4 Nb4 Si1 P4 W4 O34'
_cell_volume   758.43216440
_cell_formula_units_Z   1
loop_
 _symmetry_equiv_pos_site_id
 _symmetry_equiv_pos_as_xyz
  1  'x, y, z'
loop_
 _atom_site_type_symbol
 _atom_site_label
 _atom_site_symmetry_multiplicity
 _atom_site_fract_x
 _atom_site_fract_y
 _atom_site_fract_z
 _atom_site_occupancy
  K  K0  1  0.500000  0.500000  0.500000  1
  K  K1  1  0.000000  0.500000  0.300221  1
  K  K2  1  0.500000  0.000000  0.699779  1
  K  K3  1  0.000000  0.000000  0.500000  1
  Nb  Nb4  1  0.500000  0.186734  0.203454  1
  Nb  Nb5  1  0.813266  0.500000  0.796546  1
  Nb  Nb6  1  0.186734  0.500000  0.796546  1
  Nb  Nb7  1  0.500000  0.813266  0.203454  1
  Si  Si8  1  0.500000  0.500000  0.000000  1
  P  P9  1  0.238887  0.238887  0.500000  1
  P  P10  1  0.238887  0.761113  0.500000  1
  P  P11  1  0.761113  0.761113  0.500000  1
  P  P12  1  0.761113  0.238887  0.500000  1
  W  W13  1  0.178518  0.178518  0.000000  1
  W  W14  1  0.821482  0.821482  0.000000  1
  W  W15  1  0.821482  0.178518  0.000000  1
  W  W16  1  0.178518  0.821482  0.000000  1
  O  O17  1  0.159115  0.194258  0.314435  1
  O  O18  1  0.840885  0.805742  0.314435  1
  O  O19  1  0.805742  0.159115  0.685565  1
  O  O20  1  0.194258  0.840885  0.685565  1
  O  O21  1  0.840885  0.194258  0.314435  1
  O  O22  1  0.805742  0.840885  0.685565  1
  O  O23  1  0.194258  0.159115  0.685565  1
  O  O24  1  0.159115  0.805742  0.314435  1
  O  O25  1  0.818070  0.000000  0.026949  1
  O  O26  1  0.000000  0.818070  0.973051  1
  O  O27  1  0.000000  0.181930  0.973051  1
  O  O28  1  0.181930  0.000000  0.026949  1
  O  O29  1  0.500000  0.374218  0.147681  1
  O  O30  1  0.625782  0.500000  0.852319  1
  O  O31  1  0.374218  0.500000  0.852319  1
  O  O32  1  0.500000  0.625782  0.147681  1
  O  O33  1  0.377523  0.214390  0.458986  1
  O  O34  1  0.500000  0.000000  0.252080  1
  O  O35  1  0.000000  0.500000  0.747920  1
  O  O36  1  0.361729  0.827809  0.023384  1
  O  O37  1  0.172191  0.361729  0.976616  1
  O  O38  1  0.827809  0.638271  0.976616  1
  O  O39  1  0.638271  0.172191  0.023384  1
  O  O40  1  0.172191  0.638271  0.976616  1
  O  O41  1  0.827809  0.361729  0.976616  1
  O  O42  1  0.638271  0.827809  0.023384  1
  O  O43  1  0.361729  0.172191  0.023384  1
  O  O44  1  0.377523  0.785610  0.458986  1
  O  O45  1  0.214390  0.377523  0.541014  1
  O  O46  1  0.785610  0.622477  0.541014  1
  O  O47  1  0.622477  0.214390  0.458986  1
  O  O48  1  0.214390  0.622477  0.541014  1
  O  O49  1  0.785610  0.377523  0.541014  1
  O  O50  1  0.622477  0.785610  0.458986  1
