# generated using pymatgen
data_Tm10In8IrPtRh2
_symmetry_space_group_name_H-M   'P 1'
_cell_length_a   3.57659900
_cell_length_b   8.01194602
_cell_length_c   18.11095907
_cell_angle_alpha   89.95713698
_cell_angle_beta   90.00000000
_cell_angle_gamma   90.00000000
_symmetry_Int_Tables_number   1
_chemical_formula_structural   Tm10In8IrPtRh2
_chemical_formula_sum   'Tm10 In8 Ir1 Pt1 Rh2'
_cell_volume   518.97877058
_cell_formula_units_Z   1
loop_
 _symmetry_equiv_pos_site_id
 _symmetry_equiv_pos_as_xyz
  1  'x, y, z'
loop_
 _atom_site_type_symbol
 _atom_site_label
 _atom_site_symmetry_multiplicity
 _atom_site_fract_x
 _atom_site_fract_y
 _atom_site_fract_z
 _atom_site_occupancy
  Tm  Tm0  1  0.000000  0.115812  0.413149  1
  Tm  Tm1  1  0.000000  0.883418  0.587637  1
  Tm  Tm2  1  0.000000  0.383749  0.912463  1
  Tm  Tm3  1  0.000000  0.617406  0.086477  1
  Tm  Tm4  1  0.000000  0.238410  0.221977  1
  Tm  Tm5  1  0.000000  0.756077  0.778788  1
  Tm  Tm6  1  0.000000  0.255649  0.721347  1
  Tm  Tm7  1  0.000000  0.749741  0.279186  1
  Tm  Tm8  1  0.000000  0.999713  0.000484  1
  Tm  Tm9  1  0.000000  0.500622  0.499738  1
  In  In10  1  0.500000  0.424311  0.352238  1
  In  In11  1  0.500000  0.572751  0.649505  1
  In  In12  1  0.500000  0.073102  0.850313  1
  In  In13  1  0.500000  0.928783  0.148323  1
  In  In14  1  0.500000  0.292284  0.065278  1
  In  In15  1  0.500000  0.706905  0.932574  1
  In  In16  1  0.500000  0.207036  0.567117  1
  In  In17  1  0.500000  0.792290  0.432933  1
  Ir  Ir18  1  0.500000  0.023536  0.303949  1
  Pt  Pt19  1  0.500000  0.524213  0.196386  1
  Rh  Rh20  1  0.500000  0.977218  0.695316  1
  Rh  Rh21  1  0.500000  0.476971  0.804824  1
