# generated using pymatgen
data_Er(Zn2Pt)2
_symmetry_space_group_name_H-M   'P 1'
_cell_length_a   7.50427800
_cell_length_b   7.50427800
_cell_length_c   4.27064700
_cell_angle_alpha   90.00000000
_cell_angle_beta   90.00000000
_cell_angle_gamma   90.00000000
_symmetry_Int_Tables_number   1
_chemical_formula_structural   Er(Zn2Pt)2
_chemical_formula_sum   'Er2 Zn8 Pt4'
_cell_volume   240.49801933
_cell_formula_units_Z   2
loop_
 _symmetry_equiv_pos_site_id
 _symmetry_equiv_pos_as_xyz
  1  'x, y, z'
loop_
 _atom_site_type_symbol
 _atom_site_label
 _atom_site_symmetry_multiplicity
 _atom_site_fract_x
 _atom_site_fract_y
 _atom_site_fract_z
 _atom_site_occupancy
  Er  Er0  1  0.500000  0.500000  0.500000  1
  Er  Er1  1  0.000000  0.000000  0.000000  1
  Zn  Zn2  1  0.352518  0.099166  0.500000  1
  Zn  Zn3  1  0.647482  0.900834  0.500000  1
  Zn  Zn4  1  0.852518  0.400834  0.000000  1
  Zn  Zn5  1  0.147482  0.599166  0.000000  1
  Zn  Zn6  1  0.099166  0.352518  0.500000  1
  Zn  Zn7  1  0.900834  0.647482  0.500000  1
  Zn  Zn8  1  0.400834  0.852518  0.000000  1
  Zn  Zn9  1  0.599166  0.147482  0.000000  1
  Pt  Pt10  1  0.785200  0.214800  0.500000  1
  Pt  Pt11  1  0.214800  0.785200  0.500000  1
  Pt  Pt12  1  0.285200  0.285200  0.000000  1
  Pt  Pt13  1  0.714800  0.714800  0.000000  1
