# generated using pymatgen
data_TbEr2As4Pd7
_symmetry_space_group_name_H-M   'P 1'
_cell_length_a   8.09467606
_cell_length_b   8.09467635
_cell_length_c   9.63522135
_cell_angle_alpha   55.71911825
_cell_angle_beta   55.71911516
_cell_angle_gamma   29.44370776
_symmetry_Int_Tables_number   1
_chemical_formula_structural   TbEr2As4Pd7
_chemical_formula_sum   'Tb1 Er2 As4 Pd7'
_cell_volume   252.28688702
_cell_formula_units_Z   1
loop_
 _symmetry_equiv_pos_site_id
 _symmetry_equiv_pos_as_xyz
  1  'x, y, z'
loop_
 _atom_site_type_symbol
 _atom_site_label
 _atom_site_symmetry_multiplicity
 _atom_site_fract_x
 _atom_site_fract_y
 _atom_site_fract_z
 _atom_site_occupancy
  Tb  Tb0  1  0.500000  0.500000  0.500000  1
  Er  Er1  1  0.823003  0.823003  0.170652  1
  Er  Er2  1  0.176997  0.176997  0.829348  1
  As  As3  1  0.393399  0.393399  0.321620  1
  As  As4  1  0.606601  0.606601  0.678380  1
  As  As5  1  0.840036  0.840036  0.751943  1
  As  As6  1  0.159964  0.159964  0.248057  1
  Pd  Pd7  1  0.668458  0.668458  0.071715  1
  Pd  Pd8  1  0.012219  0.012219  0.206323  1
  Pd  Pd9  1  0.987781  0.987781  0.793677  1
  Pd  Pd10  1  0.500000  0.500000  0.000000  1
  Pd  Pd11  1  0.194424  0.194424  0.472818  1
  Pd  Pd12  1  0.805576  0.805576  0.527182  1
  Pd  Pd13  1  0.331542  0.331542  0.928285  1
