# generated using pymatgen
data_Ti10ZnSiSb4
_symmetry_space_group_name_H-M   'P 1'
_cell_length_a   5.15833392
_cell_length_b   7.83377507
_cell_length_c   7.83377591
_cell_angle_alpha   83.77709442
_cell_angle_beta   70.77755592
_cell_angle_gamma   70.77754899
_symmetry_Int_Tables_number   1
_chemical_formula_structural   Ti10ZnSiSb4
_chemical_formula_sum   'Ti10 Zn1 Si1 Sb4'
_cell_volume   282.24310292
_cell_formula_units_Z   1
loop_
 _symmetry_equiv_pos_site_id
 _symmetry_equiv_pos_as_xyz
  1  'x, y, z'
loop_
 _atom_site_type_symbol
 _atom_site_label
 _atom_site_symmetry_multiplicity
 _atom_site_fract_x
 _atom_site_fract_y
 _atom_site_fract_z
 _atom_site_occupancy
  Ti  Ti0  1  0.250000  0.500000  0.500000  1
  Ti  Ti1  1  0.750000  0.500000  0.500000  1
  Ti  Ti2  1  0.068233  0.139847  0.713773  1
  Ti  Ti3  1  0.921853  0.860153  0.286227  1
  Ti  Ti4  1  0.782007  0.286227  0.139847  1
  Ti  Ti5  1  0.431767  0.286227  0.860153  1
  Ti  Ti6  1  0.208080  0.713773  0.860153  1
  Ti  Ti7  1  0.578147  0.713773  0.139847  1
  Ti  Ti8  1  0.717993  0.860153  0.713773  1
  Ti  Ti9  1  0.291920  0.139847  0.286227  1
  Zn  Zn10  1  0.250000  0.000000  0.000000  1
  Si  Si11  1  0.750000  0.000000  0.000000  1
  Sb  Sb12  1  0.164424  0.500000  0.171151  1
  Sb  Sb13  1  0.835576  0.500000  0.828849  1
  Sb  Sb14  1  0.335576  0.828849  0.500000  1
  Sb  Sb15  1  0.664424  0.171151  0.500000  1
