# generated using pymatgen
data_ErCuNi3B
_symmetry_space_group_name_H-M   'P 1'
_cell_length_a   5.01139000
_cell_length_b   5.01138946
_cell_length_c   6.87331600
_cell_angle_alpha   90.00000000
_cell_angle_beta   90.00000000
_cell_angle_gamma   119.99999037
_symmetry_Int_Tables_number   1
_chemical_formula_structural   ErCuNi3B
_chemical_formula_sum   'Er2 Cu2 Ni6 B2'
_cell_volume   149.49041308
_cell_formula_units_Z   2
loop_
 _symmetry_equiv_pos_site_id
 _symmetry_equiv_pos_as_xyz
  1  'x, y, z'
loop_
 _atom_site_type_symbol
 _atom_site_label
 _atom_site_symmetry_multiplicity
 _atom_site_fract_x
 _atom_site_fract_y
 _atom_site_fract_z
 _atom_site_occupancy
  Er  Er0  1  0.000000  0.000000  0.500000  1
  Er  Er1  1  0.000000  0.000000  0.000000  1
  Cu  Cu2  1  0.333333  0.666667  0.000000  1
  Cu  Cu3  1  0.666667  0.333333  0.000000  1
  Ni  Ni4  1  0.500000  0.000000  0.295444  1
  Ni  Ni5  1  0.500000  0.500000  0.295444  1
  Ni  Ni6  1  0.000000  0.500000  0.295444  1
  Ni  Ni7  1  0.500000  0.000000  0.704556  1
  Ni  Ni8  1  0.500000  0.500000  0.704556  1
  Ni  Ni9  1  0.000000  0.500000  0.704556  1
  B  B10  1  0.666667  0.333333  0.500000  1
  B  B11  1  0.333333  0.666667  0.500000  1
