# generated using pymatgen
data_Li16Zn4Si5Ge
_symmetry_space_group_name_H-M   'P 1'
_cell_length_a   9.10131747
_cell_length_b   9.10778036
_cell_length_c   9.10640621
_cell_angle_alpha   48.25670777
_cell_angle_beta   48.25610548
_cell_angle_gamma   48.25215165
_symmetry_Int_Tables_number   1
_chemical_formula_structural   Li16Zn4Si5Ge
_chemical_formula_sum   'Li16 Zn4 Si5 Ge1'
_cell_volume   385.19327415
_cell_formula_units_Z   1
loop_
 _symmetry_equiv_pos_site_id
 _symmetry_equiv_pos_as_xyz
  1  'x, y, z'
loop_
 _atom_site_type_symbol
 _atom_site_label
 _atom_site_symmetry_multiplicity
 _atom_site_fract_x
 _atom_site_fract_y
 _atom_site_fract_z
 _atom_site_occupancy
  Li  Li0  1  0.058775  0.058731  0.058560  1
  Li  Li1  1  0.297573  0.594545  0.955830  1
  Li  Li2  1  0.559276  0.558135  0.560407  1
  Li  Li3  1  0.205997  0.907795  0.559525  1
  Li  Li4  1  0.595072  0.955898  0.298193  1
  Li  Li5  1  0.059037  0.406814  0.706283  1
  Li  Li6  1  0.907836  0.559422  0.206111  1
  Li  Li7  1  0.798057  0.455076  0.093831  1
  Li  Li8  1  0.955807  0.297525  0.594744  1
  Li  Li9  1  0.559215  0.206398  0.907150  1
  Li  Li10  1  0.455654  0.094365  0.797353  1
  Li  Li11  1  0.706224  0.059017  0.407009  1
  Li  Li12  1  0.093780  0.797524  0.455519  1
  Li  Li13  1  0.456930  0.455744  0.458300  1
  Li  Li14  1  0.957353  0.957689  0.957470  1
  Li  Li15  1  0.406507  0.705679  0.058819  1
  Zn  Zn16  1  0.674823  0.674955  0.674849  1
  Zn  Zn17  1  0.335804  0.335946  0.335856  1
  Zn  Zn18  1  0.839760  0.836736  0.831209  1
  Zn  Zn19  1  0.170889  0.179804  0.174059  1
  Si  Si20  1  0.178137  0.502138  0.830949  1
  Si  Si21  1  0.677278  0.331536  0.002159  1
  Si  Si22  1  0.830442  0.177459  0.503219  1
  Si  Si23  1  0.331239  0.003077  0.676962  1
  Si  Si24  1  0.002595  0.677425  0.331080  1
  Ge  Ge25  1  0.502682  0.827312  0.181298  1
