# generated using pymatgen
data_Zr3Nb(Co4As3)2
_symmetry_space_group_name_H-M   'P 1'
_cell_length_a   12.53884107
_cell_length_b   12.53085758
_cell_length_c   3.80177200
_cell_angle_alpha   90.00000000
_cell_angle_beta   90.00000000
_cell_angle_gamma   119.97893169
_symmetry_Int_Tables_number   1
_chemical_formula_structural   Zr3Nb(Co4As3)2
_chemical_formula_sum   'Zr6 Nb2 Co16 As12'
_cell_volume   517.42457534
_cell_formula_units_Z   2
loop_
 _symmetry_equiv_pos_site_id
 _symmetry_equiv_pos_as_xyz
  1  'x, y, z'
loop_
 _atom_site_type_symbol
 _atom_site_label
 _atom_site_symmetry_multiplicity
 _atom_site_fract_x
 _atom_site_fract_y
 _atom_site_fract_z
 _atom_site_occupancy
  Zr  Zr0  1  0.000000  0.557604  0.000000  1
  Zr  Zr1  1  0.665020  0.333406  0.000000  1
  Zr  Zr2  1  0.334980  0.668387  0.000000  1
  Zr  Zr3  1  0.822132  0.821166  0.500000  1
  Zr  Zr4  1  0.177868  0.999033  0.500000  1
  Zr  Zr5  1  0.000000  0.175035  0.500000  1
  Nb  Nb6  1  0.442975  0.443390  0.000000  1
  Nb  Nb7  1  0.557025  0.000415  0.000000  1
  Co  Co8  1  0.197340  0.374322  0.000000  1
  Co  Co9  1  0.181757  0.806883  0.000000  1
  Co  Co10  1  0.818243  0.625126  0.000000  1
  Co  Co11  1  0.802660  0.176983  0.000000  1
  Co  Co12  1  0.375204  0.197217  0.000000  1
  Co  Co13  1  0.124662  0.479018  0.500000  1
  Co  Co14  1  0.359159  0.877930  0.500000  1
  Co  Co15  1  0.517459  0.643011  0.500000  1
  Co  Co16  1  0.640841  0.518771  0.500000  1
  Co  Co17  1  0.875338  0.354357  0.500000  1
  Co  Co18  1  0.482541  0.125553  0.500000  1
  Co  Co19  1  0.000000  0.999948  0.000000  1
  Co  Co20  1  0.719836  0.000782  0.500000  1
  Co  Co21  1  0.000000  0.719966  0.500000  1
  Co  Co22  1  0.624796  0.822013  0.000000  1
  Co  Co23  1  0.280164  0.280945  0.500000  1
  As  As24  1  0.647476  0.649773  0.000000  1
  As  As25  1  0.352524  0.002298  0.000000  1
  As  As26  1  0.000000  0.345425  0.000000  1
  As  As27  1  0.482944  0.312133  0.500000  1
  As  As28  1  0.688153  0.171875  0.500000  1
  As  As29  1  0.824044  0.515269  0.500000  1
  As  As30  1  0.517056  0.829189  0.500000  1
  As  As31  1  0.175956  0.691225  0.500000  1
  As  As32  1  0.822795  0.998648  0.000000  1
  As  As33  1  0.000000  0.823328  0.000000  1
  As  As34  1  0.311847  0.483722  0.500000  1
  As  As35  1  0.177205  0.175853  0.000000  1
