# generated using pymatgen
data_Cs2K9Rb(FeSe3)4
_symmetry_space_group_name_H-M   'P 1'
_cell_length_a   13.84805598
_cell_length_b   8.27155308
_cell_length_c   10.51179300
_cell_angle_alpha   53.07177204
_cell_angle_beta   89.20055470
_cell_angle_gamma   89.98240742
_symmetry_Int_Tables_number   1
_chemical_formula_structural   Cs2K9Rb(FeSe3)4
_chemical_formula_sum   'Cs2 K9 Rb1 Fe4 Se12'
_cell_volume   962.37927243
_cell_formula_units_Z   1
loop_
 _symmetry_equiv_pos_site_id
 _symmetry_equiv_pos_as_xyz
  1  'x, y, z'
loop_
 _atom_site_type_symbol
 _atom_site_label
 _atom_site_symmetry_multiplicity
 _atom_site_fract_x
 _atom_site_fract_y
 _atom_site_fract_z
 _atom_site_occupancy
  Cs  Cs0  1  0.312258  0.184492  0.056007  1
  Cs  Cs1  1  0.686832  0.818104  0.942915  1
  K  K2  1  0.900497  0.320644  0.403657  1
  K  K3  1  0.614369  0.367933  0.468917  1
  K  K4  1  0.109563  0.645669  0.021480  1
  K  K5  1  0.384467  0.632581  0.531266  1
  K  K6  1  0.891274  0.352682  0.979361  1
  K  K7  1  0.612578  0.303794  0.910060  1
  K  K8  1  0.101482  0.679774  0.596287  1
  K  K9  1  0.386727  0.696727  0.089499  1
  K  K10  1  0.186121  0.172663  0.554073  1
  Rb  Rb11  1  0.814604  0.824799  0.451511  1
  Fe  Fe12  1  0.065914  0.947360  0.156129  1
  Fe  Fe13  1  0.565980  0.043436  0.347730  1
  Fe  Fe14  1  0.431458  0.961334  0.650333  1
  Fe  Fe15  1  0.936837  0.049301  0.843443  1
  Se  Se16  1  0.416625  0.205277  0.357704  1
  Se  Se17  1  0.908655  0.819471  0.138274  1
  Se  Se18  1  0.580283  0.798212  0.640990  1
  Se  Se19  1  0.094272  0.177694  0.860550  1
  Se  Se20  1  0.698542  0.279021  0.221283  1
  Se  Se21  1  0.184582  0.685721  0.296195  1
  Se  Se22  1  0.297320  0.730024  0.774722  1
  Se  Se23  1  0.815060  0.303010  0.709251  1
  Se  Se24  1  0.545353  0.861470  0.241142  1
  Se  Se25  1  0.054561  0.136357  0.259281  1
  Se  Se26  1  0.454207  0.140055  0.759146  1
  Se  Se27  1  0.949580  0.862397  0.738792  1
