# generated using pymatgen
data_Ce3NdIn2(CuRh)2
_symmetry_space_group_name_H-M   'P 1'
_cell_length_a   7.72105120
_cell_length_b   7.72105075
_cell_length_c   3.77494800
_cell_angle_alpha   90.00000000
_cell_angle_beta   90.00000000
_cell_angle_gamma   88.59931136
_symmetry_Int_Tables_number   1
_chemical_formula_structural   Ce3NdIn2(CuRh)2
_chemical_formula_sum   'Ce3 Nd1 In2 Cu2 Rh2'
_cell_volume   224.97487785
_cell_formula_units_Z   1
loop_
 _symmetry_equiv_pos_site_id
 _symmetry_equiv_pos_as_xyz
  1  'x, y, z'
loop_
 _atom_site_type_symbol
 _atom_site_label
 _atom_site_symmetry_multiplicity
 _atom_site_fract_x
 _atom_site_fract_y
 _atom_site_fract_z
 _atom_site_occupancy
  Ce  Ce0  1  0.333994  0.833994  0.500000  1
  Ce  Ce1  1  0.181507  0.320284  0.500000  1
  Ce  Ce2  1  0.820284  0.681507  0.500000  1
  Nd  Nd3  1  0.673167  0.173167  0.500000  1
  In  In4  1  0.000348  0.998466  0.000000  1
  In  In5  1  0.498466  0.500348  0.000000  1
  Cu  Cu6  1  0.121266  0.621266  0.000000  1
  Cu  Cu7  1  0.887021  0.387021  0.000000  1
  Rh  Rh8  1  0.630990  0.852957  0.000000  1
  Rh  Rh9  1  0.352957  0.130990  0.000000  1
