# generated using pymatgen
data_Zr12Al9Fe3N4
_symmetry_space_group_name_H-M   'P 1'
_cell_length_a   8.55835707
_cell_length_b   8.55835756
_cell_length_c   8.59858151
_cell_angle_alpha   60.15462992
_cell_angle_beta   60.15462309
_cell_angle_gamma   59.99999755
_symmetry_Int_Tables_number   1
_chemical_formula_structural   Zr12Al9Fe3N4
_chemical_formula_sum   'Zr12 Al9 Fe3 N4'
_cell_volume   446.37895920
_cell_formula_units_Z   1
loop_
 _symmetry_equiv_pos_site_id
 _symmetry_equiv_pos_as_xyz
  1  'x, y, z'
loop_
 _atom_site_type_symbol
 _atom_site_label
 _atom_site_symmetry_multiplicity
 _atom_site_fract_x
 _atom_site_fract_y
 _atom_site_fract_z
 _atom_site_occupancy
  Zr  Zr0  1  0.808723  0.808723  0.195499  1
  Zr  Zr1  1  0.191918  0.191918  0.809148  1
  Zr  Zr2  1  0.807016  0.191918  0.809148  1
  Zr  Zr3  1  0.187054  0.808723  0.195499  1
  Zr  Zr4  1  0.191918  0.807016  0.809148  1
  Zr  Zr5  1  0.808723  0.187054  0.195499  1
  Zr  Zr6  1  0.441277  0.441277  0.054501  1
  Zr  Zr7  1  0.058082  0.058082  0.440852  1
  Zr  Zr8  1  0.442984  0.058082  0.440852  1
  Zr  Zr9  1  0.062946  0.441277  0.054501  1
  Zr  Zr10  1  0.058082  0.442984  0.440852  1
  Zr  Zr11  1  0.441277  0.062946  0.054501  1
  Al  Al12  1  0.625000  0.625000  0.125000  1
  Al  Al13  1  0.738521  0.412134  0.437212  1
  Al  Al14  1  0.412134  0.738521  0.437212  1
  Al  Al15  1  0.419641  0.419641  0.741077  1
  Al  Al16  1  0.412134  0.412134  0.437212  1
  Al  Al17  1  0.511479  0.837866  0.812788  1
  Al  Al18  1  0.837866  0.511479  0.812788  1
  Al  Al19  1  0.830359  0.830359  0.508923  1
  Al  Al20  1  0.837866  0.837866  0.812788  1
  Fe  Fe21  1  0.125000  0.625000  0.625000  1
  Fe  Fe22  1  0.625000  0.125000  0.625000  1
  Fe  Fe23  1  0.625000  0.625000  0.625000  1
  N  N24  1  0.625000  0.125000  0.125000  1
  N  N25  1  0.125000  0.625000  0.125000  1
  N  N26  1  0.125000  0.125000  0.625000  1
  N  N27  1  0.125000  0.125000  0.125000  1
