# generated using pymatgen
data_V3Si(Tc3W)2
_symmetry_space_group_name_H-M   'P 1'
_cell_length_a   4.31616800
_cell_length_b   6.13424200
_cell_length_c   12.98286800
_cell_angle_alpha   90.00000000
_cell_angle_beta   90.00011499
_cell_angle_gamma   90.00000000
_symmetry_Int_Tables_number   1
_chemical_formula_structural   V3Si(Tc3W)2
_chemical_formula_sum   'V6 Si2 Tc12 W4'
_cell_volume   343.73985331
_cell_formula_units_Z   2
loop_
 _symmetry_equiv_pos_site_id
 _symmetry_equiv_pos_as_xyz
  1  'x, y, z'
loop_
 _atom_site_type_symbol
 _atom_site_label
 _atom_site_symmetry_multiplicity
 _atom_site_fract_x
 _atom_site_fract_y
 _atom_site_fract_z
 _atom_site_occupancy
  V  V0  1  0.999932  0.500000  0.993288  1
  V  V1  1  0.499843  0.000000  0.164459  1
  V  V2  1  0.999845  0.500000  0.335509  1
  V  V3  1  0.499935  0.000000  0.506710  1
  V  V4  1  0.000113  0.500000  0.671886  1
  V  V5  1  0.500113  0.000000  0.828175  1
  Si  Si6  1  0.000167  0.000000  0.669415  1
  Si  Si7  1  0.500168  0.500000  0.830612  1
  Tc  Tc8  1  0.500008  0.252551  0.996630  1
  Tc  Tc9  1  0.500008  0.747449  0.996630  1
  Tc  Tc10  1  0.999907  0.249181  0.165077  1
  Tc  Tc11  1  0.999907  0.750819  0.165077  1
  Tc  Tc12  1  0.499908  0.250915  0.334877  1
  Tc  Tc13  1  0.499908  0.749085  0.334877  1
  Tc  Tc14  1  0.000009  0.247489  0.503350  1
  Tc  Tc15  1  0.000009  0.752511  0.503350  1
  Tc  Tc16  1  0.500135  0.248204  0.668018  1
  Tc  Tc17  1  0.500135  0.751796  0.668018  1
  Tc  Tc18  1  0.000132  0.251767  0.832043  1
  Tc  Tc19  1  0.000132  0.748233  0.832043  1
  W  W20  1  0.999984  0.000000  0.996295  1
  W  W21  1  0.499857  0.500000  0.165215  1
  W  W22  1  0.999859  0.000000  0.334761  1
  W  W23  1  0.499985  0.500000  0.503687  1
