# generated using pymatgen
data_Eu5Sc3(Cu4As3)4
_symmetry_space_group_name_H-M   'P 1'
_cell_length_a   13.11536500
_cell_length_b   13.11536502
_cell_length_c   4.03032900
_cell_angle_alpha   90.00000000
_cell_angle_beta   90.00000000
_cell_angle_gamma   120.00000248
_symmetry_Int_Tables_number   1
_chemical_formula_structural   Eu5Sc3(Cu4As3)4
_chemical_formula_sum   'Eu5 Sc3 Cu16 As12'
_cell_volume   600.38783477
_cell_formula_units_Z   1
loop_
 _symmetry_equiv_pos_site_id
 _symmetry_equiv_pos_as_xyz
  1  'x, y, z'
loop_
 _atom_site_type_symbol
 _atom_site_label
 _atom_site_symmetry_multiplicity
 _atom_site_fract_x
 _atom_site_fract_y
 _atom_site_fract_z
 _atom_site_occupancy
  Eu  Eu0  1  0.185284  0.185284  0.500000  1
  Eu  Eu1  1  0.814716  0.000000  0.500000  1
  Eu  Eu2  1  0.000000  0.814716  0.500000  1
  Eu  Eu3  1  0.333333  0.666667  0.000000  1
  Eu  Eu4  1  0.666667  0.333333  0.000000  1
  Sc  Sc5  1  0.567219  0.567219  0.000000  1
  Sc  Sc6  1  0.432781  0.000000  0.000000  1
  Sc  Sc7  1  0.000000  0.432781  0.000000  1
  Cu  Cu8  1  0.720593  0.720593  0.500000  1
  Cu  Cu9  1  0.279407  0.000000  0.500000  1
  Cu  Cu10  1  0.000000  0.279407  0.500000  1
  Cu  Cu11  1  0.183477  0.376312  0.000000  1
  Cu  Cu12  1  0.623688  0.807164  0.000000  1
  Cu  Cu13  1  0.192836  0.816523  0.000000  1
  Cu  Cu14  1  0.807164  0.623688  0.000000  1
  Cu  Cu15  1  0.816523  0.192836  0.000000  1
  Cu  Cu16  1  0.376312  0.183477  0.000000  1
  Cu  Cu17  1  0.357661  0.477848  0.500000  1
  Cu  Cu18  1  0.522152  0.879814  0.500000  1
  Cu  Cu19  1  0.120186  0.642339  0.500000  1
  Cu  Cu20  1  0.879814  0.522152  0.500000  1
  Cu  Cu21  1  0.642339  0.120186  0.500000  1
  Cu  Cu22  1  0.477848  0.357661  0.500000  1
  Cu  Cu23  1  0.000000  0.000000  0.000000  1
  As  As24  1  0.821605  0.821605  0.000000  1
  As  As25  1  0.178395  0.000000  0.000000  1
  As  As26  1  0.000000  0.178395  0.000000  1
  As  As27  1  0.169279  0.484815  0.500000  1
  As  As28  1  0.515185  0.684463  0.500000  1
  As  As29  1  0.315537  0.830721  0.500000  1
  As  As30  1  0.684463  0.515185  0.500000  1
  As  As31  1  0.830721  0.315537  0.500000  1
  As  As32  1  0.484815  0.169279  0.500000  1
  As  As33  1  0.364488  0.364488  0.000000  1
  As  As34  1  0.635512  0.000000  0.000000  1
  As  As35  1  0.000000  0.635512  0.000000  1
