# generated using pymatgen
data_Rb4MoAsCl12
_symmetry_space_group_name_H-M   'P 1'
_cell_length_a   7.16045500
_cell_length_b   7.16045456
_cell_length_c   10.17754800
_cell_angle_alpha   90.00000000
_cell_angle_beta   90.00000000
_cell_angle_gamma   91.00319986
_symmetry_Int_Tables_number   1
_chemical_formula_structural   Rb4MoAsCl12
_chemical_formula_sum   'Rb4 Mo1 As1 Cl12'
_cell_volume   521.74440198
_cell_formula_units_Z   1
loop_
 _symmetry_equiv_pos_site_id
 _symmetry_equiv_pos_as_xyz
  1  'x, y, z'
loop_
 _atom_site_type_symbol
 _atom_site_label
 _atom_site_symmetry_multiplicity
 _atom_site_fract_x
 _atom_site_fract_y
 _atom_site_fract_z
 _atom_site_occupancy
  Rb  Rb0  1  0.500000  0.000000  0.769330  1
  Rb  Rb1  1  0.000000  0.500000  0.230670  1
  Rb  Rb2  1  0.500000  0.000000  0.230670  1
  Rb  Rb3  1  0.000000  0.500000  0.769330  1
  Mo  Mo4  1  0.500000  0.500000  0.500000  1
  As  As5  1  0.000000  0.000000  0.000000  1
  Cl  Cl6  1  0.000000  0.000000  0.758545  1
  Cl  Cl7  1  0.500000  0.500000  0.266442  1
  Cl  Cl8  1  0.735034  0.735034  0.500000  1
  Cl  Cl9  1  0.244452  0.244452  0.000000  1
  Cl  Cl10  1  0.732917  0.267083  0.500000  1
  Cl  Cl11  1  0.240503  0.759497  0.000000  1
  Cl  Cl12  1  0.000000  0.000000  0.241455  1
  Cl  Cl13  1  0.500000  0.500000  0.733558  1
  Cl  Cl14  1  0.264966  0.264966  0.500000  1
  Cl  Cl15  1  0.755548  0.755548  0.000000  1
  Cl  Cl16  1  0.267083  0.732917  0.500000  1
  Cl  Cl17  1  0.759497  0.240503  0.000000  1
