# generated using pymatgen
data_ScTe19
_symmetry_space_group_name_H-M   'P 1'
_cell_length_a   7.96740280
_cell_length_b   8.94102754
_cell_length_c   10.12016500
_cell_angle_alpha   103.09486428
_cell_angle_beta   96.93454965
_cell_angle_gamma   107.31739481
_symmetry_Int_Tables_number   1
_chemical_formula_structural   ScTe19
_chemical_formula_sum   'Sc1 Te19'
_cell_volume   656.48094483
_cell_formula_units_Z   1
loop_
 _symmetry_equiv_pos_site_id
 _symmetry_equiv_pos_as_xyz
  1  'x, y, z'
loop_
 _atom_site_type_symbol
 _atom_site_label
 _atom_site_symmetry_multiplicity
 _atom_site_fract_x
 _atom_site_fract_y
 _atom_site_fract_z
 _atom_site_occupancy
  Sc  Sc0  1  0.000000  0.500000  0.000000  1
  Te  Te1  1  0.786848  0.586444  0.619046  1
  Te  Te2  1  0.642326  0.210298  0.208748  1
  Te  Te3  1  0.357674  0.789702  0.791252  1
  Te  Te4  1  0.599827  0.694264  0.196800  1
  Te  Te5  1  0.213152  0.413556  0.380954  1
  Te  Te6  1  0.400173  0.305736  0.803200  1
  Te  Te7  1  0.000000  0.000000  0.000000  1
  Te  Te8  1  0.192636  0.902895  0.393747  1
  Te  Te9  1  0.807364  0.097105  0.606253  1
  Te  Te10  1  0.707989  0.634536  0.910000  1
  Te  Te11  1  0.516771  0.258546  0.496678  1
  Te  Te12  1  0.727920  0.166076  0.910091  1
  Te  Te13  1  0.272080  0.833924  0.089909  1
  Te  Te14  1  0.483229  0.741454  0.503322  1
  Te  Te15  1  0.094323  0.457558  0.716316  1
  Te  Te16  1  0.292011  0.365464  0.090000  1
  Te  Te17  1  0.910746  0.046152  0.301476  1
  Te  Te18  1  0.089254  0.953848  0.698524  1
  Te  Te19  1  0.905677  0.542442  0.283684  1
