# generated using pymatgen
data_ErScZnB2Rh5
_symmetry_space_group_name_H-M   'P 1'
_cell_length_a   9.44070600
_cell_length_b   3.10733000
_cell_length_c   9.43479100
_cell_angle_alpha   90.00000000
_cell_angle_beta   90.00000000
_cell_angle_gamma   90.00000000
_symmetry_Int_Tables_number   1
_chemical_formula_structural   ErScZnB2Rh5
_chemical_formula_sum   'Er2 Sc2 Zn2 B4 Rh10'
_cell_volume   276.77326388
_cell_formula_units_Z   2
loop_
 _symmetry_equiv_pos_site_id
 _symmetry_equiv_pos_as_xyz
  1  'x, y, z'
loop_
 _atom_site_type_symbol
 _atom_site_label
 _atom_site_symmetry_multiplicity
 _atom_site_fract_x
 _atom_site_fract_y
 _atom_site_fract_z
 _atom_site_occupancy
  Er  Er0  1  0.676088  0.000000  0.174360  1
  Er  Er1  1  0.176087  0.000000  0.325639  1
  Sc  Sc2  1  0.824779  0.000000  0.676154  1
  Sc  Sc3  1  0.324778  0.000000  0.823847  1
  Zn  Zn4  1  0.998460  0.000000  0.001676  1
  Zn  Zn5  1  0.498460  0.000000  0.498324  1
  B  B6  1  0.374696  0.000000  0.119398  1
  B  B7  1  0.874697  0.000000  0.380602  1
  B  B8  1  0.125284  0.000000  0.630868  1
  B  B9  1  0.625284  0.000000  0.869133  1
  Rh  Rh10  1  0.498208  0.500001  0.993873  1
  Rh  Rh11  1  0.219188  0.500001  0.064367  1
  Rh  Rh12  1  0.930327  0.500001  0.221641  1
  Rh  Rh13  1  0.430327  0.500001  0.278358  1
  Rh  Rh14  1  0.719189  0.500001  0.435633  1
  Rh  Rh15  1  0.998208  0.500001  0.506127  1
  Rh  Rh16  1  0.282385  0.500001  0.576322  1
  Rh  Rh17  1  0.570587  0.500001  0.715161  1
  Rh  Rh18  1  0.070587  0.500001  0.784839  1
  Rh  Rh19  1  0.782385  0.500001  0.923678  1
