# generated using pymatgen
data_Tb5Dy5Pb8
_symmetry_space_group_name_H-M   'P 1'
_cell_length_a   8.21199100
_cell_length_b   8.30171005
_cell_length_c   15.67274500
_cell_angle_alpha   90.00347845
_cell_angle_beta   90.00092098
_cell_angle_gamma   89.95102559
_symmetry_Int_Tables_number   1
_chemical_formula_structural   Tb5Dy5Pb8
_chemical_formula_sum   'Tb10 Dy10 Pb16'
_cell_volume   1068.46655783
_cell_formula_units_Z   2
loop_
 _symmetry_equiv_pos_site_id
 _symmetry_equiv_pos_as_xyz
  1  'x, y, z'
loop_
 _atom_site_type_symbol
 _atom_site_label
 _atom_site_symmetry_multiplicity
 _atom_site_fract_x
 _atom_site_fract_y
 _atom_site_fract_z
 _atom_site_occupancy
  Tb  Tb0  1  0.876939  0.658943  0.879476  1
  Tb  Tb1  1  0.534225  0.323288  0.899889  1
  Tb  Tb2  1  0.034381  0.176985  0.600125  1
  Tb  Tb3  1  0.465708  0.676768  0.399993  1
  Tb  Tb4  1  0.965739  0.823304  0.100266  1
  Tb  Tb5  1  0.465745  0.676706  0.100005  1
  Tb  Tb6  1  0.965695  0.823229  0.399841  1
  Tb  Tb7  1  0.534261  0.323352  0.600120  1
  Tb  Tb8  1  0.034347  0.176926  0.899829  1
  Tb  Tb9  1  0.208641  0.504119  0.749931  1
  Dy  Dy10  1  0.376665  0.841090  0.879340  1
  Dy  Dy11  1  0.876853  0.658826  0.620603  1
  Dy  Dy12  1  0.623227  0.158972  0.379481  1
  Dy  Dy13  1  0.123228  0.341135  0.120323  1
  Dy  Dy14  1  0.623138  0.158949  0.120618  1
  Dy  Dy15  1  0.123268  0.341049  0.379658  1
  Dy  Dy16  1  0.376728  0.841114  0.620591  1
  Dy  Dy17  1  0.708569  0.996077  0.749924  1
  Dy  Dy18  1  0.791314  0.496020  0.250049  1
  Dy  Dy19  1  0.291299  0.003999  0.250005  1
  Pb  Pb20  1  0.281735  0.033416  0.042728  1
  Pb  Pb21  1  0.781672  0.466414  0.457315  1
  Pb  Pb22  1  0.718384  0.966453  0.542848  1
  Pb  Pb23  1  0.218711  0.533091  0.956967  1
  Pb  Pb24  1  0.718126  0.966933  0.957164  1
  Pb  Pb25  1  0.218299  0.533264  0.543071  1
  Pb  Pb26  1  0.281734  0.033490  0.457276  1
  Pb  Pb27  1  0.781531  0.466118  0.042923  1
  Pb  Pb28  1  0.572096  0.625968  0.749860  1
  Pb  Pb29  1  0.072727  0.873820  0.749849  1
  Pb  Pb30  1  0.427454  0.373691  0.250026  1
  Pb  Pb31  1  0.927589  0.126493  0.250016  1
  Pb  Pb32  1  0.345205  0.152340  0.749980  1
  Pb  Pb33  1  0.845351  0.347882  0.749876  1
  Pb  Pb34  1  0.654624  0.847856  0.250024  1
  Pb  Pb35  1  0.154797  0.651918  0.250010  1
