# generated using pymatgen
data_Zr6Ti2Al14GaTc4Rh3
_symmetry_space_group_name_H-M   'P 1'
_cell_length_a   8.84519946
_cell_length_b   8.84519947
_cell_length_c   8.84520000
_cell_angle_alpha   120.09897045
_cell_angle_beta   119.87464646
_cell_angle_gamma   90.02296576
_symmetry_Int_Tables_number   1
_chemical_formula_structural   Zr6Ti2Al14GaTc4Rh3
_chemical_formula_sum   'Zr6 Ti2 Al14 Ga1 Tc4 Rh3'
_cell_volume   489.43200675
_cell_formula_units_Z   1
loop_
 _symmetry_equiv_pos_site_id
 _symmetry_equiv_pos_as_xyz
  1  'x, y, z'
loop_
 _atom_site_type_symbol
 _atom_site_label
 _atom_site_symmetry_multiplicity
 _atom_site_fract_x
 _atom_site_fract_y
 _atom_site_fract_z
 _atom_site_occupancy
  Zr  Zr0  1  0.776659  0.283368  0.068747  1
  Zr  Zr1  1  0.221396  0.292636  0.508719  1
  Zr  Zr2  1  0.219306  0.716907  0.512780  1
  Zr  Zr3  1  0.226151  0.719681  0.930503  1
  Zr  Zr4  1  0.785515  0.713092  0.494211  1
  Zr  Zr5  1  0.776480  0.276505  0.489516  1
  Ti  Ti6  1  0.372962  0.119077  0.740624  1
  Ti  Ti7  1  0.379058  0.634551  0.259514  1
  Al  Al8  1  0.157174  0.339688  0.178025  1
  Al  Al9  1  0.160492  0.988747  0.824558  1
  Al  Al10  1  0.158593  0.340145  0.822580  1
  Al  Al11  1  0.508282  0.337446  0.172820  1
  Al  Al12  1  0.843481  0.659402  0.819165  1
  Al  Al13  1  0.843008  0.016269  0.176055  1
  Al  Al14  1  0.841491  0.660221  0.175772  1
  Al  Al15  1  0.496275  0.665492  0.829373  1
  Al  Al16  1  0.374485  0.121602  0.257307  1
  Al  Al17  1  0.861229  0.122283  0.742893  1
  Al  Al18  1  0.622175  0.874853  0.255683  1
  Al  Al19  1  0.622859  0.364289  0.744934  1
  Al  Al20  1  0.620815  0.876882  0.740131  1
  Al  Al21  1  0.138526  0.877965  0.259374  1
  Ga  Ga22  1  0.996344  0.495737  0.499698  1
  Tc  Tc23  1  0.999873  0.001415  0.500440  1
  Tc  Tc24  1  0.500600  0.002195  0.001606  1
  Tc  Tc25  1  0.499079  0.500700  0.000570  1
  Tc  Tc26  1  0.498321  0.499644  0.497776  1
  Rh  Rh27  1  0.999862  0.499240  0.999110  1
  Rh  Rh28  1  0.000412  0.000946  0.998099  1
  Rh  Rh29  1  0.499089  0.999014  0.499418  1
