# generated using pymatgen
data_Hf9ZrCuSn2GeSb4
_symmetry_space_group_name_H-M   'P 1'
_cell_length_a   8.58646300
_cell_length_b   8.59600628
_cell_length_c   5.76513600
_cell_angle_alpha   90.00000000
_cell_angle_beta   90.00000000
_cell_angle_gamma   120.03675669
_symmetry_Int_Tables_number   1
_chemical_formula_structural   Hf9ZrCuSn2GeSb4
_chemical_formula_sum   'Hf9 Zr1 Cu1 Sn2 Ge1 Sb4'
_cell_volume   368.37507744
_cell_formula_units_Z   1
loop_
 _symmetry_equiv_pos_site_id
 _symmetry_equiv_pos_as_xyz
  1  'x, y, z'
loop_
 _atom_site_type_symbol
 _atom_site_label
 _atom_site_symmetry_multiplicity
 _atom_site_fract_x
 _atom_site_fract_y
 _atom_site_fract_z
 _atom_site_occupancy
  Hf  Hf0  1  0.667838  0.333903  0.998484  1
  Hf  Hf1  1  0.332162  0.666066  0.998484  1
  Hf  Hf2  1  0.332887  0.666139  0.501522  1
  Hf  Hf3  1  0.667113  0.333251  0.501522  1
  Hf  Hf4  1  0.731866  0.732154  0.752828  1
  Hf  Hf5  1  0.268134  0.000288  0.752828  1
  Hf  Hf6  1  0.000000  0.269785  0.753681  1
  Hf  Hf7  1  0.261681  0.261135  0.248029  1
  Hf  Hf8  1  0.738319  0.999454  0.248029  1
  Zr  Zr9  1  0.000000  0.736805  0.248046  1
  Cu  Cu10  1  0.000000  0.002635  0.989517  1
  Sn  Sn11  1  0.386423  0.386459  0.750626  1
  Sn  Sn12  1  0.613577  0.000037  0.750626  1
  Ge  Ge13  1  0.000000  0.001177  0.509056  1
  Sb  Sb14  1  0.000000  0.613301  0.750579  1
  Sb  Sb15  1  0.606976  0.607639  0.248409  1
  Sb  Sb16  1  0.393024  0.000665  0.248409  1
  Sb  Sb17  1  0.000000  0.389101  0.249322  1
