# generated using pymatgen
data_Er3Zn3Ni2Ir
_symmetry_space_group_name_H-M   'P 1'
_cell_length_a   7.01798300
_cell_length_b   7.01798363
_cell_length_c   3.77209600
_cell_angle_alpha   90.00000000
_cell_angle_beta   90.00000000
_cell_angle_gamma   120.00000174
_symmetry_Int_Tables_number   1
_chemical_formula_structural   Er3Zn3Ni2Ir
_chemical_formula_sum   'Er3 Zn3 Ni2 Ir1'
_cell_volume   160.89332387
_cell_formula_units_Z   1
loop_
 _symmetry_equiv_pos_site_id
 _symmetry_equiv_pos_as_xyz
  1  'x, y, z'
loop_
 _atom_site_type_symbol
 _atom_site_label
 _atom_site_symmetry_multiplicity
 _atom_site_fract_x
 _atom_site_fract_y
 _atom_site_fract_z
 _atom_site_occupancy
  Er  Er0  1  0.000120  0.407845  0.500000  1
  Er  Er1  1  0.592155  0.592275  0.500000  1
  Er  Er2  1  0.407725  0.999880  0.500000  1
  Zn  Zn3  1  0.995806  0.754747  0.000000  1
  Zn  Zn4  1  0.245253  0.241059  0.000000  1
  Zn  Zn5  1  0.758941  0.004194  0.000000  1
  Ni  Ni6  1  0.666667  0.333333  0.000000  1
  Ni  Ni7  1  0.000000  0.000000  0.500000  1
  Ir  Ir8  1  0.333333  0.666667  0.000000  1
