# generated using pymatgen
data_NdNpTc2F14
_symmetry_space_group_name_H-M   'P 1'
_cell_length_a   5.68410661
_cell_length_b   9.06032519
_cell_length_c   12.19137700
_cell_angle_alpha   62.36659014
_cell_angle_beta   89.83140172
_cell_angle_gamma   90.02176845
_symmetry_Int_Tables_number   1
_chemical_formula_structural   NdNpTc2F14
_chemical_formula_sum   'Nd2 Np2 Tc4 F28'
_cell_volume   556.23338668
_cell_formula_units_Z   2
loop_
 _symmetry_equiv_pos_site_id
 _symmetry_equiv_pos_as_xyz
  1  'x, y, z'
loop_
 _atom_site_type_symbol
 _atom_site_label
 _atom_site_symmetry_multiplicity
 _atom_site_fract_x
 _atom_site_fract_y
 _atom_site_fract_z
 _atom_site_occupancy
  Nd  Nd0  1  0.258732  0.808111  0.264364  1
  Nd  Nd1  1  0.741268  0.191889  0.735636  1
  Np  Np2  1  0.759442  0.188784  0.235284  1
  Np  Np3  1  0.240558  0.811216  0.764716  1
  Tc  Tc4  1  0.755468  0.725232  0.041708  1
  Tc  Tc5  1  0.244532  0.274768  0.958292  1
  Tc  Tc6  1  0.255756  0.271207  0.457527  1
  Tc  Tc7  1  0.744244  0.728793  0.542473  1
  F  F8  1  0.941919  0.710406  0.416626  1
  F  F9  1  0.058081  0.289594  0.583374  1
  F  F10  1  0.444448  0.290057  0.085299  1
  F  F11  1  0.555552  0.709943  0.914701  1
  F  F12  1  0.472249  0.727048  0.134043  1
  F  F13  1  0.527751  0.272952  0.865957  1
  F  F14  1  0.971435  0.269773  0.364704  1
  F  F15  1  0.028565  0.730227  0.635296  1
  F  F16  1  0.945175  0.742677  0.170627  1
  F  F17  1  0.054825  0.257323  0.829373  1
  F  F18  1  0.454072  0.257479  0.328646  1
  F  F19  1  0.545928  0.742521  0.671354  1
  F  F20  1  0.766324  0.480659  0.139867  1
  F  F21  1  0.233676  0.519341  0.860133  1
  F  F22  1  0.268915  0.514687  0.360276  1
  F  F23  1  0.731085  0.485313  0.639724  1
  F  F24  1  0.949824  0.281810  0.044464  1
  F  F25  1  0.050176  0.718190  0.955536  1
  F  F26  1  0.455536  0.721285  0.455092  1
  F  F27  1  0.544464  0.278715  0.544908  1
  F  F28  1  0.738847  0.974899  0.445724  1
  F  F29  1  0.261153  0.025101  0.554276  1
  F  F30  1  0.241483  0.030392  0.053470  1
  F  F31  1  0.758517  0.969608  0.946530  1
  F  F32  1  0.604320  0.967429  0.228170  1
  F  F33  1  0.395680  0.032571  0.771830  1
  F  F34  1  0.094101  0.039083  0.268929  1
  F  F35  1  0.905899  0.960917  0.731071  1
