# generated using pymatgen
data_Yb3(Pr2Ag5)2
_symmetry_space_group_name_H-M   'P 1'
_cell_length_a   8.97839880
_cell_length_b   8.97840098
_cell_length_c   10.72959300
_cell_angle_alpha   90.00000000
_cell_angle_beta   90.00000000
_cell_angle_gamma   107.34296957
_symmetry_Int_Tables_number   1
_chemical_formula_structural   Yb3(Pr2Ag5)2
_chemical_formula_sum   'Yb6 Pr8 Ag20'
_cell_volume   825.60846550
_cell_formula_units_Z   2
loop_
 _symmetry_equiv_pos_site_id
 _symmetry_equiv_pos_as_xyz
  1  'x, y, z'
loop_
 _atom_site_type_symbol
 _atom_site_label
 _atom_site_symmetry_multiplicity
 _atom_site_fract_x
 _atom_site_fract_y
 _atom_site_fract_z
 _atom_site_occupancy
  Yb  Yb0  1  0.014315  0.514315  0.250000  1
  Yb  Yb1  1  0.985685  0.485685  0.750000  1
  Yb  Yb2  1  0.485685  0.985685  0.750000  1
  Yb  Yb3  1  0.514315  0.014315  0.250000  1
  Yb  Yb4  1  0.000000  0.000000  0.000000  1
  Yb  Yb5  1  0.500000  0.500000  0.500000  1
  Pr  Pr6  1  0.703826  0.296174  0.000000  1
  Pr  Pr7  1  0.296174  0.703826  0.000000  1
  Pr  Pr8  1  0.796174  0.203826  0.500000  1
  Pr  Pr9  1  0.203826  0.796174  0.500000  1
  Pr  Pr10  1  0.307949  0.307949  0.200783  1
  Pr  Pr11  1  0.692051  0.692051  0.799217  1
  Pr  Pr12  1  0.192051  0.192051  0.700783  1
  Pr  Pr13  1  0.807949  0.807949  0.299217  1
  Ag  Ag14  1  0.098085  0.098085  0.404573  1
  Ag  Ag15  1  0.901915  0.901915  0.595427  1
  Ag  Ag16  1  0.401915  0.401915  0.904573  1
  Ag  Ag17  1  0.598085  0.598085  0.095427  1
  Ag  Ag18  1  0.884964  0.164284  0.209399  1
  Ag  Ag19  1  0.115036  0.835716  0.790601  1
  Ag  Ag20  1  0.615036  0.335716  0.709399  1
  Ag  Ag21  1  0.664284  0.384964  0.290601  1
  Ag  Ag22  1  0.384964  0.664284  0.290601  1
  Ag  Ag23  1  0.335716  0.615036  0.709399  1
  Ag  Ag24  1  0.835716  0.115036  0.790601  1
  Ag  Ag25  1  0.164284  0.884964  0.209399  1
  Ag  Ag26  1  0.927118  0.653119  0.015449  1
  Ag  Ag27  1  0.072882  0.346881  0.984551  1
  Ag  Ag28  1  0.572882  0.846881  0.515449  1
  Ag  Ag29  1  0.153119  0.427118  0.484551  1
  Ag  Ag30  1  0.427118  0.153119  0.484551  1
  Ag  Ag31  1  0.846881  0.572882  0.515449  1
  Ag  Ag32  1  0.346881  0.072882  0.984551  1
  Ag  Ag33  1  0.653119  0.927118  0.015449  1
