# generated using pymatgen
data_Yb3Pr8Ho9Sn16
_symmetry_space_group_name_H-M   'P 1'
_cell_length_a   8.02343919
_cell_length_b   8.37082267
_cell_length_c   15.73501300
_cell_angle_alpha   90.00000000
_cell_angle_beta   90.00000000
_cell_angle_gamma   90.04093732
_symmetry_Int_Tables_number   1
_chemical_formula_structural   Yb3Pr8Ho9Sn16
_chemical_formula_sum   'Yb3 Pr8 Ho9 Sn16'
_cell_volume   1056.80705248
_cell_formula_units_Z   1
loop_
 _symmetry_equiv_pos_site_id
 _symmetry_equiv_pos_as_xyz
  1  'x, y, z'
loop_
 _atom_site_type_symbol
 _atom_site_label
 _atom_site_symmetry_multiplicity
 _atom_site_fract_x
 _atom_site_fract_y
 _atom_site_fract_z
 _atom_site_occupancy
  Yb  Yb0  1  0.335147  0.997888  0.750000  1
  Yb  Yb1  1  0.164799  0.495490  0.250000  1
  Yb  Yb2  1  0.664578  0.002224  0.250000  1
  Pr  Pr3  1  0.505822  0.680151  0.597963  1
  Pr  Pr4  1  0.008295  0.822948  0.903562  1
  Pr  Pr5  1  0.491647  0.319741  0.096048  1
  Pr  Pr6  1  0.991234  0.179944  0.403826  1
  Pr  Pr7  1  0.491647  0.319741  0.403952  1
  Pr  Pr8  1  0.991234  0.179944  0.096174  1
  Pr  Pr9  1  0.505822  0.680151  0.902037  1
  Pr  Pr10  1  0.008295  0.822948  0.596438  1
  Ho  Ho11  1  0.667782  0.168631  0.625129  1
  Ho  Ho12  1  0.171318  0.331803  0.875077  1
  Ho  Ho13  1  0.331803  0.828807  0.123730  1
  Ho  Ho14  1  0.830759  0.668352  0.376743  1
  Ho  Ho15  1  0.331803  0.828807  0.376270  1
  Ho  Ho16  1  0.830759  0.668352  0.123257  1
  Ho  Ho17  1  0.667782  0.168631  0.874871  1
  Ho  Ho18  1  0.171318  0.331803  0.624923  1
  Ho  Ho19  1  0.837771  0.501973  0.750000  1
  Sn  Sn20  1  0.672962  0.959406  0.461666  1
  Sn  Sn21  1  0.173367  0.538126  0.038790  1
  Sn  Sn22  1  0.326780  0.040315  0.961172  1
  Sn  Sn23  1  0.827338  0.462469  0.542402  1
  Sn  Sn24  1  0.326780  0.040315  0.538828  1
  Sn  Sn25  1  0.827338  0.462469  0.957598  1
  Sn  Sn26  1  0.672962  0.959406  0.038334  1
  Sn  Sn27  1  0.173367  0.538126  0.461210  1
  Sn  Sn28  1  0.474608  0.382003  0.750000  1
  Sn  Sn29  1  0.970167  0.127889  0.750000  1
  Sn  Sn30  1  0.530667  0.621032  0.250000  1
  Sn  Sn31  1  0.030615  0.876427  0.250000  1
  Sn  Sn32  1  0.711104  0.859639  0.750000  1
  Sn  Sn33  1  0.201652  0.636507  0.750000  1
  Sn  Sn34  1  0.289759  0.132565  0.250000  1
  Sn  Sn35  1  0.790922  0.364978  0.250000  1
