# generated using pymatgen
data_HoNi3HgPt
_symmetry_space_group_name_H-M   'P 1'
_cell_length_a   5.13561399
_cell_length_b   5.13561375
_cell_length_c   5.13561548
_cell_angle_alpha   58.70863602
_cell_angle_beta   58.70863443
_cell_angle_gamma   58.70863964
_symmetry_Int_Tables_number   1
_chemical_formula_structural   HoNi3HgPt
_chemical_formula_sum   'Ho1 Ni3 Hg1 Pt1'
_cell_volume   92.95119975
_cell_formula_units_Z   1
loop_
 _symmetry_equiv_pos_site_id
 _symmetry_equiv_pos_as_xyz
  1  'x, y, z'
loop_
 _atom_site_type_symbol
 _atom_site_label
 _atom_site_symmetry_multiplicity
 _atom_site_fract_x
 _atom_site_fract_y
 _atom_site_fract_z
 _atom_site_occupancy
  Ho  Ho0  1  0.249818  0.249818  0.249818  1
  Ni  Ni1  1  0.624409  0.624409  0.121523  1
  Ni  Ni2  1  0.624409  0.121523  0.624409  1
  Ni  Ni3  1  0.121523  0.624409  0.624409  1
  Hg  Hg4  1  0.006244  0.006244  0.006244  1
  Pt  Pt5  1  0.623597  0.623597  0.623597  1
