# generated using pymatgen
data_Ho3ErTm4Ga3Co
_symmetry_space_group_name_H-M   'P 1'
_cell_length_a   9.89766100
_cell_length_b   9.89866316
_cell_length_c   6.88868500
_cell_angle_alpha   90.00055398
_cell_angle_beta   89.99863489
_cell_angle_gamma   119.99574835
_symmetry_Int_Tables_number   1
_chemical_formula_structural   Ho3ErTm4Ga3Co
_chemical_formula_sum   'Ho6 Er2 Tm8 Ga6 Co2'
_cell_volume   584.51368439
_cell_formula_units_Z   2
loop_
 _symmetry_equiv_pos_site_id
 _symmetry_equiv_pos_as_xyz
  1  'x, y, z'
loop_
 _atom_site_type_symbol
 _atom_site_label
 _atom_site_symmetry_multiplicity
 _atom_site_fract_x
 _atom_site_fract_y
 _atom_site_fract_z
 _atom_site_occupancy
  Ho  Ho0  1  0.463805  0.927584  0.208012  1
  Ho  Ho1  1  0.536054  0.463944  0.707938  1
  Ho  Ho2  1  0.927893  0.463940  0.707905  1
  Ho  Ho3  1  0.536098  0.072195  0.707943  1
  Ho  Ho4  1  0.999984  0.999993  0.231243  1
  Ho  Ho5  1  0.999968  0.999959  0.731266  1
  Er  Er6  1  0.463681  0.536277  0.207936  1
  Er  Er7  1  0.072606  0.536280  0.207882  1
  Tm  Tm8  1  0.173385  0.826444  0.511176  1
  Tm  Tm9  1  0.653056  0.826435  0.511171  1
  Tm  Tm10  1  0.173550  0.347089  0.511022  1
  Tm  Tm11  1  0.826684  0.173576  0.011448  1
  Tm  Tm12  1  0.346886  0.173573  0.011429  1
  Tm  Tm13  1  0.826524  0.653057  0.011571  1
  Tm  Tm14  1  0.333243  0.666492  0.827321  1
  Tm  Tm15  1  0.666733  0.333473  0.327038  1
  Ga  Ga16  1  0.163444  0.836373  0.958616  1
  Ga  Ga17  1  0.672927  0.836367  0.958623  1
  Ga  Ga18  1  0.163603  0.327198  0.958769  1
  Ga  Ga19  1  0.836518  0.163498  0.458499  1
  Ga  Ga20  1  0.326995  0.163504  0.458499  1
  Ga  Ga21  1  0.836495  0.673000  0.458421  1
  Co  Co22  1  0.333203  0.666411  0.444992  1
  Co  Co23  1  0.666666  0.333336  0.945323  1
