# generated using pymatgen
data_Tm4Hf3ZrPt4
_symmetry_space_group_name_H-M   'P 1'
_cell_length_a   4.64568300
_cell_length_b   7.01511579
_cell_length_c   8.19671454
_cell_angle_alpha   90.09009145
_cell_angle_beta   90.00000000
_cell_angle_gamma   90.00000000
_symmetry_Int_Tables_number   1
_chemical_formula_structural   Tm4Hf3ZrPt4
_chemical_formula_sum   'Tm4 Hf3 Zr1 Pt4'
_cell_volume   267.13063105
_cell_formula_units_Z   1
loop_
 _symmetry_equiv_pos_site_id
 _symmetry_equiv_pos_as_xyz
  1  'x, y, z'
loop_
 _atom_site_type_symbol
 _atom_site_label
 _atom_site_symmetry_multiplicity
 _atom_site_fract_x
 _atom_site_fract_y
 _atom_site_fract_z
 _atom_site_occupancy
  Tm  Tm0  1  0.250000  0.984333  0.324405  1
  Tm  Tm1  1  0.250000  0.482534  0.176737  1
  Tm  Tm2  1  0.750000  0.016670  0.679438  1
  Tm  Tm3  1  0.750000  0.517933  0.820404  1
  Hf  Hf4  1  0.250000  0.855033  0.923362  1
  Hf  Hf5  1  0.250000  0.352920  0.577524  1
  Hf  Hf6  1  0.750000  0.146570  0.077370  1
  Zr  Zr7  1  0.750000  0.647272  0.420391  1
  Pt  Pt8  1  0.250000  0.233122  0.903199  1
  Pt  Pt9  1  0.250000  0.731513  0.600998  1
  Pt  Pt10  1  0.750000  0.768121  0.091412  1
  Pt  Pt11  1  0.750000  0.263981  0.404759  1
