# generated using pymatgen
data_K4Si12AsP11
_symmetry_space_group_name_H-M   'P 1'
_cell_length_a   3.55881100
_cell_length_b   9.93983173
_cell_length_c   19.31393633
_cell_angle_alpha   89.95672535
_cell_angle_beta   90.00000000
_cell_angle_gamma   90.00000000
_symmetry_Int_Tables_number   1
_chemical_formula_structural   K4Si12AsP11
_chemical_formula_sum   'K4 Si12 As1 P11'
_cell_volume   683.21065109
_cell_formula_units_Z   1
loop_
 _symmetry_equiv_pos_site_id
 _symmetry_equiv_pos_as_xyz
  1  'x, y, z'
loop_
 _atom_site_type_symbol
 _atom_site_label
 _atom_site_symmetry_multiplicity
 _atom_site_fract_x
 _atom_site_fract_y
 _atom_site_fract_z
 _atom_site_occupancy
  K  K0  1  0.000000  0.308971  0.305882  1
  K  K1  1  0.000000  0.690444  0.693618  1
  K  K2  1  0.000000  0.190543  0.806215  1
  K  K3  1  0.000000  0.813875  0.198857  1
  Si  Si4  1  0.500000  0.402462  0.034480  1
  Si  Si5  1  0.500000  0.592895  0.962686  1
  Si  Si6  1  0.500000  0.096597  0.535337  1
  Si  Si7  1  0.500000  0.903427  0.464609  1
  Si  Si8  1  0.000000  0.115228  0.014469  1
  Si  Si9  1  0.000000  0.889052  0.983125  1
  Si  Si10  1  0.000000  0.385588  0.515495  1
  Si  Si11  1  0.000000  0.613957  0.485039  1
  Si  Si12  1  0.000000  0.179349  0.131768  1
  Si  Si13  1  0.000000  0.820670  0.866569  1
  Si  Si14  1  0.000000  0.320458  0.632562  1
  Si  Si15  1  0.000000  0.678400  0.368044  1
  As  As16  1  0.500000  0.780953  0.042635  1
  P  P17  1  0.500000  0.112686  0.193666  1
  P  P18  1  0.500000  0.888253  0.804839  1
  P  P19  1  0.500000  0.388129  0.694037  1
  P  P20  1  0.500000  0.610810  0.306503  1
  P  P21  1  0.500000  0.282411  0.462821  1
  P  P22  1  0.500000  0.717834  0.537269  1
  P  P23  1  0.500000  0.218151  0.962078  1
  P  P24  1  0.000000  0.409023  0.108652  1
  P  P25  1  0.000000  0.590594  0.888814  1
  P  P26  1  0.000000  0.090851  0.609381  1
  P  P27  1  0.000000  0.908389  0.390551  1
