# generated using pymatgen
data_Gd3(DyB4)5
_symmetry_space_group_name_H-M   'P 1'
_cell_length_a   7.12142126
_cell_length_b   7.11744525
_cell_length_c   7.14656348
_cell_angle_alpha   77.02909460
_cell_angle_beta   89.91941000
_cell_angle_gamma   90.05484032
_symmetry_Int_Tables_number   1
_chemical_formula_structural   Gd3(DyB4)5
_chemical_formula_sum   'Gd3 Dy5 B20'
_cell_volume   352.98971837
_cell_formula_units_Z   1
loop_
 _symmetry_equiv_pos_site_id
 _symmetry_equiv_pos_as_xyz
  1  'x, y, z'
loop_
 _atom_site_type_symbol
 _atom_site_label
 _atom_site_symmetry_multiplicity
 _atom_site_fract_x
 _atom_site_fract_y
 _atom_site_fract_z
 _atom_site_occupancy
  Gd  Gd0  1  0.191302  0.230273  0.872831  1
  Gd  Gd1  1  0.308311  0.229931  0.372716  1
  Gd  Gd2  1  0.808549  0.770409  0.127285  1
  Dy  Dy3  1  0.315703  0.756730  0.254121  1
  Dy  Dy4  1  0.814969  0.243552  0.246259  1
  Dy  Dy5  1  0.684448  0.243075  0.745635  1
  Dy  Dy6  1  0.184960  0.756623  0.753734  1
  Dy  Dy7  1  0.692980  0.766151  0.629097  1
  B  B8  1  0.502330  0.314540  0.040061  1
  B  B9  1  0.002100  0.685598  0.459934  1
  B  B10  1  0.498019  0.685680  0.959425  1
  B  B11  1  0.997515  0.314328  0.540299  1
  B  B12  1  0.490685  0.925409  0.925170  1
  B  B13  1  0.989153  0.074079  0.574782  1
  B  B14  1  0.509729  0.074650  0.073519  1
  B  B15  1  0.008826  0.925343  0.426149  1
  B  B16  1  0.326354  0.496863  0.039738  1
  B  B17  1  0.826125  0.503317  0.460327  1
  B  B18  1  0.673924  0.503513  0.960053  1
  B  B19  1  0.173724  0.496818  0.539692  1
  B  B20  1  0.910748  0.499491  0.910644  1
  B  B21  1  0.410914  0.502101  0.589071  1
  B  B22  1  0.089187  0.501435  0.089052  1
  B  B23  1  0.589365  0.499412  0.410748  1
  B  B24  1  0.961418  0.496863  0.674248  1
  B  B25  1  0.461955  0.503346  0.825587  1
  B  B26  1  0.038278  0.503442  0.325702  1
  B  B27  1  0.538428  0.497030  0.174121  1
