# generated using pymatgen
data_Ho2Cr3Co9P7
_symmetry_space_group_name_H-M   'P 1'
_cell_length_a   8.95825800
_cell_length_b   8.95825713
_cell_length_c   3.64122400
_cell_angle_alpha   90.00000000
_cell_angle_beta   90.00000000
_cell_angle_gamma   120.00000320
_symmetry_Int_Tables_number   1
_chemical_formula_structural   Ho2Cr3Co9P7
_chemical_formula_sum   'Ho2 Cr3 Co9 P7'
_cell_volume   253.06093269
_cell_formula_units_Z   1
loop_
 _symmetry_equiv_pos_site_id
 _symmetry_equiv_pos_as_xyz
  1  'x, y, z'
loop_
 _atom_site_type_symbol
 _atom_site_label
 _atom_site_symmetry_multiplicity
 _atom_site_fract_x
 _atom_site_fract_y
 _atom_site_fract_z
 _atom_site_occupancy
  Ho  Ho0  1  0.000000  0.000000  0.000000  1
  Ho  Ho1  1  0.333333  0.666667  0.500000  1
  Cr  Cr2  1  0.544955  0.116405  0.500000  1
  Cr  Cr3  1  0.571450  0.455045  0.500000  1
  Cr  Cr4  1  0.883595  0.428550  0.500000  1
  Co  Co5  1  0.294883  0.901214  0.000000  1
  Co  Co6  1  0.606331  0.705117  0.000000  1
  Co  Co7  1  0.098786  0.393669  0.000000  1
  Co  Co8  1  0.786825  0.176576  0.000000  1
  Co  Co9  1  0.389750  0.213175  0.000000  1
  Co  Co10  1  0.823424  0.610250  0.000000  1
  Co  Co11  1  0.716293  0.948908  0.500000  1
  Co  Co12  1  0.232616  0.283707  0.500000  1
  Co  Co13  1  0.051092  0.767384  0.500000  1
  P  P14  1  0.553589  0.924951  0.000000  1
  P  P15  1  0.371363  0.446411  0.000000  1
  P  P16  1  0.075049  0.628637  0.000000  1
  P  P17  1  0.956813  0.220540  0.500000  1
  P  P18  1  0.263727  0.043187  0.500000  1
  P  P19  1  0.779460  0.736273  0.500000  1
  P  P20  1  0.666667  0.333333  0.000000  1
