# generated using pymatgen
data_CaSn6PdRu3
_symmetry_space_group_name_H-M   'P 1'
_cell_length_a   6.98510412
_cell_length_b   6.99406904
_cell_length_c   6.99080114
_cell_angle_alpha   120.08353583
_cell_angle_beta   120.04117338
_cell_angle_gamma   89.88205935
_symmetry_Int_Tables_number   1
_chemical_formula_structural   CaSn6PdRu3
_chemical_formula_sum   'Ca1 Sn6 Pd1 Ru3'
_cell_volume   241.29151709
_cell_formula_units_Z   1
loop_
 _symmetry_equiv_pos_site_id
 _symmetry_equiv_pos_as_xyz
  1  'x, y, z'
loop_
 _atom_site_type_symbol
 _atom_site_label
 _atom_site_symmetry_multiplicity
 _atom_site_fract_x
 _atom_site_fract_y
 _atom_site_fract_z
 _atom_site_occupancy
  Ca  Ca0  1  0.004581  0.000483  0.000000  1
  Sn  Sn1  1  0.883165  0.541099  0.000000  1
  Sn  Sn2  1  0.530569  0.872433  0.000000  1
  Sn  Sn3  1  0.467413  0.480955  0.362109  1
  Sn  Sn4  1  0.498505  0.002068  0.486998  1
  Sn  Sn5  1  0.011507  0.515070  0.513002  1
  Sn  Sn6  1  0.105305  0.118847  0.637892  1
  Pd  Pd7  1  0.591142  0.240641  0.000000  1
  Ru  Ru8  1  0.249899  0.585474  0.000000  1
  Ru  Ru9  1  0.748416  0.740923  0.338917  1
  Ru  Ru10  1  0.409500  0.402007  0.661084  1
