# generated using pymatgen
data_LiNb3Sb4IrRh3
_symmetry_space_group_name_H-M   'P 1'
_cell_length_a   6.23140734
_cell_length_b   6.23102259
_cell_length_c   7.59139887
_cell_angle_alpha   114.27288064
_cell_angle_beta   114.09235884
_cell_angle_gamma   90.10952481
_symmetry_Int_Tables_number   1
_chemical_formula_structural   LiNb3Sb4IrRh3
_chemical_formula_sum   'Li1 Nb3 Sb4 Ir1 Rh3'
_cell_volume   240.13939714
_cell_formula_units_Z   1
loop_
 _symmetry_equiv_pos_site_id
 _symmetry_equiv_pos_as_xyz
  1  'x, y, z'
loop_
 _atom_site_type_symbol
 _atom_site_label
 _atom_site_symmetry_multiplicity
 _atom_site_fract_x
 _atom_site_fract_y
 _atom_site_fract_z
 _atom_site_occupancy
  Li  Li0  1  0.500294  0.499946  0.000245  1
  Nb  Nb1  1  0.000180  0.999994  0.000176  1
  Nb  Nb2  1  0.749864  0.250108  0.499860  1
  Nb  Nb3  1  0.249711  0.750013  0.499861  1
  Sb  Sb4  1  0.497915  0.998710  0.998327  1
  Sb  Sb5  1  0.999611  0.500382  0.998311  1
  Sb  Sb6  1  0.736394  0.739829  0.476316  1
  Sb  Sb7  1  0.265565  0.261361  0.526823  1
  Ir  Ir8  1  0.896900  0.365523  0.262421  1
  Rh  Rh9  1  0.365692  0.895213  0.260912  1
  Rh  Rh10  1  0.104270  0.104809  0.738373  1
  Rh  Rh11  1  0.633602  0.634110  0.738373  1
