# generated using pymatgen
data_Sm3Bi(Rh2O7)2
_symmetry_space_group_name_H-M   'P 1'
_cell_length_a   7.33709669
_cell_length_b   7.33709632
_cell_length_c   7.33709676
_cell_angle_alpha   59.81230393
_cell_angle_beta   59.81230643
_cell_angle_gamma   59.81230054
_symmetry_Int_Tables_number   1
_chemical_formula_structural   Sm3Bi(Rh2O7)2
_chemical_formula_sum   'Sm3 Bi1 Rh4 O14'
_cell_volume   278.10156221
_cell_formula_units_Z   1
loop_
 _symmetry_equiv_pos_site_id
 _symmetry_equiv_pos_as_xyz
  1  'x, y, z'
loop_
 _atom_site_type_symbol
 _atom_site_label
 _atom_site_symmetry_multiplicity
 _atom_site_fract_x
 _atom_site_fract_y
 _atom_site_fract_z
 _atom_site_occupancy
  Sm  Sm0  1  0.125000  0.625000  0.125000  1
  Sm  Sm1  1  0.625000  0.125000  0.125000  1
  Sm  Sm2  1  0.125000  0.125000  0.625000  1
  Bi  Bi3  1  0.125000  0.125000  0.125000  1
  Rh  Rh4  1  0.625000  0.625000  0.625000  1
  Rh  Rh5  1  0.625000  0.625000  0.125000  1
  Rh  Rh6  1  0.125000  0.625000  0.625000  1
  Rh  Rh7  1  0.625000  0.125000  0.625000  1
  O  O8  1  0.250207  0.250207  0.250207  1
  O  O9  1  0.291899  0.707098  0.291899  1
  O  O10  1  0.958101  0.958101  0.542902  1
  O  O11  1  0.540372  0.959989  0.540372  1
  O  O12  1  0.709628  0.709628  0.290011  1
  O  O13  1  0.959989  0.540372  0.540372  1
  O  O14  1  0.709628  0.290011  0.709628  1
  O  O15  1  0.291899  0.291899  0.707098  1
  O  O16  1  0.707098  0.291899  0.291899  1
  O  O17  1  0.290011  0.709628  0.709628  1
  O  O18  1  0.958101  0.542902  0.958101  1
  O  O19  1  0.540372  0.540372  0.959989  1
  O  O20  1  0.999793  0.999793  0.999793  1
  O  O21  1  0.542902  0.958101  0.958101  1
