# generated using pymatgen
data_Cs12K3Rb3(GaSb4)2
_symmetry_space_group_name_H-M   'P 1'
_cell_length_a   11.19218091
_cell_length_b   11.26165412
_cell_length_c   11.82654600
_cell_angle_alpha   90.00000000
_cell_angle_beta   90.00000000
_cell_angle_gamma   119.36587943
_symmetry_Int_Tables_number   1
_chemical_formula_structural   Cs12K3Rb3(GaSb4)2
_chemical_formula_sum   'Cs12 K3 Rb3 Ga2 Sb8'
_cell_volume   1299.10786531
_cell_formula_units_Z   1
loop_
 _symmetry_equiv_pos_site_id
 _symmetry_equiv_pos_as_xyz
  1  'x, y, z'
loop_
 _atom_site_type_symbol
 _atom_site_label
 _atom_site_symmetry_multiplicity
 _atom_site_fract_x
 _atom_site_fract_y
 _atom_site_fract_z
 _atom_site_occupancy
  Cs  Cs0  1  0.582065  0.791413  0.542437  1
  Cs  Cs1  1  0.791451  0.582027  0.042359  1
  Cs  Cs2  1  0.208655  0.417198  0.543146  1
  Cs  Cs3  1  0.208866  0.791958  0.541084  1
  Cs  Cs4  1  0.791245  0.208847  0.040321  1
  Cs  Cs5  1  0.416925  0.208089  0.040968  1
  Cs  Cs6  1  0.791451  0.582027  0.457642  1
  Cs  Cs7  1  0.791245  0.208847  0.459679  1
  Cs  Cs8  1  0.416925  0.208089  0.459033  1
  Cs  Cs9  1  0.582065  0.791413  0.957563  1
  Cs  Cs10  1  0.208866  0.791958  0.958916  1
  Cs  Cs11  1  0.208655  0.417198  0.956854  1
  K  K12  1  0.120896  0.879537  0.250000  1
  K  K13  1  0.880772  0.120680  0.750000  1
  K  K14  1  0.239693  0.120446  0.750000  1
  Rb  Rb15  1  0.119336  0.237757  0.250000  1
  Rb  Rb16  1  0.881388  0.762849  0.750000  1
  Rb  Rb17  1  0.763144  0.881203  0.250000  1
  Ga  Ga18  1  0.333205  0.666800  0.250000  1
  Ga  Ga19  1  0.666711  0.333097  0.750000  1
  Sb  Sb20  1  0.002536  0.001401  0.997366  1
  Sb  Sb21  1  0.002536  0.001401  0.502634  1
  Sb  Sb22  1  0.472825  0.528339  0.250000  1
  Sb  Sb23  1  0.523180  0.467330  0.750000  1
  Sb  Sb24  1  0.466622  0.942632  0.250000  1
  Sb  Sb25  1  0.056377  0.533500  0.250000  1
  Sb  Sb26  1  0.942981  0.466222  0.750000  1
  Sb  Sb27  1  0.529388  0.057743  0.750000  1
