# generated using pymatgen
data_Er16In4FePd3
_symmetry_space_group_name_H-M   'P 1'
_cell_length_a   9.61618090
_cell_length_b   9.61618174
_cell_length_c   9.61618175
_cell_angle_alpha   59.81313923
_cell_angle_beta   59.81313786
_cell_angle_gamma   59.81314498
_symmetry_Int_Tables_number   1
_chemical_formula_structural   Er16In4FePd3
_chemical_formula_sum   'Er16 In4 Fe1 Pd3'
_cell_volume   626.10470320
_cell_formula_units_Z   1
loop_
 _symmetry_equiv_pos_site_id
 _symmetry_equiv_pos_as_xyz
  1  'x, y, z'
loop_
 _atom_site_type_symbol
 _atom_site_label
 _atom_site_symmetry_multiplicity
 _atom_site_fract_x
 _atom_site_fract_y
 _atom_site_fract_z
 _atom_site_occupancy
  Er  Er0  1  0.189769  0.189769  0.809936  1
  Er  Er1  1  0.442707  0.061331  0.061331  1
  Er  Er2  1  0.436565  0.065180  0.436565  1
  Er  Er3  1  0.061331  0.442707  0.061331  1
  Er  Er4  1  0.653288  0.052077  0.653288  1
  Er  Er5  1  0.178395  0.812024  0.812024  1
  Er  Er6  1  0.061331  0.061331  0.442707  1
  Er  Er7  1  0.809936  0.189769  0.189769  1
  Er  Er8  1  0.812024  0.812024  0.178395  1
  Er  Er9  1  0.653288  0.653288  0.052077  1
  Er  Er10  1  0.646982  0.646982  0.646982  1
  Er  Er11  1  0.065180  0.436565  0.436565  1
  Er  Er12  1  0.052077  0.653288  0.653288  1
  Er  Er13  1  0.812024  0.178395  0.812024  1
  Er  Er14  1  0.436565  0.436565  0.065180  1
  Er  Er15  1  0.189769  0.809936  0.189769  1
  In  In16  1  0.416477  0.749856  0.416477  1
  In  In17  1  0.416477  0.416477  0.749856  1
  In  In18  1  0.749856  0.416477  0.416477  1
  In  In19  1  0.416445  0.416445  0.416445  1
  Fe  Fe20  1  0.857081  0.857081  0.857081  1
  Pd  Pd21  1  0.856106  0.430225  0.856106  1
  Pd  Pd22  1  0.856106  0.856106  0.430225  1
  Pd  Pd23  1  0.430225  0.856106  0.856106  1
