# generated using pymatgen
data_Tb4Pd3PtF28
_symmetry_space_group_name_H-M   'P 1'
_cell_length_a   5.54261826
_cell_length_b   8.91366888
_cell_length_c   11.98799737
_cell_angle_alpha   62.35111237
_cell_angle_beta   89.99037201
_cell_angle_gamma   90.02543764
_symmetry_Int_Tables_number   1
_chemical_formula_structural   Tb4Pd3PtF28
_chemical_formula_sum   'Tb4 Pd3 Pt1 F28'
_cell_volume   524.63540555
_cell_formula_units_Z   1
loop_
 _symmetry_equiv_pos_site_id
 _symmetry_equiv_pos_as_xyz
  1  'x, y, z'
loop_
 _atom_site_type_symbol
 _atom_site_label
 _atom_site_symmetry_multiplicity
 _atom_site_fract_x
 _atom_site_fract_y
 _atom_site_fract_z
 _atom_site_occupancy
  Tb  Tb0  1  0.261287  0.813781  0.263063  1
  Tb  Tb1  1  0.738151  0.185463  0.736607  1
  Tb  Tb2  1  0.762057  0.186741  0.236199  1
  Tb  Tb3  1  0.237928  0.813694  0.764780  1
  Pd  Pd4  1  0.758571  0.726940  0.042555  1
  Pd  Pd5  1  0.241134  0.272810  0.957601  1
  Pd  Pd6  1  0.259199  0.273038  0.457351  1
  Pt  Pt7  1  0.741358  0.727037  0.542466  1
  F  F8  1  0.936132  0.705387  0.413760  1
  F  F9  1  0.065499  0.294328  0.584761  1
  F  F10  1  0.434604  0.294467  0.084754  1
  F  F11  1  0.565333  0.705450  0.915232  1
  F  F12  1  0.467057  0.727402  0.132822  1
  F  F13  1  0.532557  0.272568  0.866891  1
  F  F14  1  0.968142  0.273621  0.366259  1
  F  F15  1  0.035359  0.727679  0.633974  1
  F  F16  1  0.948082  0.741922  0.174079  1
  F  F17  1  0.051340  0.257836  0.825870  1
  F  F18  1  0.448364  0.258434  0.325368  1
  F  F19  1  0.550474  0.742576  0.675292  1
  F  F20  1  0.768955  0.480894  0.140081  1
  F  F21  1  0.230641  0.518988  0.860146  1
  F  F22  1  0.270600  0.519108  0.359188  1
  F  F23  1  0.732028  0.478681  0.640794  1
  F  F24  1  0.943561  0.281431  0.041719  1
  F  F25  1  0.056489  0.718355  0.958653  1
  F  F26  1  0.441161  0.718803  0.457501  1
  F  F27  1  0.556499  0.281125  0.541980  1
  F  F28  1  0.740574  0.975371  0.449740  1
  F  F29  1  0.258947  0.027043  0.549659  1
  F  F30  1  0.240930  0.026957  0.049175  1
  F  F31  1  0.759155  0.972811  0.950723  1
  F  F32  1  0.589703  0.968625  0.231665  1
  F  F33  1  0.409304  0.031548  0.769246  1
  F  F34  1  0.089564  0.031206  0.268594  1
  F  F35  1  0.909259  0.967881  0.731450  1
