# generated using pymatgen
data_Ce2SnRhAu
_symmetry_space_group_name_H-M   'P 1'
_cell_length_a   7.89035272
_cell_length_b   7.89035310
_cell_length_c   3.79055000
_cell_angle_alpha   90.00000000
_cell_angle_beta   90.00000000
_cell_angle_gamma   89.30977451
_symmetry_Int_Tables_number   1
_chemical_formula_structural   Ce2SnRhAu
_chemical_formula_sum   'Ce4 Sn2 Rh2 Au2'
_cell_volume   235.97368375
_cell_formula_units_Z   2
loop_
 _symmetry_equiv_pos_site_id
 _symmetry_equiv_pos_as_xyz
  1  'x, y, z'
loop_
 _atom_site_type_symbol
 _atom_site_label
 _atom_site_symmetry_multiplicity
 _atom_site_fract_x
 _atom_site_fract_y
 _atom_site_fract_z
 _atom_site_occupancy
  Ce  Ce0  1  0.662149  0.162149  0.500000  1
  Ce  Ce1  1  0.337851  0.837851  0.500000  1
  Ce  Ce2  1  0.186180  0.313820  0.500000  1
  Ce  Ce3  1  0.813820  0.686180  0.500000  1
  Sn  Sn4  1  0.000000  0.000000  0.000000  1
  Sn  Sn5  1  0.500000  0.500000  0.000000  1
  Rh  Rh6  1  0.634276  0.865724  0.000000  1
  Rh  Rh7  1  0.365724  0.134276  0.000000  1
  Au  Au8  1  0.127466  0.627466  0.000000  1
  Au  Au9  1  0.872534  0.372534  0.000000  1
