# generated using pymatgen
data_Sr7Ru4O19
_symmetry_space_group_name_H-M   'P 1'
_cell_length_a   7.42932540
_cell_length_b   7.42932418
_cell_length_c   10.50469374
_cell_angle_alpha   82.13118125
_cell_angle_beta   82.13119546
_cell_angle_gamma   44.20881740
_symmetry_Int_Tables_number   1
_chemical_formula_structural   Sr7Ru4O19
_chemical_formula_sum   'Sr7 Ru4 O19'
_cell_volume   399.84579585
_cell_formula_units_Z   1
loop_
 _symmetry_equiv_pos_site_id
 _symmetry_equiv_pos_as_xyz
  1  'x, y, z'
loop_
 _atom_site_type_symbol
 _atom_site_label
 _atom_site_symmetry_multiplicity
 _atom_site_fract_x
 _atom_site_fract_y
 _atom_site_fract_z
 _atom_site_occupancy
  Sr  Sr0  1  0.859830  0.859830  0.951961  1
  Sr  Sr1  1  0.419570  0.419573  0.167115  1
  Sr  Sr2  1  0.799970  0.799970  0.589178  1
  Sr  Sr3  1  0.200030  0.200030  0.410822  1
  Sr  Sr4  1  0.580430  0.580427  0.832885  1
  Sr  Sr5  1  0.140170  0.140170  0.048039  1
  Sr  Sr6  1  0.500000  0.500000  0.500000  1
  Ru  Ru7  1  0.964826  0.964826  0.320422  1
  Ru  Ru8  1  0.327235  0.327234  0.783848  1
  Ru  Ru9  1  0.672765  0.672766  0.216152  1
  Ru  Ru10  1  0.035174  0.035174  0.679578  1
  O  O11  1  0.683634  0.173392  0.713110  1
  O  O12  1  0.173392  0.683635  0.713110  1
  O  O13  1  0.397053  0.397053  0.932055  1
  O  O14  1  0.952827  0.952827  0.143729  1
  O  O15  1  0.628592  0.118515  0.372645  1
  O  O16  1  0.118514  0.628593  0.372646  1
  O  O17  1  0.299066  0.299066  0.617465  1
  O  O18  1  0.998664  0.481234  0.848283  1
  O  O19  1  0.481234  0.998665  0.848283  1
  O  O20  1  0.518766  0.001335  0.151717  1
  O  O21  1  0.001336  0.518766  0.151717  1
  O  O22  1  0.700934  0.700934  0.382535  1
  O  O23  1  0.371408  0.881485  0.627355  1
  O  O24  1  0.881486  0.371407  0.627354  1
  O  O25  1  0.047173  0.047173  0.856271  1
  O  O26  1  0.602947  0.602947  0.067945  1
  O  O27  1  0.826608  0.316365  0.286890  1
  O  O28  1  0.316366  0.826608  0.286890  1
  O  O29  1  0.000000  0.000000  0.500000  1
