# generated using pymatgen
data_Sc(H4Ir)3
_symmetry_space_group_name_H-M   'P 1'
_cell_length_a   5.96708186
_cell_length_b   5.90433306
_cell_length_c   5.90433400
_cell_angle_alpha   60.00000593
_cell_angle_beta   60.34726121
_cell_angle_gamma   60.34725568
_symmetry_Int_Tables_number   1
_chemical_formula_structural   Sc(H4Ir)3
_chemical_formula_sum   'Sc1 H12 Ir3'
_cell_volume   147.85924384
_cell_formula_units_Z   1
loop_
 _symmetry_equiv_pos_site_id
 _symmetry_equiv_pos_as_xyz
  1  'x, y, z'
loop_
 _atom_site_type_symbol
 _atom_site_label
 _atom_site_symmetry_multiplicity
 _atom_site_fract_x
 _atom_site_fract_y
 _atom_site_fract_z
 _atom_site_occupancy
  Sc  Sc0  1  0.625000  0.125000  0.125000  1
  H  H1  1  0.786201  0.709686  0.252057  1
  H  H2  1  0.215623  0.252015  0.766180  1
  H  H3  1  0.786201  0.252057  0.709686  1
  H  H4  1  0.215623  0.766180  0.252015  1
  H  H5  1  0.215623  0.766180  0.766180  1
  H  H6  1  0.786201  0.252057  0.252057  1
  H  H7  1  0.463799  0.540314  0.997943  1
  H  H8  1  0.034377  0.997985  0.483820  1
  H  H9  1  0.463799  0.997943  0.540314  1
  H  H10  1  0.034377  0.483820  0.997985  1
  H  H11  1  0.034377  0.483820  0.483820  1
  H  H12  1  0.463799  0.997943  0.997943  1
  Ir  Ir13  1  0.125000  0.625000  0.125000  1
  Ir  Ir14  1  0.125000  0.125000  0.625000  1
  Ir  Ir15  1  0.125000  0.125000  0.125000  1
