# generated using pymatgen
data_YTa8NiS16
_symmetry_space_group_name_H-M   'P 1'
_cell_length_a   6.67900300
_cell_length_b   6.67900302
_cell_length_c   12.91720200
_cell_angle_alpha   90.00000000
_cell_angle_beta   90.00000000
_cell_angle_gamma   120.00000487
_symmetry_Int_Tables_number   1
_chemical_formula_structural   YTa8NiS16
_chemical_formula_sum   'Y1 Ta8 Ni1 S16'
_cell_volume   499.02504175
_cell_formula_units_Z   1
loop_
 _symmetry_equiv_pos_site_id
 _symmetry_equiv_pos_as_xyz
  1  'x, y, z'
loop_
 _atom_site_type_symbol
 _atom_site_label
 _atom_site_symmetry_multiplicity
 _atom_site_fract_x
 _atom_site_fract_y
 _atom_site_fract_z
 _atom_site_occupancy
  Y  Y0  1  0.000000  0.000000  0.500000  1
  Ta  Ta1  1  0.505090  0.494910  0.768263  1
  Ta  Ta2  1  0.010179  0.505090  0.231737  1
  Ta  Ta3  1  0.494910  0.989821  0.231737  1
  Ta  Ta4  1  0.505090  0.010179  0.768263  1
  Ta  Ta5  1  0.989821  0.494910  0.768263  1
  Ta  Ta6  1  0.494910  0.505090  0.231737  1
  Ta  Ta7  1  0.000000  0.000000  0.766445  1
  Ta  Ta8  1  0.000000  0.000000  0.233555  1
  Ni  Ni9  1  0.000000  0.000000  0.000000  1
  S  S10  1  0.830786  0.169214  0.353974  1
  S  S11  1  0.830786  0.661572  0.353974  1
  S  S12  1  0.338428  0.169214  0.353974  1
  S  S13  1  0.665477  0.832739  0.887115  1
  S  S14  1  0.169214  0.338428  0.646026  1
  S  S15  1  0.167261  0.832739  0.887115  1
  S  S16  1  0.167261  0.334523  0.887115  1
  S  S17  1  0.832739  0.167261  0.112885  1
  S  S18  1  0.334523  0.167261  0.112885  1
  S  S19  1  0.661572  0.830786  0.646026  1
  S  S20  1  0.333333  0.666667  0.109291  1
  S  S21  1  0.666667  0.333333  0.642648  1
  S  S22  1  0.666667  0.333333  0.890709  1
  S  S23  1  0.333333  0.666667  0.357352  1
  S  S24  1  0.832739  0.665477  0.112885  1
  S  S25  1  0.169214  0.830786  0.646026  1
