# generated using pymatgen
data_Sm8Si13Ir3
_symmetry_space_group_name_H-M   'P 1'
_cell_length_a   8.20724500
_cell_length_b   8.20724604
_cell_length_c   8.29499500
_cell_angle_alpha   90.00000000
_cell_angle_beta   90.00000000
_cell_angle_gamma   120.00000790
_symmetry_Int_Tables_number   1
_chemical_formula_structural   Sm8Si13Ir3
_chemical_formula_sum   'Sm8 Si13 Ir3'
_cell_volume   483.88435068
_cell_formula_units_Z   1
loop_
 _symmetry_equiv_pos_site_id
 _symmetry_equiv_pos_as_xyz
  1  'x, y, z'
loop_
 _atom_site_type_symbol
 _atom_site_label
 _atom_site_symmetry_multiplicity
 _atom_site_fract_x
 _atom_site_fract_y
 _atom_site_fract_z
 _atom_site_occupancy
  Sm  Sm0  1  0.499322  0.500678  0.748065  1
  Sm  Sm1  1  0.499940  0.500060  0.251833  1
  Sm  Sm2  1  0.001357  0.500678  0.748065  1
  Sm  Sm3  1  0.000122  0.500060  0.251833  1
  Sm  Sm4  1  0.499322  0.998643  0.748065  1
  Sm  Sm5  1  0.499940  0.999878  0.251833  1
  Sm  Sm6  1  0.000000  0.000000  0.749699  1
  Sm  Sm7  1  0.000000  0.000000  0.250773  1
  Si  Si8  1  0.666667  0.333333  0.998459  1
  Si  Si9  1  0.835789  0.164211  0.000644  1
  Si  Si10  1  0.168501  0.831499  0.999424  1
  Si  Si11  1  0.328421  0.164211  0.000644  1
  Si  Si12  1  0.167142  0.832858  0.499718  1
  Si  Si13  1  0.662998  0.831499  0.999424  1
  Si  Si14  1  0.832855  0.167145  0.500341  1
  Si  Si15  1  0.835789  0.671579  0.000644  1
  Si  Si16  1  0.665716  0.832858  0.499718  1
  Si  Si17  1  0.168501  0.337002  0.999424  1
  Si  Si18  1  0.334292  0.167145  0.500341  1
  Si  Si19  1  0.167142  0.334284  0.499718  1
  Si  Si20  1  0.832855  0.665708  0.500341  1
  Ir  Ir21  1  0.333333  0.666667  0.001461  1
  Ir  Ir22  1  0.333333  0.666667  0.499187  1
  Ir  Ir23  1  0.666667  0.333333  0.500352  1
