# generated using pymatgen
data_Dy4Zn10SiPb
_symmetry_space_group_name_H-M   'P 1'
_cell_length_a   8.30132894
_cell_length_b   8.30132922
_cell_length_c   8.90669600
_cell_angle_alpha   90.00000000
_cell_angle_beta   90.00000000
_cell_angle_gamma   149.78965285
_symmetry_Int_Tables_number   1
_chemical_formula_structural   Dy4Zn10SiPb
_chemical_formula_sum   'Dy4 Zn10 Si1 Pb1'
_cell_volume   308.83877785
_cell_formula_units_Z   1
loop_
 _symmetry_equiv_pos_site_id
 _symmetry_equiv_pos_as_xyz
  1  'x, y, z'
loop_
 _atom_site_type_symbol
 _atom_site_label
 _atom_site_symmetry_multiplicity
 _atom_site_fract_x
 _atom_site_fract_y
 _atom_site_fract_z
 _atom_site_occupancy
  Dy  Dy0  1  0.198784  0.801216  0.250000  1
  Dy  Dy1  1  0.796816  0.203184  0.750000  1
  Dy  Dy2  1  0.000945  0.999055  0.477412  1
  Dy  Dy3  1  0.000945  0.999055  0.022588  1
  Zn  Zn4  1  0.812583  0.187417  0.390276  1
  Zn  Zn5  1  0.186324  0.813676  0.605687  1
  Zn  Zn6  1  0.812583  0.187417  0.109724  1
  Zn  Zn7  1  0.186324  0.813676  0.894313  1
  Zn  Zn8  1  0.648940  0.351060  0.472183  1
  Zn  Zn9  1  0.343112  0.656888  0.514391  1
  Zn  Zn10  1  0.648940  0.351060  0.027817  1
  Zn  Zn11  1  0.343112  0.656888  0.985609  1
  Zn  Zn12  1  0.402832  0.597168  0.250000  1
  Zn  Zn13  1  0.612492  0.387508  0.750000  1
  Si  Si14  1  0.555779  0.444221  0.250000  1
  Pb  Pb15  1  0.449488  0.550512  0.750000  1
