# generated using pymatgen
data_CeNdSn5Rh3
_symmetry_space_group_name_H-M   'P 1'
_cell_length_a   13.60326725
_cell_length_b   13.60326792
_cell_length_c   7.30099300
_cell_angle_alpha   90.00000000
_cell_angle_beta   90.00000000
_cell_angle_gamma   160.98052408
_symmetry_Int_Tables_number   1
_chemical_formula_structural   CeNdSn5Rh3
_chemical_formula_sum   'Ce2 Nd2 Sn10 Rh6'
_cell_volume   440.29000742
_cell_formula_units_Z   2
loop_
 _symmetry_equiv_pos_site_id
 _symmetry_equiv_pos_as_xyz
  1  'x, y, z'
loop_
 _atom_site_type_symbol
 _atom_site_label
 _atom_site_symmetry_multiplicity
 _atom_site_fract_x
 _atom_site_fract_y
 _atom_site_fract_z
 _atom_site_occupancy
  Ce  Ce0  1  0.475317  0.524683  0.735382  1
  Ce  Ce1  1  0.524683  0.475317  0.235382  1
  Nd  Nd2  1  0.172726  0.827274  0.753995  1
  Nd  Nd3  1  0.827274  0.172726  0.253995  1
  Sn  Sn4  1  0.879807  0.120193  0.731482  1
  Sn  Sn5  1  0.120193  0.879807  0.231482  1
  Sn  Sn6  1  0.704428  0.295572  0.049583  1
  Sn  Sn7  1  0.295572  0.704428  0.549583  1
  Sn  Sn8  1  0.596096  0.403904  0.614029  1
  Sn  Sn9  1  0.403904  0.596096  0.114029  1
  Sn  Sn10  1  0.952009  0.047991  0.397899  1
  Sn  Sn11  1  0.047991  0.952009  0.897899  1
  Sn  Sn12  1  0.290142  0.709858  0.975200  1
  Sn  Sn13  1  0.709858  0.290142  0.475200  1
  Rh  Rh14  1  0.050321  0.949679  0.518001  1
  Rh  Rh15  1  0.949679  0.050321  0.018001  1
  Rh  Rh16  1  0.777967  0.222033  0.763506  1
  Rh  Rh17  1  0.222033  0.777967  0.263506  1
  Rh  Rh18  1  0.396140  0.603860  0.488922  1
  Rh  Rh19  1  0.603860  0.396140  0.988922  1
