# generated using pymatgen
data_VTc6IrO24
_symmetry_space_group_name_H-M   'P 1'
_cell_length_a   10.27164082
_cell_length_b   10.27151573
_cell_length_c   10.27149900
_cell_angle_alpha   49.14566264
_cell_angle_beta   49.14530734
_cell_angle_gamma   49.14526123
_symmetry_Int_Tables_number   1
_chemical_formula_structural   VTc6IrO24
_chemical_formula_sum   'V1 Tc6 Ir1 O24'
_cell_volume   569.44412547
_cell_formula_units_Z   1
loop_
 _symmetry_equiv_pos_site_id
 _symmetry_equiv_pos_as_xyz
  1  'x, y, z'
loop_
 _atom_site_type_symbol
 _atom_site_label
 _atom_site_symmetry_multiplicity
 _atom_site_fract_x
 _atom_site_fract_y
 _atom_site_fract_z
 _atom_site_occupancy
  V  V0  1  0.500000  0.500000  0.500000  1
  Tc  Tc1  1  0.593589  0.907317  0.248826  1
  Tc  Tc2  1  0.248845  0.593578  0.907324  1
  Tc  Tc3  1  0.907329  0.248857  0.593571  1
  Tc  Tc4  1  0.751155  0.406422  0.092676  1
  Tc  Tc5  1  0.092671  0.751143  0.406429  1
  Tc  Tc6  1  0.406411  0.092683  0.751174  1
  Ir  Ir7  1  0.000000  0.000000  0.000000  1
  O  O8  1  0.821048  0.879031  0.175024  1
  O  O9  1  0.175035  0.821038  0.879027  1
  O  O10  1  0.879028  0.175037  0.821038  1
  O  O11  1  0.674628  0.380411  0.318698  1
  O  O12  1  0.318701  0.674622  0.380415  1
  O  O13  1  0.380410  0.318682  0.674641  1
  O  O14  1  0.178952  0.120969  0.824976  1
  O  O15  1  0.824965  0.178962  0.120973  1
  O  O16  1  0.120972  0.824963  0.178962  1
  O  O17  1  0.325372  0.619589  0.681302  1
  O  O18  1  0.681299  0.325378  0.619585  1
  O  O19  1  0.619590  0.681318  0.325359  1
  O  O20  1  0.436292  0.980256  0.429080  1
  O  O21  1  0.429094  0.436279  0.980256  1
  O  O22  1  0.980257  0.429113  0.436266  1
  O  O23  1  0.929059  0.482416  0.934712  1
  O  O24  1  0.934734  0.929032  0.482410  1
  O  O25  1  0.482415  0.934697  0.929084  1
  O  O26  1  0.563708  0.019744  0.570920  1
  O  O27  1  0.570906  0.563721  0.019744  1
  O  O28  1  0.019743  0.570887  0.563734  1
  O  O29  1  0.070941  0.517584  0.065288  1
  O  O30  1  0.065266  0.070968  0.517590  1
  O  O31  1  0.517585  0.065303  0.070916  1
