# generated using pymatgen
data_Li12Gd3Ho(BO3)8
_symmetry_space_group_name_H-M   'P 1'
_cell_length_a   6.46855073
_cell_length_b   8.76200450
_cell_length_c   9.95115497
_cell_angle_alpha   114.82787895
_cell_angle_beta   89.89846292
_cell_angle_gamma   89.93916736
_symmetry_Int_Tables_number   1
_chemical_formula_structural   Li12Gd3Ho(BO3)8
_chemical_formula_sum   'Li12 Gd3 Ho1 B8 O24'
_cell_volume   511.87522187
_cell_formula_units_Z   1
loop_
 _symmetry_equiv_pos_site_id
 _symmetry_equiv_pos_as_xyz
  1  'x, y, z'
loop_
 _atom_site_type_symbol
 _atom_site_label
 _atom_site_symmetry_multiplicity
 _atom_site_fract_x
 _atom_site_fract_y
 _atom_site_fract_z
 _atom_site_occupancy
  Li  Li0  1  0.438319  0.037922  0.333664  1
  Li  Li1  1  0.744479  0.126043  0.522102  1
  Li  Li2  1  0.756127  0.626663  0.021662  1
  Li  Li3  1  0.243626  0.372825  0.977999  1
  Li  Li4  1  0.218891  0.295245  0.458987  1
  Li  Li5  1  0.938510  0.461547  0.166095  1
  Li  Li6  1  0.561743  0.961704  0.666809  1
  Li  Li7  1  0.781423  0.705524  0.541652  1
  Li  Li8  1  0.255267  0.873769  0.479011  1
  Li  Li9  1  0.719805  0.204036  0.040464  1
  Li  Li10  1  0.280088  0.795944  0.958581  1
  Li  Li11  1  0.061700  0.538530  0.833609  1
  Gd  Gd12  1  0.527574  0.517362  0.700439  1
  Gd  Gd13  1  0.972859  0.017231  0.199217  1
  Gd  Gd14  1  0.472404  0.482677  0.299947  1
  Ho  Ho15  1  0.027075  0.983436  0.800299  1
  B  B16  1  0.335336  0.217001  0.678215  1
  B  B17  1  0.327076  0.159259  0.105875  1
  B  B18  1  0.662748  0.782522  0.322766  1
  B  B19  1  0.162819  0.717593  0.177305  1
  B  B20  1  0.828201  0.340350  0.392399  1
  B  B21  1  0.673713  0.840638  0.891466  1
  B  B22  1  0.839242  0.280219  0.822363  1
  B  B23  1  0.170865  0.662167  0.609288  1
  O  O24  1  0.287044  0.069915  0.690820  1
  O  O25  1  0.559835  0.784602  0.448100  1
  O  O26  1  0.212152  0.024647  0.010329  1
  O  O27  1  0.709211  0.930439  0.311422  1
  O  O28  1  0.178419  0.701396  0.760043  1
  O  O29  1  0.790865  0.428379  0.811539  1
  O  O30  1  0.439007  0.213821  0.552516  1
  O  O31  1  0.290119  0.377059  0.787570  1
  O  O32  1  0.060322  0.715598  0.052000  1
  O  O33  1  0.942318  0.281621  0.947136  1
  O  O34  1  0.714168  0.476834  0.486733  1
  O  O35  1  0.789559  0.976351  0.983905  1
  O  O36  1  0.565433  0.737602  0.939707  1
  O  O37  1  0.208870  0.569449  0.188484  1
  O  O38  1  0.209413  0.876495  0.287156  1
  O  O39  1  0.063548  0.767905  0.563957  1
  O  O40  1  0.680887  0.801210  0.740798  1
  O  O41  1  0.436378  0.263883  0.060311  1
  O  O42  1  0.820194  0.301366  0.241493  1
  O  O43  1  0.709454  0.623287  0.212588  1
  O  O44  1  0.794509  0.120441  0.712710  1
  O  O45  1  0.283743  0.524777  0.514288  1
  O  O46  1  0.935625  0.236184  0.439462  1
  O  O47  1  0.319035  0.196533  0.256718  1
