# generated using pymatgen
data_Nd3In2(FeO4)3
_symmetry_space_group_name_H-M   'P 1'
_cell_length_a   11.30114962
_cell_length_b   11.30114963
_cell_length_c   11.30114900
_cell_angle_alpha   109.47122129
_cell_angle_beta   109.47122131
_cell_angle_gamma   109.47121994
_symmetry_Int_Tables_number   1
_chemical_formula_structural   Nd3In2(FeO4)3
_chemical_formula_sum   'Nd12 In8 Fe12 O48'
_cell_volume   1111.08160307
_cell_formula_units_Z   4
loop_
 _symmetry_equiv_pos_site_id
 _symmetry_equiv_pos_as_xyz
  1  'x, y, z'
loop_
 _atom_site_type_symbol
 _atom_site_label
 _atom_site_symmetry_multiplicity
 _atom_site_fract_x
 _atom_site_fract_y
 _atom_site_fract_z
 _atom_site_occupancy
  Nd  Nd0  1  0.250000  0.375000  0.125000  1
  Nd  Nd1  1  0.750000  0.625000  0.875000  1
  Nd  Nd2  1  0.750000  0.125000  0.375000  1
  Nd  Nd3  1  0.125000  0.250000  0.375000  1
  Nd  Nd4  1  0.375000  0.750000  0.125000  1
  Nd  Nd5  1  0.250000  0.875000  0.625000  1
  Nd  Nd6  1  0.875000  0.750000  0.625000  1
  Nd  Nd7  1  0.625000  0.250000  0.875000  1
  Nd  Nd8  1  0.375000  0.125000  0.250000  1
  Nd  Nd9  1  0.625000  0.875000  0.750000  1
  Nd  Nd10  1  0.125000  0.375000  0.750000  1
  Nd  Nd11  1  0.875000  0.625000  0.250000  1
  In  In12  1  0.000000  0.000000  0.000000  1
  In  In13  1  0.500000  0.000000  0.500000  1
  In  In14  1  0.000000  0.500000  0.500000  1
  In  In15  1  0.500000  0.000000  0.000000  1
  In  In16  1  0.500000  0.500000  0.000000  1
  In  In17  1  0.500000  0.500000  0.500000  1
  In  In18  1  0.000000  0.000000  0.500000  1
  In  In19  1  0.000000  0.500000  0.000000  1
  Fe  Fe20  1  0.250000  0.625000  0.375000  1
  Fe  Fe21  1  0.750000  0.375000  0.625000  1
  Fe  Fe22  1  0.750000  0.875000  0.125000  1
  Fe  Fe23  1  0.375000  0.250000  0.625000  1
  Fe  Fe24  1  0.625000  0.750000  0.375000  1
  Fe  Fe25  1  0.250000  0.125000  0.875000  1
  Fe  Fe26  1  0.125000  0.750000  0.875000  1
  Fe  Fe27  1  0.875000  0.250000  0.125000  1
  Fe  Fe28  1  0.625000  0.375000  0.250000  1
  Fe  Fe29  1  0.375000  0.625000  0.750000  1
  Fe  Fe30  1  0.875000  0.125000  0.750000  1
  Fe  Fe31  1  0.125000  0.875000  0.250000  1
  O  O32  1  0.470691  0.373343  0.286097  1
  O  O33  1  0.529309  0.626657  0.713903  1
  O  O34  1  0.587246  0.184594  0.213903  1
  O  O35  1  0.912754  0.126657  0.597348  1
  O  O36  1  0.286097  0.470691  0.373343  1
  O  O37  1  0.315406  0.912754  0.286097  1
  O  O38  1  0.412754  0.815406  0.786097  1
  O  O39  1  0.087246  0.873343  0.402652  1
  O  O40  1  0.713903  0.529309  0.626657  1
  O  O41  1  0.684594  0.087246  0.713903  1
  O  O42  1  0.029309  0.315406  0.902652  1
  O  O43  1  0.213903  0.587246  0.184594  1
  O  O44  1  0.126657  0.029309  0.213903  1
  O  O45  1  0.970691  0.684594  0.097348  1
  O  O46  1  0.786097  0.412754  0.815406  1
  O  O47  1  0.873343  0.970691  0.786097  1
  O  O48  1  0.597348  0.912754  0.126657  1
  O  O49  1  0.184594  0.470691  0.597348  1
  O  O50  1  0.402652  0.087246  0.873343  1
  O  O51  1  0.815406  0.529309  0.402652  1
  O  O52  1  0.902652  0.029309  0.315406  1
  O  O53  1  0.373343  0.587246  0.902652  1
  O  O54  1  0.097348  0.970691  0.684594  1
  O  O55  1  0.626657  0.412754  0.097348  1
  O  O56  1  0.373343  0.286097  0.470691  1
  O  O57  1  0.587246  0.902652  0.373343  1
  O  O58  1  0.626657  0.713903  0.529309  1
  O  O59  1  0.412754  0.097348  0.626657  1
  O  O60  1  0.126657  0.597348  0.912754  1
  O  O61  1  0.029309  0.213903  0.126657  1
  O  O62  1  0.873343  0.402652  0.087246  1
  O  O63  1  0.970691  0.786097  0.873343  1
  O  O64  1  0.315406  0.902652  0.029309  1
  O  O65  1  0.912754  0.286097  0.315406  1
  O  O66  1  0.684594  0.097348  0.970691  1
  O  O67  1  0.087246  0.713903  0.684594  1
  O  O68  1  0.184594  0.213903  0.587246  1
  O  O69  1  0.470691  0.597348  0.184594  1
  O  O70  1  0.815406  0.786097  0.412754  1
  O  O71  1  0.529309  0.402652  0.815406  1
  O  O72  1  0.286097  0.315406  0.912754  1
  O  O73  1  0.713903  0.684594  0.087246  1
  O  O74  1  0.213903  0.126657  0.029309  1
  O  O75  1  0.786097  0.873343  0.970691  1
  O  O76  1  0.902652  0.373343  0.587246  1
  O  O77  1  0.097348  0.626657  0.412754  1
  O  O78  1  0.597348  0.184594  0.470691  1
  O  O79  1  0.402652  0.815406  0.529309  1
