# generated using pymatgen
data_V12Ga2SiOs
_symmetry_space_group_name_H-M   'P 1'
_cell_length_a   4.75011000
_cell_length_b   4.77848400
_cell_length_c   9.53443400
_cell_angle_alpha   90.00000000
_cell_angle_beta   90.00000000
_cell_angle_gamma   90.00000000
_symmetry_Int_Tables_number   1
_chemical_formula_structural   V12Ga2SiOs
_chemical_formula_sum   'V12 Ga2 Si1 Os1'
_cell_volume   216.41567813
_cell_formula_units_Z   1
loop_
 _symmetry_equiv_pos_site_id
 _symmetry_equiv_pos_as_xyz
  1  'x, y, z'
loop_
 _atom_site_type_symbol
 _atom_site_label
 _atom_site_symmetry_multiplicity
 _atom_site_fract_x
 _atom_site_fract_y
 _atom_site_fract_z
 _atom_site_occupancy
  V  V0  1  0.000000  0.500000  0.121209  1
  V  V1  1  0.000000  0.500000  0.627124  1
  V  V2  1  0.500000  0.255868  0.748449  1
  V  V3  1  0.500000  0.255868  0.251551  1
  V  V4  1  0.747599  0.000000  0.000000  1
  V  V5  1  0.743023  0.000000  0.500000  1
  V  V6  1  0.000000  0.500000  0.878791  1
  V  V7  1  0.000000  0.500000  0.372876  1
  V  V8  1  0.500000  0.744132  0.748449  1
  V  V9  1  0.500000  0.744132  0.251551  1
  V  V10  1  0.252401  0.000000  0.000000  1
  V  V11  1  0.256977  0.000000  0.500000  1
  Ga  Ga12  1  0.000000  0.000000  0.748473  1
  Ga  Ga13  1  0.000000  0.000000  0.251527  1
  Si  Si14  1  0.500000  0.500000  0.500000  1
  Os  Os15  1  0.500000  0.500000  0.000000  1
