# generated using pymatgen
data_YPaAl16Pt9
_symmetry_space_group_name_H-M   'P 1'
_cell_length_a   11.14069994
_cell_length_b   11.14070055
_cell_length_c   11.14070043
_cell_angle_alpha   158.65366982
_cell_angle_beta   114.69825403
_cell_angle_gamma   69.55937083
_symmetry_Int_Tables_number   1
_chemical_formula_structural   YPaAl16Pt9
_chemical_formula_sum   'Y1 Pa1 Al16 Pt9'
_cell_volume   453.92999510
_cell_formula_units_Z   1
loop_
 _symmetry_equiv_pos_site_id
 _symmetry_equiv_pos_as_xyz
  1  'x, y, z'
loop_
 _atom_site_type_symbol
 _atom_site_label
 _atom_site_symmetry_multiplicity
 _atom_site_fract_x
 _atom_site_fract_y
 _atom_site_fract_z
 _atom_site_occupancy
  Y  Y0  1  0.227168  0.227168  0.000000  1
  Pa  Pa1  1  0.773155  0.773155  0.000000  1
  Al  Al2  1  0.269228  0.389913  0.879315  1
  Al  Al3  1  0.092949  0.920739  0.172211  1
  Al  Al4  1  0.510355  0.203152  0.307204  1
  Al  Al5  1  0.250613  0.079565  0.171048  1
  Al  Al6  1  0.914163  0.414163  0.500000  1
  Al  Al7  1  0.728762  0.609438  0.119324  1
  Al  Al8  1  0.895948  0.203152  0.692796  1
  Al  Al9  1  0.487575  0.796100  0.691474  1
  Al  Al10  1  0.387599  0.999954  0.387645  1
  Al  Al11  1  0.612309  0.999954  0.612355  1
  Al  Al12  1  0.490115  0.609438  0.880676  1
  Al  Al13  1  0.104628  0.796100  0.308526  1
  Al  Al14  1  0.908517  0.079565  0.828952  1
  Al  Al15  1  0.748528  0.920739  0.827789  1
  Al  Al16  1  0.510598  0.389913  0.120685  1
  Al  Al17  1  0.088325  0.588325  0.500000  1
  Pt  Pt18  1  0.746246  0.499634  0.246613  1
  Pt  Pt19  1  0.017748  0.338403  0.679346  1
  Pt  Pt20  1  0.628687  0.128687  0.500000  1
  Pt  Pt21  1  0.253021  0.499634  0.753387  1
  Pt  Pt22  1  0.373485  0.873485  0.500000  1
  Pt  Pt23  1  0.999836  0.999836  0.000000  1
  Pt  Pt24  1  0.659057  0.338403  0.320654  1
  Pt  Pt25  1  0.344741  0.660693  0.684048  1
  Pt  Pt26  1  0.976645  0.660693  0.315952  1
