# generated using pymatgen
data_Ho19ErSi15As
_symmetry_space_group_name_H-M   'P 1'
_cell_length_a   7.45456904
_cell_length_b   7.61780272
_cell_length_c   14.54069442
_cell_angle_alpha   89.89593714
_cell_angle_beta   86.16653451
_cell_angle_gamma   90.04298656
_symmetry_Int_Tables_number   1
_chemical_formula_structural   Ho19ErSi15As
_chemical_formula_sum   'Ho19 Er1 Si15 As1'
_cell_volume   823.87959035
_cell_formula_units_Z   1
loop_
 _symmetry_equiv_pos_site_id
 _symmetry_equiv_pos_as_xyz
  1  'x, y, z'
loop_
 _atom_site_type_symbol
 _atom_site_label
 _atom_site_symmetry_multiplicity
 _atom_site_fract_x
 _atom_site_fract_y
 _atom_site_fract_z
 _atom_site_occupancy
  Ho  Ho0  1  0.166581  0.505389  0.245072  1
  Ho  Ho1  1  0.833508  0.494428  0.751906  1
  Ho  Ho2  1  0.332089  0.005665  0.753906  1
  Ho  Ho3  1  0.003359  0.823209  0.100324  1
  Ho  Ho4  1  0.472199  0.685248  0.398190  1
  Ho  Ho5  1  0.494525  0.318118  0.900281  1
  Ho  Ho6  1  0.028031  0.185165  0.601888  1
  Ho  Ho7  1  0.000197  0.178943  0.900861  1
  Ho  Ho8  1  0.527462  0.314422  0.601441  1
  Ho  Ho9  1  0.499676  0.683506  0.100212  1
  Ho  Ho10  1  0.971538  0.813708  0.398203  1
  Ho  Ho11  1  0.646026  0.836331  0.879496  1
  Ho  Ho12  1  0.177282  0.676233  0.622400  1
  Ho  Ho13  1  0.854349  0.334329  0.119137  1
  Ho  Ho14  1  0.323471  0.176723  0.377846  1
  Ho  Ho15  1  0.353474  0.165625  0.120627  1
  Ho  Ho16  1  0.823365  0.323231  0.377776  1
  Ho  Ho17  1  0.147888  0.665808  0.881097  1
  Ho  Ho18  1  0.676773  0.823298  0.622464  1
  Er  Er19  1  0.667082  0.993905  0.245326  1
  Si  Si20  1  0.782529  0.629547  0.251058  1
  Si  Si21  1  0.282482  0.870403  0.251905  1
  Si  Si22  1  0.716570  0.130782  0.748590  1
  Si  Si23  1  0.216254  0.370351  0.749080  1
  Si  Si24  1  0.039694  0.108379  0.252326  1
  Si  Si25  1  0.541085  0.391737  0.251587  1
  Si  Si26  1  0.459792  0.607909  0.749161  1
  Si  Si27  1  0.959598  0.890960  0.748550  1
  Si  Si28  1  0.356263  0.971748  0.542687  1
  Si  Si29  1  0.701956  0.035108  0.042274  1
  Si  Si30  1  0.144860  0.471349  0.457885  1
  Si  Si31  1  0.207948  0.465070  0.042728  1
  Si  Si32  1  0.644356  0.027301  0.457074  1
  Si  Si33  1  0.299365  0.964755  0.957594  1
  Si  Si34  1  0.855851  0.527622  0.542515  1
  As  As35  1  0.792525  0.533695  0.956534  1
