# generated using pymatgen
data_Y6TmSc3(Si3H)2
_symmetry_space_group_name_H-M   'P 1'
_cell_length_a   8.33814900
_cell_length_b   8.33814938
_cell_length_c   6.01750700
_cell_angle_alpha   90.00000000
_cell_angle_beta   90.00000000
_cell_angle_gamma   120.00000248
_symmetry_Int_Tables_number   1
_chemical_formula_structural   Y6TmSc3(Si3H)2
_chemical_formula_sum   'Y6 Tm1 Sc3 Si6 H2'
_cell_volume   362.31519465
_cell_formula_units_Z   1
loop_
 _symmetry_equiv_pos_site_id
 _symmetry_equiv_pos_as_xyz
  1  'x, y, z'
loop_
 _atom_site_type_symbol
 _atom_site_label
 _atom_site_symmetry_multiplicity
 _atom_site_fract_x
 _atom_site_fract_y
 _atom_site_fract_z
 _atom_site_occupancy
  Y  Y0  1  0.746997  0.747326  0.751723  1
  Y  Y1  1  0.252674  0.999671  0.751723  1
  Y  Y2  1  0.000329  0.253003  0.751723  1
  Y  Y3  1  0.252674  0.253003  0.248277  1
  Y  Y4  1  0.746997  0.999671  0.248277  1
  Y  Y5  1  0.000329  0.747326  0.248277  1
  Tm  Tm6  1  0.666667  0.333333  0.500000  1
  Sc  Sc7  1  0.666667  0.333333  0.000000  1
  Sc  Sc8  1  0.333333  0.666667  0.000000  1
  Sc  Sc9  1  0.333333  0.666667  0.500000  1
  Si  Si10  1  0.391218  0.394837  0.755216  1
  Si  Si11  1  0.605163  0.996381  0.755216  1
  Si  Si12  1  0.003619  0.608782  0.755216  1
  Si  Si13  1  0.605163  0.608782  0.244784  1
  Si  Si14  1  0.391218  0.996381  0.244784  1
  Si  Si15  1  0.003619  0.394837  0.244784  1
  H  H16  1  0.000000  0.000000  0.500000  1
  H  H17  1  0.000000  0.000000  0.000000  1
