# generated using pymatgen
data_Dy5Si9Mo3P3Ir16
_symmetry_space_group_name_H-M   'P 1'
_cell_length_a   12.84842000
_cell_length_b   12.84842076
_cell_length_c   3.97049900
_cell_angle_alpha   90.00000000
_cell_angle_beta   90.00000000
_cell_angle_gamma   119.99999803
_symmetry_Int_Tables_number   1
_chemical_formula_structural   Dy5Si9Mo3P3Ir16
_chemical_formula_sum   'Dy5 Si9 Mo3 P3 Ir16'
_cell_volume   567.64289536
_cell_formula_units_Z   1
loop_
 _symmetry_equiv_pos_site_id
 _symmetry_equiv_pos_as_xyz
  1  'x, y, z'
loop_
 _atom_site_type_symbol
 _atom_site_label
 _atom_site_symmetry_multiplicity
 _atom_site_fract_x
 _atom_site_fract_y
 _atom_site_fract_z
 _atom_site_occupancy
  Dy  Dy0  1  0.333333  0.666667  0.500000  1
  Dy  Dy1  1  0.666667  0.333333  0.500000  1
  Dy  Dy2  1  0.000000  0.812233  0.000000  1
  Dy  Dy3  1  0.187767  0.187767  0.000000  1
  Dy  Dy4  1  0.812233  0.000000  0.000000  1
  Si  Si5  1  0.000000  0.629426  0.500000  1
  Si  Si6  1  0.370574  0.370574  0.500000  1
  Si  Si7  1  0.629426  0.000000  0.500000  1
  Si  Si8  1  0.520086  0.685980  0.000000  1
  Si  Si9  1  0.314020  0.834105  0.000000  1
  Si  Si10  1  0.165895  0.479914  0.000000  1
  Si  Si11  1  0.479914  0.165895  0.000000  1
  Si  Si12  1  0.685980  0.520086  0.000000  1
  Si  Si13  1  0.834105  0.314020  0.000000  1
  Mo  Mo14  1  0.000000  0.438314  0.500000  1
  Mo  Mo15  1  0.561686  0.561686  0.500000  1
  Mo  Mo16  1  0.438314  0.000000  0.500000  1
  P  P17  1  0.000000  0.178459  0.500000  1
  P  P18  1  0.821541  0.821541  0.500000  1
  P  P19  1  0.178459  0.000000  0.500000  1
  Ir  Ir20  1  0.513592  0.871924  0.000000  1
  Ir  Ir21  1  0.128076  0.641669  0.000000  1
  Ir  Ir22  1  0.358331  0.486408  0.000000  1
  Ir  Ir23  1  0.486408  0.358331  0.000000  1
  Ir  Ir24  1  0.871924  0.513592  0.000000  1
  Ir  Ir25  1  0.641669  0.128076  0.000000  1
  Ir  Ir26  1  0.000000  0.276119  0.000000  1
  Ir  Ir27  1  0.723881  0.723881  0.000000  1
  Ir  Ir28  1  0.276119  0.000000  0.000000  1
  Ir  Ir29  1  0.629548  0.808910  0.500000  1
  Ir  Ir30  1  0.191090  0.820638  0.500000  1
  Ir  Ir31  1  0.179362  0.370452  0.500000  1
  Ir  Ir32  1  0.370452  0.179362  0.500000  1
  Ir  Ir33  1  0.808910  0.629548  0.500000  1
  Ir  Ir34  1  0.820638  0.191090  0.500000  1
  Ir  Ir35  1  0.000000  0.000000  0.500000  1
