# generated using pymatgen
data_Zr6Fe4Co11Si7Ru
_symmetry_space_group_name_H-M   'P 1'
_cell_length_a   8.08693415
_cell_length_b   8.08693393
_cell_length_c   8.11640417
_cell_angle_alpha   60.12003740
_cell_angle_beta   60.12003891
_cell_angle_gamma   60.00000355
_symmetry_Int_Tables_number   1
_chemical_formula_structural   Zr6Fe4Co11Si7Ru
_chemical_formula_sum   'Zr6 Fe4 Co11 Si7 Ru1'
_cell_volume   376.01232099
_cell_formula_units_Z   1
loop_
 _symmetry_equiv_pos_site_id
 _symmetry_equiv_pos_as_xyz
  1  'x, y, z'
loop_
 _atom_site_type_symbol
 _atom_site_label
 _atom_site_symmetry_multiplicity
 _atom_site_fract_x
 _atom_site_fract_y
 _atom_site_fract_z
 _atom_site_occupancy
  Zr  Zr0  1  0.704836  0.704836  0.293666  1
  Zr  Zr1  1  0.296663  0.704836  0.293666  1
  Zr  Zr2  1  0.704836  0.296663  0.293666  1
  Zr  Zr3  1  0.292936  0.292936  0.708412  1
  Zr  Zr4  1  0.705717  0.292936  0.708412  1
  Zr  Zr5  1  0.292936  0.705717  0.708412  1
  Fe  Fe6  1  0.323890  0.323890  0.028329  1
  Fe  Fe7  1  0.324647  0.027278  0.323428  1
  Fe  Fe8  1  0.027278  0.324647  0.323428  1
  Fe  Fe9  1  0.324647  0.324647  0.323428  1
  Co  Co10  1  0.880322  0.358100  0.881256  1
  Co  Co11  1  0.358100  0.880322  0.881256  1
  Co  Co12  1  0.880322  0.880322  0.881256  1
  Co  Co13  1  0.121367  0.121367  0.635896  1
  Co  Co14  1  0.123237  0.637157  0.116369  1
  Co  Co15  1  0.637157  0.123237  0.116369  1
  Co  Co16  1  0.123237  0.123237  0.116369  1
  Co  Co17  1  0.673837  0.673837  0.978487  1
  Co  Co18  1  0.670825  0.981566  0.676784  1
  Co  Co19  1  0.981566  0.670825  0.676784  1
  Co  Co20  1  0.670825  0.670825  0.676784  1
  Si  Si21  1  0.003589  0.003589  0.989233  1
  Si  Si22  1  0.999021  0.999021  0.504391  1
  Si  Si23  1  0.497567  0.999021  0.504391  1
  Si  Si24  1  0.999021  0.497567  0.504391  1
  Si  Si25  1  0.500673  0.500673  0.000214  1
  Si  Si26  1  0.998441  0.500673  0.000214  1
  Si  Si27  1  0.500673  0.998441  0.000214  1
  Ru  Ru28  1  0.881836  0.881836  0.354492  1
