# generated using pymatgen
data_Lu5Al2SnC4
_symmetry_space_group_name_H-M   'P 1'
_cell_length_a   10.77617100
_cell_length_b   10.77617100
_cell_length_c   3.45796600
_cell_angle_alpha   90.00000000
_cell_angle_beta   90.00000000
_cell_angle_gamma   90.00000000
_symmetry_Int_Tables_number   1
_chemical_formula_structural   Lu5Al2SnC4
_chemical_formula_sum   'Lu10 Al4 Sn2 C8'
_cell_volume   401.55928052
_cell_formula_units_Z   2
loop_
 _symmetry_equiv_pos_site_id
 _symmetry_equiv_pos_as_xyz
  1  'x, y, z'
loop_
 _atom_site_type_symbol
 _atom_site_label
 _atom_site_symmetry_multiplicity
 _atom_site_fract_x
 _atom_site_fract_y
 _atom_site_fract_z
 _atom_site_occupancy
  Lu  Lu0  1  0.549727  0.736428  0.500000  1
  Lu  Lu1  1  0.450273  0.263572  0.500000  1
  Lu  Lu2  1  0.049727  0.763572  0.500000  1
  Lu  Lu3  1  0.950273  0.236428  0.500000  1
  Lu  Lu4  1  0.263572  0.549727  0.500000  1
  Lu  Lu5  1  0.736428  0.450273  0.500000  1
  Lu  Lu6  1  0.236428  0.049727  0.500000  1
  Lu  Lu7  1  0.763572  0.950273  0.500000  1
  Lu  Lu8  1  0.500000  0.000000  0.000000  1
  Lu  Lu9  1  0.000000  0.500000  0.000000  1
  Al  Al10  1  0.702872  0.202872  0.000000  1
  Al  Al11  1  0.297128  0.797128  0.000000  1
  Al  Al12  1  0.202872  0.297128  0.000000  1
  Al  Al13  1  0.797128  0.702872  0.000000  1
  Sn  Sn14  1  0.500000  0.500000  0.000000  1
  Sn  Sn15  1  0.000000  0.000000  0.000000  1
  C  C16  1  0.627508  0.127508  0.500000  1
  C  C17  1  0.372492  0.872492  0.500000  1
  C  C18  1  0.127508  0.372492  0.500000  1
  C  C19  1  0.872492  0.627508  0.500000  1
  C  C20  1  0.161784  0.661784  0.000000  1
  C  C21  1  0.838216  0.338216  0.000000  1
  C  C22  1  0.661784  0.838216  0.000000  1
  C  C23  1  0.338216  0.161784  0.000000  1
