# generated using pymatgen
data_SrPrAl20IrOs3
_symmetry_space_group_name_H-M   'P 1'
_cell_length_a   6.91256275
_cell_length_b   6.91151233
_cell_length_c   9.24054544
_cell_angle_alpha   90.15193946
_cell_angle_beta   90.01185292
_cell_angle_gamma   96.59097396
_symmetry_Int_Tables_number   1
_chemical_formula_structural   SrPrAl20IrOs3
_chemical_formula_sum   'Sr1 Pr1 Al20 Ir1 Os3'
_cell_volume   438.55933118
_cell_formula_units_Z   1
loop_
 _symmetry_equiv_pos_site_id
 _symmetry_equiv_pos_as_xyz
  1  'x, y, z'
loop_
 _atom_site_type_symbol
 _atom_site_label
 _atom_site_symmetry_multiplicity
 _atom_site_fract_x
 _atom_site_fract_y
 _atom_site_fract_z
 _atom_site_occupancy
  Sr  Sr0  1  0.876201  0.123103  0.749922  1
  Pr  Pr1  1  0.125032  0.876737  0.249893  1
  Al  Al2  1  0.619506  0.377047  0.546063  1
  Al  Al3  1  0.380176  0.622711  0.446507  1
  Al  Al4  1  0.378179  0.622182  0.051400  1
  Al  Al5  1  0.622228  0.377155  0.955403  1
  Al  Al6  1  0.225124  0.225333  0.498384  1
  Al  Al7  1  0.773383  0.776637  0.500493  1
  Al  Al8  1  0.773894  0.776189  0.000453  1
  Al  Al9  1  0.224358  0.225530  0.001243  1
  Al  Al10  1  0.841265  0.159473  0.101248  1
  Al  Al11  1  0.163611  0.835286  0.898267  1
  Al  Al12  1  0.165445  0.835801  0.603581  1
  Al  Al13  1  0.838804  0.158948  0.396694  1
  Al  Al14  1  0.856067  0.589490  0.751014  1
  Al  Al15  1  0.142171  0.412726  0.249183  1
  Al  Al16  1  0.410913  0.143342  0.750308  1
  Al  Al17  1  0.587969  0.858773  0.249628  1
  Al  Al18  1  0.221065  0.481378  0.752614  1
  Al  Al19  1  0.778998  0.517134  0.247559  1
  Al  Al20  1  0.518620  0.780925  0.749293  1
  Al  Al21  1  0.483213  0.219649  0.250502  1
  Ir  Ir22  1  0.999323  0.501709  0.499544  1
  Os  Os23  1  0.999430  0.502200  0.000791  1
  Os  Os24  1  0.497411  0.000316  0.000783  1
  Os  Os25  1  0.497615  0.000225  0.499227  1
