# generated using pymatgen
data_TaNi21B6Sb
_symmetry_space_group_name_H-M   'P 1'
_cell_length_a   7.46089782
_cell_length_b   7.46089721
_cell_length_c   7.46089700
_cell_angle_alpha   59.99999650
_cell_angle_beta   59.99999922
_cell_angle_gamma   60.00000188
_symmetry_Int_Tables_number   1
_chemical_formula_structural   TaNi21B6Sb
_chemical_formula_sum   'Ta1 Ni21 B6 Sb1'
_cell_volume   293.66905646
_cell_formula_units_Z   1
loop_
 _symmetry_equiv_pos_site_id
 _symmetry_equiv_pos_as_xyz
  1  'x, y, z'
loop_
 _atom_site_type_symbol
 _atom_site_label
 _atom_site_symmetry_multiplicity
 _atom_site_fract_x
 _atom_site_fract_y
 _atom_site_fract_z
 _atom_site_occupancy
  Ta  Ta0  1  0.250000  0.250000  0.250000  1
  Ni  Ni1  1  0.000000  0.000000  0.000000  1
  Ni  Ni2  1  0.615808  0.615808  0.152577  1
  Ni  Ni3  1  0.615808  0.152577  0.615808  1
  Ni  Ni4  1  0.152577  0.615808  0.615808  1
  Ni  Ni5  1  0.615808  0.615808  0.615808  1
  Ni  Ni6  1  0.384691  0.384691  0.845929  1
  Ni  Ni7  1  0.384691  0.845929  0.384691  1
  Ni  Ni8  1  0.845929  0.384691  0.384691  1
  Ni  Ni9  1  0.384691  0.384691  0.384691  1
  Ni  Ni10  1  0.003432  0.003432  0.335034  1
  Ni  Ni11  1  0.658102  0.003432  0.335034  1
  Ni  Ni12  1  0.003432  0.658102  0.335034  1
  Ni  Ni13  1  0.658102  0.335034  0.003432  1
  Ni  Ni14  1  0.003432  0.335034  0.003432  1
  Ni  Ni15  1  0.003432  0.335034  0.658102  1
  Ni  Ni16  1  0.335034  0.658102  0.003432  1
  Ni  Ni17  1  0.335034  0.003432  0.658102  1
  Ni  Ni18  1  0.335034  0.003432  0.003432  1
  Ni  Ni19  1  0.003432  0.003432  0.658102  1
  Ni  Ni20  1  0.003432  0.658102  0.003432  1
  Ni  Ni21  1  0.658102  0.003432  0.003432  1
  B  B22  1  0.729935  0.729935  0.270065  1
  B  B23  1  0.270065  0.729935  0.270065  1
  B  B24  1  0.729935  0.270065  0.270065  1
  B  B25  1  0.270065  0.270065  0.729935  1
  B  B26  1  0.729935  0.270065  0.729935  1
  B  B27  1  0.270065  0.729935  0.729935  1
  Sb  Sb28  1  0.750000  0.750000  0.750000  1
