# generated using pymatgen
data_Ho2Tm10IrOs3
_symmetry_space_group_name_H-M   'P 1'
_cell_length_a   6.29553207
_cell_length_b   7.30878849
_cell_length_c   8.91953300
_cell_angle_alpha   90.00000000
_cell_angle_beta   90.00000000
_cell_angle_gamma   90.07206519
_symmetry_Int_Tables_number   1
_chemical_formula_structural   Ho2Tm10IrOs3
_chemical_formula_sum   'Ho2 Tm10 Ir1 Os3'
_cell_volume   410.41158163
_cell_formula_units_Z   1
loop_
 _symmetry_equiv_pos_site_id
 _symmetry_equiv_pos_as_xyz
  1  'x, y, z'
loop_
 _atom_site_type_symbol
 _atom_site_label
 _atom_site_symmetry_multiplicity
 _atom_site_fract_x
 _atom_site_fract_y
 _atom_site_fract_z
 _atom_site_occupancy
  Ho  Ho0  1  0.871957  0.537955  0.250000  1
  Ho  Ho1  1  0.628760  0.039001  0.250000  1
  Tm  Tm2  1  0.332601  0.673668  0.061531  1
  Tm  Tm3  1  0.169563  0.176434  0.438837  1
  Tm  Tm4  1  0.669160  0.324642  0.563283  1
  Tm  Tm5  1  0.828255  0.824250  0.934979  1
  Tm  Tm6  1  0.669160  0.324642  0.936717  1
  Tm  Tm7  1  0.828255  0.824250  0.565021  1
  Tm  Tm8  1  0.332601  0.673668  0.438469  1
  Tm  Tm9  1  0.169563  0.176434  0.061163  1
  Tm  Tm10  1  0.129432  0.461651  0.750000  1
  Tm  Tm11  1  0.369380  0.961370  0.750000  1
  Ir  Ir12  1  0.041575  0.884879  0.250000  1
  Os  Os13  1  0.459765  0.384205  0.250000  1
  Os  Os14  1  0.963422  0.116092  0.750000  1
  Os  Os15  1  0.536551  0.616860  0.750000  1
