# generated using pymatgen
data_Ba3Li7In5
_symmetry_space_group_name_H-M   'P 1'
_cell_length_a   10.42223934
_cell_length_b   10.42223707
_cell_length_c   8.51725297
_cell_angle_alpha   90.25501580
_cell_angle_beta   89.74499040
_cell_angle_gamma   119.58134951
_symmetry_Int_Tables_number   1
_chemical_formula_structural   Ba3Li7In5
_chemical_formula_sum   'Ba6 Li14 In10'
_cell_volume   804.56865305
_cell_formula_units_Z   2
loop_
 _symmetry_equiv_pos_site_id
 _symmetry_equiv_pos_as_xyz
  1  'x, y, z'
loop_
 _atom_site_type_symbol
 _atom_site_label
 _atom_site_symmetry_multiplicity
 _atom_site_fract_x
 _atom_site_fract_y
 _atom_site_fract_z
 _atom_site_occupancy
  Ba  Ba0  1  0.517938  0.039445  0.245988  1
  Ba  Ba1  1  0.482062  0.960555  0.754012  1
  Ba  Ba2  1  0.960555  0.482062  0.245988  1
  Ba  Ba3  1  0.039445  0.517938  0.754012  1
  Ba  Ba4  1  0.526854  0.473146  0.247597  1
  Ba  Ba5  1  0.473146  0.526854  0.752403  1
  Li  Li6  1  0.000000  0.000000  0.000000  1
  Li  Li7  1  0.000000  0.000000  0.500000  1
  Li  Li8  1  0.842163  0.157837  0.576356  1
  Li  Li9  1  0.157837  0.842163  0.423644  1
  Li  Li10  1  0.893882  0.795708  0.246926  1
  Li  Li11  1  0.106118  0.204292  0.753074  1
  Li  Li12  1  0.204292  0.106118  0.246926  1
  Li  Li13  1  0.795708  0.893882  0.753074  1
  Li  Li14  1  0.895197  0.104803  0.252903  1
  Li  Li15  1  0.104803  0.895197  0.747097  1
  Li  Li16  1  0.331793  0.668207  0.075673  1
  Li  Li17  1  0.668207  0.331793  0.924327  1
  Li  Li18  1  0.658975  0.341025  0.579319  1
  Li  Li19  1  0.341025  0.658975  0.420681  1
  In  In20  1  0.167173  0.331555  0.064788  1
  In  In21  1  0.832827  0.668445  0.935212  1
  In  In22  1  0.668445  0.832827  0.064788  1
  In  In23  1  0.839671  0.673691  0.560777  1
  In  In24  1  0.331555  0.167173  0.935212  1
  In  In25  1  0.160329  0.326309  0.439223  1
  In  In26  1  0.162188  0.837812  0.067384  1
  In  In27  1  0.326309  0.160329  0.560777  1
  In  In28  1  0.837812  0.162188  0.932616  1
  In  In29  1  0.673691  0.839671  0.439223  1
