# generated using pymatgen
data_V8Mo2Rh
_symmetry_space_group_name_H-M   'P 1'
_cell_length_a   5.04676029
_cell_length_b   5.04675916
_cell_length_c   10.79706023
_cell_angle_alpha   103.75632764
_cell_angle_beta   103.75632325
_cell_angle_gamma   35.05347898
_symmetry_Int_Tables_number   1
_chemical_formula_structural   V8Mo2Rh
_chemical_formula_sum   'V8 Mo2 Rh1'
_cell_volume   152.95333547
_cell_formula_units_Z   1
loop_
 _symmetry_equiv_pos_site_id
 _symmetry_equiv_pos_as_xyz
  1  'x, y, z'
loop_
 _atom_site_type_symbol
 _atom_site_label
 _atom_site_symmetry_multiplicity
 _atom_site_fract_x
 _atom_site_fract_y
 _atom_site_fract_z
 _atom_site_occupancy
  V  V0  1  0.729178  0.729178  0.088103  1
  V  V1  1  0.456581  0.456581  0.184003  1
  V  V2  1  0.184272  0.184272  0.268619  1
  V  V3  1  0.635915  0.635915  0.452990  1
  V  V4  1  0.364086  0.364086  0.547009  1
  V  V5  1  0.815728  0.815728  0.731381  1
  V  V6  1  0.543419  0.543419  0.815997  1
  V  V7  1  0.270823  0.270823  0.911898  1
  Mo  Mo8  1  0.908204  0.908204  0.360388  1
  Mo  Mo9  1  0.091796  0.091796  0.639613  1
  Rh  Rh10  1  0.000000  0.000000  0.000000  1
