# generated using pymatgen
data_Al2CrH8
_symmetry_space_group_name_H-M   'P 1'
_cell_length_a   5.37286545
_cell_length_b   4.61177445
_cell_length_c   5.40994031
_cell_angle_alpha   95.43602633
_cell_angle_beta   63.87080989
_cell_angle_gamma   125.90251023
_symmetry_Int_Tables_number   1
_chemical_formula_structural   Al2CrH8
_chemical_formula_sum   'Al2 Cr1 H8'
_cell_volume   94.98953312
_cell_formula_units_Z   1
loop_
 _symmetry_equiv_pos_site_id
 _symmetry_equiv_pos_as_xyz
  1  'x, y, z'
loop_
 _atom_site_type_symbol
 _atom_site_label
 _atom_site_symmetry_multiplicity
 _atom_site_fract_x
 _atom_site_fract_y
 _atom_site_fract_z
 _atom_site_occupancy
  Al  Al0  1  0.353486  0.261469  0.612883  1
  Al  Al1  1  0.071669  0.290970  0.269675  1
  Cr  Cr2  1  0.440258  0.797977  0.436672  1
  H  H3  1  0.081300  0.764082  0.637108  1
  H  H4  1  0.733336  0.761867  0.431339  1
  H  H5  1  0.302192  0.242711  0.952850  1
  H  H6  1  0.614472  0.721985  0.136673  1
  H  H7  1  0.710554  0.217752  0.230364  1
  H  H8  1  0.188862  0.531690  0.749407  1
  H  H9  1  0.274303  0.783435  0.238867  1
  H  H10  1  0.565585  0.054894  0.650599  1
