# generated using pymatgen
data_YHo5CrB14Ru
_symmetry_space_group_name_H-M   'P 1'
_cell_length_a   8.04631111
_cell_length_b   8.04631263
_cell_length_c   9.31346400
_cell_angle_alpha   90.00000000
_cell_angle_beta   90.00000000
_cell_angle_gamma   155.06616771
_symmetry_Int_Tables_number   1
_chemical_formula_structural   YHo5CrB14Ru
_chemical_formula_sum   'Y1 Ho5 Cr1 B14 Ru1'
_cell_volume   254.20028706
_cell_formula_units_Z   1
loop_
 _symmetry_equiv_pos_site_id
 _symmetry_equiv_pos_as_xyz
  1  'x, y, z'
loop_
 _atom_site_type_symbol
 _atom_site_label
 _atom_site_symmetry_multiplicity
 _atom_site_fract_x
 _atom_site_fract_y
 _atom_site_fract_z
 _atom_site_occupancy
  Y  Y0  1  0.757670  0.242330  0.250000  1
  Ho  Ho1  1  0.105443  0.894557  0.061727  1
  Ho  Ho2  1  0.894445  0.105555  0.940701  1
  Ho  Ho3  1  0.243527  0.756473  0.750000  1
  Ho  Ho4  1  0.105443  0.894557  0.438273  1
  Ho  Ho5  1  0.894445  0.105555  0.559299  1
  Cr  Cr6  1  0.947295  0.052705  0.250000  1
  B  B7  1  0.726917  0.273083  0.534155  1
  B  B8  1  0.272269  0.727731  0.467222  1
  B  B9  1  0.272269  0.727731  0.032778  1
  B  B10  1  0.726917  0.273083  0.965845  1
  B  B11  1  0.520638  0.479362  0.904795  1
  B  B12  1  0.478862  0.521138  0.096025  1
  B  B13  1  0.478862  0.521138  0.403975  1
  B  B14  1  0.520638  0.479362  0.595205  1
  B  B15  1  0.457599  0.542401  0.750000  1
  B  B16  1  0.541610  0.458390  0.250000  1
  B  B17  1  0.631602  0.368398  0.650095  1
  B  B18  1  0.368877  0.631123  0.348680  1
  B  B19  1  0.368877  0.631123  0.151320  1
  B  B20  1  0.631602  0.368398  0.849905  1
  Ru  Ru21  1  0.054194  0.945806  0.750000  1
