# generated using pymatgen
data_Yb3HoReRu7
_symmetry_space_group_name_H-M   'P 1'
_cell_length_a   5.19060941
_cell_length_b   5.45010201
_cell_length_c   8.82008937
_cell_angle_alpha   90.00000287
_cell_angle_beta   89.82409677
_cell_angle_gamma   121.66799640
_symmetry_Int_Tables_number   1
_chemical_formula_structural   Yb3HoReRu7
_chemical_formula_sum   'Yb3 Ho1 Re1 Ru7'
_cell_volume   212.36161643
_cell_formula_units_Z   1
loop_
 _symmetry_equiv_pos_site_id
 _symmetry_equiv_pos_as_xyz
  1  'x, y, z'
loop_
 _atom_site_type_symbol
 _atom_site_label
 _atom_site_symmetry_multiplicity
 _atom_site_fract_x
 _atom_site_fract_y
 _atom_site_fract_z
 _atom_site_occupancy
  Yb  Yb0  1  0.327183  0.663591  0.436801  1
  Yb  Yb1  1  0.657847  0.328923  0.562289  1
  Yb  Yb2  1  0.659679  0.329839  0.933082  1
  Ho  Ho3  1  0.330754  0.665377  0.069029  1
  Re  Re4  1  0.671852  0.835926  0.749207  1
  Ru  Ru5  1  0.978749  0.989374  0.500224  1
  Ru  Ru6  1  0.981739  0.990870  0.998948  1
  Ru  Ru7  1  0.833185  0.169276  0.249797  1
  Ru  Ru8  1  0.833185  0.663910  0.249797  1
  Ru  Ru9  1  0.356213  0.178107  0.248620  1
  Ru  Ru10  1  0.184807  0.832561  0.751102  1
  Ru  Ru11  1  0.184807  0.352245  0.751102  1
