# generated using pymatgen
data_CeY2(SnRh)3
_symmetry_space_group_name_H-M   'P 1'
_cell_length_a   7.62716800
_cell_length_b   7.53690963
_cell_length_c   3.91170400
_cell_angle_alpha   90.00000000
_cell_angle_beta   90.00000000
_cell_angle_gamma   120.39694388
_symmetry_Int_Tables_number   1
_chemical_formula_structural   CeY2(SnRh)3
_chemical_formula_sum   'Ce1 Y2 Sn3 Rh3'
_cell_volume   193.95553642
_cell_formula_units_Z   1
loop_
 _symmetry_equiv_pos_site_id
 _symmetry_equiv_pos_as_xyz
  1  'x, y, z'
loop_
 _atom_site_type_symbol
 _atom_site_label
 _atom_site_symmetry_multiplicity
 _atom_site_fract_x
 _atom_site_fract_y
 _atom_site_fract_z
 _atom_site_occupancy
  Ce  Ce0  1  0.413287  0.000000  0.000000  1
  Y  Y1  1  0.000073  0.406680  0.000000  1
  Y  Y2  1  0.593393  0.593320  0.000000  1
  Sn  Sn3  1  0.258533  0.266394  0.500000  1
  Sn  Sn4  1  0.992139  0.733606  0.500000  1
  Sn  Sn5  1  0.750286  0.000000  0.500000  1
  Rh  Rh6  1  0.651035  0.315512  0.500000  1
  Rh  Rh7  1  0.335522  0.684488  0.500000  1
  Rh  Rh8  1  0.005733  0.000000  0.000000  1
