# generated using pymatgen
data_DyEr15In3HgRh4
_symmetry_space_group_name_H-M   'P 1'
_cell_length_a   9.56610736
_cell_length_b   9.56375677
_cell_length_c   9.56873300
_cell_angle_alpha   59.98278296
_cell_angle_beta   59.99091662
_cell_angle_gamma   60.07299066
_symmetry_Int_Tables_number   1
_chemical_formula_structural   DyEr15In3HgRh4
_chemical_formula_sum   'Dy1 Er15 In3 Hg1 Rh4'
_cell_volume   619.23537261
_cell_formula_units_Z   1
loop_
 _symmetry_equiv_pos_site_id
 _symmetry_equiv_pos_as_xyz
  1  'x, y, z'
loop_
 _atom_site_type_symbol
 _atom_site_label
 _atom_site_symmetry_multiplicity
 _atom_site_fract_x
 _atom_site_fract_y
 _atom_site_fract_z
 _atom_site_occupancy
  Dy  Dy0  1  0.190701  0.190130  0.809585  1
  Er  Er1  1  0.437603  0.059027  0.066017  1
  Er  Er2  1  0.437603  0.059027  0.437353  1
  Er  Er3  1  0.063592  0.435402  0.063844  1
  Er  Er4  1  0.647961  0.051041  0.650500  1
  Er  Er5  1  0.189705  0.809794  0.810838  1
  Er  Er6  1  0.063320  0.058126  0.439277  1
  Er  Er7  1  0.809960  0.190512  0.190468  1
  Er  Er8  1  0.811555  0.809682  0.189381  1
  Er  Er9  1  0.651273  0.649484  0.046572  1
  Er  Er10  1  0.651273  0.649484  0.652673  1
  Er  Er11  1  0.063592  0.435402  0.437162  1
  Er  Er12  1  0.049924  0.647688  0.651194  1
  Er  Er13  1  0.809960  0.190512  0.809061  1
  Er  Er14  1  0.437286  0.433862  0.064426  1
  Er  Er15  1  0.189705  0.809794  0.189662  1
  In  In16  1  0.416941  0.419789  0.747550  1
  In  In17  1  0.747470  0.420784  0.415873  1
  In  In18  1  0.416941  0.419789  0.415722  1
  Hg  Hg19  1  0.413938  0.760073  0.412995  1
  Rh  Rh20  1  0.858049  0.425107  0.858422  1
  Rh  Rh21  1  0.857596  0.858928  0.427723  1
  Rh  Rh22  1  0.426459  0.857638  0.857951  1
  Rh  Rh23  1  0.857596  0.858928  0.855751  1
