# generated using pymatgen
data_Pm2Os3Rh
_symmetry_space_group_name_H-M   'P 1'
_cell_length_a   5.27526295
_cell_length_b   5.59644840
_cell_length_c   5.27526300
_cell_angle_alpha   61.88099583
_cell_angle_beta   60.00000595
_cell_angle_gamma   61.88099735
_symmetry_Int_Tables_number   1
_chemical_formula_structural   Pm2Os3Rh
_chemical_formula_sum   'Pm2 Os3 Rh1'
_cell_volume   113.15275190
_cell_formula_units_Z   1
loop_
 _symmetry_equiv_pos_site_id
 _symmetry_equiv_pos_as_xyz
  1  'x, y, z'
loop_
 _atom_site_type_symbol
 _atom_site_label
 _atom_site_symmetry_multiplicity
 _atom_site_fract_x
 _atom_site_fract_y
 _atom_site_fract_z
 _atom_site_occupancy
  Pm  Pm0  1  0.746958  0.759126  0.746958  1
  Pm  Pm1  1  0.503042  0.490874  0.503042  1
  Os  Os2  1  0.125000  0.125000  0.125000  1
  Os  Os3  1  0.625000  0.125000  0.125000  1
  Os  Os4  1  0.125000  0.125000  0.625000  1
  Rh  Rh5  1  0.125000  0.625000  0.125000  1
