# generated using pymatgen
data_Ho3Tm2Mo2C7
_symmetry_space_group_name_H-M   'P 1'
_cell_length_a   8.35411975
_cell_length_b   8.34724908
_cell_length_c   3.41109000
_cell_angle_alpha   90.00000000
_cell_angle_beta   90.00000000
_cell_angle_gamma   122.33869267
_symmetry_Int_Tables_number   1
_chemical_formula_structural   Ho3Tm2Mo2C7
_chemical_formula_sum   'Ho3 Tm2 Mo2 C7'
_cell_volume   200.97542751
_cell_formula_units_Z   1
loop_
 _symmetry_equiv_pos_site_id
 _symmetry_equiv_pos_as_xyz
  1  'x, y, z'
loop_
 _atom_site_type_symbol
 _atom_site_label
 _atom_site_symmetry_multiplicity
 _atom_site_fract_x
 _atom_site_fract_y
 _atom_site_fract_z
 _atom_site_occupancy
  Ho  Ho0  1  0.075489  0.332610  0.500000  1
  Ho  Ho1  1  0.924640  0.667316  0.500000  1
  Ho  Ho2  1  0.666611  0.924953  0.500000  1
  Tm  Tm3  1  0.499463  0.499665  0.000000  1
  Tm  Tm4  1  0.335432  0.076743  0.500000  1
  Mo  Mo5  1  0.711355  0.288383  0.000000  1
  Mo  Mo6  1  0.287843  0.712099  0.000000  1
  C  C7  1  0.621812  0.377189  0.500000  1
  C  C8  1  0.377313  0.622604  0.500000  1
  C  C9  1  0.000480  0.999451  0.000000  1
  C  C10  1  0.169944  0.166741  0.000000  1
  C  C11  1  0.831534  0.832093  0.000000  1
  C  C12  1  0.999708  0.499843  0.000000  1
  C  C13  1  0.498375  0.000310  0.000000  1
