# generated using pymatgen
data_Tb2Tm3Co19(Si3P)3
_symmetry_space_group_name_H-M   'P 1'
_cell_length_a   12.11836100
_cell_length_b   12.11836170
_cell_length_c   3.69941700
_cell_angle_alpha   90.00000000
_cell_angle_beta   90.00000000
_cell_angle_gamma   120.00000081
_symmetry_Int_Tables_number   1
_chemical_formula_structural   Tb2Tm3Co19(Si3P)3
_chemical_formula_sum   'Tb2 Tm3 Co19 Si9 P3'
_cell_volume   470.49142525
_cell_formula_units_Z   1
loop_
 _symmetry_equiv_pos_site_id
 _symmetry_equiv_pos_as_xyz
  1  'x, y, z'
loop_
 _atom_site_type_symbol
 _atom_site_label
 _atom_site_symmetry_multiplicity
 _atom_site_fract_x
 _atom_site_fract_y
 _atom_site_fract_z
 _atom_site_occupancy
  Tb  Tb0  1  0.666667  0.333333  0.000000  1
  Tb  Tb1  1  0.333333  0.666667  0.000000  1
  Tm  Tm2  1  0.184066  0.184066  0.500000  1
  Tm  Tm3  1  0.815934  0.000000  0.500000  1
  Tm  Tm4  1  0.000000  0.815934  0.500000  1
  Co  Co5  1  0.824949  0.196224  0.000000  1
  Co  Co6  1  0.803776  0.628723  0.000000  1
  Co  Co7  1  0.371277  0.175051  0.000000  1
  Co  Co8  1  0.196224  0.824949  0.000000  1
  Co  Co9  1  0.628723  0.803776  0.000000  1
  Co  Co10  1  0.175051  0.371277  0.000000  1
  Co  Co11  1  0.557554  0.557554  0.000000  1
  Co  Co12  1  0.442446  0.000000  0.000000  1
  Co  Co13  1  0.000000  0.442446  0.000000  1
  Co  Co14  1  0.645716  0.123257  0.500000  1
  Co  Co15  1  0.876743  0.522460  0.500000  1
  Co  Co16  1  0.477540  0.354284  0.500000  1
  Co  Co17  1  0.123257  0.645716  0.500000  1
  Co  Co18  1  0.522460  0.876743  0.500000  1
  Co  Co19  1  0.354284  0.477540  0.500000  1
  Co  Co20  1  0.724213  0.724213  0.500000  1
  Co  Co21  1  0.275787  0.000000  0.500000  1
  Co  Co22  1  0.000000  0.275787  0.500000  1
  Co  Co23  1  0.000000  0.000000  0.000000  1
  Si  Si24  1  0.368845  0.368845  0.000000  1
  Si  Si25  1  0.631155  0.000000  0.000000  1
  Si  Si26  1  0.000000  0.631155  0.000000  1
  Si  Si27  1  0.841980  0.318777  0.500000  1
  Si  Si28  1  0.681223  0.523204  0.500000  1
  Si  Si29  1  0.476796  0.158020  0.500000  1
  Si  Si30  1  0.318777  0.841980  0.500000  1
  Si  Si31  1  0.523204  0.681223  0.500000  1
  Si  Si32  1  0.158020  0.476796  0.500000  1
  P  P33  1  0.820345  0.820345  0.000000  1
  P  P34  1  0.179655  0.000000  0.000000  1
  P  P35  1  0.000000  0.179655  0.000000  1
