# generated using pymatgen
data_PrHo2Th3In10
_symmetry_space_group_name_H-M   'P 1'
_cell_length_a   6.58843947
_cell_length_b   6.58844002
_cell_length_c   10.34149596
_cell_angle_alpha   89.95586831
_cell_angle_beta   89.95587217
_cell_angle_gamma   102.39168056
_symmetry_Int_Tables_number   1
_chemical_formula_structural   PrHo2Th3In10
_chemical_formula_sum   'Pr1 Ho2 Th3 In10'
_cell_volume   438.44075412
_cell_formula_units_Z   1
loop_
 _symmetry_equiv_pos_site_id
 _symmetry_equiv_pos_as_xyz
  1  'x, y, z'
loop_
 _atom_site_type_symbol
 _atom_site_label
 _atom_site_symmetry_multiplicity
 _atom_site_fract_x
 _atom_site_fract_y
 _atom_site_fract_z
 _atom_site_occupancy
  Pr  Pr0  1  0.205759  0.794241  0.500000  1
  Ho  Ho1  1  0.631091  0.629546  0.248226  1
  Ho  Ho2  1  0.370454  0.368909  0.751774  1
  Th  Th3  1  0.205839  0.794161  0.000000  1
  Th  Th4  1  0.793140  0.206860  0.500000  1
  Th  Th5  1  0.793770  0.206230  0.000000  1
  In  In6  1  0.007766  0.008086  0.249749  1
  In  In7  1  0.991914  0.992234  0.750251  1
  In  In8  1  0.310604  0.310856  0.046999  1
  In  In9  1  0.689144  0.689396  0.953001  1
  In  In10  1  0.309862  0.308963  0.454071  1
  In  In11  1  0.691037  0.690138  0.545929  1
  In  In12  1  0.492425  0.065629  0.249277  1
  In  In13  1  0.934371  0.507575  0.750723  1
  In  In14  1  0.507908  0.935083  0.750087  1
  In  In15  1  0.064917  0.492092  0.249913  1
