# generated using pymatgen
data_Y4Ta2B4(IrRu)5
_symmetry_space_group_name_H-M   'P 1'
_cell_length_a   9.77036000
_cell_length_b   9.75480000
_cell_length_c   3.11766900
_cell_angle_alpha   90.00000000
_cell_angle_beta   90.00000000
_cell_angle_gamma   90.00049301
_symmetry_Int_Tables_number   1
_chemical_formula_structural   Y4Ta2B4(IrRu)5
_chemical_formula_sum   'Y4 Ta2 B4 Ir5 Ru5'
_cell_volume   297.13850937
_cell_formula_units_Z   1
loop_
 _symmetry_equiv_pos_site_id
 _symmetry_equiv_pos_as_xyz
  1  'x, y, z'
loop_
 _atom_site_type_symbol
 _atom_site_label
 _atom_site_symmetry_multiplicity
 _atom_site_fract_x
 _atom_site_fract_y
 _atom_site_fract_z
 _atom_site_occupancy
  Y  Y0  1  0.824239  0.674998  0.000000  1
  Y  Y1  1  0.173976  0.322478  0.000000  1
  Y  Y2  1  0.325400  0.828645  0.000000  1
  Y  Y3  1  0.675376  0.174028  0.000000  1
  Ta  Ta4  1  0.504869  0.498429  0.000000  1
  Ta  Ta5  1  0.999313  0.000052  0.000000  1
  B  B6  1  0.623286  0.886186  0.000000  1
  B  B7  1  0.376063  0.114406  0.000000  1
  B  B8  1  0.118237  0.616735  0.000000  1
  B  B9  1  0.877497  0.383752  0.000000  1
  Ir  Ir10  1  0.569328  0.720236  0.500000  1
  Ir  Ir11  1  0.429451  0.280315  0.500000  1
  Ir  Ir12  1  0.071571  0.779437  0.500000  1
  Ir  Ir13  1  0.929450  0.220214  0.500000  1
  Ir  Ir14  1  0.281657  0.569954  0.500000  1
  Ru  Ru15  1  0.719395  0.430111  0.500000  1
  Ru  Ru16  1  0.218216  0.070362  0.500000  1
  Ru  Ru17  1  0.781589  0.929034  0.500000  1
  Ru  Ru18  1  0.500294  0.000690  0.500000  1
  Ru  Ru19  1  0.000792  0.499938  0.500000  1
