# generated using pymatgen
data_YTh7(Si4Mo3)4
_symmetry_space_group_name_H-M   'P 1'
_cell_length_a   6.99552436
_cell_length_b   7.06455498
_cell_length_c   13.15424804
_cell_angle_alpha   89.99005358
_cell_angle_beta   89.90589235
_cell_angle_gamma   89.84652175
_symmetry_Int_Tables_number   1
_chemical_formula_structural   YTh7(Si4Mo3)4
_chemical_formula_sum   'Y1 Th7 Si16 Mo12'
_cell_volume   650.08322466
_cell_formula_units_Z   1
loop_
 _symmetry_equiv_pos_site_id
 _symmetry_equiv_pos_as_xyz
  1  'x, y, z'
loop_
 _atom_site_type_symbol
 _atom_site_label
 _atom_site_symmetry_multiplicity
 _atom_site_fract_x
 _atom_site_fract_y
 _atom_site_fract_z
 _atom_site_occupancy
  Y  Y0  1  0.994109  0.167447  0.095363  1
  Th  Th1  1  0.491446  0.338270  0.095739  1
  Th  Th2  1  0.992086  0.161713  0.404961  1
  Th  Th3  1  0.508624  0.663857  0.595559  1
  Th  Th4  1  0.006131  0.834355  0.905442  1
  Th  Th5  1  0.507874  0.663311  0.906566  1
  Th  Th6  1  0.009436  0.837512  0.594854  1
  Th  Th7  1  0.490326  0.334762  0.402751  1
  Si  Si8  1  0.655749  0.049505  0.548596  1
  Si  Si9  1  0.152760  0.447660  0.953262  1
  Si  Si10  1  0.338465  0.954529  0.049403  1
  Si  Si11  1  0.842303  0.547922  0.451609  1
  Si  Si12  1  0.348400  0.947304  0.449271  1
  Si  Si13  1  0.846932  0.543399  0.049190  1
  Si  Si14  1  0.657114  0.048968  0.954226  1
  Si  Si15  1  0.155625  0.450970  0.548129  1
  Si  Si16  1  0.538982  0.350986  0.750516  1
  Si  Si17  1  0.039085  0.147668  0.751342  1
  Si  Si18  1  0.460853  0.651974  0.252770  1
  Si  Si19  1  0.963034  0.858277  0.245489  1
  Si  Si20  1  0.815523  0.615031  0.750426  1
  Si  Si21  1  0.314115  0.884255  0.751144  1
  Si  Si22  1  0.180082  0.381185  0.248181  1
  Si  Si23  1  0.691905  0.117572  0.246145  1
  Mo  Mo24  1  0.831970  0.335647  0.625625  1
  Mo  Mo25  1  0.333113  0.163781  0.875972  1
  Mo  Mo26  1  0.167045  0.662528  0.125100  1
  Mo  Mo27  1  0.678990  0.840360  0.372954  1
  Mo  Mo28  1  0.160912  0.662039  0.372783  1
  Mo  Mo29  1  0.663306  0.834762  0.123985  1
  Mo  Mo30  1  0.830748  0.337030  0.875046  1
  Mo  Mo31  1  0.332002  0.161961  0.625777  1
  Mo  Mo32  1  0.670545  0.996926  0.751715  1
  Mo  Mo33  1  0.172030  0.501236  0.750256  1
  Mo  Mo34  1  0.330716  0.004475  0.249594  1
  Mo  Mo35  1  0.827663  0.500821  0.250256  1
