# generated using pymatgen
data_Cs4VGaSe6
_symmetry_space_group_name_H-M   'P 1'
_cell_length_a   8.27380785
_cell_length_b   8.27380850
_cell_length_c   10.63235883
_cell_angle_alpha   58.61157790
_cell_angle_beta   58.61157736
_cell_angle_gamma   54.25914263
_symmetry_Int_Tables_number   1
_chemical_formula_structural   Cs4VGaSe6
_chemical_formula_sum   'Cs4 V1 Ga1 Se6'
_cell_volume   479.03831372
_cell_formula_units_Z   1
loop_
 _symmetry_equiv_pos_site_id
 _symmetry_equiv_pos_as_xyz
  1  'x, y, z'
loop_
 _atom_site_type_symbol
 _atom_site_label
 _atom_site_symmetry_multiplicity
 _atom_site_fract_x
 _atom_site_fract_y
 _atom_site_fract_z
 _atom_site_occupancy
  Cs  Cs0  1  0.589741  0.589741  0.127936  1
  Cs  Cs1  1  0.419679  0.419679  0.857568  1
  Cs  Cs2  1  0.801532  0.801532  0.317677  1
  Cs  Cs3  1  0.192973  0.192973  0.684168  1
  V  V4  1  0.104795  0.104795  0.338698  1
  Ga  Ga5  1  0.879456  0.879456  0.688527  1
  Se  Se6  1  0.112984  0.112984  0.118903  1
  Se  Se7  1  0.894731  0.894731  0.895954  1
  Se  Se8  1  0.282110  0.282110  0.274102  1
  Se  Se9  1  0.708631  0.708631  0.717453  1
  Se  Se10  1  0.252803  0.760566  0.489508  1
  Se  Se11  1  0.760566  0.252803  0.489508  1
