# generated using pymatgen
data_Pu2WCl12
_symmetry_space_group_name_H-M   'P 1'
_cell_length_a   7.02620701
_cell_length_b   7.02533028
_cell_length_c   12.54974200
_cell_angle_alpha   89.99526160
_cell_angle_beta   89.99630597
_cell_angle_gamma   119.99421621
_symmetry_Int_Tables_number   1
_chemical_formula_structural   Pu2WCl12
_chemical_formula_sum   'Pu2 W1 Cl12'
_cell_volume   536.51074073
_cell_formula_units_Z   1
loop_
 _symmetry_equiv_pos_site_id
 _symmetry_equiv_pos_as_xyz
  1  'x, y, z'
loop_
 _atom_site_type_symbol
 _atom_site_label
 _atom_site_symmetry_multiplicity
 _atom_site_fract_x
 _atom_site_fract_y
 _atom_site_fract_z
 _atom_site_occupancy
  Pu  Pu0  1  0.666350  0.332696  0.000053  1
  Pu  Pu1  1  0.333001  0.664733  0.999996  1
  W  W2  1  0.000002  0.000006  0.499981  1
  Cl  Cl3  1  0.635698  0.002868  0.120707  1
  Cl  Cl4  1  0.361556  0.364057  0.120987  1
  Cl  Cl5  1  0.001108  0.633493  0.120381  1
  Cl  Cl6  1  0.268674  0.268662  0.606227  1
  Cl  Cl7  1  0.999977  0.731191  0.606206  1
  Cl  Cl8  1  0.731238  0.999917  0.606218  1
  Cl  Cl9  1  0.000001  0.268811  0.393717  1
  Cl  Cl10  1  0.268775  0.999977  0.393687  1
  Cl  Cl11  1  0.731280  0.731246  0.393675  1
  Cl  Cl12  1  0.366346  0.001138  0.879839  1
  Cl  Cl13  1  0.634919  0.635499  0.879806  1
  Cl  Cl14  1  0.001071  0.365706  0.878523  1
