# generated using pymatgen
data_ErTm3CrOs7
_symmetry_space_group_name_H-M   'P 1'
_cell_length_a   5.21393600
_cell_length_b   5.21395016
_cell_length_c   8.77288200
_cell_angle_alpha   90.00066295
_cell_angle_beta   89.99938535
_cell_angle_gamma   117.62500312
_symmetry_Int_Tables_number   1
_chemical_formula_structural   ErTm3CrOs7
_chemical_formula_sum   'Er1 Tm3 Cr1 Os7'
_cell_volume   211.30473448
_cell_formula_units_Z   1
loop_
 _symmetry_equiv_pos_site_id
 _symmetry_equiv_pos_as_xyz
  1  'x, y, z'
loop_
 _atom_site_type_symbol
 _atom_site_label
 _atom_site_symmetry_multiplicity
 _atom_site_fract_x
 _atom_site_fract_y
 _atom_site_fract_z
 _atom_site_occupancy
  Er  Er0  1  0.331453  0.668546  0.065159  1
  Tm  Tm1  1  0.331424  0.668576  0.434862  1
  Tm  Tm2  1  0.667945  0.332055  0.564341  1
  Tm  Tm3  1  0.667941  0.332059  0.935615  1
  Cr  Cr4  1  0.830810  0.169190  0.250079  1
  Os  Os5  1  0.994887  0.005113  0.496396  1
  Os  Os6  1  0.994873  0.005128  0.003535  1
  Os  Os7  1  0.827209  0.649582  0.250128  1
  Os  Os8  1  0.350420  0.172791  0.250128  1
  Os  Os9  1  0.172347  0.827654  0.749910  1
  Os  Os10  1  0.172974  0.342280  0.749924  1
  Os  Os11  1  0.657720  0.827025  0.749924  1
