# generated using pymatgen
data_Cs12Na8TaV(InP6)2
_symmetry_space_group_name_H-M   'P 1'
_cell_length_a   10.65743400
_cell_length_b   10.65743487
_cell_length_c   16.67827000
_cell_angle_alpha   90.00000000
_cell_angle_beta   90.00000000
_cell_angle_gamma   142.65223607
_symmetry_Int_Tables_number   1
_chemical_formula_structural   Cs12Na8TaV(InP6)2
_chemical_formula_sum   'Cs12 Na8 Ta1 V1 In2 P12'
_cell_volume   1149.19966518
_cell_formula_units_Z   1
loop_
 _symmetry_equiv_pos_site_id
 _symmetry_equiv_pos_as_xyz
  1  'x, y, z'
loop_
 _atom_site_type_symbol
 _atom_site_label
 _atom_site_symmetry_multiplicity
 _atom_site_fract_x
 _atom_site_fract_y
 _atom_site_fract_z
 _atom_site_occupancy
  Cs  Cs0  1  0.949374  0.609115  0.826712  1
  Cs  Cs1  1  0.553724  0.891783  0.328541  1
  Cs  Cs2  1  0.390885  0.050626  0.173288  1
  Cs  Cs3  1  0.061314  0.394724  0.171918  1
  Cs  Cs4  1  0.894674  0.561965  0.328393  1
  Cs  Cs5  1  0.438035  0.105326  0.671607  1
  Cs  Cs6  1  0.605276  0.938686  0.828082  1
  Cs  Cs7  1  0.275932  0.272070  0.319042  1
  Cs  Cs8  1  0.773238  0.778784  0.182964  1
  Cs  Cs9  1  0.221216  0.226762  0.817036  1
  Cs  Cs10  1  0.727930  0.724068  0.680958  1
  Cs  Cs11  1  0.108217  0.446276  0.671459  1
  Na  Na12  1  0.919389  0.080611  0.000000  1
  Na  Na13  1  0.580139  0.419861  0.500000  1
  Na  Na14  1  0.079942  0.920058  0.000000  1
  Na  Na15  1  0.420581  0.579419  0.500000  1
  Na  Na16  1  0.755475  0.244525  0.000000  1
  Na  Na17  1  0.744970  0.255030  0.500000  1
  Na  Na18  1  0.247947  0.752053  0.000000  1
  Na  Na19  1  0.252021  0.747979  0.500000  1
  Ta  Ta20  1  0.580944  0.419056  0.000000  1
  V  V21  1  0.919400  0.080600  0.500000  1
  In  In22  1  0.413400  0.586600  0.000000  1
  In  In23  1  0.084604  0.915396  0.500000  1
  P  P24  1  0.852844  0.551522  0.083975  1
  P  P25  1  0.448478  0.147156  0.916025  1
  P  P26  1  0.659479  0.954413  0.579763  1
  P  P27  1  0.934997  0.619151  0.594400  1
  P  P28  1  0.118777  0.434488  0.905379  1
  P  P29  1  0.565512  0.881223  0.094621  1
  P  P30  1  0.380849  0.065003  0.405600  1
  P  P31  1  0.182757  0.202784  0.581708  1
  P  P32  1  0.706609  0.691733  0.915882  1
  P  P33  1  0.308267  0.293391  0.084118  1
  P  P34  1  0.045587  0.340521  0.420237  1
  P  P35  1  0.797216  0.817243  0.418292  1
