# generated using pymatgen
data_DyEr3B12IrRh
_symmetry_space_group_name_H-M   'P 1'
_cell_length_a   3.63462800
_cell_length_b   9.14880439
_cell_length_c   11.48842155
_cell_angle_alpha   90.09437832
_cell_angle_beta   90.00000000
_cell_angle_gamma   90.00000000
_symmetry_Int_Tables_number   1
_chemical_formula_structural   DyEr3B12IrRh
_chemical_formula_sum   'Dy2 Er6 B24 Ir2 Rh2'
_cell_volume   382.01822631
_cell_formula_units_Z   2
loop_
 _symmetry_equiv_pos_site_id
 _symmetry_equiv_pos_as_xyz
  1  'x, y, z'
loop_
 _atom_site_type_symbol
 _atom_site_label
 _atom_site_symmetry_multiplicity
 _atom_site_fract_x
 _atom_site_fract_y
 _atom_site_fract_z
 _atom_site_occupancy
  Dy  Dy0  1  0.500000  0.323149  0.413941  1
  Dy  Dy1  1  0.500000  0.676851  0.586059  1
  Er  Er2  1  0.500000  0.178790  0.913026  1
  Er  Er3  1  0.500000  0.821210  0.086974  1
  Er  Er4  1  0.500000  0.445213  0.126279  1
  Er  Er5  1  0.500000  0.554787  0.873721  1
  Er  Er6  1  0.500000  0.056590  0.626184  1
  Er  Er7  1  0.500000  0.943410  0.373816  1
  B  B8  1  0.000000  0.108759  0.470336  1
  B  B9  1  0.000000  0.891241  0.529664  1
  B  B10  1  0.000000  0.389885  0.970238  1
  B  B11  1  0.000000  0.610115  0.029762  1
  B  B12  1  0.000000  0.132153  0.315838  1
  B  B13  1  0.000000  0.867847  0.684162  1
  B  B14  1  0.000000  0.366647  0.816538  1
  B  B15  1  0.000000  0.633353  0.183462  1
  B  B16  1  0.000000  0.053857  0.065711  1
  B  B17  1  0.000000  0.946143  0.934289  1
  B  B18  1  0.000000  0.446146  0.565846  1
  B  B19  1  0.000000  0.553854  0.434154  1
  B  B20  1  0.000000  0.482812  0.286573  1
  B  B21  1  0.000000  0.517188  0.713427  1
  B  B22  1  0.000000  0.017843  0.786878  1
  B  B23  1  0.000000  0.982157  0.213122  1
  B  B24  1  0.000000  0.249962  0.079140  1
  B  B25  1  0.000000  0.750038  0.920860  1
  B  B26  1  0.000000  0.250629  0.579873  1
  B  B27  1  0.000000  0.749371  0.420127  1
  B  B28  1  0.000000  0.293869  0.234842  1
  B  B29  1  0.000000  0.706131  0.765158  1
  B  B30  1  0.000000  0.205826  0.736151  1
  B  B31  1  0.000000  0.794174  0.263849  1
  Ir  Ir32  1  0.500000  0.138485  0.177731  1
  Ir  Ir33  1  0.500000  0.861515  0.822269  1
  Rh  Rh34  1  0.500000  0.359992  0.680701  1
  Rh  Rh35  1  0.500000  0.640008  0.319299  1
