# generated using pymatgen
data_Hf5Sn2Sb
_symmetry_space_group_name_H-M   'P 1'
_cell_length_a   7.42876400
_cell_length_b   8.90465300
_cell_length_c   10.79301900
_cell_angle_alpha   90.00000000
_cell_angle_beta   90.00000000
_cell_angle_gamma   90.00000000
_symmetry_Int_Tables_number   1
_chemical_formula_structural   Hf5Sn2Sb
_chemical_formula_sum   'Hf20 Sn8 Sb4'
_cell_volume   713.96431180
_cell_formula_units_Z   4
loop_
 _symmetry_equiv_pos_site_id
 _symmetry_equiv_pos_as_xyz
  1  'x, y, z'
loop_
 _atom_site_type_symbol
 _atom_site_label
 _atom_site_symmetry_multiplicity
 _atom_site_fract_x
 _atom_site_fract_y
 _atom_site_fract_z
 _atom_site_occupancy
  Hf  Hf0  1  0.812224  0.439806  0.560467  1
  Hf  Hf1  1  0.312224  0.060194  0.939533  1
  Hf  Hf2  1  0.187776  0.939806  0.439533  1
  Hf  Hf3  1  0.687776  0.560194  0.060467  1
  Hf  Hf4  1  0.149010  0.250000  0.723425  1
  Hf  Hf5  1  0.649010  0.250000  0.776575  1
  Hf  Hf6  1  0.850990  0.750000  0.276575  1
  Hf  Hf7  1  0.350990  0.750000  0.223425  1
  Hf  Hf8  1  0.312224  0.439806  0.939533  1
  Hf  Hf9  1  0.812224  0.060194  0.560467  1
  Hf  Hf10  1  0.687776  0.939806  0.060467  1
  Hf  Hf11  1  0.187776  0.560194  0.439533  1
  Hf  Hf12  1  0.185581  0.750000  0.717562  1
  Hf  Hf13  1  0.685581  0.750000  0.782438  1
  Hf  Hf14  1  0.814419  0.250000  0.282438  1
  Hf  Hf15  1  0.314419  0.250000  0.217562  1
  Hf  Hf16  1  0.011002  0.750000  0.990979  1
  Hf  Hf17  1  0.511002  0.750000  0.509021  1
  Hf  Hf18  1  0.988998  0.250000  0.009021  1
  Hf  Hf19  1  0.488998  0.250000  0.490979  1
  Sn  Sn20  1  0.568854  0.995818  0.326491  1
  Sn  Sn21  1  0.068854  0.504182  0.173509  1
  Sn  Sn22  1  0.431146  0.495818  0.673509  1
  Sn  Sn23  1  0.931146  0.004182  0.826491  1
  Sn  Sn24  1  0.431146  0.004182  0.673509  1
  Sn  Sn25  1  0.931146  0.495818  0.826491  1
  Sn  Sn26  1  0.568854  0.504182  0.326491  1
  Sn  Sn27  1  0.068854  0.995818  0.173509  1
  Sb  Sb28  1  0.401702  0.750000  0.959604  1
  Sb  Sb29  1  0.901702  0.750000  0.540396  1
  Sb  Sb30  1  0.598298  0.250000  0.040396  1
  Sb  Sb31  1  0.098298  0.250000  0.459604  1
