# generated using pymatgen
data_Hf3Tc(PRu)4
_symmetry_space_group_name_H-M   'P 1'
_cell_length_a   3.85101800
_cell_length_b   6.32184388
_cell_length_c   7.23346697
_cell_angle_alpha   89.41718726
_cell_angle_beta   90.00000000
_cell_angle_gamma   90.00000000
_symmetry_Int_Tables_number   1
_chemical_formula_structural   Hf3Tc(PRu)4
_chemical_formula_sum   'Hf3 Tc1 P4 Ru4'
_cell_volume   176.09350972
_cell_formula_units_Z   1
loop_
 _symmetry_equiv_pos_site_id
 _symmetry_equiv_pos_as_xyz
  1  'x, y, z'
loop_
 _atom_site_type_symbol
 _atom_site_label
 _atom_site_symmetry_multiplicity
 _atom_site_fract_x
 _atom_site_fract_y
 _atom_site_fract_z
 _atom_site_occupancy
  Hf  Hf0  1  0.250000  0.028814  0.178610  1
  Hf  Hf1  1  0.250000  0.523739  0.329846  1
  Hf  Hf2  1  0.750000  0.976069  0.815301  1
  Tc  Tc3  1  0.750000  0.470392  0.674749  1
  P  P4  1  0.250000  0.761550  0.626841  1
  P  P5  1  0.250000  0.286660  0.862779  1
  P  P6  1  0.750000  0.231096  0.389725  1
  P  P7  1  0.750000  0.728584  0.123333  1
  Ru  Ru8  1  0.250000  0.145039  0.563848  1
  Ru  Ru9  1  0.250000  0.650092  0.939000  1
  Ru  Ru10  1  0.750000  0.849312  0.438487  1
  Ru  Ru11  1  0.750000  0.348654  0.057481  1
