# generated using pymatgen
data_Ti13Be3(Al3Co4)2
_symmetry_space_group_name_H-M   'P 1'
_cell_length_a   8.38012240
_cell_length_b   8.38012187
_cell_length_c   8.33567820
_cell_angle_alpha   59.54086110
_cell_angle_beta   59.54086378
_cell_angle_gamma   59.68361962
_symmetry_Int_Tables_number   1
_chemical_formula_structural   Ti13Be3(Al3Co4)2
_chemical_formula_sum   'Ti13 Be3 Al6 Co8'
_cell_volume   410.05581641
_cell_formula_units_Z   1
loop_
 _symmetry_equiv_pos_site_id
 _symmetry_equiv_pos_as_xyz
  1  'x, y, z'
loop_
 _atom_site_type_symbol
 _atom_site_label
 _atom_site_symmetry_multiplicity
 _atom_site_fract_x
 _atom_site_fract_y
 _atom_site_fract_z
 _atom_site_occupancy
  Ti  Ti0  1  0.213174  0.213174  0.806578  1
  Ti  Ti1  1  0.799070  0.206334  0.201774  1
  Ti  Ti2  1  0.206334  0.799070  0.201774  1
  Ti  Ti3  1  0.804318  0.804318  0.179316  1
  Ti  Ti4  1  0.181692  0.784407  0.814122  1
  Ti  Ti5  1  0.784407  0.181692  0.814122  1
  Ti  Ti6  1  0.378916  0.378916  0.368084  1
  Ti  Ti7  1  0.378825  0.876440  0.369761  1
  Ti  Ti8  1  0.876440  0.378825  0.369761  1
  Ti  Ti9  1  0.374372  0.374372  0.886484  1
  Ti  Ti10  1  0.843339  0.467669  0.839817  1
  Ti  Ti11  1  0.467669  0.843339  0.839817  1
  Ti  Ti12  1  0.844159  0.844159  0.468355  1
  Be  Be13  1  0.155816  0.155816  0.163916  1
  Be  Be14  1  0.159808  0.520215  0.167385  1
  Be  Be15  1  0.520215  0.159808  0.167385  1
  Al  Al16  1  0.155520  0.155520  0.542367  1
  Al  Al17  1  0.617593  0.617593  0.614406  1
  Al  Al18  1  0.618262  0.149936  0.614676  1
  Al  Al19  1  0.149936  0.618262  0.614676  1
  Al  Al20  1  0.618305  0.618305  0.144812  1
  Al  Al21  1  0.827337  0.827337  0.826288  1
  Co  Co22  1  0.006657  0.006657  0.490949  1
  Co  Co23  1  0.493594  0.010805  0.007631  1
  Co  Co24  1  0.010805  0.493594  0.007631  1
  Co  Co25  1  0.494837  0.494837  0.005318  1
  Co  Co26  1  0.004690  0.504198  0.490018  1
  Co  Co27  1  0.504198  0.004690  0.490018  1
  Co  Co28  1  0.500673  0.500673  0.499623  1
  Co  Co29  1  0.009038  0.009038  0.993129  1
