# generated using pymatgen
data_Pu4U4B24MoW3
_symmetry_space_group_name_H-M   'P 1'
_cell_length_a   3.67130500
_cell_length_b   9.36648757
_cell_length_c   11.43284291
_cell_angle_alpha   89.93369527
_cell_angle_beta   90.00000000
_cell_angle_gamma   90.00000000
_symmetry_Int_Tables_number   1
_chemical_formula_structural   Pu4U4B24MoW3
_chemical_formula_sum   'Pu4 U4 B24 Mo1 W3'
_cell_volume   393.14356577
_cell_formula_units_Z   1
loop_
 _symmetry_equiv_pos_site_id
 _symmetry_equiv_pos_as_xyz
  1  'x, y, z'
loop_
 _atom_site_type_symbol
 _atom_site_label
 _atom_site_symmetry_multiplicity
 _atom_site_fract_x
 _atom_site_fract_y
 _atom_site_fract_z
 _atom_site_occupancy
  Pu  Pu0  1  0.000000  0.336186  0.406672  1
  Pu  Pu1  1  0.000000  0.663569  0.593364  1
  Pu  Pu2  1  0.000000  0.836354  0.093385  1
  Pu  Pu3  1  0.000000  0.163610  0.906540  1
  U  U4  1  0.000000  0.956205  0.394941  1
  U  U5  1  0.000000  0.043388  0.605499  1
  U  U6  1  0.000000  0.456430  0.105031  1
  U  U7  1  0.000000  0.544173  0.894551  1
  B  B8  1  0.500000  0.551359  0.432848  1
  B  B9  1  0.500000  0.448565  0.567214  1
  B  B10  1  0.500000  0.051444  0.067146  1
  B  B11  1  0.500000  0.948412  0.932515  1
  B  B12  1  0.500000  0.744502  0.424503  1
  B  B13  1  0.500000  0.255364  0.575706  1
  B  B14  1  0.500000  0.244611  0.075571  1
  B  B15  1  0.500000  0.755810  0.924168  1
  B  B16  1  0.500000  0.804507  0.273926  1
  B  B17  1  0.500000  0.195504  0.726176  1
  B  B18  1  0.500000  0.304498  0.226112  1
  B  B19  1  0.500000  0.695746  0.773843  1
  B  B20  1  0.500000  0.644388  0.187095  1
  B  B21  1  0.500000  0.355711  0.812792  1
  B  B22  1  0.500000  0.144302  0.312934  1
  B  B23  1  0.500000  0.855566  0.687386  1
  B  B24  1  0.500000  0.987401  0.219752  1
  B  B25  1  0.500000  0.012318  0.780419  1
  B  B26  1  0.500000  0.487383  0.280270  1
  B  B27  1  0.500000  0.512654  0.719594  1
  B  B28  1  0.500000  0.641091  0.039057  1
  B  B29  1  0.500000  0.359330  0.960713  1
  B  B30  1  0.500000  0.140651  0.460946  1
  B  B31  1  0.500000  0.858933  0.539399  1
  Mo  Mo32  1  0.000000  0.853697  0.819223  1
  W  W33  1  0.000000  0.646312  0.319439  1
  W  W34  1  0.000000  0.353704  0.680587  1
  W  W35  1  0.000000  0.146320  0.180688  1
