# generated using pymatgen
data_Tm8Lu7Sc4Si16Ag
_symmetry_space_group_name_H-M   'P 1'
_cell_length_a   7.06674953
_cell_length_b   7.49747978
_cell_length_c   14.17614500
_cell_angle_alpha   90.11474005
_cell_angle_beta   90.05842747
_cell_angle_gamma   89.97210561
_symmetry_Int_Tables_number   1
_chemical_formula_structural   Tm8Lu7Sc4Si16Ag
_chemical_formula_sum   'Tm8 Lu7 Sc4 Si16 Ag1'
_cell_volume   751.09003667
_cell_formula_units_Z   1
loop_
 _symmetry_equiv_pos_site_id
 _symmetry_equiv_pos_as_xyz
  1  'x, y, z'
loop_
 _atom_site_type_symbol
 _atom_site_label
 _atom_site_symmetry_multiplicity
 _atom_site_fract_x
 _atom_site_fract_y
 _atom_site_fract_z
 _atom_site_occupancy
  Tm  Tm0  1  0.015525  0.180610  0.096858  1
  Tm  Tm1  1  0.986946  0.810000  0.904019  1
  Tm  Tm2  1  0.481391  0.677579  0.902727  1
  Tm  Tm3  1  0.985557  0.809744  0.597731  1
  Tm  Tm4  1  0.512284  0.320281  0.095670  1
  Tm  Tm5  1  0.015321  0.181584  0.401891  1
  Tm  Tm6  1  0.513063  0.320293  0.402902  1
  Tm  Tm7  1  0.482470  0.676827  0.597110  1
  Lu  Lu8  1  0.319777  0.182259  0.628014  1
  Lu  Lu9  1  0.675131  0.824457  0.373398  1
  Lu  Lu10  1  0.174397  0.680251  0.372587  1
  Lu  Lu11  1  0.674512  0.824604  0.124886  1
  Lu  Lu12  1  0.835553  0.325586  0.627701  1
  Lu  Lu13  1  0.319667  0.183535  0.873395  1
  Lu  Lu14  1  0.835691  0.327316  0.873871  1
  Sc  Sc15  1  0.841153  0.490735  0.249006  1
  Sc  Sc16  1  0.343448  0.010623  0.248706  1
  Sc  Sc17  1  0.651760  0.988770  0.750340  1
  Sc  Sc18  1  0.173998  0.680010  0.128116  1
  Si  Si19  1  0.016257  0.076640  0.750682  1
  Si  Si20  1  0.978770  0.901914  0.248166  1
  Si  Si21  1  0.473255  0.602674  0.247165  1
  Si  Si22  1  0.529206  0.399298  0.750394  1
  Si  Si23  1  0.283388  0.870846  0.750435  1
  Si  Si24  1  0.716821  0.136869  0.249181  1
  Si  Si25  1  0.215655  0.366455  0.248605  1
  Si  Si26  1  0.771801  0.636317  0.750546  1
  Si  Si27  1  0.162805  0.462823  0.530495  1
  Si  Si28  1  0.842516  0.531740  0.460963  1
  Si  Si29  1  0.345115  0.970108  0.462041  1
  Si  Si30  1  0.849466  0.532215  0.041315  1
  Si  Si31  1  0.656254  0.030282  0.540990  1
  Si  Si32  1  0.165640  0.465753  0.973377  1
  Si  Si33  1  0.655370  0.030329  0.958969  1
  Si  Si34  1  0.339160  0.964153  0.037921  1
  Ag  Ag35  1  0.160877  0.526520  0.749828  1
