# generated using pymatgen
data_Sc2PaGa5Fe
_symmetry_space_group_name_H-M   'P 1'
_cell_length_a   6.52964200
_cell_length_b   6.84628597
_cell_length_c   4.17352200
_cell_angle_alpha   90.00000000
_cell_angle_beta   90.00000000
_cell_angle_gamma   118.48149554
_symmetry_Int_Tables_number   1
_chemical_formula_structural   Sc2PaGa5Fe
_chemical_formula_sum   'Sc2 Pa1 Ga5 Fe1'
_cell_volume   163.99165362
_cell_formula_units_Z   1
loop_
 _symmetry_equiv_pos_site_id
 _symmetry_equiv_pos_as_xyz
  1  'x, y, z'
loop_
 _atom_site_type_symbol
 _atom_site_label
 _atom_site_symmetry_multiplicity
 _atom_site_fract_x
 _atom_site_fract_y
 _atom_site_fract_z
 _atom_site_occupancy
  Sc  Sc0  1  0.003723  0.609604  0.000000  1
  Sc  Sc1  1  0.394119  0.390396  0.000000  1
  Pa  Pa2  1  0.614210  0.000000  0.000000  1
  Ga  Ga3  1  0.235770  0.000000  0.500000  1
  Ga  Ga4  1  0.016872  0.247998  0.500000  1
  Ga  Ga5  1  0.768875  0.752002  0.500000  1
  Ga  Ga6  1  0.331941  0.658050  0.500000  1
  Ga  Ga7  1  0.673892  0.341950  0.500000  1
  Fe  Fe8  1  0.960597  0.000000  0.000000  1
