# generated using pymatgen
data_AgOs2F12
_symmetry_space_group_name_H-M   'P 1'
_cell_length_a   5.41833242
_cell_length_b   5.88041953
_cell_length_c   9.33707973
_cell_angle_alpha   104.67192639
_cell_angle_beta   90.40492235
_cell_angle_gamma   117.56494305
_symmetry_Int_Tables_number   1
_chemical_formula_structural   AgOs2F12
_chemical_formula_sum   'Ag1 Os2 F12'
_cell_volume   252.43592360
_cell_formula_units_Z   1
loop_
 _symmetry_equiv_pos_site_id
 _symmetry_equiv_pos_as_xyz
  1  'x, y, z'
loop_
 _atom_site_type_symbol
 _atom_site_label
 _atom_site_symmetry_multiplicity
 _atom_site_fract_x
 _atom_site_fract_y
 _atom_site_fract_z
 _atom_site_occupancy
  Ag  Ag0  1  0.000000  0.000000  0.000000  1
  Os  Os1  1  0.766080  0.506056  0.260319  1
  Os  Os2  1  0.233920  0.493944  0.739681  1
  F  F3  1  0.841695  0.276887  0.710628  1
  F  F4  1  0.158305  0.723113  0.289372  1
  F  F5  1  0.209786  0.719762  0.923791  1
  F  F6  1  0.729400  0.726429  0.432616  1
  F  F7  1  0.270600  0.273571  0.567384  1
  F  F8  1  0.799950  0.288635  0.366337  1
  F  F9  1  0.200050  0.711365  0.633663  1
  F  F10  1  0.365199  0.280066  0.221142  1
  F  F11  1  0.634801  0.719934  0.778858  1
  F  F12  1  0.721182  0.716341  0.144147  1
  F  F13  1  0.278818  0.283659  0.855853  1
  F  F14  1  0.790214  0.280238  0.076209  1
