# generated using pymatgen
data_Nb6Al3ZnCN
_symmetry_space_group_name_H-M   'P 1'
_cell_length_a   7.10152123
_cell_length_b   7.09509870
_cell_length_c   7.09613000
_cell_angle_alpha   90.00000000
_cell_angle_beta   90.00000000
_cell_angle_gamma   89.91212350
_symmetry_Int_Tables_number   1
_chemical_formula_structural   Nb6Al3ZnCN
_chemical_formula_sum   'Nb12 Al6 Zn2 C2 N2'
_cell_volume   357.54514296
_cell_formula_units_Z   2
loop_
 _symmetry_equiv_pos_site_id
 _symmetry_equiv_pos_as_xyz
  1  'x, y, z'
loop_
 _atom_site_type_symbol
 _atom_site_label
 _atom_site_symmetry_multiplicity
 _atom_site_fract_x
 _atom_site_fract_y
 _atom_site_fract_z
 _atom_site_occupancy
  Nb  Nb0  1  0.792408  0.955258  0.375492  1
  Nb  Nb1  1  0.707592  0.044742  0.875492  1
  Nb  Nb2  1  0.204850  0.456344  0.126345  1
  Nb  Nb3  1  0.295150  0.543656  0.626345  1
  Nb  Nb4  1  0.955528  0.377956  0.793613  1
  Nb  Nb5  1  0.043505  0.870846  0.706224  1
  Nb  Nb6  1  0.456495  0.129154  0.206224  1
  Nb  Nb7  1  0.544472  0.622044  0.293613  1
  Nb  Nb8  1  0.375712  0.792461  0.954985  1
  Nb  Nb9  1  0.873679  0.705313  0.043151  1
  Nb  Nb10  1  0.124288  0.207539  0.454985  1
  Nb  Nb11  1  0.626321  0.294687  0.543151  1
  Al  Al12  1  0.822101  0.320543  0.177767  1
  Al  Al13  1  0.677899  0.679457  0.677767  1
  Al  Al14  1  0.567560  0.424955  0.927540  1
  Al  Al15  1  0.423631  0.931067  0.571369  1
  Al  Al16  1  0.932440  0.575045  0.427540  1
  Al  Al17  1  0.076369  0.068933  0.071369  1
  Zn  Zn18  1  0.180553  0.820721  0.319586  1
  Zn  Zn19  1  0.319447  0.179279  0.819586  1
  C  C20  1  0.877750  0.124552  0.626255  1
  C  C21  1  0.622250  0.875448  0.126255  1
  N  N22  1  0.126440  0.623657  0.877673  1
  N  N23  1  0.373560  0.376343  0.377673  1
