# generated using pymatgen
data_Dy2Y4InCoTc
_symmetry_space_group_name_H-M   'P 1'
_cell_length_a   8.46595206
_cell_length_b   8.46595224
_cell_length_c   8.46595131
_cell_angle_alpha   112.84525791
_cell_angle_beta   110.87198291
_cell_angle_gamma   104.80174962
_symmetry_Int_Tables_number   1
_chemical_formula_structural   Dy2Y4InCoTc
_chemical_formula_sum   'Dy4 Y8 In2 Co2 Tc2'
_cell_volume   464.64290041
_cell_formula_units_Z   2
loop_
 _symmetry_equiv_pos_site_id
 _symmetry_equiv_pos_as_xyz
  1  'x, y, z'
loop_
 _atom_site_type_symbol
 _atom_site_label
 _atom_site_symmetry_multiplicity
 _atom_site_fract_x
 _atom_site_fract_y
 _atom_site_fract_z
 _atom_site_occupancy
  Dy  Dy0  1  0.327334  0.647802  0.320468  1
  Dy  Dy1  1  0.672666  0.352198  0.679532  1
  Dy  Dy2  1  0.327334  0.006865  0.679532  1
  Dy  Dy3  1  0.672666  0.993135  0.320468  1
  Y  Y4  1  0.443874  0.244303  0.199574  1
  Y  Y5  1  0.556126  0.755697  0.800426  1
  Y  Y6  1  0.044729  0.244303  0.800426  1
  Y  Y7  1  0.955271  0.755697  0.199574  1
  Y  Y8  1  0.184529  0.286778  0.471307  1
  Y  Y9  1  0.815471  0.713222  0.528693  1
  Y  Y10  1  0.184529  0.713222  0.897751  1
  Y  Y11  1  0.815471  0.286778  0.102249  1
  In  In12  1  0.500000  0.500000  0.000000  1
  In  In13  1  0.000000  0.000000  0.000000  1
  Co  Co14  1  0.109683  0.609683  0.500000  1
  Co  Co15  1  0.890317  0.390317  0.500000  1
  Tc  Tc16  1  0.324736  0.000000  0.324736  1
  Tc  Tc17  1  0.675264  0.000000  0.675264  1
