# generated using pymatgen
data_ThBN
_symmetry_space_group_name_H-M   'P 1'
_cell_length_a   6.43959280
_cell_length_b   6.43959333
_cell_length_c   3.46128400
_cell_angle_alpha   90.00000000
_cell_angle_beta   90.00000000
_cell_angle_gamma   145.65389795
_symmetry_Int_Tables_number   1
_chemical_formula_structural   ThBN
_chemical_formula_sum   'Th2 B2 N2'
_cell_volume   80.98039806
_cell_formula_units_Z   2
loop_
 _symmetry_equiv_pos_site_id
 _symmetry_equiv_pos_as_xyz
  1  'x, y, z'
loop_
 _atom_site_type_symbol
 _atom_site_label
 _atom_site_symmetry_multiplicity
 _atom_site_fract_x
 _atom_site_fract_y
 _atom_site_fract_z
 _atom_site_occupancy
  Th  Th0  1  0.862600  0.137400  0.750000  1
  Th  Th1  1  0.137400  0.862600  0.250000  1
  B  B2  1  0.534361  0.465639  0.750000  1
  B  B3  1  0.465639  0.534361  0.250000  1
  N  N4  1  0.658289  0.341711  0.750000  1
  N  N5  1  0.341711  0.658289  0.250000  1
