# generated using pymatgen
data_Tb2HoTiAl11Ru4
_symmetry_space_group_name_H-M   'P 1'
_cell_length_a   8.85127827
_cell_length_b   8.85127827
_cell_length_c   9.53821901
_cell_angle_alpha   89.99527269
_cell_angle_beta   90.00472978
_cell_angle_gamma   120.02784895
_symmetry_Int_Tables_number   1
_chemical_formula_structural   Tb2HoTiAl11Ru4
_chemical_formula_sum   'Tb4 Ho2 Ti2 Al22 Ru8'
_cell_volume   646.97569636
_cell_formula_units_Z   2
loop_
 _symmetry_equiv_pos_site_id
 _symmetry_equiv_pos_as_xyz
  1  'x, y, z'
loop_
 _atom_site_type_symbol
 _atom_site_label
 _atom_site_symmetry_multiplicity
 _atom_site_fract_x
 _atom_site_fract_y
 _atom_site_fract_z
 _atom_site_occupancy
  Tb  Tb0  1  0.193566  0.387203  0.251263  1
  Tb  Tb1  1  0.806434  0.612797  0.748737  1
  Tb  Tb2  1  0.612797  0.806434  0.251263  1
  Tb  Tb3  1  0.387203  0.193566  0.748737  1
  Ho  Ho4  1  0.193831  0.806169  0.251274  1
  Ho  Ho5  1  0.806169  0.193831  0.748726  1
  Ti  Ti6  1  0.333294  0.666706  0.997617  1
  Ti  Ti7  1  0.666706  0.333294  0.002383  1
  Al  Al8  1  0.666757  0.333243  0.516616  1
  Al  Al9  1  0.333243  0.666757  0.483384  1
  Al  Al10  1  0.161412  0.323067  0.577444  1
  Al  Al11  1  0.838588  0.676933  0.422556  1
  Al  Al12  1  0.676933  0.838588  0.577444  1
  Al  Al13  1  0.840892  0.681559  0.077118  1
  Al  Al14  1  0.323067  0.161412  0.422556  1
  Al  Al15  1  0.159108  0.318441  0.922882  1
  Al  Al16  1  0.161558  0.838442  0.577220  1
  Al  Al17  1  0.318441  0.159108  0.077118  1
  Al  Al18  1  0.838442  0.161558  0.422780  1
  Al  Al19  1  0.681559  0.840892  0.922882  1
  Al  Al20  1  0.840728  0.159272  0.076864  1
  Al  Al21  1  0.159272  0.840728  0.923136  1
  Al  Al22  1  0.560758  0.121862  0.251902  1
  Al  Al23  1  0.439242  0.878138  0.748098  1
  Al  Al24  1  0.878138  0.439242  0.251902  1
  Al  Al25  1  0.121862  0.560758  0.748098  1
  Al  Al26  1  0.561075  0.438925  0.251924  1
  Al  Al27  1  0.438925  0.561075  0.748076  1
  Al  Al28  1  0.000164  0.999836  0.250498  1
  Al  Al29  1  0.999836  0.000164  0.749502  1
  Ru  Ru30  1  0.500000  0.000000  0.000000  1
  Ru  Ru31  1  0.000000  0.500000  0.000000  1
  Ru  Ru32  1  0.500000  0.000000  0.500000  1
  Ru  Ru33  1  0.500000  0.500000  0.000000  1
  Ru  Ru34  1  0.000000  0.500000  0.500000  1
  Ru  Ru35  1  0.500000  0.500000  0.500000  1
  Ru  Ru36  1  0.000000  0.000000  0.000000  1
  Ru  Ru37  1  0.000000  0.000000  0.500000  1
