# generated using pymatgen
data_Ho20Zn6OsRu
_symmetry_space_group_name_H-M   'P 1'
_cell_length_a   9.39537700
_cell_length_b   9.39537711
_cell_length_c   9.62675800
_cell_angle_alpha   90.00000000
_cell_angle_beta   90.00000000
_cell_angle_gamma   120.00000313
_symmetry_Int_Tables_number   1
_chemical_formula_structural   Ho20Zn6OsRu
_chemical_formula_sum   'Ho20 Zn6 Os1 Ru1'
_cell_volume   735.93439426
_cell_formula_units_Z   1
loop_
 _symmetry_equiv_pos_site_id
 _symmetry_equiv_pos_as_xyz
  1  'x, y, z'
loop_
 _atom_site_type_symbol
 _atom_site_label
 _atom_site_symmetry_multiplicity
 _atom_site_fract_x
 _atom_site_fract_y
 _atom_site_fract_z
 _atom_site_occupancy
  Ho  Ho0  1  0.000000  0.000000  0.499524  1
  Ho  Ho1  1  0.000000  0.000000  0.000476  1
  Ho  Ho2  1  0.207792  0.792208  0.442626  1
  Ho  Ho3  1  0.207792  0.415585  0.442626  1
  Ho  Ho4  1  0.584415  0.792208  0.442626  1
  Ho  Ho5  1  0.792021  0.207979  0.558306  1
  Ho  Ho6  1  0.792021  0.584040  0.558306  1
  Ho  Ho7  1  0.415960  0.207979  0.558306  1
  Ho  Ho8  1  0.792021  0.207979  0.941694  1
  Ho  Ho9  1  0.792021  0.584040  0.941694  1
  Ho  Ho10  1  0.415960  0.207979  0.941694  1
  Ho  Ho11  1  0.207792  0.792208  0.057374  1
  Ho  Ho12  1  0.207792  0.415585  0.057374  1
  Ho  Ho13  1  0.584415  0.792208  0.057374  1
  Ho  Ho14  1  0.540193  0.459807  0.250000  1
  Ho  Ho15  1  0.540193  0.080387  0.250000  1
  Ho  Ho16  1  0.919613  0.459807  0.250000  1
  Ho  Ho17  1  0.458582  0.541418  0.750000  1
  Ho  Ho18  1  0.458582  0.917165  0.750000  1
  Ho  Ho19  1  0.082835  0.541418  0.750000  1
  Zn  Zn20  1  0.885710  0.114290  0.250000  1
  Zn  Zn21  1  0.885710  0.771422  0.250000  1
  Zn  Zn22  1  0.228578  0.114290  0.250000  1
  Zn  Zn23  1  0.114311  0.885689  0.750000  1
  Zn  Zn24  1  0.114311  0.228621  0.750000  1
  Zn  Zn25  1  0.771379  0.885689  0.750000  1
  Os  Os26  1  0.333333  0.666667  0.250000  1
  Ru  Ru27  1  0.666667  0.333333  0.750000  1
