# generated using pymatgen
data_Ti3Ir2W
_symmetry_space_group_name_H-M   'P 1'
_cell_length_a   4.41746200
_cell_length_b   4.41746346
_cell_length_c   5.40527600
_cell_angle_alpha   90.00000000
_cell_angle_beta   90.00000000
_cell_angle_gamma   119.99998905
_symmetry_Int_Tables_number   1
_chemical_formula_structural   Ti3Ir2W
_chemical_formula_sum   'Ti3 Ir2 W1'
_cell_volume   91.34701124
_cell_formula_units_Z   1
loop_
 _symmetry_equiv_pos_site_id
 _symmetry_equiv_pos_as_xyz
  1  'x, y, z'
loop_
 _atom_site_type_symbol
 _atom_site_label
 _atom_site_symmetry_multiplicity
 _atom_site_fract_x
 _atom_site_fract_y
 _atom_site_fract_z
 _atom_site_occupancy
  Ti  Ti0  1  0.333333  0.666667  0.664037  1
  Ti  Ti1  1  0.666667  0.333333  0.335963  1
  Ti  Ti2  1  0.000000  0.000000  0.000000  1
  Ir  Ir3  1  0.333333  0.666667  0.163768  1
  Ir  Ir4  1  0.666667  0.333333  0.836232  1
  W  W5  1  0.000000  0.000000  0.500000  1
