# generated using pymatgen
data_Dy2B8IrRu
_symmetry_space_group_name_H-M   'P 1'
_cell_length_a   3.56551400
_cell_length_b   5.96683545
_cell_length_c   11.56272701
_cell_angle_alpha   89.87585559
_cell_angle_beta   90.00000000
_cell_angle_gamma   90.00000000
_symmetry_Int_Tables_number   1
_chemical_formula_structural   Dy2B8IrRu
_chemical_formula_sum   'Dy4 B16 Ir2 Ru2'
_cell_volume   245.99453587
_cell_formula_units_Z   2
loop_
 _symmetry_equiv_pos_site_id
 _symmetry_equiv_pos_as_xyz
  1  'x, y, z'
loop_
 _atom_site_type_symbol
 _atom_site_label
 _atom_site_symmetry_multiplicity
 _atom_site_fract_x
 _atom_site_fract_y
 _atom_site_fract_z
 _atom_site_occupancy
  Dy  Dy0  1  0.000000  0.630111  0.352411  1
  Dy  Dy1  1  0.000000  0.369889  0.647589  1
  Dy  Dy2  1  0.000000  0.131665  0.151071  1
  Dy  Dy3  1  0.000000  0.868335  0.848929  1
  B  B4  1  0.500000  0.790388  0.188002  1
  B  B5  1  0.500000  0.209612  0.811998  1
  B  B6  1  0.500000  0.289950  0.314439  1
  B  B7  1  0.500000  0.710050  0.685561  1
  B  B8  1  0.500000  0.863029  0.029311  1
  B  B9  1  0.500000  0.136971  0.970689  1
  B  B10  1  0.500000  0.363757  0.469223  1
  B  B11  1  0.500000  0.636243  0.530777  1
  B  B12  1  0.500000  0.888395  0.453835  1
  B  B13  1  0.500000  0.111605  0.546165  1
  B  B14  1  0.500000  0.388206  0.047363  1
  B  B15  1  0.500000  0.611794  0.952637  1
  B  B16  1  0.500000  0.976122  0.308797  1
  B  B17  1  0.500000  0.023878  0.691203  1
  B  B18  1  0.500000  0.477049  0.193081  1
  B  B19  1  0.500000  0.522951  0.806919  1
  Ir  Ir20  1  0.000000  0.645372  0.096070  1
  Ir  Ir21  1  0.000000  0.354628  0.903930  1
  Ru  Ru22  1  0.000000  0.140371  0.407136  1
  Ru  Ru23  1  0.000000  0.859629  0.592864  1
