# generated using pymatgen
data_Li6Sn6PtRh11
_symmetry_space_group_name_H-M   'P 1'
_cell_length_a   4.39353000
_cell_length_b   6.24035900
_cell_length_c   13.23380100
_cell_angle_alpha   90.00014705
_cell_angle_beta   89.99838617
_cell_angle_gamma   90.00009807
_symmetry_Int_Tables_number   1
_chemical_formula_structural   Li6Sn6PtRh11
_chemical_formula_sum   'Li6 Sn6 Pt1 Rh11'
_cell_volume   362.83382796
_cell_formula_units_Z   1
loop_
 _symmetry_equiv_pos_site_id
 _symmetry_equiv_pos_as_xyz
  1  'x, y, z'
loop_
 _atom_site_type_symbol
 _atom_site_label
 _atom_site_symmetry_multiplicity
 _atom_site_fract_x
 _atom_site_fract_y
 _atom_site_fract_z
 _atom_site_occupancy
  Li  Li0  1  0.000000  0.999134  0.999998  1
  Li  Li1  1  0.499765  0.500304  0.167225  1
  Li  Li2  1  0.999790  0.000178  0.333663  1
  Li  Li3  1  0.500001  0.499670  0.500000  1
  Li  Li4  1  0.000209  0.000184  0.666333  1
  Li  Li5  1  0.500235  0.500304  0.832765  1
  Sn  Sn6  1  0.999999  0.508438  0.000003  1
  Sn  Sn7  1  0.499730  0.996188  0.169846  1
  Sn  Sn8  1  0.999666  0.499755  0.333376  1
  Sn  Sn9  1  0.500000  0.000297  0.499990  1
  Sn  Sn10  1  0.000332  0.499770  0.666618  1
  Sn  Sn11  1  0.500270  0.996214  0.830197  1
  Pt  Pt12  1  0.500000  0.248490  0.000018  1
  Rh  Rh13  1  0.499999  0.753767  0.000011  1
  Rh  Rh14  1  0.999711  0.250141  0.164871  1
  Rh  Rh15  1  0.999741  0.749706  0.166815  1
  Rh  Rh16  1  0.499718  0.250447  0.333105  1
  Rh  Rh17  1  0.499715  0.748396  0.334361  1
  Rh  Rh18  1  0.999998  0.249954  0.499988  1
  Rh  Rh19  1  0.999999  0.749935  0.499992  1
  Rh  Rh20  1  0.500284  0.250431  0.666882  1
  Rh  Rh21  1  0.500283  0.748421  0.665631  1
  Rh  Rh22  1  0.000290  0.250151  0.835126  1
  Rh  Rh23  1  0.000258  0.749714  0.833190  1
