# generated using pymatgen
data_Cs2Eu(NbCl3)6
_symmetry_space_group_name_H-M   'P 1'
_cell_length_a   10.33297024
_cell_length_b   10.33297001
_cell_length_c   10.33297000
_cell_angle_alpha   55.06338270
_cell_angle_beta   55.06338361
_cell_angle_gamma   55.06338158
_symmetry_Int_Tables_number   1
_chemical_formula_structural   Cs2Eu(NbCl3)6
_chemical_formula_sum   'Cs2 Eu1 Nb6 Cl18'
_cell_volume   690.53713258
_cell_formula_units_Z   1
loop_
 _symmetry_equiv_pos_site_id
 _symmetry_equiv_pos_as_xyz
  1  'x, y, z'
loop_
 _atom_site_type_symbol
 _atom_site_label
 _atom_site_symmetry_multiplicity
 _atom_site_fract_x
 _atom_site_fract_y
 _atom_site_fract_z
 _atom_site_occupancy
  Cs  Cs0  1  0.723859  0.723745  0.723719  1
  Cs  Cs1  1  0.276141  0.276255  0.276281  1
  Eu  Eu2  1  0.000000  0.000000  0.000000  1
  Nb  Nb3  1  0.583149  0.352515  0.701270  1
  Nb  Nb4  1  0.352556  0.701314  0.583037  1
  Nb  Nb5  1  0.701498  0.583198  0.352430  1
  Nb  Nb6  1  0.647444  0.298686  0.416963  1
  Nb  Nb7  1  0.416851  0.647485  0.298730  1
  Nb  Nb8  1  0.298502  0.416802  0.647570  1
  Cl  Cl9  1  0.909633  0.362075  0.226593  1
  Cl  Cl10  1  0.836832  0.423278  0.564033  1
  Cl  Cl11  1  0.773504  0.090304  0.637960  1
  Cl  Cl12  1  0.090367  0.637925  0.773407  1
  Cl  Cl13  1  0.682194  0.169638  0.960777  1
  Cl  Cl14  1  0.226496  0.909696  0.362040  1
  Cl  Cl15  1  0.435961  0.163160  0.576757  1
  Cl  Cl16  1  0.637928  0.773441  0.090409  1
  Cl  Cl17  1  0.576672  0.435982  0.163334  1
  Cl  Cl18  1  0.038850  0.317772  0.830632  1
  Cl  Cl19  1  0.564039  0.836840  0.423243  1
  Cl  Cl20  1  0.362072  0.226559  0.909591  1
  Cl  Cl21  1  0.961150  0.682228  0.169368  1
  Cl  Cl22  1  0.163168  0.576722  0.435967  1
  Cl  Cl23  1  0.830407  0.039296  0.317767  1
  Cl  Cl24  1  0.423328  0.564018  0.836666  1
  Cl  Cl25  1  0.169593  0.960704  0.682233  1
  Cl  Cl26  1  0.317806  0.830362  0.039223  1
