# generated using pymatgen
data_LaSm2Ir2Rh7
_symmetry_space_group_name_H-M   'P 1'
_cell_length_a   5.32326712
_cell_length_b   5.32489214
_cell_length_c   17.52973400
_cell_angle_alpha   90.00000000
_cell_angle_beta   89.98771910
_cell_angle_gamma   120.01008764
_symmetry_Int_Tables_number   1
_chemical_formula_structural   LaSm2Ir2Rh7
_chemical_formula_sum   'La2 Sm4 Ir4 Rh14'
_cell_volume   430.27970705
_cell_formula_units_Z   2
loop_
 _symmetry_equiv_pos_site_id
 _symmetry_equiv_pos_as_xyz
  1  'x, y, z'
loop_
 _atom_site_type_symbol
 _atom_site_label
 _atom_site_symmetry_multiplicity
 _atom_site_fract_x
 _atom_site_fract_y
 _atom_site_fract_z
 _atom_site_occupancy
  La  La0  1  0.333016  0.666508  0.749717  1
  La  La1  1  0.666920  0.333459  0.250602  1
  Sm  Sm2  1  0.332871  0.666436  0.959033  1
  Sm  Sm3  1  0.666929  0.333464  0.041088  1
  Sm  Sm4  1  0.667913  0.333956  0.459294  1
  Sm  Sm5  1  0.333950  0.666976  0.540453  1
  Ir  Ir6  1  0.164960  0.831464  0.374617  1
  Ir  Ir7  1  0.164960  0.333495  0.374617  1
  Ir  Ir8  1  0.003101  0.001550  0.500212  1
  Ir  Ir9  1  0.998730  0.999365  0.000122  1
  Rh  Rh10  1  0.664310  0.832155  0.373726  1
  Rh  Rh11  1  0.833004  0.166787  0.625252  1
  Rh  Rh12  1  0.833004  0.666218  0.625252  1
  Rh  Rh13  1  0.333523  0.166763  0.625920  1
  Rh  Rh14  1  0.832605  0.166537  0.875030  1
  Rh  Rh15  1  0.832605  0.666069  0.875030  1
  Rh  Rh16  1  0.333318  0.166660  0.874518  1
  Rh  Rh17  1  0.167806  0.833482  0.124414  1
  Rh  Rh18  1  0.167806  0.334323  0.124414  1
  Rh  Rh19  1  0.667152  0.833576  0.126151  1
  Rh  Rh20  1  0.326648  0.663324  0.249800  1
  Rh  Rh21  1  0.668967  0.334483  0.750486  1
  Rh  Rh22  1  0.009542  0.004771  0.250118  1
  Rh  Rh23  1  0.996358  0.998179  0.750134  1
