# generated using pymatgen
data_BaBiSbAu2
_symmetry_space_group_name_H-M   'P 1'
_cell_length_a   4.88088500
_cell_length_b   4.98851233
_cell_length_c   11.71769654
_cell_angle_alpha   89.03070706
_cell_angle_beta   90.00000000
_cell_angle_gamma   90.00000000
_symmetry_Int_Tables_number   1
_chemical_formula_structural   BaBiSbAu2
_chemical_formula_sum   'Ba2 Bi2 Sb2 Au4'
_cell_volume   285.26580908
_cell_formula_units_Z   2
loop_
 _symmetry_equiv_pos_site_id
 _symmetry_equiv_pos_as_xyz
  1  'x, y, z'
loop_
 _atom_site_type_symbol
 _atom_site_label
 _atom_site_symmetry_multiplicity
 _atom_site_fract_x
 _atom_site_fract_y
 _atom_site_fract_z
 _atom_site_occupancy
  Ba  Ba0  1  0.250000  0.735923  0.765525  1
  Ba  Ba1  1  0.750000  0.264077  0.234475  1
  Bi  Bi2  1  0.750000  0.750935  0.500471  1
  Bi  Bi3  1  0.250000  0.249065  0.499529  1
  Sb  Sb4  1  0.250000  0.804099  0.118802  1
  Sb  Sb5  1  0.750000  0.195901  0.881198  1
  Au  Au6  1  0.750000  0.692840  0.001153  1
  Au  Au7  1  0.750000  0.248633  0.649419  1
  Au  Au8  1  0.250000  0.751367  0.350581  1
  Au  Au9  1  0.250000  0.307160  0.998847  1
