# generated using pymatgen
data_Dy6GaSi5Rh2
_symmetry_space_group_name_H-M   'P 1'
_cell_length_a   5.67676291
_cell_length_b   5.67676337
_cell_length_c   13.52798800
_cell_angle_alpha   109.10499259
_cell_angle_beta   109.10499420
_cell_angle_gamma   43.54612049
_symmetry_Int_Tables_number   1
_chemical_formula_structural   Dy6GaSi5Rh2
_chemical_formula_sum   'Dy6 Ga1 Si5 Rh2'
_cell_volume   281.06933080
_cell_formula_units_Z   1
loop_
 _symmetry_equiv_pos_site_id
 _symmetry_equiv_pos_as_xyz
  1  'x, y, z'
loop_
 _atom_site_type_symbol
 _atom_site_label
 _atom_site_symmetry_multiplicity
 _atom_site_fract_x
 _atom_site_fract_y
 _atom_site_fract_z
 _atom_site_occupancy
  Dy  Dy0  1  0.399459  0.399459  0.078824  1
  Dy  Dy1  1  0.744659  0.744659  0.232876  1
  Dy  Dy2  1  0.521471  0.521471  0.376092  1
  Dy  Dy3  1  0.477823  0.477823  0.625066  1
  Dy  Dy4  1  0.254909  0.254909  0.770736  1
  Dy  Dy5  1  0.601189  0.601189  0.915865  1
  Ga  Ga6  1  0.114911  0.114911  0.074254  1
  Si  Si7  1  0.045234  0.045234  0.237980  1
  Si  Si8  1  0.871217  0.871217  0.458686  1
  Si  Si9  1  0.129609  0.129609  0.543707  1
  Si  Si10  1  0.951824  0.951824  0.762358  1
  Si  Si11  1  0.887579  0.887579  0.923140  1
  Rh  Rh12  1  0.247904  0.247904  0.415548  1
  Rh  Rh13  1  0.752211  0.752211  0.584868  1
