# generated using pymatgen
data_K4Pm4S7O
_symmetry_space_group_name_H-M   'P 1'
_cell_length_a   8.07189330
_cell_length_b   8.08004552
_cell_length_c   6.96782300
_cell_angle_alpha   90.05695510
_cell_angle_beta   98.19702000
_cell_angle_gamma   75.50982052
_symmetry_Int_Tables_number   1
_chemical_formula_structural   K4Pm4S7O
_chemical_formula_sum   'K4 Pm4 S7 O1'
_cell_volume   435.21399537
_cell_formula_units_Z   1
loop_
 _symmetry_equiv_pos_site_id
 _symmetry_equiv_pos_as_xyz
  1  'x, y, z'
loop_
 _atom_site_type_symbol
 _atom_site_label
 _atom_site_symmetry_multiplicity
 _atom_site_fract_x
 _atom_site_fract_y
 _atom_site_fract_z
 _atom_site_occupancy
  K  K0  1  0.985290  0.543563  0.000650  1
  K  K1  1  0.982010  0.287765  0.492786  1
  K  K2  1  0.992475  0.781733  0.499265  1
  K  K3  1  0.987118  0.027312  0.999997  1
  Pm  Pm4  1  0.494329  0.657463  0.258299  1
  Pm  Pm5  1  0.494135  0.157737  0.224259  1
  Pm  Pm6  1  0.493884  0.922998  0.756534  1
  Pm  Pm7  1  0.493626  0.392137  0.756607  1
  S  S8  1  0.708509  0.360498  0.119475  1
  S  S9  1  0.286613  0.966772  0.380550  1
  S  S10  1  0.708068  0.104228  0.605895  1
  S  S11  1  0.288227  0.709175  0.883603  1
  S  S12  1  0.706196  0.848331  0.121129  1
  S  S13  1  0.286566  0.452188  0.380562  1
  S  S14  1  0.699527  0.605520  0.623649  1
  O  O15  1  0.393426  0.182579  0.896737  1
