# generated using pymatgen
data_Pr17Sm2HoPb16
_symmetry_space_group_name_H-M   'P 1'
_cell_length_a   8.45831801
_cell_length_b   16.32470500
_cell_length_c   8.58561001
_cell_angle_alpha   90.00000000
_cell_angle_beta   90.00027730
_cell_angle_gamma   90.00000000
_symmetry_Int_Tables_number   1
_chemical_formula_structural   Pr17Sm2HoPb16
_chemical_formula_sum   'Pr17 Sm2 Ho1 Pb16'
_cell_volume   1185.49713461
_cell_formula_units_Z   1
loop_
 _symmetry_equiv_pos_site_id
 _symmetry_equiv_pos_as_xyz
  1  'x, y, z'
loop_
 _atom_site_type_symbol
 _atom_site_label
 _atom_site_symmetry_multiplicity
 _atom_site_fract_x
 _atom_site_fract_y
 _atom_site_fract_z
 _atom_site_occupancy
  Pr  Pr0  1  0.622048  0.618273  0.157890  1
  Pr  Pr1  1  0.124030  0.881686  0.341690  1
  Pr  Pr2  1  0.376368  0.119049  0.841977  1
  Pr  Pr3  1  0.876613  0.380186  0.657988  1
  Pr  Pr4  1  0.376368  0.380951  0.841977  1
  Pr  Pr5  1  0.876613  0.119814  0.657988  1
  Pr  Pr6  1  0.622048  0.881727  0.157890  1
  Pr  Pr7  1  0.124030  0.618314  0.341690  1
  Pr  Pr8  1  0.467671  0.600122  0.679457  1
  Pr  Pr9  1  0.967713  0.899390  0.822956  1
  Pr  Pr10  1  0.533066  0.101526  0.321792  1
  Pr  Pr11  1  0.032649  0.399352  0.178016  1
  Pr  Pr12  1  0.533066  0.398474  0.321792  1
  Pr  Pr13  1  0.032649  0.100648  0.178016  1
  Pr  Pr14  1  0.467671  0.899878  0.679457  1
  Pr  Pr15  1  0.967713  0.600610  0.822956  1
  Pr  Pr16  1  0.792183  0.750000  0.497733  1
  Sm  Sm17  1  0.208583  0.250000  0.502938  1
  Sm  Sm18  1  0.708330  0.250000  0.996380  1
  Ho  Ho19  1  0.291055  0.750000  0.004367  1
  Pb  Pb20  1  0.718717  0.454181  0.968520  1
  Pb  Pb21  1  0.218808  0.045841  0.530768  1
  Pb  Pb22  1  0.280537  0.954071  0.030378  1
  Pb  Pb23  1  0.781454  0.543646  0.467734  1
  Pb  Pb24  1  0.280537  0.545929  0.030378  1
  Pb  Pb25  1  0.781454  0.956354  0.467734  1
  Pb  Pb26  1  0.718717  0.045819  0.968520  1
  Pb  Pb27  1  0.218808  0.454159  0.530768  1
  Pb  Pb28  1  0.424600  0.750000  0.371598  1
  Pb  Pb29  1  0.929132  0.750000  0.122609  1
  Pb  Pb30  1  0.572016  0.250000  0.625210  1
  Pb  Pb31  1  0.072717  0.250000  0.875173  1
  Pb  Pb32  1  0.656863  0.750000  0.852744  1
  Pb  Pb33  1  0.161421  0.750000  0.654165  1
  Pb  Pb34  1  0.341710  0.250000  0.150860  1
  Pb  Pb35  1  0.842046  0.250000  0.347893  1
