# generated using pymatgen
data_Tb2Y5Th(ReB6)4
_symmetry_space_group_name_H-M   'P 1'
_cell_length_a   3.71237700
_cell_length_b   9.21322560
_cell_length_c   11.61664701
_cell_angle_alpha   89.94700199
_cell_angle_beta   90.00000000
_cell_angle_gamma   90.00000000
_symmetry_Int_Tables_number   1
_chemical_formula_structural   Tb2Y5Th(ReB6)4
_chemical_formula_sum   'Tb2 Y5 Th1 Re4 B24'
_cell_volume   397.32362227
_cell_formula_units_Z   1
loop_
 _symmetry_equiv_pos_site_id
 _symmetry_equiv_pos_as_xyz
  1  'x, y, z'
loop_
 _atom_site_type_symbol
 _atom_site_label
 _atom_site_symmetry_multiplicity
 _atom_site_fract_x
 _atom_site_fract_y
 _atom_site_fract_z
 _atom_site_occupancy
  Tb  Tb0  1  0.000000  0.177674  0.912833  1
  Tb  Tb1  1  0.000000  0.323466  0.414776  1
  Y  Y2  1  0.000000  0.676071  0.585914  1
  Y  Y3  1  0.000000  0.441675  0.130392  1
  Y  Y4  1  0.000000  0.556349  0.868867  1
  Y  Y5  1  0.000000  0.943183  0.371702  1
  Y  Y6  1  0.000000  0.057601  0.629508  1
  Th  Th7  1  0.000000  0.822621  0.085859  1
  Re  Re8  1  0.000000  0.138600  0.179294  1
  Re  Re9  1  0.000000  0.862029  0.820081  1
  Re  Re10  1  0.000000  0.638260  0.321488  1
  Re  Re11  1  0.000000  0.361847  0.678920  1
  B  B12  1  0.500000  0.055422  0.068063  1
  B  B13  1  0.500000  0.946792  0.930510  1
  B  B14  1  0.500000  0.553021  0.433160  1
  B  B15  1  0.500000  0.446658  0.567361  1
  B  B16  1  0.500000  0.249292  0.082111  1
  B  B17  1  0.500000  0.751470  0.915149  1
  B  B18  1  0.500000  0.748119  0.419248  1
  B  B19  1  0.500000  0.251563  0.582021  1
  B  B20  1  0.500000  0.291222  0.234738  1
  B  B21  1  0.500000  0.708839  0.764296  1
  B  B22  1  0.500000  0.789872  0.267538  1
  B  B23  1  0.500000  0.208842  0.734298  1
  B  B24  1  0.500000  0.131624  0.315007  1
  B  B25  1  0.500000  0.869772  0.685298  1
  B  B26  1  0.500000  0.629332  0.187726  1
  B  B27  1  0.500000  0.369171  0.813580  1
  B  B28  1  0.500000  0.482256  0.288907  1
  B  B29  1  0.500000  0.517139  0.711387  1
  B  B30  1  0.500000  0.985268  0.213458  1
  B  B31  1  0.500000  0.017913  0.786818  1
  B  B32  1  0.500000  0.101378  0.472195  1
  B  B33  1  0.500000  0.899121  0.528647  1
  B  B34  1  0.500000  0.597824  0.027336  1
  B  B35  1  0.500000  0.398716  0.971518  1
