# generated using pymatgen
data_Pr4ErP12Ru18Pt
_symmetry_space_group_name_H-M   'P 1'
_cell_length_a   12.57336422
_cell_length_b   12.67119719
_cell_length_c   4.02573600
_cell_angle_alpha   90.00000000
_cell_angle_beta   90.00000000
_cell_angle_gamma   119.72357657
_symmetry_Int_Tables_number   1
_chemical_formula_structural   Pr4ErP12Ru18Pt
_chemical_formula_sum   'Pr4 Er1 P12 Ru18 Pt1'
_cell_volume   556.99081971
_cell_formula_units_Z   1
loop_
 _symmetry_equiv_pos_site_id
 _symmetry_equiv_pos_as_xyz
  1  'x, y, z'
loop_
 _atom_site_type_symbol
 _atom_site_label
 _atom_site_symmetry_multiplicity
 _atom_site_fract_x
 _atom_site_fract_y
 _atom_site_fract_z
 _atom_site_occupancy
  Pr  Pr0  1  0.817458  0.000516  0.500000  1
  Pr  Pr1  1  0.000417  0.815563  0.500000  1
  Pr  Pr2  1  0.185886  0.183027  0.500000  1
  Pr  Pr3  1  0.669011  0.338279  0.000000  1
  Er  Er4  1  0.332568  0.661811  0.000000  1
  P  P5  1  0.190237  0.997358  0.000000  1
  P  P6  1  0.001360  0.188315  0.000000  1
  P  P7  1  0.810948  0.814483  0.000000  1
  P  P8  1  0.518143  0.695953  0.500000  1
  P  P9  1  0.296231  0.812608  0.500000  1
  P  P10  1  0.173584  0.476418  0.500000  1
  P  P11  1  0.477857  0.179587  0.500000  1
  P  P12  1  0.694078  0.527392  0.500000  1
  P  P13  1  0.828872  0.306225  0.500000  1
  P  P14  1  0.634502  0.002206  0.000000  1
  P  P15  1  0.997822  0.624062  0.000000  1
  P  P16  1  0.375334  0.375505  0.000000  1
  Ru  Ru17  1  0.997591  0.444486  0.000000  1
  Ru  Ru18  1  0.553490  0.555775  0.000000  1
  Ru  Ru19  1  0.291935  0.996769  0.500000  1
  Ru  Ru20  1  0.000799  0.286094  0.500000  1
  Ru  Ru21  1  0.711554  0.716717  0.500000  1
  Ru  Ru22  1  0.616161  0.805742  0.000000  1
  Ru  Ru23  1  0.197285  0.811832  0.000000  1
  Ru  Ru24  1  0.185533  0.379994  0.000000  1
  Ru  Ru25  1  0.379776  0.183090  0.000000  1
  Ru  Ru26  1  0.805509  0.624479  0.000000  1
  Ru  Ru27  1  0.816157  0.195941  0.000000  1
  Ru  Ru28  1  0.501268  0.872324  0.500000  1
  Ru  Ru29  1  0.121925  0.626184  0.500000  1
  Ru  Ru30  1  0.367363  0.495291  0.500000  1
  Ru  Ru31  1  0.489651  0.369678  0.500000  1
  Ru  Ru32  1  0.873827  0.509499  0.500000  1
  Ru  Ru33  1  0.632755  0.124761  0.500000  1
  Ru  Ru34  1  0.002891  0.000454  0.000000  1
  Pt  Pt35  1  0.450223  0.001585  0.000000  1
