# generated using pymatgen
data_TbNd5Al24Os7Pd
_symmetry_space_group_name_H-M   'P 1'
_cell_length_a   8.91376065
_cell_length_b   8.91376120
_cell_length_c   9.65142688
_cell_angle_alpha   89.89890429
_cell_angle_beta   90.10109576
_cell_angle_gamma   119.86332515
_symmetry_Int_Tables_number   1
_chemical_formula_structural   TbNd5Al24Os7Pd
_chemical_formula_sum   'Tb1 Nd5 Al24 Os7 Pd1'
_cell_volume   665.02763555
_cell_formula_units_Z   1
loop_
 _symmetry_equiv_pos_site_id
 _symmetry_equiv_pos_as_xyz
  1  'x, y, z'
loop_
 _atom_site_type_symbol
 _atom_site_label
 _atom_site_symmetry_multiplicity
 _atom_site_fract_x
 _atom_site_fract_y
 _atom_site_fract_z
 _atom_site_occupancy
  Tb  Tb0  1  0.806074  0.193926  0.744811  1
  Nd  Nd1  1  0.188313  0.382356  0.251268  1
  Nd  Nd2  1  0.811717  0.617692  0.748823  1
  Nd  Nd3  1  0.617644  0.811687  0.251268  1
  Nd  Nd4  1  0.382308  0.188283  0.748823  1
  Nd  Nd5  1  0.192614  0.807386  0.254367  1
  Al  Al6  1  0.330184  0.669816  0.011504  1
  Al  Al7  1  0.670553  0.329447  0.985328  1
  Al  Al8  1  0.666648  0.333352  0.513055  1
  Al  Al9  1  0.333796  0.666204  0.489417  1
  Al  Al10  1  0.161749  0.325257  0.576099  1
  Al  Al11  1  0.836860  0.673548  0.425126  1
  Al  Al12  1  0.674743  0.838251  0.576099  1
  Al  Al13  1  0.844402  0.676574  0.077829  1
  Al  Al14  1  0.326452  0.163140  0.425126  1
  Al  Al15  1  0.153594  0.322125  0.920977  1
  Al  Al16  1  0.163426  0.836574  0.575790  1
  Al  Al17  1  0.323426  0.155598  0.077829  1
  Al  Al18  1  0.836721  0.163279  0.426758  1
  Al  Al19  1  0.677875  0.846406  0.920977  1
  Al  Al20  1  0.836779  0.163221  0.071590  1
  Al  Al21  1  0.163191  0.836809  0.925810  1
  Al  Al22  1  0.562344  0.124118  0.249440  1
  Al  Al23  1  0.440312  0.877960  0.750597  1
  Al  Al24  1  0.875882  0.437656  0.249440  1
  Al  Al25  1  0.122040  0.559688  0.750597  1
  Al  Al26  1  0.562782  0.437218  0.253694  1
  Al  Al27  1  0.437196  0.562804  0.746695  1
  Al  Al28  1  0.999716  0.000284  0.250412  1
  Al  Al29  1  0.998232  0.001768  0.749695  1
  Os  Os30  1  0.501033  0.000382  0.999255  1
  Os  Os31  1  0.999618  0.498967  0.999255  1
  Os  Os32  1  0.501478  0.000668  0.501101  1
  Os  Os33  1  0.999332  0.498522  0.501101  1
  Os  Os34  1  0.500243  0.499757  0.500366  1
  Os  Os35  1  0.000115  0.999885  0.999627  1
  Os  Os36  1  0.000227  0.999773  0.500338  1
  Pd  Pd37  1  0.500381  0.499619  0.999716  1
