# generated using pymatgen
data_Ho2PaCo2Si7
_symmetry_space_group_name_H-M   'P 1'
_cell_length_a   12.33339711
_cell_length_b   12.33339683
_cell_length_c   4.04007600
_cell_angle_alpha   90.00000000
_cell_angle_beta   90.00000000
_cell_angle_gamma   160.97162998
_symmetry_Int_Tables_number   1
_chemical_formula_structural   Ho2PaCo2Si7
_chemical_formula_sum   'Ho2 Pa1 Co2 Si7'
_cell_volume   200.36455484
_cell_formula_units_Z   1
loop_
 _symmetry_equiv_pos_site_id
 _symmetry_equiv_pos_as_xyz
  1  'x, y, z'
loop_
 _atom_site_type_symbol
 _atom_site_label
 _atom_site_symmetry_multiplicity
 _atom_site_fract_x
 _atom_site_fract_y
 _atom_site_fract_z
 _atom_site_occupancy
  Ho  Ho0  1  0.902203  0.097797  0.500000  1
  Ho  Ho1  1  0.532269  0.467731  0.500000  1
  Pa  Pa2  1  0.217241  0.782759  0.000000  1
  Co  Co3  1  0.345959  0.654041  0.000000  1
  Co  Co4  1  0.088548  0.911452  0.000000  1
  Si  Si5  1  0.628780  0.371220  0.000000  1
  Si  Si6  1  0.439935  0.560065  0.000000  1
  Si  Si7  1  0.128837  0.871163  0.500000  1
  Si  Si8  1  0.994502  0.005498  0.000000  1
  Si  Si9  1  0.805249  0.194751  0.000000  1
  Si  Si10  1  0.714457  0.285543  0.500000  1
  Si  Si11  1  0.305319  0.694681  0.500000  1
