# generated using pymatgen
data_Eu2AlPtI
_symmetry_space_group_name_H-M   'P 1'
_cell_length_a   4.35447700
_cell_length_b   4.35447801
_cell_length_c   17.93368000
_cell_angle_alpha   90.00000000
_cell_angle_beta   90.00000000
_cell_angle_gamma   120.00001513
_symmetry_Int_Tables_number   1
_chemical_formula_structural   Eu2AlPtI
_chemical_formula_sum   'Eu4 Al2 Pt2 I2'
_cell_volume   294.49103889
_cell_formula_units_Z   2
loop_
 _symmetry_equiv_pos_site_id
 _symmetry_equiv_pos_as_xyz
  1  'x, y, z'
loop_
 _atom_site_type_symbol
 _atom_site_label
 _atom_site_symmetry_multiplicity
 _atom_site_fract_x
 _atom_site_fract_y
 _atom_site_fract_z
 _atom_site_occupancy
  Eu  Eu0  1  0.000000  0.000000  0.387325  1
  Eu  Eu1  1  0.000000  0.000000  0.887325  1
  Eu  Eu2  1  0.000000  0.000000  0.613669  1
  Eu  Eu3  1  0.000000  0.000000  0.113669  1
  Al  Al4  1  0.333333  0.666667  0.501346  1
  Al  Al5  1  0.666667  0.333333  0.001346  1
  Pt  Pt6  1  0.666667  0.333333  0.498717  1
  Pt  Pt7  1  0.333333  0.666667  0.998717  1
  I  I8  1  0.333333  0.666667  0.248943  1
  I  I9  1  0.666667  0.333333  0.748943  1
