# generated using pymatgen
data_Tb20IrPd5Ru6
_symmetry_space_group_name_H-M   'P 1'
_cell_length_a   10.98000504
_cell_length_b   10.96375218
_cell_length_c   6.46222256
_cell_angle_alpha   89.96640031
_cell_angle_beta   89.90242615
_cell_angle_gamma   90.18760528
_symmetry_Int_Tables_number   1
_chemical_formula_structural   Tb20IrPd5Ru6
_chemical_formula_sum   'Tb20 Ir1 Pd5 Ru6'
_cell_volume   777.93019149
_cell_formula_units_Z   1
loop_
 _symmetry_equiv_pos_site_id
 _symmetry_equiv_pos_as_xyz
  1  'x, y, z'
loop_
 _atom_site_type_symbol
 _atom_site_label
 _atom_site_symmetry_multiplicity
 _atom_site_fract_x
 _atom_site_fract_y
 _atom_site_fract_z
 _atom_site_occupancy
  Tb  Tb0  1  0.297980  0.084959  0.374899  1
  Tb  Tb1  1  0.297626  0.908738  0.875213  1
  Tb  Tb2  1  0.709082  0.082309  0.878697  1
  Tb  Tb3  1  0.708646  0.916620  0.378493  1
  Tb  Tb4  1  0.587482  0.795969  0.871506  1
  Tb  Tb5  1  0.592424  0.202852  0.374008  1
  Tb  Tb6  1  0.414142  0.794490  0.380031  1
  Tb  Tb7  1  0.416020  0.200930  0.872947  1
  Tb  Tb8  1  0.203629  0.420819  0.628378  1
  Tb  Tb9  1  0.204927  0.586122  0.119519  1
  Tb  Tb10  1  0.796341  0.408759  0.125974  1
  Tb  Tb11  1  0.798029  0.591817  0.626969  1
  Tb  Tb12  1  0.912263  0.705074  0.119001  1
  Tb  Tb13  1  0.912716  0.295025  0.619149  1
  Tb  Tb14  1  0.085015  0.706660  0.627448  1
  Tb  Tb15  1  0.079989  0.293542  0.127745  1
  Tb  Tb16  1  0.994329  0.001020  0.500315  1
  Tb  Tb17  1  0.994242  0.998784  0.000036  1
  Tb  Tb18  1  0.497884  0.502481  0.998965  1
  Tb  Tb19  1  0.498434  0.502088  0.501410  1
  Ir  Ir20  1  0.348400  0.651780  0.749907  1
  Pd  Pd21  1  0.154782  0.154203  0.749703  1
  Pd  Pd22  1  0.154038  0.846622  0.250028  1
  Pd  Pd23  1  0.651825  0.348164  0.749984  1
  Pd  Pd24  1  0.653098  0.652888  0.250232  1
  Pd  Pd25  1  0.346098  0.345670  0.249521  1
  Ru  Ru26  1  0.847652  0.153991  0.249790  1
  Ru  Ru27  1  0.847789  0.846116  0.749378  1
  Ru  Ru28  1  0.498020  0.000943  0.125279  1
  Ru  Ru29  1  0.498081  0.001166  0.623802  1
  Ru  Ru30  1  0.999330  0.499652  0.876636  1
  Ru  Ru31  1  0.999684  0.499750  0.375036  1
