# generated using pymatgen
data_CeNd7(SiPd)8
_symmetry_space_group_name_H-M   'P 1'
_cell_length_a   5.83218284
_cell_length_b   7.87596133
_cell_length_c   10.84178576
_cell_angle_alpha   88.22853183
_cell_angle_beta   90.02782339
_cell_angle_gamma   89.91423493
_symmetry_Int_Tables_number   1
_chemical_formula_structural   CeNd7(SiPd)8
_chemical_formula_sum   'Ce1 Nd7 Si8 Pd8'
_cell_volume   497.76845488
_cell_formula_units_Z   1
loop_
 _symmetry_equiv_pos_site_id
 _symmetry_equiv_pos_as_xyz
  1  'x, y, z'
loop_
 _atom_site_type_symbol
 _atom_site_label
 _atom_site_symmetry_multiplicity
 _atom_site_fract_x
 _atom_site_fract_y
 _atom_site_fract_z
 _atom_site_occupancy
  Ce  Ce0  1  0.632204  0.324915  0.371365  1
  Nd  Nd1  1  0.364829  0.964799  0.143282  1
  Nd  Nd2  1  0.634446  0.034996  0.856368  1
  Nd  Nd3  1  0.865159  0.535181  0.856083  1
  Nd  Nd4  1  0.134721  0.465761  0.143167  1
  Nd  Nd5  1  0.870620  0.824892  0.369985  1
  Nd  Nd6  1  0.131321  0.173995  0.629749  1
  Nd  Nd7  1  0.368133  0.676252  0.629285  1
  Si  Si8  1  0.861903  0.536059  0.574161  1
  Si  Si9  1  0.134273  0.463242  0.424163  1
  Si  Si10  1  0.368202  0.965265  0.422507  1
  Si  Si11  1  0.636338  0.037617  0.574749  1
  Si  Si12  1  0.644194  0.621611  0.145750  1
  Si  Si13  1  0.357739  0.377393  0.855651  1
  Si  Si14  1  0.142785  0.877394  0.855560  1
  Si  Si15  1  0.855335  0.122080  0.146121  1
  Pd  Pd16  1  0.900120  0.834608  0.051521  1
  Pd  Pd17  1  0.098186  0.165591  0.948705  1
  Pd  Pd18  1  0.402043  0.665618  0.948857  1
  Pd  Pd19  1  0.599182  0.334369  0.051874  1
  Pd  Pd20  1  0.892713  0.821631  0.667814  1
  Pd  Pd21  1  0.103617  0.178969  0.332667  1
  Pd  Pd22  1  0.395982  0.675517  0.332805  1
  Pd  Pd23  1  0.605954  0.322245  0.667812  1
