# generated using pymatgen
data_NdTa4Nb(B2Ru5)2
_symmetry_space_group_name_H-M   'P 1'
_cell_length_a   9.56428998
_cell_length_b   9.56428975
_cell_length_c   3.05329300
_cell_angle_alpha   90.00000000
_cell_angle_beta   90.00000000
_cell_angle_gamma   90.80169701
_symmetry_Int_Tables_number   1
_chemical_formula_structural   NdTa4Nb(B2Ru5)2
_chemical_formula_sum   'Nd1 Ta4 Nb1 B4 Ru10'
_cell_volume   279.27459228
_cell_formula_units_Z   1
loop_
 _symmetry_equiv_pos_site_id
 _symmetry_equiv_pos_as_xyz
  1  'x, y, z'
loop_
 _atom_site_type_symbol
 _atom_site_label
 _atom_site_symmetry_multiplicity
 _atom_site_fract_x
 _atom_site_fract_y
 _atom_site_fract_z
 _atom_site_occupancy
  Nd  Nd0  1  0.824461  0.675539  0.000000  1
  Ta  Ta1  1  0.325162  0.824436  0.000000  1
  Ta  Ta2  1  0.675564  0.174838  0.000000  1
  Ta  Ta3  1  0.500096  0.499829  0.000000  1
  Ta  Ta4  1  0.000171  0.999904  0.000000  1
  Nb  Nb5  1  0.179199  0.320801  0.000000  1
  B  B6  1  0.615736  0.884264  0.000000  1
  B  B7  1  0.376174  0.123826  0.000000  1
  B  B8  1  0.125827  0.618845  0.000000  1
  B  B9  1  0.881155  0.374173  0.000000  1
  Ru  Ru10  1  0.553977  0.727174  0.500000  1
  Ru  Ru11  1  0.427599  0.283260  0.500000  1
  Ru  Ru12  1  0.087172  0.783318  0.500000  1
  Ru  Ru13  1  0.930204  0.214661  0.500000  1
  Ru  Ru14  1  0.285339  0.569796  0.500000  1
  Ru  Ru15  1  0.716682  0.412828  0.500000  1
  Ru  Ru16  1  0.216740  0.072401  0.500000  1
  Ru  Ru17  1  0.772826  0.946023  0.500000  1
  Ru  Ru18  1  0.494477  0.005523  0.500000  1
  Ru  Ru19  1  0.011440  0.488560  0.500000  1
