# generated using pymatgen
data_DyHo2Bi(Ir2O7)2
_symmetry_space_group_name_H-M   'P 1'
_cell_length_a   7.25930397
_cell_length_b   7.27724707
_cell_length_c   7.25480300
_cell_angle_alpha   60.10196575
_cell_angle_beta   60.02050367
_cell_angle_gamma   60.11504274
_symmetry_Int_Tables_number   1
_chemical_formula_structural   DyHo2Bi(Ir2O7)2
_chemical_formula_sum   'Dy1 Ho2 Bi1 Ir4 O14'
_cell_volume   271.48791698
_cell_formula_units_Z   1
loop_
 _symmetry_equiv_pos_site_id
 _symmetry_equiv_pos_as_xyz
  1  'x, y, z'
loop_
 _atom_site_type_symbol
 _atom_site_label
 _atom_site_symmetry_multiplicity
 _atom_site_fract_x
 _atom_site_fract_y
 _atom_site_fract_z
 _atom_site_occupancy
  Dy  Dy0  1  0.625000  0.125000  0.125000  1
  Ho  Ho1  1  0.125000  0.125000  0.625000  1
  Ho  Ho2  1  0.125000  0.125000  0.125000  1
  Bi  Bi3  1  0.125000  0.625000  0.125000  1
  Ir  Ir4  1  0.125000  0.625000  0.625000  1
  Ir  Ir5  1  0.625000  0.125000  0.625000  1
  Ir  Ir6  1  0.625000  0.625000  0.125000  1
  Ir  Ir7  1  0.625000  0.625000  0.625000  1
  O  O8  1  0.705131  0.717208  0.288831  1
  O  O9  1  0.288296  0.287259  0.712223  1
  O  O10  1  0.712396  0.287393  0.711784  1
  O  O11  1  0.288643  0.717718  0.288634  1
  O  O12  1  0.288643  0.717718  0.705006  1
  O  O13  1  0.712396  0.287393  0.288427  1
  O  O14  1  0.544869  0.532792  0.961169  1
  O  O15  1  0.961704  0.962741  0.537777  1
  O  O16  1  0.537604  0.962607  0.538216  1
  O  O17  1  0.961357  0.532282  0.961366  1
  O  O18  1  0.961357  0.532282  0.544994  1
  O  O19  1  0.537604  0.962607  0.961573  1
  O  O20  1  0.252674  0.238991  0.254167  1
  O  O21  1  0.997326  0.011009  0.995833  1
