# generated using pymatgen
data_Tb3CoI3
_symmetry_space_group_name_H-M   'P 1'
_cell_length_a   4.12538500
_cell_length_b   8.91519282
_cell_length_c   12.31853382
_cell_angle_alpha   86.62539888
_cell_angle_beta   90.00000000
_cell_angle_gamma   90.00000000
_symmetry_Int_Tables_number   1
_chemical_formula_structural   Tb3CoI3
_chemical_formula_sum   'Tb6 Co2 I6'
_cell_volume   452.27286764
_cell_formula_units_Z   2
loop_
 _symmetry_equiv_pos_site_id
 _symmetry_equiv_pos_as_xyz
  1  'x, y, z'
loop_
 _atom_site_type_symbol
 _atom_site_label
 _atom_site_symmetry_multiplicity
 _atom_site_fract_x
 _atom_site_fract_y
 _atom_site_fract_z
 _atom_site_occupancy
  Tb  Tb0  1  0.750000  0.130144  0.123713  1
  Tb  Tb1  1  0.250000  0.869856  0.876287  1
  Tb  Tb2  1  0.750000  0.095523  0.687203  1
  Tb  Tb3  1  0.250000  0.904477  0.312797  1
  Tb  Tb4  1  0.250000  0.255214  0.899939  1
  Tb  Tb5  1  0.750000  0.744786  0.100061  1
  Co  Co6  1  0.750000  0.052769  0.908499  1
  Co  Co7  1  0.250000  0.947231  0.091501  1
  I  I8  1  0.250000  0.353269  0.640981  1
  I  I9  1  0.750000  0.646731  0.359019  1
  I  I10  1  0.750000  0.145858  0.390353  1
  I  I11  1  0.250000  0.854142  0.609647  1
  I  I12  1  0.250000  0.422905  0.132292  1
  I  I13  1  0.750000  0.577095  0.867708  1
