# generated using pymatgen
data_La3BMoO9
_symmetry_space_group_name_H-M   'P 1'
_cell_length_a   8.90029305
_cell_length_b   8.89847155
_cell_length_c   5.66858400
_cell_angle_alpha   89.99704540
_cell_angle_beta   90.00520478
_cell_angle_gamma   119.98595569
_symmetry_Int_Tables_number   1
_chemical_formula_structural   La3BMoO9
_chemical_formula_sum   'La6 B2 Mo2 O18'
_cell_volume   388.85383232
_cell_formula_units_Z   2
loop_
 _symmetry_equiv_pos_site_id
 _symmetry_equiv_pos_as_xyz
  1  'x, y, z'
loop_
 _atom_site_type_symbol
 _atom_site_label
 _atom_site_symmetry_multiplicity
 _atom_site_fract_x
 _atom_site_fract_y
 _atom_site_fract_z
 _atom_site_occupancy
  La  La0  1  0.722448  0.640207  0.215431  1
  La  La1  1  0.917894  0.277646  0.215366  1
  La  La2  1  0.359753  0.082286  0.215397  1
  La  La3  1  0.082069  0.722363  0.715692  1
  La  La4  1  0.277564  0.359825  0.715700  1
  La  La5  1  0.640303  0.917741  0.715690  1
  B  B6  1  0.000014  0.000007  0.380658  1
  B  B7  1  0.999990  0.000018  0.880713  1
  Mo  Mo8  1  0.333324  0.666484  0.254763  1
  Mo  Mo9  1  0.666682  0.333444  0.754608  1
  O  O10  1  0.201011  0.472261  0.050923  1
  O  O11  1  0.527636  0.728551  0.050859  1
  O  O12  1  0.271230  0.798889  0.050953  1
  O  O13  1  0.046657  0.872961  0.373643  1
  O  O14  1  0.126995  0.173685  0.373647  1
  O  O15  1  0.826338  0.953294  0.373646  1
  O  O16  1  0.139883  0.520069  0.475894  1
  O  O17  1  0.479844  0.619645  0.475821  1
  O  O18  1  0.380249  0.860059  0.475892  1
  O  O19  1  0.728786  0.201073  0.551005  1
  O  O20  1  0.472305  0.271409  0.550982  1
  O  O21  1  0.798979  0.527788  0.551010  1
  O  O22  1  0.173660  0.046727  0.873720  1
  O  O23  1  0.953338  0.127040  0.873690  1
  O  O24  1  0.873018  0.826351  0.873710  1
  O  O25  1  0.860091  0.479882  0.975971  1
  O  O26  1  0.619775  0.139964  0.975916  1
  O  O27  1  0.520164  0.380337  0.975898  1
