# generated using pymatgen
data_Tb2BeRh2
_symmetry_space_group_name_H-M   'P 1'
_cell_length_a   5.54618236
_cell_length_b   5.54618407
_cell_length_c   5.54617220
_cell_angle_alpha   140.30309654
_cell_angle_beta   116.07061779
_cell_angle_gamma   77.94150423
_symmetry_Int_Tables_number   1
_chemical_formula_structural   Tb2BeRh2
_chemical_formula_sum   'Tb2 Be1 Rh2'
_cell_volume   95.36465899
_cell_formula_units_Z   1
loop_
 _symmetry_equiv_pos_site_id
 _symmetry_equiv_pos_as_xyz
  1  'x, y, z'
loop_
 _atom_site_type_symbol
 _atom_site_label
 _atom_site_symmetry_multiplicity
 _atom_site_fract_x
 _atom_site_fract_y
 _atom_site_fract_z
 _atom_site_occupancy
  Tb  Tb0  1  0.698648  0.198648  0.500000  1
  Tb  Tb1  1  0.301352  0.801352  0.499999  1
  Be  Be2  1  0.000000  0.000000  0.000000  1
  Rh  Rh3  1  0.755304  0.500004  0.255307  1
  Rh  Rh4  1  0.244697  0.499995  0.744692  1
