# generated using pymatgen
data_Tm5Ti8Al9Ir8
_symmetry_space_group_name_H-M   'P 1'
_cell_length_a   8.98839424
_cell_length_b   8.98360112
_cell_length_c   8.98839490
_cell_angle_alpha   60.05956750
_cell_angle_beta   59.90034571
_cell_angle_gamma   60.05958129
_symmetry_Int_Tables_number   1
_chemical_formula_structural   Tm5Ti8Al9Ir8
_chemical_formula_sum   'Tm5 Ti8 Al9 Ir8'
_cell_volume   513.28841724
_cell_formula_units_Z   1
loop_
 _symmetry_equiv_pos_site_id
 _symmetry_equiv_pos_as_xyz
  1  'x, y, z'
loop_
 _atom_site_type_symbol
 _atom_site_label
 _atom_site_symmetry_multiplicity
 _atom_site_fract_x
 _atom_site_fract_y
 _atom_site_fract_z
 _atom_site_occupancy
  Tm  Tm0  1  0.214101  0.212122  0.792425  1
  Tm  Tm1  1  0.792425  0.212122  0.214101  1
  Tm  Tm2  1  0.204183  0.796899  0.204183  1
  Tm  Tm3  1  0.795857  0.791238  0.197748  1
  Tm  Tm4  1  0.197748  0.791238  0.795857  1
  Ti  Ti5  1  0.790693  0.198438  0.790693  1
  Ti  Ti6  1  0.378476  0.378639  0.378476  1
  Ti  Ti7  1  0.380558  0.864039  0.380558  1
  Ti  Ti8  1  0.861118  0.377138  0.390254  1
  Ti  Ti9  1  0.390254  0.377138  0.861118  1
  Ti  Ti10  1  0.834039  0.491730  0.834039  1
  Ti  Ti11  1  0.502355  0.833227  0.831236  1
  Ti  Ti12  1  0.831236  0.833227  0.502355  1
  Al  Al13  1  0.172511  0.171311  0.172511  1
  Al  Al14  1  0.170501  0.487542  0.170501  1
  Al  Al15  1  0.509462  0.166471  0.160040  1
  Al  Al16  1  0.160040  0.166471  0.509462  1
  Al  Al17  1  0.621017  0.613304  0.621017  1
  Al  Al18  1  0.622094  0.144133  0.622094  1
  Al  Al19  1  0.143109  0.619382  0.616617  1
  Al  Al20  1  0.616617  0.619382  0.143109  1
  Al  Al21  1  0.826267  0.827355  0.826267  1
  Ir  Ir22  1  0.998801  0.002399  0.498668  1
  Ir  Ir23  1  0.498668  0.002399  0.998801  1
  Ir  Ir24  1  0.000927  0.494921  0.000927  1
  Ir  Ir25  1  0.501852  0.501959  0.998206  1
  Ir  Ir26  1  0.998206  0.501959  0.501852  1
  Ir  Ir27  1  0.500642  0.000755  0.500642  1
  Ir  Ir28  1  0.500278  0.500659  0.500278  1
  Ir  Ir29  1  0.985962  0.022400  0.985962  1
