# generated using pymatgen
data_Sc12Co4TcAg
_symmetry_space_group_name_H-M   'P 1'
_cell_length_a   7.72558096
_cell_length_b   7.72558164
_cell_length_c   7.72558174
_cell_angle_alpha   111.27974717
_cell_angle_beta   111.08816984
_cell_angle_gamma   106.09757440
_symmetry_Int_Tables_number   1
_chemical_formula_structural   Sc12Co4TcAg
_chemical_formula_sum   'Sc12 Co4 Tc1 Ag1'
_cell_volume   354.03658093
_cell_formula_units_Z   1
loop_
 _symmetry_equiv_pos_site_id
 _symmetry_equiv_pos_as_xyz
  1  'x, y, z'
loop_
 _atom_site_type_symbol
 _atom_site_label
 _atom_site_symmetry_multiplicity
 _atom_site_fract_x
 _atom_site_fract_y
 _atom_site_fract_z
 _atom_site_occupancy
  Sc  Sc0  1  0.427035  0.229507  0.197527  1
  Sc  Sc1  1  0.572965  0.770493  0.802473  1
  Sc  Sc2  1  0.031980  0.229507  0.802473  1
  Sc  Sc3  1  0.968020  0.770493  0.197527  1
  Sc  Sc4  1  0.311688  0.614861  0.303173  1
  Sc  Sc5  1  0.688312  0.385139  0.696827  1
  Sc  Sc6  1  0.311688  0.008515  0.696827  1
  Sc  Sc7  1  0.688312  0.991485  0.303173  1
  Sc  Sc8  1  0.183246  0.272550  0.455796  1
  Sc  Sc9  1  0.816754  0.727449  0.544204  1
  Sc  Sc10  1  0.183246  0.727449  0.910696  1
  Sc  Sc11  1  0.816754  0.272550  0.089304  1
  Co  Co12  1  0.365496  0.000000  0.365496  1
  Co  Co13  1  0.634504  0.000000  0.634504  1
  Co  Co14  1  0.117932  0.617932  0.500000  1
  Co  Co15  1  0.882068  0.382068  0.500000  1
  Tc  Tc16  1  0.000000  0.000000  0.000000  1
  Ag  Ag17  1  0.500000  0.500000  0.000000  1
