# generated using pymatgen
data_LiNd16Ag3Ir4
_symmetry_space_group_name_H-M   'P 1'
_cell_length_a   9.91822676
_cell_length_b   9.91822709
_cell_length_c   9.91822745
_cell_angle_alpha   60.04617002
_cell_angle_beta   60.04616849
_cell_angle_gamma   60.04617840
_symmetry_Int_Tables_number   1
_chemical_formula_structural   LiNd16Ag3Ir4
_chemical_formula_sum   'Li1 Nd16 Ag3 Ir4'
_cell_volume   690.62359856
_cell_formula_units_Z   1
loop_
 _symmetry_equiv_pos_site_id
 _symmetry_equiv_pos_as_xyz
  1  'x, y, z'
loop_
 _atom_site_type_symbol
 _atom_site_label
 _atom_site_symmetry_multiplicity
 _atom_site_fract_x
 _atom_site_fract_y
 _atom_site_fract_z
 _atom_site_occupancy
  Li  Li0  1  0.566362  0.566362  0.566362  1
  Nd  Nd1  1  0.351098  0.351098  0.351098  1
  Nd  Nd2  1  0.349139  0.349139  0.952699  1
  Nd  Nd3  1  0.349139  0.952699  0.349139  1
  Nd  Nd4  1  0.952699  0.349139  0.349139  1
  Nd  Nd5  1  0.810292  0.190877  0.190877  1
  Nd  Nd6  1  0.186441  0.812750  0.812750  1
  Nd  Nd7  1  0.190877  0.810292  0.190877  1
  Nd  Nd8  1  0.812750  0.186441  0.812750  1
  Nd  Nd9  1  0.190877  0.190877  0.810292  1
  Nd  Nd10  1  0.812750  0.812750  0.186441  1
  Nd  Nd11  1  0.941161  0.562334  0.562334  1
  Nd  Nd12  1  0.562605  0.938652  0.938652  1
  Nd  Nd13  1  0.562334  0.941161  0.562334  1
  Nd  Nd14  1  0.938652  0.562605  0.938652  1
  Nd  Nd15  1  0.562334  0.562334  0.941161  1
  Nd  Nd16  1  0.938652  0.938652  0.562605  1
  Ag  Ag17  1  0.583028  0.583028  0.251683  1
  Ag  Ag18  1  0.583028  0.251683  0.583028  1
  Ag  Ag19  1  0.251683  0.583028  0.583028  1
  Ir  Ir20  1  0.142482  0.142482  0.142482  1
  Ir  Ir21  1  0.143733  0.143733  0.574154  1
  Ir  Ir22  1  0.143733  0.574154  0.143733  1
  Ir  Ir23  1  0.574154  0.143733  0.143733  1
