# generated using pymatgen
data_Ba7Rh4O15
_symmetry_space_group_name_H-M   'P 1'
_cell_length_a   10.27274200
_cell_length_b   7.23646862
_cell_length_c   11.10058000
_cell_angle_alpha   88.29478666
_cell_angle_beta   90.00000000
_cell_angle_gamma   90.00000000
_symmetry_Int_Tables_number   1
_chemical_formula_structural   Ba7Rh4O15
_chemical_formula_sum   'Ba14 Rh8 O30'
_cell_volume   824.83364644
_cell_formula_units_Z   2
loop_
 _symmetry_equiv_pos_site_id
 _symmetry_equiv_pos_as_xyz
  1  'x, y, z'
loop_
 _atom_site_type_symbol
 _atom_site_label
 _atom_site_symmetry_multiplicity
 _atom_site_fract_x
 _atom_site_fract_y
 _atom_site_fract_z
 _atom_site_occupancy
  Ba  Ba0  1  0.506257  0.823860  0.329978  1
  Ba  Ba1  1  0.006257  0.176140  0.170022  1
  Ba  Ba2  1  0.493743  0.176140  0.670022  1
  Ba  Ba3  1  0.993743  0.823860  0.829978  1
  Ba  Ba4  1  0.500000  0.500000  0.000000  1
  Ba  Ba5  1  0.000000  0.500000  0.500000  1
  Ba  Ba6  1  0.649053  0.651203  0.695310  1
  Ba  Ba7  1  0.149053  0.348797  0.804690  1
  Ba  Ba8  1  0.350947  0.348797  0.304690  1
  Ba  Ba9  1  0.850947  0.651203  0.195310  1
  Ba  Ba10  1  0.685677  0.000449  0.965790  1
  Ba  Ba11  1  0.185677  0.999551  0.534210  1
  Ba  Ba12  1  0.314323  0.999551  0.034210  1
  Ba  Ba13  1  0.814323  0.000449  0.465790  1
  Rh  Rh14  1  0.671301  0.227912  0.222196  1
  Rh  Rh15  1  0.171301  0.772088  0.277804  1
  Rh  Rh16  1  0.328699  0.772088  0.777804  1
  Rh  Rh17  1  0.828699  0.227912  0.722196  1
  Rh  Rh18  1  0.665452  0.418698  0.424156  1
  Rh  Rh19  1  0.165452  0.581302  0.075844  1
  Rh  Rh20  1  0.334548  0.581302  0.575844  1
  Rh  Rh21  1  0.834548  0.418698  0.924156  1
  O  O22  1  0.744546  0.974106  0.210356  1
  O  O23  1  0.244546  0.025894  0.289644  1
  O  O24  1  0.255454  0.025894  0.789644  1
  O  O25  1  0.755454  0.974106  0.710356  1
  O  O26  1  0.518599  0.156924  0.123666  1
  O  O27  1  0.018599  0.843076  0.376334  1
  O  O28  1  0.481401  0.843076  0.876334  1
  O  O29  1  0.981401  0.156924  0.623666  1
  O  O30  1  0.500000  0.500000  0.500000  1
  O  O31  1  0.000000  0.500000  0.000000  1
  O  O32  1  0.716033  0.314186  0.585338  1
  O  O33  1  0.216033  0.685814  0.914662  1
  O  O34  1  0.283967  0.685814  0.414662  1
  O  O35  1  0.783967  0.314186  0.085338  1
  O  O36  1  0.580740  0.163093  0.382907  1
  O  O37  1  0.080740  0.836907  0.117093  1
  O  O38  1  0.419260  0.836907  0.617093  1
  O  O39  1  0.919260  0.163093  0.882907  1
  O  O40  1  0.746012  0.662063  0.453365  1
  O  O41  1  0.246012  0.337937  0.046635  1
  O  O42  1  0.253988  0.337937  0.546635  1
  O  O43  1  0.753988  0.662063  0.953365  1
  O  O44  1  0.898278  0.495130  0.752385  1
  O  O45  1  0.398278  0.504870  0.747615  1
  O  O46  1  0.101722  0.504870  0.247615  1
  O  O47  1  0.601722  0.495130  0.252385  1
  O  O48  1  0.825018  0.322957  0.336972  1
  O  O49  1  0.325018  0.677043  0.163028  1
  O  O50  1  0.174982  0.677043  0.663028  1
  O  O51  1  0.674982  0.322957  0.836972  1
