# generated using pymatgen
data_Tm6ScV(Co4P3)4
_symmetry_space_group_name_H-M   'P 1'
_cell_length_a   3.69320200
_cell_length_b   10.58130900
_cell_length_c   12.24744700
_cell_angle_alpha   90.00000000
_cell_angle_beta   90.00000000
_cell_angle_gamma   90.00000000
_symmetry_Int_Tables_number   1
_chemical_formula_structural   Tm6ScV(Co4P3)4
_chemical_formula_sum   'Tm6 Sc1 V1 Co16 P12'
_cell_volume   478.61689817
_cell_formula_units_Z   1
loop_
 _symmetry_equiv_pos_site_id
 _symmetry_equiv_pos_as_xyz
  1  'x, y, z'
loop_
 _atom_site_type_symbol
 _atom_site_label
 _atom_site_symmetry_multiplicity
 _atom_site_fract_x
 _atom_site_fract_y
 _atom_site_fract_z
 _atom_site_occupancy
  Tm  Tm0  1  0.000000  0.500000  0.523838  1
  Tm  Tm1  1  0.500000  0.000000  0.471480  1
  Tm  Tm2  1  0.500000  0.818856  0.204366  1
  Tm  Tm3  1  0.500000  0.181144  0.204366  1
  Tm  Tm4  1  0.000000  0.677297  0.795079  1
  Tm  Tm5  1  0.000000  0.322703  0.795079  1
  Sc  Sc6  1  0.000000  0.000000  0.844965  1
  V  V7  1  0.500000  0.500000  0.157642  1
  Co  Co8  1  0.500000  0.500000  0.703132  1
  Co  Co9  1  0.000000  0.000000  0.297066  1
  Co  Co10  1  0.000000  0.500000  0.989425  1
  Co  Co11  1  0.500000  0.000000  0.015130  1
  Co  Co12  1  0.500000  0.335683  0.996710  1
  Co  Co13  1  0.500000  0.664317  0.996710  1
  Co  Co14  1  0.000000  0.172297  0.009418  1
  Co  Co15  1  0.000000  0.827703  0.009418  1
  Co  Co16  1  0.500000  0.296849  0.430633  1
  Co  Co17  1  0.500000  0.703151  0.430633  1
  Co  Co18  1  0.000000  0.205704  0.565814  1
  Co  Co19  1  0.000000  0.794296  0.565814  1
  Co  Co20  1  0.500000  0.876430  0.702598  1
  Co  Co21  1  0.500000  0.123570  0.702598  1
  Co  Co22  1  0.000000  0.621066  0.294104  1
  Co  Co23  1  0.000000  0.378934  0.294104  1
  P  P24  1  0.500000  0.500000  0.883426  1
  P  P25  1  0.000000  0.000000  0.117206  1
  P  P26  1  0.500000  0.500000  0.350220  1
  P  P27  1  0.000000  0.000000  0.639846  1
  P  P28  1  0.500000  0.312250  0.615215  1
  P  P29  1  0.500000  0.687750  0.615215  1
  P  P30  1  0.000000  0.189379  0.382508  1
  P  P31  1  0.000000  0.810621  0.382508  1
  P  P32  1  0.500000  0.837356  0.894848  1
  P  P33  1  0.500000  0.162644  0.894848  1
  P  P34  1  0.000000  0.653136  0.112018  1
  P  P35  1  0.000000  0.346864  0.112018  1
