# generated using pymatgen
data_Dy9Y7MgCo4Ag3
_symmetry_space_group_name_H-M   'P 1'
_cell_length_a   9.44146711
_cell_length_b   9.46840839
_cell_length_c   9.44504700
_cell_angle_alpha   60.08158758
_cell_angle_beta   59.98745997
_cell_angle_gamma   60.16556353
_symmetry_Int_Tables_number   1
_chemical_formula_structural   Dy9Y7MgCo4Ag3
_chemical_formula_sum   'Dy9 Y7 Mg1 Co4 Ag3'
_cell_volume   598.09816606
_cell_formula_units_Z   1
loop_
 _symmetry_equiv_pos_site_id
 _symmetry_equiv_pos_as_xyz
  1  'x, y, z'
loop_
 _atom_site_type_symbol
 _atom_site_label
 _atom_site_symmetry_multiplicity
 _atom_site_fract_x
 _atom_site_fract_y
 _atom_site_fract_z
 _atom_site_occupancy
  Dy  Dy0  1  0.345997  0.345399  0.344377  1
  Dy  Dy1  1  0.345997  0.345399  0.964228  1
  Dy  Dy2  1  0.346451  0.963751  0.344899  1
  Dy  Dy3  1  0.952061  0.350182  0.348879  1
  Dy  Dy4  1  0.809343  0.188519  0.189363  1
  Dy  Dy5  1  0.185433  0.813121  0.814512  1
  Dy  Dy6  1  0.185433  0.813121  0.186934  1
  Dy  Dy7  1  0.809343  0.188519  0.812775  1
  Dy  Dy8  1  0.185051  0.185991  0.814479  1
  Y  Y9  1  0.809329  0.811459  0.189606  1
  Y  Y10  1  0.936016  0.562246  0.562498  1
  Y  Y11  1  0.561989  0.937783  0.937794  1
  Y  Y12  1  0.561989  0.937783  0.562433  1
  Y  Y13  1  0.936016  0.562246  0.939240  1
  Y  Y14  1  0.561528  0.562364  0.938054  1
  Y  Y15  1  0.936254  0.939033  0.562357  1
  Mg  Mg16  1  0.289127  0.570123  0.570374  1
  Co  Co17  1  0.139262  0.142551  0.141398  1
  Co  Co18  1  0.139262  0.142551  0.576789  1
  Co  Co19  1  0.141832  0.575207  0.141480  1
  Co  Co20  1  0.575072  0.143957  0.140485  1
  Ag  Ag21  1  0.582479  0.582608  0.582291  1
  Ag  Ag22  1  0.582479  0.582608  0.252622  1
  Ag  Ag23  1  0.582255  0.253476  0.582134  1
