# generated using pymatgen
data_Dy3Er2Ga6P6Ir19
_symmetry_space_group_name_H-M   'P 1'
_cell_length_a   12.95565801
_cell_length_b   12.95770328
_cell_length_c   3.97767700
_cell_angle_alpha   90.00000000
_cell_angle_beta   90.00000000
_cell_angle_gamma   119.99048513
_symmetry_Int_Tables_number   1
_chemical_formula_structural   Dy3Er2Ga6P6Ir19
_chemical_formula_sum   'Dy3 Er2 Ga6 P6 Ir19'
_cell_volume   578.34806031
_cell_formula_units_Z   1
loop_
 _symmetry_equiv_pos_site_id
 _symmetry_equiv_pos_as_xyz
  1  'x, y, z'
loop_
 _atom_site_type_symbol
 _atom_site_label
 _atom_site_symmetry_multiplicity
 _atom_site_fract_x
 _atom_site_fract_y
 _atom_site_fract_z
 _atom_site_occupancy
  Dy  Dy0  1  0.666675  0.333328  0.000000  1
  Dy  Dy1  1  0.816596  0.812261  0.500000  1
  Dy  Dy2  1  0.187753  0.004342  0.500000  1
  Er  Er3  1  0.333321  0.666647  0.000000  1
  Er  Er4  1  0.995433  0.183381  0.500000  1
  Ga  Ga5  1  0.677150  0.158564  0.500000  1
  Ga  Ga6  1  0.841445  0.518547  0.500000  1
  Ga  Ga7  1  0.481398  0.322873  0.500000  1
  Ga  Ga8  1  0.635328  0.637008  0.000000  1
  Ga  Ga9  1  0.362987  0.998315  0.000000  1
  Ga  Ga10  1  0.001701  0.364476  0.000000  1
  P  P11  1  0.180288  0.697365  0.500000  1
  P  P12  1  0.517115  0.819734  0.500000  1
  P  P13  1  0.302634  0.482921  0.500000  1
  P  P14  1  0.175468  0.181342  0.000000  1
  P  P15  1  0.818775  0.994406  0.000000  1
  P  P16  1  0.005716  0.824395  0.000000  1
  Ir  Ir17  1  0.809256  0.169104  0.000000  1
  Ir  Ir18  1  0.830869  0.639694  0.000000  1
  Ir  Ir19  1  0.360290  0.191167  0.000000  1
  Ir  Ir20  1  0.182208  0.793659  0.000000  1
  Ir  Ir21  1  0.611464  0.817825  0.000000  1
  Ir  Ir22  1  0.206186  0.388437  0.000000  1
  Ir  Ir23  1  0.446397  0.440476  0.000000  1
  Ir  Ir24  1  0.559553  0.005905  0.000000  1
  Ir  Ir25  1  0.994123  0.553603  0.000000  1
  Ir  Ir26  1  0.267853  0.280809  0.500000  1
  Ir  Ir27  1  0.719209  0.987383  0.500000  1
  Ir  Ir28  1  0.012715  0.731764  0.500000  1
  Ir  Ir29  1  0.873104  0.348663  0.500000  1
  Ir  Ir30  1  0.651257  0.524290  0.500000  1
  Ir  Ir31  1  0.475703  0.126945  0.500000  1
  Ir  Ir32  1  0.371480  0.868719  0.500000  1
  Ir  Ir33  1  0.497251  0.628553  0.500000  1
  Ir  Ir34  1  0.131288  0.502740  0.500000  1
  Ir  Ir35  1  0.000011  0.000358  0.000000  1
