# generated using pymatgen
data_Er8In3Rh
_symmetry_space_group_name_H-M   'P 1'
_cell_length_a   10.35736900
_cell_length_b   10.35736767
_cell_length_c   6.97109200
_cell_angle_alpha   90.00000000
_cell_angle_beta   90.00000000
_cell_angle_gamma   119.99999467
_symmetry_Int_Tables_number   1
_chemical_formula_structural   Er8In3Rh
_chemical_formula_sum   'Er16 In6 Rh2'
_cell_volume   647.63500067
_cell_formula_units_Z   2
loop_
 _symmetry_equiv_pos_site_id
 _symmetry_equiv_pos_as_xyz
  1  'x, y, z'
loop_
 _atom_site_type_symbol
 _atom_site_label
 _atom_site_symmetry_multiplicity
 _atom_site_fract_x
 _atom_site_fract_y
 _atom_site_fract_z
 _atom_site_occupancy
  Er  Er0  1  0.532758  0.065516  0.793966  1
  Er  Er1  1  0.934484  0.467242  0.793966  1
  Er  Er2  1  0.532758  0.467242  0.793966  1
  Er  Er3  1  0.467242  0.934484  0.293966  1
  Er  Er4  1  0.065516  0.532758  0.293966  1
  Er  Er5  1  0.467242  0.532758  0.293966  1
  Er  Er6  1  0.823485  0.646970  0.499444  1
  Er  Er7  1  0.353030  0.176515  0.499444  1
  Er  Er8  1  0.823485  0.176515  0.499444  1
  Er  Er9  1  0.176515  0.353030  0.999444  1
  Er  Er10  1  0.646970  0.823485  0.999444  1
  Er  Er11  1  0.176515  0.823485  0.999444  1
  Er  Er12  1  0.666667  0.333333  0.174517  1
  Er  Er13  1  0.333333  0.666667  0.674517  1
  Er  Er14  1  0.000000  0.000000  0.778925  1
  Er  Er15  1  0.000000  0.000000  0.278925  1
  In  In16  1  0.837248  0.674497  0.038340  1
  In  In17  1  0.325503  0.162752  0.038340  1
  In  In18  1  0.837248  0.162752  0.038340  1
  In  In19  1  0.162752  0.325503  0.538340  1
  In  In20  1  0.674497  0.837248  0.538340  1
  In  In21  1  0.162752  0.837248  0.538340  1
  Rh  Rh22  1  0.666667  0.333333  0.569262  1
  Rh  Rh23  1  0.333333  0.666667  0.069262  1
