# generated using pymatgen
data_Th4Zr4Ni12As11P
_symmetry_space_group_name_H-M   'P 1'
_cell_length_a   3.98165700
_cell_length_b   10.64741458
_cell_length_c   12.64432571
_cell_angle_alpha   90.03823937
_cell_angle_beta   90.00000000
_cell_angle_gamma   90.00000000
_symmetry_Int_Tables_number   1
_chemical_formula_structural   Th4Zr4Ni12As11P
_chemical_formula_sum   'Th4 Zr4 Ni12 As11 P1'
_cell_volume   536.04788601
_cell_formula_units_Z   1
loop_
 _symmetry_equiv_pos_site_id
 _symmetry_equiv_pos_as_xyz
  1  'x, y, z'
loop_
 _atom_site_type_symbol
 _atom_site_label
 _atom_site_symmetry_multiplicity
 _atom_site_fract_x
 _atom_site_fract_y
 _atom_site_fract_z
 _atom_site_occupancy
  Th  Th0  1  0.250000  0.069912  0.203591  1
  Th  Th1  1  0.750000  0.925743  0.797156  1
  Th  Th2  1  0.750000  0.570270  0.294229  1
  Th  Th3  1  0.250000  0.430816  0.705285  1
  Zr  Zr4  1  0.250000  0.161373  0.498412  1
  Zr  Zr5  1  0.750000  0.839064  0.501369  1
  Zr  Zr6  1  0.750000  0.661631  0.997172  1
  Zr  Zr7  1  0.250000  0.338783  0.998012  1
  Ni  Ni8  1  0.250000  0.726359  0.668459  1
  Ni  Ni9  1  0.750000  0.275835  0.338674  1
  Ni  Ni10  1  0.750000  0.223410  0.838992  1
  Ni  Ni11  1  0.250000  0.776375  0.160493  1
  Ni  Ni12  1  0.250000  0.367355  0.221783  1
  Ni  Ni13  1  0.750000  0.641088  0.782606  1
  Ni  Ni14  1  0.750000  0.865483  0.277418  1
  Ni  Ni15  1  0.250000  0.133849  0.722652  1
  Ni  Ni16  1  0.250000  0.610986  0.483331  1
  Ni  Ni17  1  0.750000  0.392208  0.519939  1
  Ni  Ni18  1  0.750000  0.109761  0.019900  1
  Ni  Ni19  1  0.250000  0.879149  0.973683  1
  As  As20  1  0.250000  0.943513  0.620852  1
  As  As21  1  0.750000  0.056973  0.379350  1
  As  As22  1  0.750000  0.442291  0.879124  1
  As  As23  1  0.250000  0.558152  0.118322  1
  As  As24  1  0.250000  0.395991  0.411026  1
  As  As25  1  0.750000  0.606542  0.591937  1
  As  As26  1  0.750000  0.894684  0.087187  1
  As  As27  1  0.250000  0.102459  0.911418  1
  As  As28  1  0.250000  0.777714  0.352738  1
  As  As29  1  0.750000  0.222049  0.647469  1
  As  As30  1  0.750000  0.278935  0.147570  1
  P  P31  1  0.250000  0.721246  0.849850  1
