# generated using pymatgen
data_Tb16Er4Bi3Pb13
_symmetry_space_group_name_H-M   'P 1'
_cell_length_a   8.28778742
_cell_length_b   8.31340837
_cell_length_c   15.67123352
_cell_angle_alpha   90.10955250
_cell_angle_beta   89.74621039
_cell_angle_gamma   89.96024840
_symmetry_Int_Tables_number   1
_chemical_formula_structural   Tb16Er4Bi3Pb13
_chemical_formula_sum   'Tb16 Er4 Bi3 Pb13'
_cell_volume   1079.73141656
_cell_formula_units_Z   1
loop_
 _symmetry_equiv_pos_site_id
 _symmetry_equiv_pos_as_xyz
  1  'x, y, z'
loop_
 _atom_site_type_symbol
 _atom_site_label
 _atom_site_symmetry_multiplicity
 _atom_site_fract_x
 _atom_site_fract_y
 _atom_site_fract_z
 _atom_site_occupancy
  Tb  Tb0  1  0.382714  0.839280  0.878687  1
  Tb  Tb1  1  0.885738  0.658077  0.621535  1
  Tb  Tb2  1  0.615558  0.157315  0.378025  1
  Tb  Tb3  1  0.117853  0.343033  0.121067  1
  Tb  Tb4  1  0.621698  0.158357  0.120880  1
  Tb  Tb5  1  0.119701  0.340213  0.379370  1
  Tb  Tb6  1  0.380089  0.840949  0.620574  1
  Tb  Tb7  1  0.880411  0.658384  0.878740  1
  Tb  Tb8  1  0.550315  0.333790  0.895207  1
  Tb  Tb9  1  0.058347  0.168737  0.607266  1
  Tb  Tb10  1  0.442488  0.668375  0.392800  1
  Tb  Tb11  1  0.948638  0.825809  0.104023  1
  Tb  Tb12  1  0.455807  0.667965  0.102679  1
  Tb  Tb13  1  0.957477  0.831299  0.395455  1
  Tb  Tb14  1  0.542162  0.330321  0.604412  1
  Tb  Tb15  1  0.041187  0.175667  0.896664  1
  Er  Er16  1  0.214431  0.502135  0.750715  1
  Er  Er17  1  0.714445  0.999053  0.753214  1
  Er  Er18  1  0.785149  0.497999  0.247435  1
  Er  Er19  1  0.285555  0.000995  0.251372  1
  Bi  Bi20  1  0.273980  0.024597  0.045709  1
  Bi  Bi21  1  0.770880  0.477996  0.453918  1
  Bi  Bi22  1  0.729176  0.978137  0.546109  1
  Pb  Pb23  1  0.223819  0.527108  0.955700  1
  Pb  Pb24  1  0.722651  0.970959  0.956082  1
  Pb  Pb25  1  0.222898  0.527446  0.544553  1
  Pb  Pb26  1  0.277974  0.027816  0.455694  1
  Pb  Pb27  1  0.779124  0.469817  0.043945  1
  Pb  Pb28  1  0.576655  0.629640  0.747669  1
  Pb  Pb29  1  0.076574  0.871568  0.751115  1
  Pb  Pb30  1  0.423899  0.370083  0.249145  1
  Pb  Pb31  1  0.924216  0.128572  0.250784  1
  Pb  Pb32  1  0.358140  0.152681  0.751576  1
  Pb  Pb33  1  0.856589  0.347714  0.748305  1
  Pb  Pb34  1  0.642289  0.846244  0.250275  1
  Pb  Pb35  1  0.141374  0.651872  0.249303  1
