# generated using pymatgen
data_Dy9YSi5Ge
_symmetry_space_group_name_H-M   'P 1'
_cell_length_a   8.47040900
_cell_length_b   8.47244193
_cell_length_c   6.38239100
_cell_angle_alpha   90.00000000
_cell_angle_beta   90.00000000
_cell_angle_gamma   119.99205904
_symmetry_Int_Tables_number   1
_chemical_formula_structural   Dy9YSi5Ge
_chemical_formula_sum   'Dy9 Y1 Si5 Ge1'
_cell_volume   396.69960352
_cell_formula_units_Z   1
loop_
 _symmetry_equiv_pos_site_id
 _symmetry_equiv_pos_as_xyz
  1  'x, y, z'
loop_
 _atom_site_type_symbol
 _atom_site_label
 _atom_site_symmetry_multiplicity
 _atom_site_fract_x
 _atom_site_fract_y
 _atom_site_fract_z
 _atom_site_occupancy
  Dy  Dy0  1  0.998269  0.755433  0.750000  1
  Dy  Dy1  1  0.999806  0.243277  0.250000  1
  Dy  Dy2  1  0.756529  0.756723  0.250000  1
  Dy  Dy3  1  0.758075  0.000000  0.750000  1
  Dy  Dy4  1  0.242836  0.244567  0.750000  1
  Dy  Dy5  1  0.333108  0.665275  0.499133  1
  Dy  Dy6  1  0.667833  0.334725  0.000867  1
  Dy  Dy7  1  0.667833  0.334725  0.499133  1
  Dy  Dy8  1  0.333108  0.665275  0.000867  1
  Y  Y9  1  0.242636  0.000000  0.250000  1
  Si  Si10  1  0.394095  0.394053  0.250000  1
  Si  Si11  1  0.000042  0.605947  0.250000  1
  Si  Si12  1  0.999995  0.394109  0.750000  1
  Si  Si13  1  0.605886  0.605891  0.750000  1
  Si  Si14  1  0.606245  0.000000  0.250000  1
  Ge  Ge15  1  0.393705  0.000000  0.750000  1
