# generated using pymatgen
data_Th6Hg6OsAu
_symmetry_space_group_name_H-M   'P 1'
_cell_length_a   8.32949270
_cell_length_b   8.39275394
_cell_length_c   8.45254915
_cell_angle_alpha   113.71746213
_cell_angle_beta   113.56389916
_cell_angle_gamma   112.30015745
_symmetry_Int_Tables_number   1
_chemical_formula_structural   Th6Hg6OsAu
_chemical_formula_sum   'Th6 Hg6 Os1 Au1'
_cell_volume   379.45174281
_cell_formula_units_Z   1
loop_
 _symmetry_equiv_pos_site_id
 _symmetry_equiv_pos_as_xyz
  1  'x, y, z'
loop_
 _atom_site_type_symbol
 _atom_site_label
 _atom_site_symmetry_multiplicity
 _atom_site_fract_x
 _atom_site_fract_y
 _atom_site_fract_z
 _atom_site_occupancy
  Th  Th0  1  0.994479  0.345706  0.234077  1
  Th  Th1  1  0.364930  0.242274  0.035640  1
  Th  Th2  1  0.751427  0.999229  0.621200  1
  Th  Th3  1  0.257869  0.020702  0.340265  1
  Th  Th4  1  0.636986  0.756170  0.021763  1
  Th  Th5  1  0.968174  0.609115  0.723966  1
  Hg  Hg6  1  0.503033  0.539078  0.534972  1
  Hg  Hg7  1  0.403618  0.889900  0.733044  1
  Hg  Hg8  1  0.924652  0.750079  0.411323  1
  Hg  Hg9  1  0.259415  0.594483  0.101845  1
  Hg  Hg10  1  0.722024  0.396097  0.889006  1
  Hg  Hg11  1  0.129987  0.273724  0.610530  1
  Os  Os12  1  0.965926  0.970023  0.968176  1
  Au  Au13  1  0.617480  0.113419  0.274192  1
