# generated using pymatgen
data_Er2Al9Ni2Rh
_symmetry_space_group_name_H-M   'P 1'
_cell_length_a   7.42937895
_cell_length_b   7.42937807
_cell_length_c   9.28445700
_cell_angle_alpha   90.00000000
_cell_angle_beta   90.00000000
_cell_angle_gamma   119.10373322
_symmetry_Int_Tables_number   1
_chemical_formula_structural   Er2Al9Ni2Rh
_chemical_formula_sum   'Er4 Al18 Ni4 Rh2'
_cell_volume   447.75862741
_cell_formula_units_Z   2
loop_
 _symmetry_equiv_pos_site_id
 _symmetry_equiv_pos_as_xyz
  1  'x, y, z'
loop_
 _atom_site_type_symbol
 _atom_site_label
 _atom_site_symmetry_multiplicity
 _atom_site_fract_x
 _atom_site_fract_y
 _atom_site_fract_z
 _atom_site_occupancy
  Er  Er0  1  0.994385  0.672661  0.750000  1
  Er  Er1  1  0.005615  0.327339  0.250000  1
  Er  Er2  1  0.672661  0.994385  0.750000  1
  Er  Er3  1  0.327339  0.005615  0.250000  1
  Al  Al4  1  0.132592  0.132592  0.750000  1
  Al  Al5  1  0.867408  0.867408  0.250000  1
  Al  Al6  1  0.997678  0.337955  0.574083  1
  Al  Al7  1  0.002322  0.662045  0.425917  1
  Al  Al8  1  0.002322  0.662045  0.074083  1
  Al  Al9  1  0.337955  0.997678  0.925917  1
  Al  Al10  1  0.997678  0.337955  0.925917  1
  Al  Al11  1  0.662045  0.002322  0.074083  1
  Al  Al12  1  0.662045  0.002322  0.425917  1
  Al  Al13  1  0.337955  0.997678  0.574083  1
  Al  Al14  1  0.335070  0.335070  0.050750  1
  Al  Al15  1  0.664930  0.664930  0.949250  1
  Al  Al16  1  0.664930  0.664930  0.550750  1
  Al  Al17  1  0.335070  0.335070  0.449250  1
  Al  Al18  1  0.340616  0.555982  0.750000  1
  Al  Al19  1  0.659384  0.444018  0.250000  1
  Al  Al20  1  0.555982  0.340616  0.750000  1
  Al  Al21  1  0.444018  0.659384  0.250000  1
  Ni  Ni22  1  0.671148  0.328852  0.500000  1
  Ni  Ni23  1  0.328852  0.671148  0.500000  1
  Ni  Ni24  1  0.328852  0.671148  0.000000  1
  Ni  Ni25  1  0.671148  0.328852  0.000000  1
  Rh  Rh26  1  0.000000  0.000000  0.500000  1
  Rh  Rh27  1  0.000000  0.000000  0.000000  1
