# generated using pymatgen
data_Sr10Si17Ge
_symmetry_space_group_name_H-M   'P 1'
_cell_length_a   6.36682160
_cell_length_b   6.36682140
_cell_length_c   17.40478030
_cell_angle_alpha   81.54412300
_cell_angle_beta   81.54411359
_cell_angle_gamma   99.96157848
_symmetry_Int_Tables_number   1
_chemical_formula_structural   Sr10Si17Ge
_chemical_formula_sum   'Sr10 Si17 Ge1'
_cell_volume   676.47831416
_cell_formula_units_Z   1
loop_
 _symmetry_equiv_pos_site_id
 _symmetry_equiv_pos_as_xyz
  1  'x, y, z'
loop_
 _atom_site_type_symbol
 _atom_site_label
 _atom_site_symmetry_multiplicity
 _atom_site_fract_x
 _atom_site_fract_y
 _atom_site_fract_z
 _atom_site_occupancy
  Sr  Sr0  1  0.749415  0.249891  0.000664  1
  Sr  Sr1  1  0.111793  0.577881  0.790156  1
  Sr  Sr2  1  0.290629  0.709590  0.499957  1
  Sr  Sr3  1  0.759008  0.759008  0.645010  1
  Sr  Sr4  1  0.243199  0.243199  0.353297  1
  Sr  Sr5  1  0.577881  0.111793  0.790156  1
  Sr  Sr6  1  0.249891  0.749415  0.000664  1
  Sr  Sr7  1  0.709590  0.290629  0.499957  1
  Sr  Sr8  1  0.421083  0.888354  0.209757  1
  Sr  Sr9  1  0.888354  0.421083  0.209757  1
  Si  Si10  1  0.224916  0.224916  0.070215  1
  Si  Si11  1  0.932338  0.932338  0.265123  1
  Si  Si12  1  0.066862  0.066862  0.735134  1
  Si  Si13  1  0.776368  0.776368  0.932011  1
  Si  Si14  1  0.355144  0.355144  0.647292  1
  Si  Si15  1  0.293968  0.293968  0.931102  1
  Si  Si16  1  0.936429  0.936429  0.130757  1
  Si  Si17  1  0.644806  0.644806  0.352794  1
  Si  Si18  1  0.419026  0.419026  0.152915  1
  Si  Si19  1  0.062571  0.062571  0.869855  1
  Si  Si20  1  0.820308  0.820308  0.453749  1
  Si  Si21  1  0.343028  0.962911  0.642434  1
  Si  Si22  1  0.657197  0.037037  0.357483  1
  Si  Si23  1  0.179724  0.179724  0.546177  1
  Si  Si24  1  0.962911  0.343028  0.642434  1
  Si  Si25  1  0.037037  0.657197  0.357483  1
  Si  Si26  1  0.701676  0.701676  0.070913  1
  Ge  Ge27  1  0.584849  0.584849  0.842756  1
