# generated using pymatgen
data_TbDy(ErPb)3
_symmetry_space_group_name_H-M   'P 1'
_cell_length_a   9.02147201
_cell_length_b   9.03017430
_cell_length_c   6.61618400
_cell_angle_alpha   90.00000000
_cell_angle_beta   90.00000000
_cell_angle_gamma   119.98992894
_symmetry_Int_Tables_number   1
_chemical_formula_structural   TbDy(ErPb)3
_chemical_formula_sum   'Tb2 Dy2 Er6 Pb6'
_cell_volume   466.82683190
_cell_formula_units_Z   2
loop_
 _symmetry_equiv_pos_site_id
 _symmetry_equiv_pos_as_xyz
  1  'x, y, z'
loop_
 _atom_site_type_symbol
 _atom_site_label
 _atom_site_symmetry_multiplicity
 _atom_site_fract_x
 _atom_site_fract_y
 _atom_site_fract_z
 _atom_site_occupancy
  Tb  Tb0  1  0.237978  0.237980  0.750000  1
  Tb  Tb1  1  0.237568  0.999681  0.250000  1
  Dy  Dy2  1  0.999792  0.237957  0.250000  1
  Dy  Dy3  1  0.762194  0.999735  0.750000  1
  Er  Er4  1  0.333396  0.666750  0.000027  1
  Er  Er5  1  0.666765  0.333449  0.000004  1
  Er  Er6  1  0.999740  0.761900  0.750000  1
  Er  Er7  1  0.762183  0.762141  0.250000  1
  Er  Er8  1  0.333396  0.666750  0.499973  1
  Er  Er9  1  0.666765  0.333449  0.499996  1
  Pb  Pb10  1  0.999673  0.395929  0.750000  1
  Pb  Pb11  1  0.395935  0.396211  0.250000  1
  Pb  Pb12  1  0.605138  0.999474  0.250000  1
  Pb  Pb13  1  0.605569  0.605070  0.750000  1
  Pb  Pb14  1  0.394702  0.999174  0.750000  1
  Pb  Pb15  1  0.999205  0.604349  0.250000  1
