# generated using pymatgen
data_SrThNp2N6
_symmetry_space_group_name_H-M   'P 1'
_cell_length_a   5.88748400
_cell_length_b   6.00282500
_cell_length_c   8.44369500
_cell_angle_alpha   90.00000000
_cell_angle_beta   90.00000000
_cell_angle_gamma   90.00000000
_symmetry_Int_Tables_number   1
_chemical_formula_structural   SrThNp2N6
_chemical_formula_sum   'Sr2 Th2 Np4 N12'
_cell_volume   298.41315202
_cell_formula_units_Z   2
loop_
 _symmetry_equiv_pos_site_id
 _symmetry_equiv_pos_as_xyz
  1  'x, y, z'
loop_
 _atom_site_type_symbol
 _atom_site_label
 _atom_site_symmetry_multiplicity
 _atom_site_fract_x
 _atom_site_fract_y
 _atom_site_fract_z
 _atom_site_occupancy
  Sr  Sr0  1  0.505103  0.525289  0.250000  1
  Sr  Sr1  1  0.994897  0.025289  0.250000  1
  Th  Th2  1  0.494066  0.448888  0.750000  1
  Th  Th3  1  0.005934  0.948888  0.750000  1
  Np  Np4  1  0.996119  0.496824  0.999876  1
  Np  Np5  1  0.503881  0.996824  0.500124  1
  Np  Np6  1  0.996119  0.496824  0.500124  1
  Np  Np7  1  0.503881  0.996824  0.999876  1
  N  N8  1  0.439652  0.983703  0.250000  1
  N  N9  1  0.060348  0.483703  0.250000  1
  N  N10  1  0.599371  0.028179  0.750000  1
  N  N11  1  0.900629  0.528179  0.750000  1
  N  N12  1  0.795203  0.811524  0.018896  1
  N  N13  1  0.704797  0.311524  0.481104  1
  N  N14  1  0.224239  0.198622  0.563224  1
  N  N15  1  0.275761  0.698622  0.936776  1
  N  N16  1  0.224239  0.198622  0.936776  1
  N  N17  1  0.275761  0.698622  0.563224  1
  N  N18  1  0.795203  0.811524  0.481104  1
  N  N19  1  0.704797  0.311524  0.018896  1
