# generated using pymatgen
data_Tm4Cd(Ga4Tc)5
_symmetry_space_group_name_H-M   'P 1'
_cell_length_a   9.07417400
_cell_length_b   9.07417400
_cell_length_c   6.40701200
_cell_angle_alpha   90.00000000
_cell_angle_beta   90.00000000
_cell_angle_gamma   90.00000000
_symmetry_Int_Tables_number   1
_chemical_formula_structural   Tm4Cd(Ga4Tc)5
_chemical_formula_sum   'Tm4 Cd1 Ga20 Tc5'
_cell_volume   527.55742873
_cell_formula_units_Z   1
loop_
 _symmetry_equiv_pos_site_id
 _symmetry_equiv_pos_as_xyz
  1  'x, y, z'
loop_
 _atom_site_type_symbol
 _atom_site_label
 _atom_site_symmetry_multiplicity
 _atom_site_fract_x
 _atom_site_fract_y
 _atom_site_fract_z
 _atom_site_occupancy
  Tm  Tm0  1  0.186273  0.320504  0.000000  1
  Tm  Tm1  1  0.679496  0.186273  0.000000  1
  Tm  Tm2  1  0.813727  0.679496  0.000000  1
  Tm  Tm3  1  0.320504  0.813727  0.000000  1
  Cd  Cd4  1  0.000000  0.000000  0.000000  1
  Ga  Ga5  1  0.500000  0.000000  0.284981  1
  Ga  Ga6  1  0.500000  0.000000  0.715019  1
  Ga  Ga7  1  0.295145  0.559298  0.707244  1
  Ga  Ga8  1  0.000000  0.500000  0.284981  1
  Ga  Ga9  1  0.000000  0.500000  0.715019  1
  Ga  Ga10  1  0.065662  0.781165  0.701518  1
  Ga  Ga11  1  0.218835  0.065662  0.298482  1
  Ga  Ga12  1  0.065662  0.781165  0.298482  1
  Ga  Ga13  1  0.704855  0.440702  0.707244  1
  Ga  Ga14  1  0.218835  0.065662  0.701518  1
  Ga  Ga15  1  0.934338  0.218835  0.701518  1
  Ga  Ga16  1  0.704855  0.440702  0.292756  1
  Ga  Ga17  1  0.559298  0.704855  0.292756  1
  Ga  Ga18  1  0.934338  0.218835  0.298482  1
  Ga  Ga19  1  0.559298  0.704855  0.707244  1
  Ga  Ga20  1  0.781165  0.934338  0.298482  1
  Ga  Ga21  1  0.440702  0.295145  0.707244  1
  Ga  Ga22  1  0.781165  0.934338  0.701518  1
  Ga  Ga23  1  0.440702  0.295145  0.292756  1
  Ga  Ga24  1  0.295145  0.559298  0.292756  1
  Tc  Tc25  1  0.175435  0.318933  0.500000  1
  Tc  Tc26  1  0.318933  0.824565  0.500000  1
  Tc  Tc27  1  0.824565  0.681067  0.500000  1
  Tc  Tc28  1  0.681067  0.175435  0.500000  1
  Tc  Tc29  1  0.500000  0.500000  0.000000  1
