# generated using pymatgen
data_Ca2LuMg(ReN3)4
_symmetry_space_group_name_H-M   'P 1'
_cell_length_a   7.25657390
_cell_length_b   7.25657211
_cell_length_c   6.16008968
_cell_angle_alpha   74.64719399
_cell_angle_beta   74.64719827
_cell_angle_gamma   83.79922047
_symmetry_Int_Tables_number   1
_chemical_formula_structural   Ca2LuMg(ReN3)4
_chemical_formula_sum   'Ca2 Lu1 Mg1 Re4 N12'
_cell_volume   301.38780742
_cell_formula_units_Z   1
loop_
 _symmetry_equiv_pos_site_id
 _symmetry_equiv_pos_as_xyz
  1  'x, y, z'
loop_
 _atom_site_type_symbol
 _atom_site_label
 _atom_site_symmetry_multiplicity
 _atom_site_fract_x
 _atom_site_fract_y
 _atom_site_fract_z
 _atom_site_occupancy
  Ca  Ca0  1  0.292357  0.707643  0.750000  1
  Ca  Ca1  1  0.706494  0.293506  0.250000  1
  Lu  Lu2  1  0.917028  0.082972  0.750000  1
  Mg  Mg3  1  0.093895  0.906105  0.250000  1
  Re  Re4  1  0.620153  0.802050  0.259904  1
  Re  Re5  1  0.197950  0.379847  0.240096  1
  Re  Re6  1  0.377915  0.200557  0.741262  1
  Re  Re7  1  0.799443  0.622085  0.758738  1
  N  N8  1  0.343663  0.363234  0.943415  1
  N  N9  1  0.009773  0.209632  0.352040  1
  N  N10  1  0.790368  0.990227  0.147960  1
  N  N11  1  0.208575  0.011535  0.858524  1
  N  N12  1  0.656791  0.639315  0.054051  1
  N  N13  1  0.888987  0.380610  0.807063  1
  N  N14  1  0.111581  0.620279  0.193692  1
  N  N15  1  0.988465  0.791425  0.641476  1
  N  N16  1  0.379721  0.888419  0.306308  1
  N  N17  1  0.636766  0.656337  0.556585  1
  N  N18  1  0.619390  0.111013  0.692937  1
  N  N19  1  0.360685  0.343209  0.445949  1
