# generated using pymatgen
data_CaNdB4Rh5
_symmetry_space_group_name_H-M   'P 1'
_cell_length_a   7.53364331
_cell_length_b   6.32319630
_cell_length_c   5.65830551
_cell_angle_alpha   77.70032080
_cell_angle_beta   55.09105917
_cell_angle_gamma   47.20862188
_symmetry_Int_Tables_number   1
_chemical_formula_structural   CaNdB4Rh5
_chemical_formula_sum   'Ca1 Nd1 B4 Rh5'
_cell_volume   155.13720510
_cell_formula_units_Z   1
loop_
 _symmetry_equiv_pos_site_id
 _symmetry_equiv_pos_as_xyz
  1  'x, y, z'
loop_
 _atom_site_type_symbol
 _atom_site_label
 _atom_site_symmetry_multiplicity
 _atom_site_fract_x
 _atom_site_fract_y
 _atom_site_fract_z
 _atom_site_occupancy
  Ca  Ca0  1  0.145603  0.145603  0.854397  1
  Nd  Nd1  1  0.858971  0.858971  0.141029  1
  B  B2  1  0.789191  0.470537  0.529463  1
  B  B3  1  0.208442  0.529554  0.470446  1
  B  B4  1  0.529554  0.208442  0.791558  1
  B  B5  1  0.470537  0.789191  0.210809  1
  Rh  Rh6  1  0.500357  0.500357  0.499643  1
  Rh  Rh7  1  0.500069  0.500069  0.999931  1
  Rh  Rh8  1  0.000069  0.000069  0.499931  1
  Rh  Rh9  1  0.748603  0.748603  0.751397  1
  Rh  Rh10  1  0.248603  0.248603  0.251397  1
