# generated using pymatgen
data_BaTbEu2F10
_symmetry_space_group_name_H-M   'P 1'
_cell_length_a   8.51221788
_cell_length_b   8.51221501
_cell_length_c   8.53888919
_cell_angle_alpha   59.81570440
_cell_angle_beta   59.81573257
_cell_angle_gamma   60.28002309
_symmetry_Int_Tables_number   1
_chemical_formula_structural   BaTbEu2F10
_chemical_formula_sum   'Ba2 Tb2 Eu4 F20'
_cell_volume   437.18157501
_cell_formula_units_Z   2
loop_
 _symmetry_equiv_pos_site_id
 _symmetry_equiv_pos_as_xyz
  1  'x, y, z'
loop_
 _atom_site_type_symbol
 _atom_site_label
 _atom_site_symmetry_multiplicity
 _atom_site_fract_x
 _atom_site_fract_y
 _atom_site_fract_z
 _atom_site_occupancy
  Ba  Ba0  1  0.249760  0.249758  0.250138  1
  Ba  Ba1  1  0.750240  0.750242  0.749862  1
  Tb  Tb2  1  0.238405  0.238405  0.761618  1
  Tb  Tb3  1  0.761595  0.761595  0.238382  1
  Eu  Eu4  1  0.758911  0.241083  0.240868  1
  Eu  Eu5  1  0.241089  0.758917  0.759132  1
  Eu  Eu6  1  0.241083  0.758911  0.240868  1
  Eu  Eu7  1  0.758917  0.241089  0.759132  1
  F  F8  1  0.833653  0.509323  0.490363  1
  F  F9  1  0.166347  0.490677  0.509637  1
  F  F10  1  0.509231  0.833695  0.166752  1
  F  F11  1  0.490769  0.166305  0.833248  1
  F  F12  1  0.509323  0.833653  0.490363  1
  F  F13  1  0.166305  0.490769  0.833248  1
  F  F14  1  0.490677  0.166347  0.509637  1
  F  F15  1  0.833695  0.509231  0.166752  1
  F  F16  1  0.499891  0.499891  0.839914  1
  F  F17  1  0.500109  0.500109  0.160086  1
  F  F18  1  0.159574  0.840426  0.500000  1
  F  F19  1  0.840426  0.159574  0.500000  1
  F  F20  1  0.120672  0.120672  0.105968  1
  F  F21  1  0.879328  0.879328  0.894032  1
  F  F22  1  0.120729  0.120730  0.652643  1
  F  F23  1  0.106130  0.652626  0.120589  1
  F  F24  1  0.879271  0.879270  0.347357  1
  F  F25  1  0.893870  0.347374  0.879411  1
  F  F26  1  0.652627  0.106130  0.120589  1
  F  F27  1  0.347373  0.893870  0.879411  1
