# generated using pymatgen
data_Dy4Y2InSi2
_symmetry_space_group_name_H-M   'P 1'
_cell_length_a   8.53263819
_cell_length_b   8.53263969
_cell_length_c   8.53263844
_cell_angle_alpha   112.31832205
_cell_angle_beta   110.97426780
_cell_angle_gamma   105.20654222
_symmetry_Int_Tables_number   1
_chemical_formula_structural   Dy4Y2InSi2
_chemical_formula_sum   'Dy8 Y4 In2 Si4'
_cell_volume   476.18173221
_cell_formula_units_Z   2
loop_
 _symmetry_equiv_pos_site_id
 _symmetry_equiv_pos_as_xyz
  1  'x, y, z'
loop_
 _atom_site_type_symbol
 _atom_site_label
 _atom_site_symmetry_multiplicity
 _atom_site_fract_x
 _atom_site_fract_y
 _atom_site_fract_z
 _atom_site_occupancy
  Dy  Dy0  1  0.185662  0.277851  0.463513  1
  Dy  Dy1  1  0.814338  0.722149  0.536487  1
  Dy  Dy2  1  0.185662  0.722149  0.907811  1
  Dy  Dy3  1  0.814338  0.277851  0.092189  1
  Dy  Dy4  1  0.319882  0.617191  0.297309  1
  Dy  Dy5  1  0.680118  0.382809  0.702691  1
  Dy  Dy6  1  0.319882  0.022574  0.702691  1
  Dy  Dy7  1  0.680118  0.977426  0.297309  1
  Y  Y8  1  0.442995  0.238600  0.204396  1
  Y  Y9  1  0.557005  0.761400  0.795604  1
  Y  Y10  1  0.034202  0.238600  0.795604  1
  Y  Y11  1  0.965798  0.761400  0.204396  1
  In  In12  1  0.500000  0.500000  0.000000  1
  In  In13  1  0.000000  0.000000  0.000000  1
  Si  Si14  1  0.369477  0.000000  0.369477  1
  Si  Si15  1  0.630523  0.000000  0.630523  1
  Si  Si16  1  0.115519  0.615519  0.500000  1
  Si  Si17  1  0.884481  0.384481  0.500000  1
