# generated using pymatgen
data_Ho2HgRhAu
_symmetry_space_group_name_H-M   'P 1'
_cell_length_a   7.61478500
_cell_length_b   7.85224500
_cell_length_c   3.72809100
_cell_angle_alpha   90.00000000
_cell_angle_beta   90.00000000
_cell_angle_gamma   90.00000000
_symmetry_Int_Tables_number   1
_chemical_formula_structural   Ho2HgRhAu
_chemical_formula_sum   'Ho4 Hg2 Rh2 Au2'
_cell_volume   222.91433212
_cell_formula_units_Z   2
loop_
 _symmetry_equiv_pos_site_id
 _symmetry_equiv_pos_as_xyz
  1  'x, y, z'
loop_
 _atom_site_type_symbol
 _atom_site_label
 _atom_site_symmetry_multiplicity
 _atom_site_fract_x
 _atom_site_fract_y
 _atom_site_fract_z
 _atom_site_occupancy
  Ho  Ho0  1  0.330029  0.186123  0.500000  1
  Ho  Ho1  1  0.830029  0.313878  0.500000  1
  Ho  Ho2  1  0.177273  0.644530  0.500000  1
  Ho  Ho3  1  0.677273  0.855471  0.500000  1
  Hg  Hg4  1  0.997419  0.007707  0.000000  1
  Hg  Hg5  1  0.497419  0.492293  0.000000  1
  Rh  Rh6  1  0.629709  0.130955  0.000000  1
  Rh  Rh7  1  0.129709  0.369046  0.000000  1
  Au  Au8  1  0.865571  0.623358  0.000000  1
  Au  Au9  1  0.365572  0.876642  0.000000  1
