# generated using pymatgen
data_Er10Th2Tc3Rh
_symmetry_space_group_name_H-M   'P 1'
_cell_length_a   6.30396879
_cell_length_b   7.30453247
_cell_length_c   9.27024800
_cell_angle_alpha   90.00000000
_cell_angle_beta   90.00000000
_cell_angle_gamma   89.97303749
_symmetry_Int_Tables_number   1
_chemical_formula_structural   Er10Th2Tc3Rh
_chemical_formula_sum   'Er10 Th2 Tc3 Rh1'
_cell_volume   426.87211189
_cell_formula_units_Z   1
loop_
 _symmetry_equiv_pos_site_id
 _symmetry_equiv_pos_as_xyz
  1  'x, y, z'
loop_
 _atom_site_type_symbol
 _atom_site_label
 _atom_site_symmetry_multiplicity
 _atom_site_fract_x
 _atom_site_fract_y
 _atom_site_fract_z
 _atom_site_occupancy
  Er  Er0  1  0.666576  0.174909  0.067456  1
  Er  Er1  1  0.170038  0.322113  0.934669  1
  Er  Er2  1  0.831003  0.679359  0.431902  1
  Er  Er3  1  0.336435  0.823148  0.561376  1
  Er  Er4  1  0.336435  0.823148  0.938624  1
  Er  Er5  1  0.831003  0.679359  0.068098  1
  Er  Er6  1  0.170038  0.322113  0.565331  1
  Er  Er7  1  0.666576  0.174909  0.432544  1
  Er  Er8  1  0.363630  0.539796  0.250000  1
  Er  Er9  1  0.130025  0.040701  0.250000  1
  Th  Th10  1  0.867979  0.950760  0.750000  1
  Th  Th11  1  0.637332  0.451519  0.750000  1
  Tc  Tc12  1  0.019941  0.623258  0.750000  1
  Tc  Tc13  1  0.532989  0.884905  0.250000  1
  Tc  Tc14  1  0.483115  0.125943  0.750000  1
  Rh  Rh15  1  0.956886  0.384059  0.250000  1
