# generated using pymatgen
data_Pu2Hg3(TeCl4)2
_symmetry_space_group_name_H-M   'P 1'
_cell_length_a   10.08796579
_cell_length_b   10.08796602
_cell_length_c   13.40882481
_cell_angle_alpha   76.00928000
_cell_angle_beta   76.00927923
_cell_angle_gamma   45.09163925
_symmetry_Int_Tables_number   1
_chemical_formula_structural   Pu2Hg3(TeCl4)2
_chemical_formula_sum   'Pu4 Hg6 Te4 Cl16'
_cell_volume   932.74353483
_cell_formula_units_Z   2
loop_
 _symmetry_equiv_pos_site_id
 _symmetry_equiv_pos_as_xyz
  1  'x, y, z'
loop_
 _atom_site_type_symbol
 _atom_site_label
 _atom_site_symmetry_multiplicity
 _atom_site_fract_x
 _atom_site_fract_y
 _atom_site_fract_z
 _atom_site_occupancy
  Pu  Pu0  1  0.208368  0.733397  0.932369  1
  Pu  Pu1  1  0.266603  0.791632  0.567631  1
  Pu  Pu2  1  0.791632  0.266603  0.067631  1
  Pu  Pu3  1  0.733397  0.208368  0.432369  1
  Hg  Hg4  1  0.500000  0.000000  0.000000  1
  Hg  Hg5  1  0.000000  0.500000  0.500000  1
  Hg  Hg6  1  0.254298  0.237691  0.752697  1
  Hg  Hg7  1  0.762309  0.745702  0.747303  1
  Hg  Hg8  1  0.745702  0.762309  0.247303  1
  Hg  Hg9  1  0.237691  0.254298  0.252697  1
  Te  Te10  1  0.586789  0.082407  0.802921  1
  Te  Te11  1  0.917593  0.413211  0.697079  1
  Te  Te12  1  0.413211  0.917593  0.197079  1
  Te  Te13  1  0.082407  0.586789  0.302921  1
  Cl  Cl14  1  0.451414  0.368389  0.028675  1
  Cl  Cl15  1  0.631611  0.548586  0.471325  1
  Cl  Cl16  1  0.548586  0.631611  0.971325  1
  Cl  Cl17  1  0.368389  0.451414  0.528675  1
  Cl  Cl18  1  0.179441  0.641166  0.761839  1
  Cl  Cl19  1  0.358834  0.820559  0.738161  1
  Cl  Cl20  1  0.820559  0.358834  0.238161  1
  Cl  Cl21  1  0.641166  0.179441  0.261839  1
  Cl  Cl22  1  0.945040  0.721741  0.022458  1
  Cl  Cl23  1  0.278259  0.054960  0.477542  1
  Cl  Cl24  1  0.054960  0.278259  0.977542  1
  Cl  Cl25  1  0.721741  0.945040  0.522458  1
  Cl  Cl26  1  0.105371  0.891425  0.112800  1
  Cl  Cl27  1  0.108575  0.894629  0.387200  1
  Cl  Cl28  1  0.894629  0.108575  0.887200  1
  Cl  Cl29  1  0.891425  0.105371  0.612800  1
