# generated using pymatgen
data_Y16MgHg3Ir3Rh
_symmetry_space_group_name_H-M   'P 1'
_cell_length_a   9.67994707
_cell_length_b   9.66242051
_cell_length_c   9.66242042
_cell_angle_alpha   59.91928989
_cell_angle_beta   59.94743687
_cell_angle_gamma   59.94742979
_symmetry_Int_Tables_number   1
_chemical_formula_structural   Y16MgHg3Ir3Rh
_chemical_formula_sum   'Y16 Mg1 Hg3 Ir3 Rh1'
_cell_volume   638.14466163
_cell_formula_units_Z   1
loop_
 _symmetry_equiv_pos_site_id
 _symmetry_equiv_pos_as_xyz
  1  'x, y, z'
loop_
 _atom_site_type_symbol
 _atom_site_label
 _atom_site_symmetry_multiplicity
 _atom_site_fract_x
 _atom_site_fract_y
 _atom_site_fract_z
 _atom_site_occupancy
  Y  Y0  1  0.599094  0.597326  0.597326  1
  Y  Y1  1  0.601388  0.599327  0.202797  1
  Y  Y2  1  0.601388  0.202797  0.599327  1
  Y  Y3  1  0.191368  0.603743  0.603743  1
  Y  Y4  1  0.056759  0.441441  0.441441  1
  Y  Y5  1  0.436209  0.061646  0.061646  1
  Y  Y6  1  0.437844  0.060095  0.439130  1
  Y  Y7  1  0.057927  0.440134  0.058946  1
  Y  Y8  1  0.437844  0.439130  0.060095  1
  Y  Y9  1  0.057927  0.058946  0.440134  1
  Y  Y10  1  0.188204  0.811796  0.811796  1
  Y  Y11  1  0.812592  0.187393  0.187393  1
  Y  Y12  1  0.811192  0.189365  0.812701  1
  Y  Y13  1  0.185999  0.813047  0.189235  1
  Y  Y14  1  0.811192  0.812701  0.189365  1
  Y  Y15  1  0.185999  0.189235  0.813047  1
  Mg  Mg16  1  0.535723  0.821060  0.821060  1
  Hg  Hg17  1  0.832108  0.836248  0.836248  1
  Hg  Hg18  1  0.832409  0.837020  0.493369  1
  Hg  Hg19  1  0.832409  0.493369  0.837020  1
  Ir  Ir20  1  0.389773  0.393949  0.824748  1
  Ir  Ir21  1  0.389773  0.824748  0.393949  1
  Ir  Ir22  1  0.825634  0.392161  0.392161  1
  Rh  Rh23  1  0.389245  0.393318  0.393318  1
