# generated using pymatgen
data_Tb3Dy(PdPt)2
_symmetry_space_group_name_H-M   'P 1'
_cell_length_a   4.53918400
_cell_length_b   5.61625727
_cell_length_c   7.09583679
_cell_angle_alpha   89.89766825
_cell_angle_beta   90.00000000
_cell_angle_gamma   90.00000000
_symmetry_Int_Tables_number   1
_chemical_formula_structural   Tb3Dy(PdPt)2
_chemical_formula_sum   'Tb3 Dy1 Pd2 Pt2'
_cell_volume   180.89547635
_cell_formula_units_Z   1
loop_
 _symmetry_equiv_pos_site_id
 _symmetry_equiv_pos_as_xyz
  1  'x, y, z'
loop_
 _atom_site_type_symbol
 _atom_site_label
 _atom_site_symmetry_multiplicity
 _atom_site_fract_x
 _atom_site_fract_y
 _atom_site_fract_z
 _atom_site_occupancy
  Tb  Tb0  1  0.000000  0.103990  0.683619  1
  Tb  Tb1  1  0.000000  0.895773  0.183049  1
  Tb  Tb2  1  0.500000  0.387773  0.317644  1
  Dy  Dy3  1  0.500000  0.612459  0.817731  1
  Pd  Pd4  1  0.000000  0.593263  0.544026  1
  Pd  Pd5  1  0.000000  0.407431  0.041869  1
  Pt  Pt6  1  0.500000  0.898706  0.456674  1
  Pt  Pt7  1  0.500000  0.100605  0.955388  1
