# generated using pymatgen
data_Rb3Eu2(PO3)7
_symmetry_space_group_name_H-M   'P 1'
_cell_length_a   6.91083030
_cell_length_b   8.03324585
_cell_length_c   22.53471000
_cell_angle_alpha   86.50681641
_cell_angle_beta   83.04107275
_cell_angle_gamma   65.90064640
_symmetry_Int_Tables_number   1
_chemical_formula_structural   Rb3Eu2(PO3)7
_chemical_formula_sum   'Rb6 Eu4 P14 O42'
_cell_volume   1133.49977370
_cell_formula_units_Z   2
loop_
 _symmetry_equiv_pos_site_id
 _symmetry_equiv_pos_as_xyz
  1  'x, y, z'
loop_
 _atom_site_type_symbol
 _atom_site_label
 _atom_site_symmetry_multiplicity
 _atom_site_fract_x
 _atom_site_fract_y
 _atom_site_fract_z
 _atom_site_occupancy
  Rb  Rb0  1  0.302616  0.788883  0.419536  1
  Rb  Rb1  1  0.854736  0.705644  0.757752  1
  Rb  Rb2  1  0.236999  0.805015  0.888312  1
  Rb  Rb3  1  0.697384  0.211117  0.580464  1
  Rb  Rb4  1  0.145264  0.294356  0.242248  1
  Rb  Rb5  1  0.763001  0.194985  0.111688  1
  Eu  Eu6  1  0.416271  0.814240  0.623583  1
  Eu  Eu7  1  0.583729  0.185760  0.376417  1
  Eu  Eu8  1  0.601647  0.170880  0.885642  1
  Eu  Eu9  1  0.398353  0.829120  0.114358  1
  P  P10  1  0.959931  0.116663  0.735320  1
  P  P11  1  0.199963  0.251518  0.519323  1
  P  P12  1  0.040069  0.883337  0.264680  1
  P  P13  1  0.012515  0.333307  0.935202  1
  P  P14  1  0.363693  0.152564  0.744414  1
  P  P15  1  0.800037  0.748482  0.480677  1
  P  P16  1  0.987485  0.666693  0.064798  1
  P  P17  1  0.727484  0.727667  0.962937  1
  P  P18  1  0.963050  0.396568  0.413313  1
  P  P19  1  0.636307  0.847436  0.255586  1
  P  P20  1  0.535682  0.437239  0.750401  1
  P  P21  1  0.036950  0.603432  0.586687  1
  P  P22  1  0.272516  0.272333  0.037063  1
  P  P23  1  0.464318  0.562761  0.249599  1
  O  O24  1  0.469956  0.051708  0.687139  1
  O  O25  1  0.753216  0.291786  0.714526  1
  O  O26  1  0.523942  0.383858  0.282300  1
  O  O27  1  0.793668  0.513798  0.949638  1
  O  O28  1  0.206332  0.486202  0.050362  1
  O  O29  1  0.947066  0.002411  0.318529  1
  O  O30  1  0.097059  0.964652  0.206864  1
  O  O31  1  0.737170  0.826964  0.904298  1
  O  O32  1  0.004586  0.292206  0.478306  1
  O  O33  1  0.480065  0.211064  0.997760  1
  O  O34  1  0.836779  0.680830  0.628852  1
  O  O35  1  0.078196  0.270128  0.003498  1
  O  O36  1  0.519935  0.788936  0.002240  1
  O  O37  1  0.754661  0.934022  0.453492  1
  O  O38  1  0.183781  0.379393  0.900344  1
  O  O39  1  0.626698  0.703084  0.514622  1
  O  O40  1  0.476058  0.616142  0.717700  1
  O  O41  1  0.052934  0.997589  0.681471  1
  O  O42  1  0.163221  0.319170  0.371148  1
  O  O43  1  0.242193  0.604184  0.601771  1
  O  O44  1  0.559256  0.937464  0.197424  1
  O  O45  1  0.757807  0.395816  0.398229  1
  O  O46  1  0.921804  0.729872  0.996502  1
  O  O47  1  0.927845  0.604612  0.426970  1
  O  O48  1  0.902941  0.035348  0.793136  1
  O  O49  1  0.440744  0.062536  0.802576  1
  O  O50  1  0.072155  0.395388  0.573030  1
  O  O51  1  0.106188  0.224220  0.747345  1
  O  O52  1  0.893812  0.775780  0.252655  1
  O  O53  1  0.056415  0.805985  0.085576  1
  O  O54  1  0.637404  0.642784  0.261021  1
  O  O55  1  0.995414  0.707794  0.521694  1
  O  O56  1  0.816219  0.620607  0.099656  1
  O  O57  1  0.559339  0.435430  0.815989  1
  O  O58  1  0.373302  0.296916  0.485378  1
  O  O59  1  0.943585  0.194015  0.914424  1
  O  O60  1  0.530044  0.948292  0.312861  1
  O  O61  1  0.246784  0.708214  0.285474  1
  O  O62  1  0.245339  0.065978  0.546508  1
  O  O63  1  0.262830  0.173036  0.095702  1
  O  O64  1  0.362596  0.357216  0.738979  1
  O  O65  1  0.440661  0.564570  0.184011  1
