# generated using pymatgen
data_NaCrF5
_symmetry_space_group_name_H-M   'P 1'
_cell_length_a   5.57299086
_cell_length_b   5.57297207
_cell_length_c   7.61600367
_cell_angle_alpha   70.30567508
_cell_angle_beta   70.30361238
_cell_angle_gamma   71.94046288
_symmetry_Int_Tables_number   1
_chemical_formula_structural   NaCrF5
_chemical_formula_sum   'Na2 Cr2 F10'
_cell_volume   204.45970951
_cell_formula_units_Z   2
loop_
 _symmetry_equiv_pos_site_id
 _symmetry_equiv_pos_as_xyz
  1  'x, y, z'
loop_
 _atom_site_type_symbol
 _atom_site_label
 _atom_site_symmetry_multiplicity
 _atom_site_fract_x
 _atom_site_fract_y
 _atom_site_fract_z
 _atom_site_occupancy
  Na  Na0  1  0.536808  0.463191  0.249999  1
  Na  Na1  1  0.463192  0.536809  0.750001  1
  Cr  Cr2  1  0.000000  0.000000  0.500000  1
  Cr  Cr3  1  0.000000  0.000000  0.000000  1
  F  F4  1  0.067732  0.932262  0.750001  1
  F  F5  1  0.932268  0.067738  0.249999  1
  F  F6  1  0.207545  0.234240  0.889203  1
  F  F7  1  0.765760  0.792455  0.610790  1
  F  F8  1  0.733273  0.285935  0.532597  1
  F  F9  1  0.714059  0.266728  0.967428  1
  F  F10  1  0.266727  0.714065  0.467403  1
  F  F11  1  0.285941  0.733272  0.032572  1
  F  F12  1  0.234240  0.207545  0.389210  1
  F  F13  1  0.792455  0.765760  0.110797  1
