# generated using pymatgen
data_Mn2PdS4
_symmetry_space_group_name_H-M   'P 1'
_cell_length_a   6.99896259
_cell_length_b   6.99896279
_cell_length_c   6.99896200
_cell_angle_alpha   59.99999427
_cell_angle_beta   59.99999335
_cell_angle_gamma   59.99999921
_symmetry_Int_Tables_number   1
_chemical_formula_structural   Mn2PdS4
_chemical_formula_sum   'Mn4 Pd2 S8'
_cell_volume   242.42977105
_cell_formula_units_Z   2
loop_
 _symmetry_equiv_pos_site_id
 _symmetry_equiv_pos_as_xyz
  1  'x, y, z'
loop_
 _atom_site_type_symbol
 _atom_site_label
 _atom_site_symmetry_multiplicity
 _atom_site_fract_x
 _atom_site_fract_y
 _atom_site_fract_z
 _atom_site_occupancy
  Mn  Mn0  1  0.125000  0.625000  0.625000  1
  Mn  Mn1  1  0.625000  0.625000  0.125000  1
  Mn  Mn2  1  0.625000  0.625000  0.625000  1
  Mn  Mn3  1  0.625000  0.125000  0.625000  1
  Pd  Pd4  1  0.250000  0.250000  0.250000  1
  Pd  Pd5  1  0.000000  0.000000  0.000000  1
  S  S6  1  0.411132  0.862956  0.862956  1
  S  S7  1  0.862956  0.862956  0.411132  1
  S  S8  1  0.862956  0.862956  0.862956  1
  S  S9  1  0.838868  0.387044  0.387044  1
  S  S10  1  0.387044  0.838868  0.387044  1
  S  S11  1  0.387044  0.387044  0.838868  1
  S  S12  1  0.862956  0.411132  0.862956  1
  S  S13  1  0.387044  0.387044  0.387044  1
