# generated using pymatgen
data_Tc6S7Br4
_symmetry_space_group_name_H-M   'P 1'
_cell_length_a   11.81059327
_cell_length_b   11.81059316
_cell_length_c   11.81059368
_cell_angle_alpha   51.25778975
_cell_angle_beta   51.25779050
_cell_angle_gamma   51.25778280
_symmetry_Int_Tables_number   1
_chemical_formula_structural   Tc6S7Br4
_chemical_formula_sum   'Tc12 S14 Br8'
_cell_volume   925.01261321
_cell_formula_units_Z   2
loop_
 _symmetry_equiv_pos_site_id
 _symmetry_equiv_pos_as_xyz
  1  'x, y, z'
loop_
 _atom_site_type_symbol
 _atom_site_label
 _atom_site_symmetry_multiplicity
 _atom_site_fract_x
 _atom_site_fract_y
 _atom_site_fract_z
 _atom_site_occupancy
  Tc  Tc0  1  0.521389  0.395688  0.688255  1
  Tc  Tc1  1  0.395688  0.688255  0.521389  1
  Tc  Tc2  1  0.688255  0.521389  0.395688  1
  Tc  Tc3  1  0.188255  0.895688  0.021389  1
  Tc  Tc4  1  0.895688  0.021389  0.188255  1
  Tc  Tc5  1  0.021389  0.188255  0.895688  1
  Tc  Tc6  1  0.480025  0.607276  0.311159  1
  Tc  Tc7  1  0.607276  0.311159  0.480025  1
  Tc  Tc8  1  0.311159  0.480025  0.607276  1
  Tc  Tc9  1  0.811159  0.107276  0.980025  1
  Tc  Tc10  1  0.107276  0.980025  0.811159  1
  Tc  Tc11  1  0.980025  0.811159  0.107276  1
  S  S12  1  0.786862  0.249910  0.556973  1
  S  S13  1  0.249910  0.556973  0.786862  1
  S  S14  1  0.556973  0.786862  0.249910  1
  S  S15  1  0.056973  0.749910  0.286862  1
  S  S16  1  0.749910  0.286862  0.056973  1
  S  S17  1  0.286862  0.056973  0.749910  1
  S  S18  1  0.212535  0.751665  0.442718  1
  S  S19  1  0.751665  0.442718  0.212535  1
  S  S20  1  0.442718  0.212535  0.751665  1
  S  S21  1  0.942718  0.251665  0.712535  1
  S  S22  1  0.251665  0.712535  0.942718  1
  S  S23  1  0.712535  0.942718  0.251665  1
  S  S24  1  0.596048  0.596048  0.596048  1
  S  S25  1  0.096048  0.096048  0.096048  1
  Br  Br26  1  0.965475  0.535310  0.252615  1
  Br  Br27  1  0.535310  0.252615  0.965475  1
  Br  Br28  1  0.252615  0.965475  0.535310  1
  Br  Br29  1  0.752615  0.035310  0.465475  1
  Br  Br30  1  0.035310  0.465475  0.752615  1
  Br  Br31  1  0.465475  0.752615  0.035310  1
  Br  Br32  1  0.396060  0.396060  0.396060  1
  Br  Br33  1  0.896060  0.896060  0.896060  1
