# generated using pymatgen
data_La7Dy13Si15Sb
_symmetry_space_group_name_H-M   'P 1'
_cell_length_a   7.60904481
_cell_length_b   7.88166053
_cell_length_c   14.92385403
_cell_angle_alpha   89.81866376
_cell_angle_beta   89.83642291
_cell_angle_gamma   89.61413081
_symmetry_Int_Tables_number   1
_chemical_formula_structural   La7Dy13Si15Sb
_chemical_formula_sum   'La7 Dy13 Si15 Sb1'
_cell_volume   894.98362999
_cell_formula_units_Z   1
loop_
 _symmetry_equiv_pos_site_id
 _symmetry_equiv_pos_as_xyz
  1  'x, y, z'
loop_
 _atom_site_type_symbol
 _atom_site_label
 _atom_site_symmetry_multiplicity
 _atom_site_fract_x
 _atom_site_fract_y
 _atom_site_fract_z
 _atom_site_occupancy
  La  La0  1  0.983322  0.829365  0.092794  1
  La  La1  1  0.469295  0.679700  0.403469  1
  La  La2  1  0.524999  0.320857  0.901555  1
  La  La3  1  0.024870  0.180213  0.596569  1
  La  La4  1  0.024566  0.180002  0.901162  1
  La  La5  1  0.527194  0.321095  0.597517  1
  La  La6  1  0.470631  0.679338  0.098405  1
  Dy  Dy7  1  0.642526  0.003186  0.250870  1
  Dy  Dy8  1  0.159865  0.505825  0.250797  1
  Dy  Dy9  1  0.851963  0.489864  0.749489  1
  Dy  Dy10  1  0.351023  0.011041  0.749635  1
  Dy  Dy11  1  0.979641  0.825540  0.403616  1
  Dy  Dy12  1  0.681373  0.821755  0.876583  1
  Dy  Dy13  1  0.180711  0.680300  0.622016  1
  Dy  Dy14  1  0.819313  0.316460  0.122883  1
  Dy  Dy15  1  0.311698  0.173673  0.379770  1
  Dy  Dy16  1  0.312907  0.174307  0.122981  1
  Dy  Dy17  1  0.819544  0.314385  0.378739  1
  Dy  Dy18  1  0.181976  0.677336  0.876321  1
  Dy  Dy19  1  0.684265  0.822622  0.622797  1
  Si  Si20  1  0.264800  0.876265  0.253122  1
  Si  Si21  1  0.733690  0.118817  0.749481  1
  Si  Si22  1  0.233480  0.382801  0.748897  1
  Si  Si23  1  0.019994  0.109641  0.252084  1
  Si  Si24  1  0.514762  0.364847  0.251251  1
  Si  Si25  1  0.476182  0.614931  0.749301  1
  Si  Si26  1  0.975903  0.886842  0.749487  1
  Si  Si27  1  0.857366  0.530980  0.960774  1
  Si  Si28  1  0.361981  0.969673  0.542033  1
  Si  Si29  1  0.640282  0.027606  0.040598  1
  Si  Si30  1  0.137443  0.476841  0.457267  1
  Si  Si31  1  0.140942  0.469741  0.040579  1
  Si  Si32  1  0.646696  0.024399  0.458804  1
  Si  Si33  1  0.357168  0.968728  0.959103  1
  Si  Si34  1  0.857697  0.536869  0.536975  1
  Sb  Sb35  1  0.779932  0.634155  0.252274  1
