# generated using pymatgen
data_Tb2HoLu2Si3
_symmetry_space_group_name_H-M   'P 1'
_cell_length_a   8.38567542
_cell_length_b   8.39671792
_cell_length_c   6.25512800
_cell_angle_alpha   90.00000000
_cell_angle_beta   90.00000000
_cell_angle_gamma   120.04356485
_symmetry_Int_Tables_number   1
_chemical_formula_structural   Tb2HoLu2Si3
_chemical_formula_sum   'Tb4 Ho2 Lu4 Si6'
_cell_volume   381.26209272
_cell_formula_units_Z   2
loop_
 _symmetry_equiv_pos_site_id
 _symmetry_equiv_pos_as_xyz
  1  'x, y, z'
loop_
 _atom_site_type_symbol
 _atom_site_label
 _atom_site_symmetry_multiplicity
 _atom_site_fract_x
 _atom_site_fract_y
 _atom_site_fract_z
 _atom_site_occupancy
  Tb  Tb0  1  0.755839  0.755762  0.250000  1
  Tb  Tb1  1  0.755839  0.000077  0.750000  1
  Tb  Tb2  1  0.244161  0.244238  0.750000  1
  Tb  Tb3  1  0.244161  0.999923  0.250000  1
  Ho  Ho4  1  0.000000  0.755126  0.750000  1
  Ho  Ho5  1  0.000000  0.244874  0.250000  1
  Lu  Lu6  1  0.333056  0.666528  0.500000  1
  Lu  Lu7  1  0.666944  0.333472  0.000000  1
  Lu  Lu8  1  0.666944  0.333472  0.500000  1
  Lu  Lu9  1  0.333056  0.666528  0.000000  1
  Si  Si10  1  0.395086  0.999645  0.750000  1
  Si  Si11  1  0.395086  0.395441  0.250000  1
  Si  Si12  1  0.000000  0.603777  0.250000  1
  Si  Si13  1  0.000000  0.396223  0.750000  1
  Si  Si14  1  0.604914  0.604559  0.750000  1
  Si  Si15  1  0.604914  0.000355  0.250000  1
