# generated using pymatgen
data_Ba2SmUSe6
_symmetry_space_group_name_H-M   'P 1'
_cell_length_a   7.49818225
_cell_length_b   7.90891843
_cell_length_c   13.18510541
_cell_angle_alpha   90.00457314
_cell_angle_beta   124.55044991
_cell_angle_gamma   89.97209105
_symmetry_Int_Tables_number   1
_chemical_formula_structural   Ba2SmUSe6
_chemical_formula_sum   'Ba4 Sm2 U2 Se12'
_cell_volume   644.00209332
_cell_formula_units_Z   2
loop_
 _symmetry_equiv_pos_site_id
 _symmetry_equiv_pos_as_xyz
  1  'x, y, z'
loop_
 _atom_site_type_symbol
 _atom_site_label
 _atom_site_symmetry_multiplicity
 _atom_site_fract_x
 _atom_site_fract_y
 _atom_site_fract_z
 _atom_site_occupancy
  Ba  Ba0  1  0.770493  0.927154  0.249698  1
  Ba  Ba1  1  0.229267  0.427074  0.250099  1
  Ba  Ba2  1  0.770733  0.572927  0.749901  1
  Ba  Ba3  1  0.229507  0.072846  0.750302  1
  Sm  Sm4  1  0.500000  0.500001  0.000000  1
  Sm  Sm5  1  0.500000  0.000000  0.500000  1
  U  U6  1  0.000000  0.000000  0.000000  1
  U  U7  1  0.000000  0.500001  0.500000  1
  Se  Se8  1  0.860449  0.705930  0.048855  1
  Se  Se9  1  0.749599  0.192809  0.046978  1
  Se  Se10  1  0.335201  0.021294  0.243547  1
  Se  Se11  1  0.665180  0.521344  0.256744  1
  Se  Se12  1  0.250222  0.692561  0.453070  1
  Se  Se13  1  0.139234  0.206149  0.451078  1
  Se  Se14  1  0.860767  0.793850  0.548922  1
  Se  Se15  1  0.749778  0.307439  0.546931  1
  Se  Se16  1  0.334820  0.478656  0.743256  1
  Se  Se17  1  0.664799  0.978706  0.756452  1
  Se  Se18  1  0.250400  0.807191  0.953022  1
  Se  Se19  1  0.139550  0.294071  0.951145  1
