# generated using pymatgen
data_Yb6Co7Si24Ru
_symmetry_space_group_name_H-M   'P 1'
_cell_length_a   9.76967825
_cell_length_b   9.76967785
_cell_length_c   7.96428731
_cell_angle_alpha   89.92126934
_cell_angle_beta   89.92126834
_cell_angle_gamma   131.83828165
_symmetry_Int_Tables_number   1
_chemical_formula_structural   Yb6Co7Si24Ru
_chemical_formula_sum   'Yb6 Co7 Si24 Ru1'
_cell_volume   566.34231248
_cell_formula_units_Z   1
loop_
 _symmetry_equiv_pos_site_id
 _symmetry_equiv_pos_as_xyz
  1  'x, y, z'
loop_
 _atom_site_type_symbol
 _atom_site_label
 _atom_site_symmetry_multiplicity
 _atom_site_fract_x
 _atom_site_fract_y
 _atom_site_fract_z
 _atom_site_occupancy
  Yb  Yb0  1  0.998368  0.998368  0.999673  1
  Yb  Yb1  1  0.499890  0.499890  0.498242  1
  Yb  Yb2  1  0.004449  0.504078  0.250388  1
  Yb  Yb3  1  0.996687  0.495748  0.750376  1
  Yb  Yb4  1  0.495748  0.996687  0.750376  1
  Yb  Yb5  1  0.504078  0.004449  0.250388  1
  Co  Co6  1  0.834491  0.168476  0.999179  1
  Co  Co7  1  0.168476  0.834491  0.999179  1
  Co  Co8  1  0.666377  0.331873  0.501931  1
  Co  Co9  1  0.331873  0.666377  0.501931  1
  Co  Co10  1  0.127756  0.127756  0.374379  1
  Co  Co11  1  0.874389  0.874389  0.627557  1
  Co  Co12  1  0.371512  0.371512  0.871396  1
  Si  Si13  1  0.709243  0.293505  0.000635  1
  Si  Si14  1  0.293505  0.709243  0.000635  1
  Si  Si15  1  0.792579  0.206993  0.501236  1
  Si  Si16  1  0.206993  0.792579  0.501236  1
  Si  Si17  1  0.326669  0.326669  0.165083  1
  Si  Si18  1  0.664792  0.664792  0.826530  1
  Si  Si19  1  0.166135  0.166135  0.666001  1
  Si  Si20  1  0.838890  0.838890  0.338276  1
  Si  Si21  1  0.854191  0.616403  0.005819  1
  Si  Si22  1  0.149949  0.382521  0.993172  1
  Si  Si23  1  0.649554  0.883034  0.508744  1
  Si  Si24  1  0.117789  0.350432  0.490471  1
  Si  Si25  1  0.350432  0.117789  0.490471  1
  Si  Si26  1  0.883034  0.649554  0.508744  1
  Si  Si27  1  0.382521  0.149949  0.993172  1
  Si  Si28  1  0.616403  0.854191  0.005819  1
  Si  Si29  1  0.892766  0.126405  0.266308  1
  Si  Si30  1  0.106288  0.873329  0.733858  1
  Si  Si31  1  0.608684  0.375943  0.766396  1
  Si  Si32  1  0.626441  0.387866  0.235079  1
  Si  Si33  1  0.387866  0.626441  0.235079  1
  Si  Si34  1  0.375943  0.608684  0.766396  1
  Si  Si35  1  0.873329  0.106288  0.733858  1
  Si  Si36  1  0.126405  0.892766  0.266308  1
  Ru  Ru37  1  0.625506  0.625506  0.125680  1
