# generated using pymatgen
data_HoLu4(In2Rh)2
_symmetry_space_group_name_H-M   'P 1'
_cell_length_a   3.53536600
_cell_length_b   7.96175900
_cell_length_c   18.11721700
_cell_angle_alpha   90.00000000
_cell_angle_beta   90.00000000
_cell_angle_gamma   90.00000000
_symmetry_Int_Tables_number   1
_chemical_formula_structural   HoLu4(In2Rh)2
_chemical_formula_sum   'Ho2 Lu8 In8 Rh4'
_cell_volume   509.95856995
_cell_formula_units_Z   2
loop_
 _symmetry_equiv_pos_site_id
 _symmetry_equiv_pos_as_xyz
  1  'x, y, z'
loop_
 _atom_site_type_symbol
 _atom_site_label
 _atom_site_symmetry_multiplicity
 _atom_site_fract_x
 _atom_site_fract_y
 _atom_site_fract_z
 _atom_site_occupancy
  Ho  Ho0  1  0.000000  0.500000  0.000000  1
  Ho  Ho1  1  0.000000  0.000000  0.500000  1
  Lu  Lu2  1  0.000000  0.883281  0.087500  1
  Lu  Lu3  1  0.000000  0.754942  0.279258  1
  Lu  Lu4  1  0.000000  0.745058  0.779258  1
  Lu  Lu5  1  0.000000  0.383281  0.412500  1
  Lu  Lu6  1  0.000000  0.116719  0.912500  1
  Lu  Lu7  1  0.000000  0.245058  0.720742  1
  Lu  Lu8  1  0.000000  0.254942  0.220742  1
  Lu  Lu9  1  0.000000  0.616719  0.587500  1
  In  In10  1  0.500000  0.206028  0.066748  1
  In  In11  1  0.500000  0.426233  0.849980  1
  In  In12  1  0.500000  0.573767  0.150020  1
  In  In13  1  0.500000  0.073767  0.349980  1
  In  In14  1  0.500000  0.926233  0.650020  1
  In  In15  1  0.500000  0.793972  0.933252  1
  In  In16  1  0.500000  0.706028  0.433252  1
  In  In17  1  0.500000  0.293972  0.566748  1
  Rh  Rh18  1  0.500000  0.974790  0.195869  1
  Rh  Rh19  1  0.500000  0.025210  0.804131  1
  Rh  Rh20  1  0.500000  0.525210  0.695869  1
  Rh  Rh21  1  0.500000  0.474790  0.304131  1
