# generated using pymatgen
data_Ti16Si16Mo3W
_symmetry_space_group_name_H-M   'P 1'
_cell_length_a   6.65788949
_cell_length_b   6.65789037
_cell_length_c   12.19775341
_cell_angle_alpha   89.95535987
_cell_angle_beta   90.04464117
_cell_angle_gamma   90.00380678
_symmetry_Int_Tables_number   1
_chemical_formula_structural   Ti16Si16Mo3W
_chemical_formula_sum   'Ti16 Si16 Mo3 W1'
_cell_volume   540.69556403
_cell_formula_units_Z   1
loop_
 _symmetry_equiv_pos_site_id
 _symmetry_equiv_pos_as_xyz
  1  'x, y, z'
loop_
 _atom_site_type_symbol
 _atom_site_label
 _atom_site_symmetry_multiplicity
 _atom_site_fract_x
 _atom_site_fract_y
 _atom_site_fract_z
 _atom_site_occupancy
  Ti  Ti0  1  0.995827  0.148665  0.622037  1
  Ti  Ti1  1  0.351183  0.495472  0.871677  1
  Ti  Ti2  1  0.649351  0.504928  0.372038  1
  Ti  Ti3  1  0.495472  0.351183  0.128323  1
  Ti  Ti4  1  0.504928  0.649351  0.627962  1
  Ti  Ti5  1  0.004747  0.850775  0.121548  1
  Ti  Ti6  1  0.148665  0.995827  0.377963  1
  Ti  Ti7  1  0.850775  0.004747  0.878452  1
  Ti  Ti8  1  0.000744  0.341884  0.222184  1
  Ti  Ti9  1  0.157502  0.501206  0.471703  1
  Ti  Ti10  1  0.840840  0.499359  0.972245  1
  Ti  Ti11  1  0.501206  0.157502  0.528297  1
  Ti  Ti12  1  0.499359  0.840840  0.027755  1
  Ti  Ti13  1  0.999290  0.658811  0.721499  1
  Ti  Ti14  1  0.341884  0.000744  0.777816  1
  Ti  Ti15  1  0.658811  0.999290  0.278501  1
  Si  Si16  1  0.043452  0.302648  0.814293  1
  Si  Si17  1  0.197484  0.543269  0.063870  1
  Si  Si18  1  0.802198  0.455910  0.564558  1
  Si  Si19  1  0.543269  0.197484  0.936130  1
  Si  Si20  1  0.455910  0.802198  0.435442  1
  Si  Si21  1  0.956575  0.698095  0.313658  1
  Si  Si22  1  0.302648  0.043452  0.185707  1
  Si  Si23  1  0.698095  0.956575  0.686342  1
  Si  Si24  1  0.293715  0.358784  0.672561  1
  Si  Si25  1  0.141472  0.793651  0.922260  1
  Si  Si26  1  0.858511  0.206406  0.422879  1
  Si  Si27  1  0.793651  0.141472  0.077740  1
  Si  Si28  1  0.206406  0.858511  0.577121  1
  Si  Si29  1  0.706176  0.641569  0.172728  1
  Si  Si30  1  0.358784  0.293715  0.327439  1
  Si  Si31  1  0.641569  0.706176  0.827272  1
  Mo  Mo32  1  0.170698  0.170698  0.000000  1
  Mo  Mo33  1  0.329009  0.670775  0.249859  1
  Mo  Mo34  1  0.670775  0.329009  0.750141  1
  W  W35  1  0.829021  0.829021  0.500000  1
