# generated using pymatgen
data_Ta3Ga3Ir2Os
_symmetry_space_group_name_H-M   'P 1'
_cell_length_a   7.44051900
_cell_length_b   7.44051884
_cell_length_c   2.97656100
_cell_angle_alpha   90.00000000
_cell_angle_beta   90.00000000
_cell_angle_gamma   120.00000515
_symmetry_Int_Tables_number   1
_chemical_formula_structural   Ta3Ga3Ir2Os
_chemical_formula_sum   'Ta3 Ga3 Ir2 Os1'
_cell_volume   142.70915912
_cell_formula_units_Z   1
loop_
 _symmetry_equiv_pos_site_id
 _symmetry_equiv_pos_as_xyz
  1  'x, y, z'
loop_
 _atom_site_type_symbol
 _atom_site_label
 _atom_site_symmetry_multiplicity
 _atom_site_fract_x
 _atom_site_fract_y
 _atom_site_fract_z
 _atom_site_occupancy
  Ta  Ta0  1  0.371891  0.004351  0.500001  1
  Ta  Ta1  1  0.995649  0.367540  0.500001  1
  Ta  Ta2  1  0.632460  0.628110  0.500001  1
  Ga  Ga3  1  0.706387  0.998421  0.000000  1
  Ga  Ga4  1  0.292034  0.293614  0.000000  1
  Ga  Ga5  1  0.001579  0.707966  0.000000  1
  Ir  Ir6  1  0.333334  0.666667  0.000000  1
  Ir  Ir7  1  0.000000  0.000000  0.500001  1
  Os  Os8  1  0.666667  0.333334  0.000000  1
