# generated using pymatgen
data_YbIr2Rh2Pb3O14
_symmetry_space_group_name_H-M   'P 1'
_cell_length_a   7.29919391
_cell_length_b   7.27376380
_cell_length_c   7.27856700
_cell_angle_alpha   59.97815807
_cell_angle_beta   60.09344115
_cell_angle_gamma   60.01602649
_symmetry_Int_Tables_number   1
_chemical_formula_structural   YbIr2Rh2Pb3O14
_chemical_formula_sum   'Yb1 Ir2 Rh2 Pb3 O14'
_cell_volume   273.43337545
_cell_formula_units_Z   1
loop_
 _symmetry_equiv_pos_site_id
 _symmetry_equiv_pos_as_xyz
  1  'x, y, z'
loop_
 _atom_site_type_symbol
 _atom_site_label
 _atom_site_symmetry_multiplicity
 _atom_site_fract_x
 _atom_site_fract_y
 _atom_site_fract_z
 _atom_site_occupancy
  Yb  Yb0  1  0.625000  0.125000  0.125000  1
  Ir  Ir1  1  0.625000  0.625000  0.125000  1
  Ir  Ir2  1  0.625000  0.625000  0.625000  1
  Rh  Rh3  1  0.125000  0.625000  0.625000  1
  Rh  Rh4  1  0.625000  0.125000  0.625000  1
  Pb  Pb5  1  0.125000  0.625000  0.125000  1
  Pb  Pb6  1  0.125000  0.125000  0.625000  1
  Pb  Pb7  1  0.125000  0.125000  0.125000  1
  O  O8  1  0.708671  0.692753  0.299288  1
  O  O9  1  0.291589  0.292831  0.707790  1
  O  O10  1  0.709111  0.297304  0.702306  1
  O  O11  1  0.295088  0.704323  0.292442  1
  O  O12  1  0.295088  0.704323  0.708148  1
  O  O13  1  0.709111  0.297304  0.291279  1
  O  O14  1  0.541329  0.557247  0.950712  1
  O  O15  1  0.958411  0.957169  0.542210  1
  O  O16  1  0.540889  0.952696  0.547694  1
  O  O17  1  0.954912  0.545677  0.957558  1
  O  O18  1  0.954912  0.545677  0.541852  1
  O  O19  1  0.540889  0.952696  0.958721  1
  O  O20  1  0.254270  0.250009  0.247860  1
  O  O21  1  0.995730  0.999991  0.002140  1
