# generated using pymatgen
data_Ho17Tm3(SiBi2)4
_symmetry_space_group_name_H-M   'P 1'
_cell_length_a   8.02362804
_cell_length_b   9.13981601
_cell_length_c   11.99122607
_cell_angle_alpha   89.99463490
_cell_angle_beta   89.98855835
_cell_angle_gamma   89.99960545
_symmetry_Int_Tables_number   1
_chemical_formula_structural   Ho17Tm3(SiBi2)4
_chemical_formula_sum   'Ho17 Tm3 Si4 Bi8'
_cell_volume   879.37035541
_cell_formula_units_Z   1
loop_
 _symmetry_equiv_pos_site_id
 _symmetry_equiv_pos_as_xyz
  1  'x, y, z'
loop_
 _atom_site_type_symbol
 _atom_site_label
 _atom_site_symmetry_multiplicity
 _atom_site_fract_x
 _atom_site_fract_y
 _atom_site_fract_z
 _atom_site_occupancy
  Ho  Ho0  1  0.320856  0.446721  0.437281  1
  Ho  Ho1  1  0.179229  0.446684  0.937320  1
  Ho  Ho2  1  0.320817  0.053209  0.437322  1
  Ho  Ho3  1  0.820760  0.946646  0.062686  1
  Ho  Ho4  1  0.679269  0.553403  0.562717  1
  Ho  Ho5  1  0.166692  0.749902  0.211711  1
  Ho  Ho6  1  0.333301  0.750115  0.711663  1
  Ho  Ho7  1  0.833295  0.249876  0.788284  1
  Ho  Ho8  1  0.666791  0.250035  0.288267  1
  Ho  Ho9  1  0.461391  0.750065  0.001477  1
  Ho  Ho10  1  0.038508  0.750024  0.501511  1
  Ho  Ho11  1  0.538592  0.250048  0.998499  1
  Ho  Ho12  1  0.961234  0.249902  0.498526  1
  Ho  Ho13  1  0.637122  0.749961  0.295413  1
  Ho  Ho14  1  0.862873  0.749984  0.795363  1
  Ho  Ho15  1  0.362987  0.249882  0.704681  1
  Ho  Ho16  1  0.137041  0.249925  0.204513  1
  Tm  Tm17  1  0.821197  0.553505  0.062663  1
  Tm  Tm18  1  0.678760  0.946488  0.562674  1
  Tm  Tm19  1  0.178815  0.053522  0.937299  1
  Si  Si20  1  0.411920  0.750328  0.478763  1
  Si  Si21  1  0.088208  0.750239  0.978644  1
  Si  Si22  1  0.588447  0.249419  0.521426  1
  Si  Si23  1  0.911765  0.250257  0.021351  1
  Bi  Bi24  1  0.933038  0.511074  0.325234  1
  Bi  Bi25  1  0.566878  0.988904  0.825319  1
  Bi  Bi26  1  0.066870  0.011047  0.674724  1
  Bi  Bi27  1  0.433234  0.488903  0.174594  1
  Bi  Bi28  1  0.066829  0.488971  0.674686  1
  Bi  Bi29  1  0.433249  0.011005  0.174629  1
  Bi  Bi30  1  0.933241  0.988926  0.325359  1
  Bi  Bi31  1  0.566793  0.511029  0.825400  1
