# generated using pymatgen
data_Eu4Y3Er(BO4)4
_symmetry_space_group_name_H-M   'P 1'
_cell_length_a   3.67379600
_cell_length_b   9.71062919
_cell_length_c   10.91881676
_cell_angle_alpha   90.11810753
_cell_angle_beta   90.00000000
_cell_angle_gamma   90.00000000
_symmetry_Int_Tables_number   1
_chemical_formula_structural   Eu4Y3Er(BO4)4
_chemical_formula_sum   'Eu4 Y3 Er1 B4 O16'
_cell_volume   389.52654838
_cell_formula_units_Z   1
loop_
 _symmetry_equiv_pos_site_id
 _symmetry_equiv_pos_as_xyz
  1  'x, y, z'
loop_
 _atom_site_type_symbol
 _atom_site_label
 _atom_site_symmetry_multiplicity
 _atom_site_fract_x
 _atom_site_fract_y
 _atom_site_fract_z
 _atom_site_occupancy
  Eu  Eu0  1  0.250000  0.657417  0.081416  1
  Eu  Eu1  1  0.750000  0.342562  0.919311  1
  Eu  Eu2  1  0.750000  0.156198  0.417959  1
  Eu  Eu3  1  0.250000  0.843555  0.581149  1
  Y  Y4  1  0.750000  0.917443  0.890040  1
  Y  Y5  1  0.750000  0.582636  0.388645  1
  Y  Y6  1  0.250000  0.416876  0.611123  1
  Er  Er7  1  0.250000  0.082947  0.110710  1
  B  B8  1  0.250000  0.362967  0.205519  1
  B  B9  1  0.750000  0.636335  0.793817  1
  B  B10  1  0.750000  0.864837  0.292933  1
  B  B11  1  0.250000  0.135578  0.706445  1
  O  O12  1  0.250000  0.490780  0.262577  1
  O  O13  1  0.750000  0.508210  0.737454  1
  O  O14  1  0.750000  0.992143  0.235424  1
  O  O15  1  0.250000  0.008041  0.763605  1
  O  O16  1  0.250000  0.240147  0.271703  1
  O  O17  1  0.750000  0.758497  0.726781  1
  O  O18  1  0.750000  0.741827  0.226574  1
  O  O19  1  0.250000  0.258047  0.773439  1
  O  O20  1  0.250000  0.354664  0.077195  1
  O  O21  1  0.750000  0.645630  0.922281  1
  O  O22  1  0.750000  0.857142  0.421428  1
  O  O23  1  0.250000  0.143674  0.578050  1
  O  O24  1  0.250000  0.614649  0.502280  1
  O  O25  1  0.750000  0.385089  0.497325  1
  O  O26  1  0.750000  0.114638  0.000520  1
  O  O27  1  0.250000  0.887470  0.004298  1
