# generated using pymatgen
data_Ho5Pa(SnIr)6
_symmetry_space_group_name_H-M   'P 1'
_cell_length_a   7.55266928
_cell_length_b   7.47821159
_cell_length_c   7.86129000
_cell_angle_alpha   90.00000000
_cell_angle_beta   90.00000000
_cell_angle_gamma   120.34656351
_symmetry_Int_Tables_number   1
_chemical_formula_structural   Ho5Pa(SnIr)6
_chemical_formula_sum   'Ho5 Pa1 Sn6 Ir6'
_cell_volume   383.17344517
_cell_formula_units_Z   1
loop_
 _symmetry_equiv_pos_site_id
 _symmetry_equiv_pos_as_xyz
  1  'x, y, z'
loop_
 _atom_site_type_symbol
 _atom_site_label
 _atom_site_symmetry_multiplicity
 _atom_site_fract_x
 _atom_site_fract_y
 _atom_site_fract_z
 _atom_site_occupancy
  Ho  Ho0  1  0.405930  0.001339  0.250000  1
  Ho  Ho1  1  0.598370  0.597055  0.750000  1
  Ho  Ho2  1  0.590030  0.593784  0.250000  1
  Ho  Ho3  1  0.995261  0.405970  0.250000  1
  Ho  Ho4  1  0.003437  0.403961  0.750000  1
  Pa  Pa5  1  0.413005  0.998495  0.750000  1
  Sn  Sn6  1  0.259822  0.266582  0.498620  1
  Sn  Sn7  1  0.259822  0.266582  0.001380  1
  Sn  Sn8  1  0.747905  0.000151  0.001213  1
  Sn  Sn9  1  0.992708  0.733277  0.498486  1
  Sn  Sn10  1  0.747905  0.000151  0.498787  1
  Sn  Sn11  1  0.992708  0.733277  0.001514  1
  Ir  Ir12  1  0.653014  0.316566  0.511565  1
  Ir  Ir13  1  0.653014  0.316566  0.988435  1
  Ir  Ir14  1  0.335948  0.682945  0.991840  1
  Ir  Ir15  1  0.335948  0.682945  0.508160  1
  Ir  Ir16  1  0.014022  0.999963  0.750000  1
  Ir  Ir17  1  0.001152  0.000389  0.250000  1
