# generated using pymatgen
data_Tb13Er3In4IrPd3
_symmetry_space_group_name_H-M   'P 1'
_cell_length_a   9.70477353
_cell_length_b   9.73583912
_cell_length_c   9.71560278
_cell_angle_alpha   60.22218029
_cell_angle_beta   60.02805114
_cell_angle_gamma   60.18384010
_symmetry_Int_Tables_number   1
_chemical_formula_structural   Tb13Er3In4IrPd3
_chemical_formula_sum   'Tb13 Er3 In4 Ir1 Pd3'
_cell_volume   651.22615286
_cell_formula_units_Z   1
loop_
 _symmetry_equiv_pos_site_id
 _symmetry_equiv_pos_as_xyz
  1  'x, y, z'
loop_
 _atom_site_type_symbol
 _atom_site_label
 _atom_site_symmetry_multiplicity
 _atom_site_fract_x
 _atom_site_fract_y
 _atom_site_fract_z
 _atom_site_occupancy
  Tb  Tb0  1  0.312390  0.687531  0.313305  1
  Tb  Tb1  1  0.940768  0.556459  0.564403  1
  Tb  Tb2  1  0.309832  0.315500  0.686837  1
  Tb  Tb3  1  0.098049  0.105425  0.098586  1
  Tb  Tb4  1  0.564361  0.555746  0.940750  1
  Tb  Tb5  1  0.098316  0.105572  0.696077  1
  Tb  Tb6  1  0.688847  0.313431  0.688160  1
  Tb  Tb7  1  0.687771  0.687917  0.311206  1
  Tb  Tb8  1  0.687056  0.315270  0.310423  1
  Tb  Tb9  1  0.310370  0.688246  0.687456  1
  Tb  Tb10  1  0.559751  0.941300  0.559295  1
  Tb  Tb11  1  0.696909  0.104734  0.098405  1
  Tb  Tb12  1  0.561917  0.940085  0.939066  1
  Er  Er13  1  0.102407  0.690365  0.103389  1
  Er  Er14  1  0.939555  0.940283  0.561029  1
  Er  Er15  1  0.940055  0.556727  0.939434  1
  In  In16  1  0.332688  0.333865  0.332949  1
  In  In17  1  0.001841  0.333153  0.332653  1
  In  In18  1  0.332473  0.001844  0.332726  1
  In  In19  1  0.332430  0.333329  0.001880  1
  Ir  Ir20  1  0.893005  0.321960  0.893166  1
  Pd  Pd21  1  0.895791  0.890081  0.894130  1
  Pd  Pd22  1  0.895418  0.890726  0.319428  1
  Pd  Pd23  1  0.317997  0.890448  0.895244  1
