# generated using pymatgen
data_Dy5Lu3Re2(B12Os)2
_symmetry_space_group_name_H-M   'P 1'
_cell_length_a   3.64338800
_cell_length_b   9.11502817
_cell_length_c   11.50639105
_cell_angle_alpha   90.14009076
_cell_angle_beta   90.00000000
_cell_angle_gamma   90.00000000
_symmetry_Int_Tables_number   1
_chemical_formula_structural   Dy5Lu3Re2(B12Os)2
_chemical_formula_sum   'Dy5 Lu3 Re2 B24 Os2'
_cell_volume   382.12132082
_cell_formula_units_Z   1
loop_
 _symmetry_equiv_pos_site_id
 _symmetry_equiv_pos_as_xyz
  1  'x, y, z'
loop_
 _atom_site_type_symbol
 _atom_site_label
 _atom_site_symmetry_multiplicity
 _atom_site_fract_x
 _atom_site_fract_y
 _atom_site_fract_z
 _atom_site_occupancy
  Dy  Dy0  1  0.000000  0.320734  0.412685  1
  Dy  Dy1  1  0.000000  0.679349  0.587788  1
  Dy  Dy2  1  0.000000  0.823769  0.084467  1
  Dy  Dy3  1  0.000000  0.176333  0.914964  1
  Dy  Dy4  1  0.000000  0.943683  0.371192  1
  Lu  Lu5  1  0.000000  0.056807  0.630151  1
  Lu  Lu6  1  0.000000  0.442711  0.128165  1
  Lu  Lu7  1  0.000000  0.557407  0.871382  1
  Re  Re8  1  0.000000  0.140220  0.179515  1
  Re  Re9  1  0.000000  0.860514  0.819878  1
  B  B10  1  0.500000  0.552992  0.432705  1
  B  B11  1  0.500000  0.445815  0.567595  1
  B  B12  1  0.500000  0.053821  0.066655  1
  B  B13  1  0.500000  0.946615  0.932611  1
  B  B14  1  0.500000  0.748155  0.418446  1
  B  B15  1  0.500000  0.250171  0.581987  1
  B  B16  1  0.500000  0.250792  0.080925  1
  B  B17  1  0.500000  0.749656  0.918661  1
  B  B18  1  0.500000  0.789890  0.265425  1
  B  B19  1  0.500000  0.208731  0.734359  1
  B  B20  1  0.500000  0.293157  0.234178  1
  B  B21  1  0.500000  0.707487  0.765535  1
  B  B22  1  0.500000  0.629374  0.185006  1
  B  B23  1  0.500000  0.370140  0.814690  1
  B  B24  1  0.500000  0.131977  0.314683  1
  B  B25  1  0.500000  0.869422  0.684930  1
  B  B26  1  0.500000  0.983066  0.212114  1
  B  B27  1  0.500000  0.017886  0.786882  1
  B  B28  1  0.500000  0.482064  0.287045  1
  B  B29  1  0.500000  0.517452  0.712771  1
  B  B30  1  0.500000  0.600183  0.027740  1
  B  B31  1  0.500000  0.399825  0.971842  1
  B  B32  1  0.500000  0.103015  0.473375  1
  B  B33  1  0.500000  0.898315  0.529454  1
  Os  Os34  1  0.000000  0.636563  0.320753  1
  Os  Os35  1  0.000000  0.361907  0.679447  1
