# generated using pymatgen
data_Li3Nd16Co4Hg
_symmetry_space_group_name_H-M   'P 1'
_cell_length_a   9.76386824
_cell_length_b   9.80485985
_cell_length_c   9.76386700
_cell_angle_alpha   60.13820261
_cell_angle_beta   60.00000080
_cell_angle_gamma   60.13820235
_symmetry_Int_Tables_number   1
_chemical_formula_structural   Li3Nd16Co4Hg
_chemical_formula_sum   'Li3 Nd16 Co4 Hg1'
_cell_volume   662.32968350
_cell_formula_units_Z   1
loop_
 _symmetry_equiv_pos_site_id
 _symmetry_equiv_pos_as_xyz
  1  'x, y, z'
loop_
 _atom_site_type_symbol
 _atom_site_label
 _atom_site_symmetry_multiplicity
 _atom_site_fract_x
 _atom_site_fract_y
 _atom_site_fract_z
 _atom_site_occupancy
  Li  Li0  1  0.225511  0.929297  0.922595  1
  Li  Li1  1  0.922595  0.929297  0.922595  1
  Li  Li2  1  0.922595  0.929297  0.225511  1
  Nd  Nd3  1  0.938193  0.936030  0.562888  1
  Nd  Nd4  1  0.562888  0.936030  0.562888  1
  Nd  Nd5  1  0.562888  0.936030  0.938193  1
  Nd  Nd6  1  0.686435  0.682566  0.315499  1
  Nd  Nd7  1  0.153348  0.155156  0.538146  1
  Nd  Nd8  1  0.315499  0.682566  0.686435  1
  Nd  Nd9  1  0.153348  0.155156  0.153348  1
  Nd  Nd10  1  0.538146  0.155156  0.153348  1
  Nd  Nd11  1  0.315499  0.682566  0.315499  1
  Nd  Nd12  1  0.312297  0.310619  0.688542  1
  Nd  Nd13  1  0.688542  0.310619  0.688542  1
  Nd  Nd14  1  0.938471  0.559884  0.563175  1
  Nd  Nd15  1  0.563175  0.559884  0.938471  1
  Nd  Nd16  1  0.154835  0.535492  0.154835  1
  Nd  Nd17  1  0.688542  0.310619  0.312297  1
  Nd  Nd18  1  0.938471  0.559884  0.938471  1
  Co  Co19  1  0.923911  0.359601  0.358244  1
  Co  Co20  1  0.358244  0.359601  0.923911  1
  Co  Co21  1  0.359650  0.921050  0.359650  1
  Co  Co22  1  0.358244  0.359601  0.358244  1
  Hg  Hg23  1  0.918668  0.243995  0.918668  1
