# generated using pymatgen
data_Y4Zr3RuF28
_symmetry_space_group_name_H-M   'P 1'
_cell_length_a   5.68995661
_cell_length_b   9.06479789
_cell_length_c   12.20402051
_cell_angle_alpha   62.81231002
_cell_angle_beta   90.01698578
_cell_angle_gamma   89.82644123
_symmetry_Int_Tables_number   1
_chemical_formula_structural   Y4Zr3RuF28
_chemical_formula_sum   'Y4 Zr3 Ru1 F28'
_cell_volume   559.91267989
_cell_formula_units_Z   1
loop_
 _symmetry_equiv_pos_site_id
 _symmetry_equiv_pos_as_xyz
  1  'x, y, z'
loop_
 _atom_site_type_symbol
 _atom_site_label
 _atom_site_symmetry_multiplicity
 _atom_site_fract_x
 _atom_site_fract_y
 _atom_site_fract_z
 _atom_site_occupancy
  Y  Y0  1  0.257254  0.813073  0.260903  1
  Y  Y1  1  0.742716  0.185812  0.732768  1
  Y  Y2  1  0.756387  0.182036  0.234697  1
  Y  Y3  1  0.243515  0.814306  0.770184  1
  Zr  Zr4  1  0.245209  0.274102  0.957089  1
  Zr  Zr5  1  0.255385  0.274073  0.454998  1
  Zr  Zr6  1  0.743599  0.726499  0.543737  1
  Ru  Ru7  1  0.756898  0.726833  0.044227  1
  F  F8  1  0.957919  0.709078  0.417095  1
  F  F9  1  0.042936  0.293323  0.581799  1
  F  F10  1  0.461128  0.289973  0.083711  1
  F  F11  1  0.553764  0.710197  0.919066  1
  F  F12  1  0.478355  0.730088  0.138923  1
  F  F13  1  0.527402  0.262914  0.857911  1
  F  F14  1  0.975396  0.271782  0.351023  1
  F  F15  1  0.022483  0.732150  0.647153  1
  F  F16  1  0.955335  0.743759  0.171806  1
  F  F17  1  0.036845  0.249062  0.828766  1
  F  F18  1  0.460497  0.252870  0.324549  1
  F  F19  1  0.537490  0.748640  0.673998  1
  F  F20  1  0.767692  0.490195  0.136903  1
  F  F21  1  0.230878  0.525392  0.859627  1
  F  F22  1  0.278073  0.525576  0.357663  1
  F  F23  1  0.721961  0.474365  0.641821  1
  F  F24  1  0.947166  0.280553  0.049799  1
  F  F25  1  0.043459  0.721852  0.953116  1
  F  F26  1  0.444966  0.725598  0.449484  1
  F  F27  1  0.557397  0.276074  0.547147  1
  F  F28  1  0.741461  0.978115  0.442089  1
  F  F29  1  0.258412  0.024106  0.558671  1
  F  F30  1  0.238366  0.023219  0.057131  1
  F  F31  1  0.756497  0.963137  0.952455  1
  F  F32  1  0.576569  0.970460  0.232360  1
  F  F33  1  0.424023  0.030409  0.767720  1
  F  F34  1  0.076741  0.026359  0.265779  1
  F  F35  1  0.925826  0.974019  0.733828  1
