# generated using pymatgen
data_Lu12Co6Ir
_symmetry_space_group_name_H-M   'P 1'
_cell_length_a   10.99971500
_cell_length_b   8.15890743
_cell_length_c   10.85476091
_cell_angle_alpha   54.92855692
_cell_angle_beta   90.00000000
_cell_angle_gamma   90.00000000
_symmetry_Int_Tables_number   1
_chemical_formula_structural   Lu12Co6Ir
_chemical_formula_sum   'Lu24 Co12 Ir2'
_cell_volume   797.29406963
_cell_formula_units_Z   2
loop_
 _symmetry_equiv_pos_site_id
 _symmetry_equiv_pos_as_xyz
  1  'x, y, z'
loop_
 _atom_site_type_symbol
 _atom_site_label
 _atom_site_symmetry_multiplicity
 _atom_site_fract_x
 _atom_site_fract_y
 _atom_site_fract_z
 _atom_site_occupancy
  Lu  Lu0  1  0.706795  0.233660  0.539575  1
  Lu  Lu1  1  0.206795  0.766340  0.960425  1
  Lu  Lu2  1  0.841140  0.501766  0.658672  1
  Lu  Lu3  1  0.341140  0.498234  0.841328  1
  Lu  Lu4  1  0.158860  0.498234  0.341328  1
  Lu  Lu5  1  0.658860  0.501766  0.158672  1
  Lu  Lu6  1  0.002256  0.839997  0.355113  1
  Lu  Lu7  1  0.502256  0.160003  0.144887  1
  Lu  Lu8  1  0.997744  0.160003  0.644887  1
  Lu  Lu9  1  0.497744  0.839997  0.855113  1
  Lu  Lu10  1  0.793205  0.233660  0.039575  1
  Lu  Lu11  1  0.293205  0.766340  0.460425  1
  Lu  Lu12  1  0.928129  0.769017  0.088079  1
  Lu  Lu13  1  0.428129  0.230983  0.411921  1
  Lu  Lu14  1  0.071871  0.230983  0.911921  1
  Lu  Lu15  1  0.571871  0.769017  0.588079  1
  Lu  Lu16  1  0.300654  0.246031  0.677661  1
  Lu  Lu17  1  0.800654  0.753969  0.822339  1
  Lu  Lu18  1  0.699346  0.753969  0.322339  1
  Lu  Lu19  1  0.199346  0.246031  0.177661  1
  Lu  Lu20  1  0.930955  0.259907  0.311796  1
  Lu  Lu21  1  0.430955  0.740093  0.188204  1
  Lu  Lu22  1  0.069045  0.740093  0.688204  1
  Lu  Lu23  1  0.569045  0.259907  0.811796  1
  Co  Co24  1  0.678234  0.907102  0.025597  1
  Co  Co25  1  0.178234  0.092898  0.474403  1
  Co  Co26  1  0.321766  0.092898  0.974403  1
  Co  Co27  1  0.821766  0.907102  0.525597  1
  Co  Co28  1  0.399843  0.494138  0.100366  1
  Co  Co29  1  0.899843  0.505862  0.399634  1
  Co  Co30  1  0.600157  0.505862  0.899634  1
  Co  Co31  1  0.100157  0.494138  0.600366  1
  Co  Co32  1  0.814133  0.100621  0.838074  1
  Co  Co33  1  0.314133  0.899379  0.661926  1
  Co  Co34  1  0.185867  0.899379  0.161926  1
  Co  Co35  1  0.685867  0.100621  0.338074  1
  Ir  Ir36  1  0.500000  0.500000  0.500000  1
  Ir  Ir37  1  0.000000  0.500000  0.000000  1
