# generated using pymatgen
data_Zr6Si12IrRh5
_symmetry_space_group_name_H-M   'P 1'
_cell_length_a   10.01636133
_cell_length_b   10.02681318
_cell_length_c   10.01967054
_cell_angle_alpha   148.58932931
_cell_angle_beta   133.87961764
_cell_angle_gamma   56.88873079
_symmetry_Int_Tables_number   1
_chemical_formula_structural   Zr6Si12IrRh5
_chemical_formula_sum   'Zr6 Si12 Ir1 Rh5'
_cell_volume   375.26409297
_cell_formula_units_Z   1
loop_
 _symmetry_equiv_pos_site_id
 _symmetry_equiv_pos_as_xyz
  1  'x, y, z'
loop_
 _atom_site_type_symbol
 _atom_site_label
 _atom_site_symmetry_multiplicity
 _atom_site_fract_x
 _atom_site_fract_y
 _atom_site_fract_z
 _atom_site_occupancy
  Zr  Zr0  1  0.347975  0.092921  0.253126  1
  Zr  Zr1  1  0.652025  0.907079  0.746874  1
  Zr  Zr2  1  0.160879  0.904946  0.252678  1
  Zr  Zr3  1  0.839121  0.095054  0.747322  1
  Zr  Zr4  1  0.637804  0.639236  0.000539  1
  Zr  Zr5  1  0.362196  0.360764  0.999461  1
  Si  Si6  1  0.000202  0.780118  0.780652  1
  Si  Si7  1  0.999798  0.219882  0.219348  1
  Si  Si8  1  0.500307  0.227957  0.727753  1
  Si  Si9  1  0.499693  0.772043  0.272247  1
  Si  Si10  1  0.201934  0.205126  0.002069  1
  Si  Si11  1  0.798066  0.794874  0.997931  1
  Si  Si12  1  0.294585  0.795279  0.499941  1
  Si  Si13  1  0.705415  0.204721  0.500059  1
  Si  Si14  1  0.716705  0.362361  0.352398  1
  Si  Si15  1  0.283295  0.637639  0.647602  1
  Si  Si16  1  0.987996  0.637687  0.353095  1
  Si  Si17  1  0.012004  0.362313  0.646905  1
  Ir  Ir18  1  0.500000  0.500000  0.500000  1
  Rh  Rh19  1  0.500000  0.000000  0.000000  1
  Rh  Rh20  1  0.000000  0.000000  0.500000  1
  Rh  Rh21  1  0.000000  0.500000  0.000000  1
  Rh  Rh22  1  0.244898  0.498739  0.742479  1
  Rh  Rh23  1  0.755102  0.501261  0.257521  1
