# generated using pymatgen
data_Dy4Ni2C5
_symmetry_space_group_name_H-M   'P 1'
_cell_length_a   3.64825900
_cell_length_b   3.69604300
_cell_length_c   11.64077700
_cell_angle_alpha   90.00000000
_cell_angle_beta   90.00000000
_cell_angle_gamma   90.00000000
_symmetry_Int_Tables_number   1
_chemical_formula_structural   Dy4Ni2C5
_chemical_formula_sum   'Dy4 Ni2 C5'
_cell_volume   156.96565886
_cell_formula_units_Z   1
loop_
 _symmetry_equiv_pos_site_id
 _symmetry_equiv_pos_as_xyz
  1  'x, y, z'
loop_
 _atom_site_type_symbol
 _atom_site_label
 _atom_site_symmetry_multiplicity
 _atom_site_fract_x
 _atom_site_fract_y
 _atom_site_fract_z
 _atom_site_occupancy
  Dy  Dy0  1  0.500000  0.504331  0.203956  1
  Dy  Dy1  1  0.500000  0.504331  0.796044  1
  Dy  Dy2  1  0.500000  0.207044  0.500000  1
  Dy  Dy3  1  0.000000  0.000319  0.000000  1
  Ni  Ni4  1  0.000000  0.697540  0.384032  1
  Ni  Ni5  1  0.000000  0.697540  0.615968  1
  C  C6  1  0.000000  0.000849  0.230400  1
  C  C7  1  0.000000  0.000849  0.769600  1
  C  C8  1  0.000000  0.196324  0.332680  1
  C  C9  1  0.000000  0.196324  0.667320  1
  C  C10  1  0.500000  0.496052  0.000000  1
