# generated using pymatgen
data_Lu20Cd3Hg3Pt2
_symmetry_space_group_name_H-M   'P 1'
_cell_length_a   9.52418400
_cell_length_b   9.52420623
_cell_length_c   9.46823400
_cell_angle_alpha   90.00000000
_cell_angle_beta   90.00000000
_cell_angle_gamma   119.99987418
_symmetry_Int_Tables_number   1
_chemical_formula_structural   Lu20Cd3Hg3Pt2
_chemical_formula_sum   'Lu20 Cd3 Hg3 Pt2'
_cell_volume   743.80095655
_cell_formula_units_Z   1
loop_
 _symmetry_equiv_pos_site_id
 _symmetry_equiv_pos_as_xyz
  1  'x, y, z'
loop_
 _atom_site_type_symbol
 _atom_site_label
 _atom_site_symmetry_multiplicity
 _atom_site_fract_x
 _atom_site_fract_y
 _atom_site_fract_z
 _atom_site_occupancy
  Lu  Lu0  1  0.207791  0.792209  0.941031  1
  Lu  Lu1  1  0.207791  0.415580  0.941031  1
  Lu  Lu2  1  0.584419  0.792209  0.941031  1
  Lu  Lu3  1  0.792353  0.207647  0.059129  1
  Lu  Lu4  1  0.792353  0.584705  0.059129  1
  Lu  Lu5  1  0.415295  0.207647  0.059129  1
  Lu  Lu6  1  0.792353  0.207647  0.440871  1
  Lu  Lu7  1  0.792353  0.584705  0.440871  1
  Lu  Lu8  1  0.415295  0.207647  0.440871  1
  Lu  Lu9  1  0.207791  0.792209  0.558969  1
  Lu  Lu10  1  0.207791  0.415580  0.558969  1
  Lu  Lu11  1  0.584419  0.792209  0.558969  1
  Lu  Lu12  1  0.542051  0.457949  0.750000  1
  Lu  Lu13  1  0.542051  0.084100  0.750000  1
  Lu  Lu14  1  0.915900  0.457949  0.750000  1
  Lu  Lu15  1  0.457699  0.542301  0.250000  1
  Lu  Lu16  1  0.457699  0.915398  0.250000  1
  Lu  Lu17  1  0.084602  0.542301  0.250000  1
  Lu  Lu18  1  0.000000  0.000000  0.987338  1
  Lu  Lu19  1  0.000000  0.000000  0.512662  1
  Cd  Cd20  1  0.112929  0.887072  0.250000  1
  Cd  Cd21  1  0.112930  0.225861  0.250000  1
  Cd  Cd22  1  0.774139  0.887070  0.250000  1
  Hg  Hg23  1  0.877183  0.122816  0.750000  1
  Hg  Hg24  1  0.877183  0.754367  0.750000  1
  Hg  Hg25  1  0.245633  0.122817  0.750000  1
  Pt  Pt26  1  0.333333  0.666666  0.750000  1
  Pt  Pt27  1  0.666667  0.333333  0.250000  1
