# generated using pymatgen
data_Y7Ho(Ta3Si4)4
_symmetry_space_group_name_H-M   'P 1'
_cell_length_a   7.05091304
_cell_length_b   7.05063509
_cell_length_c   13.02083701
_cell_angle_alpha   90.01021295
_cell_angle_beta   90.00058711
_cell_angle_gamma   89.99147572
_symmetry_Int_Tables_number   1
_chemical_formula_structural   Y7Ho(Ta3Si4)4
_chemical_formula_sum   'Y7 Ho1 Ta12 Si16'
_cell_volume   647.31025464
_cell_formula_units_Z   1
loop_
 _symmetry_equiv_pos_site_id
 _symmetry_equiv_pos_as_xyz
  1  'x, y, z'
loop_
 _atom_site_type_symbol
 _atom_site_label
 _atom_site_symmetry_multiplicity
 _atom_site_fract_x
 _atom_site_fract_y
 _atom_site_fract_z
 _atom_site_occupancy
  Y  Y0  1  0.342003  0.002772  0.468060  1
  Y  Y1  1  0.497167  0.842036  0.718080  1
  Y  Y2  1  0.502917  0.157915  0.217856  1
  Y  Y3  1  0.842048  0.497136  0.281912  1
  Y  Y4  1  0.157882  0.502918  0.782037  1
  Y  Y5  1  0.658076  0.997102  0.968198  1
  Y  Y6  1  0.002761  0.342018  0.531888  1
  Ho  Ho7  1  0.997703  0.657742  0.031900  1
  Ta  Ta8  1  0.328315  0.328676  0.000049  1
  Ta  Ta9  1  0.171586  0.828131  0.249868  1
  Ta  Ta10  1  0.828319  0.171697  0.750118  1
  Ta  Ta11  1  0.671529  0.671535  0.499989  1
  Ta  Ta12  1  0.152758  0.007295  0.874569  1
  Ta  Ta13  1  0.492792  0.653000  0.124060  1
  Ta  Ta14  1  0.507225  0.346997  0.624133  1
  Ta  Ta15  1  0.653170  0.493083  0.876089  1
  Ta  Ta16  1  0.346980  0.507247  0.375775  1
  Ta  Ta17  1  0.846943  0.992539  0.374271  1
  Ta  Ta18  1  0.007284  0.152935  0.125545  1
  Ta  Ta19  1  0.992569  0.846934  0.625641  1
  Si  Si20  1  0.202926  0.134151  0.682349  1
  Si  Si21  1  0.365283  0.703072  0.932371  1
  Si  Si22  1  0.634166  0.296806  0.432198  1
  Si  Si23  1  0.703723  0.366278  0.067840  1
  Si  Si24  1  0.296820  0.634171  0.567751  1
  Si  Si25  1  0.797440  0.865315  0.181857  1
  Si  Si26  1  0.134136  0.203003  0.317641  1
  Si  Si27  1  0.865954  0.796845  0.818035  1
  Si  Si28  1  0.293425  0.953576  0.064020  1
  Si  Si29  1  0.545946  0.793837  0.313934  1
  Si  Si30  1  0.454159  0.206221  0.814138  1
  Si  Si31  1  0.793860  0.545870  0.686036  1
  Si  Si32  1  0.205721  0.454450  0.185716  1
  Si  Si33  1  0.706252  0.046103  0.564053  1
  Si  Si34  1  0.954086  0.294353  0.936100  1
  Si  Si35  1  0.046077  0.706237  0.435925  1
