# generated using pymatgen
data_Ca6Tb2BiSb5
_symmetry_space_group_name_H-M   'P 1'
_cell_length_a   8.18067047
_cell_length_b   8.17177031
_cell_length_c   8.25786946
_cell_angle_alpha   109.51515232
_cell_angle_beta   109.58768162
_cell_angle_gamma   109.06562266
_symmetry_Int_Tables_number   1
_chemical_formula_structural   Ca6Tb2BiSb5
_chemical_formula_sum   'Ca6 Tb2 Bi1 Sb5'
_cell_volume   426.23642241
_cell_formula_units_Z   1
loop_
 _symmetry_equiv_pos_site_id
 _symmetry_equiv_pos_as_xyz
  1  'x, y, z'
loop_
 _atom_site_type_symbol
 _atom_site_label
 _atom_site_symmetry_multiplicity
 _atom_site_fract_x
 _atom_site_fract_y
 _atom_site_fract_z
 _atom_site_occupancy
  Ca  Ca0  1  0.502304  0.005543  0.356512  1
  Ca  Ca1  1  0.503943  0.002093  0.859106  1
  Ca  Ca2  1  0.646527  0.643523  0.648219  1
  Ca  Ca3  1  0.995740  0.354063  0.498000  1
  Ca  Ca4  1  0.142679  0.141281  0.145061  1
  Ca  Ca5  1  0.853146  0.496696  0.994614  1
  Tb  Tb6  1  0.998133  0.858480  0.500414  1
  Tb  Tb7  1  0.357884  0.498953  0.997672  1
  Bi  Bi8  1  0.248975  0.626979  0.371823  1
  Sb  Sb9  1  0.127122  0.748323  0.871031  1
  Sb  Sb10  1  0.883326  0.124714  0.750556  1
  Sb  Sb11  1  0.624453  0.383681  0.250446  1
  Sb  Sb12  1  0.368621  0.246833  0.628107  1
  Sb  Sb13  1  0.747145  0.868839  0.128444  1
