# generated using pymatgen
data_Lu12Ni4BiAu
_symmetry_space_group_name_H-M   'P 1'
_cell_length_a   8.26884681
_cell_length_b   8.26787846
_cell_length_c   8.26371300
_cell_angle_alpha   106.94302370
_cell_angle_beta   109.08550606
_cell_angle_gamma   112.47083107
_symmetry_Int_Tables_number   1
_chemical_formula_structural   Lu12Ni4BiAu
_chemical_formula_sum   'Lu12 Ni4 Bi1 Au1'
_cell_volume   433.66772790
_cell_formula_units_Z   1
loop_
 _symmetry_equiv_pos_site_id
 _symmetry_equiv_pos_as_xyz
  1  'x, y, z'
loop_
 _atom_site_type_symbol
 _atom_site_label
 _atom_site_symmetry_multiplicity
 _atom_site_fract_x
 _atom_site_fract_y
 _atom_site_fract_z
 _atom_site_occupancy
  Lu  Lu0  1  0.702952  0.280469  0.983380  1
  Lu  Lu1  1  0.297075  0.719629  0.016658  1
  Lu  Lu2  1  0.702895  0.719638  0.422502  1
  Lu  Lu3  1  0.297065  0.280352  0.577362  1
  Lu  Lu4  1  0.808791  0.131503  0.322681  1
  Lu  Lu5  1  0.808821  0.486291  0.677384  1
  Lu  Lu6  1  0.191187  0.868477  0.677253  1
  Lu  Lu7  1  0.191133  0.513752  0.322645  1
  Lu  Lu8  1  0.612845  0.791108  0.821801  1
  Lu  Lu9  1  0.969250  0.791174  0.178010  1
  Lu  Lu10  1  0.030801  0.208916  0.821929  1
  Lu  Lu11  1  0.387256  0.208985  0.178187  1
  Ni  Ni12  1  0.859533  0.499401  0.360514  1
  Ni  Ni13  1  0.140048  0.500155  0.639632  1
  Ni  Ni14  1  0.999688  0.124701  0.124636  1
  Ni  Ni15  1  0.000601  0.875394  0.875511  1
  Bi  Bi16  1  0.500011  0.000013  0.499999  1
  Au  Au17  1  0.500044  0.500039  0.999912  1
