# generated using pymatgen
data_Lu4Al15(GaIr2)3
_symmetry_space_group_name_H-M   'P 1'
_cell_length_a   7.50109181
_cell_length_b   7.50258308
_cell_length_c   9.46502800
_cell_angle_alpha   90.00000000
_cell_angle_beta   90.00000000
_cell_angle_gamma   119.43718931
_symmetry_Int_Tables_number   1
_chemical_formula_structural   Lu4Al15(GaIr2)3
_chemical_formula_sum   'Lu4 Al15 Ga3 Ir6'
_cell_volume   463.89852445
_cell_formula_units_Z   1
loop_
 _symmetry_equiv_pos_site_id
 _symmetry_equiv_pos_as_xyz
  1  'x, y, z'
loop_
 _atom_site_type_symbol
 _atom_site_label
 _atom_site_symmetry_multiplicity
 _atom_site_fract_x
 _atom_site_fract_y
 _atom_site_fract_z
 _atom_site_occupancy
  Lu  Lu0  1  0.998314  0.676806  0.250000  1
  Lu  Lu1  1  0.005209  0.324403  0.750000  1
  Lu  Lu2  1  0.671645  0.991214  0.250000  1
  Lu  Lu3  1  0.322944  0.003418  0.750000  1
  Al  Al4  1  0.001180  0.335661  0.073987  1
  Al  Al5  1  0.998933  0.663824  0.925219  1
  Al  Al6  1  0.998933  0.663824  0.574781  1
  Al  Al7  1  0.336445  0.002875  0.425870  1
  Al  Al8  1  0.001180  0.335661  0.426013  1
  Al  Al9  1  0.663918  0.999701  0.574459  1
  Al  Al10  1  0.663918  0.999701  0.925541  1
  Al  Al11  1  0.336445  0.002875  0.074130  1
  Al  Al12  1  0.333470  0.333654  0.558568  1
  Al  Al13  1  0.666737  0.666368  0.446478  1
  Al  Al14  1  0.666737  0.666368  0.053522  1
  Al  Al15  1  0.333470  0.333654  0.941432  1
  Al  Al16  1  0.662013  0.448467  0.750000  1
  Al  Al17  1  0.552790  0.340167  0.250000  1
  Al  Al18  1  0.448815  0.662341  0.750000  1
  Ga  Ga19  1  0.132218  0.132651  0.250000  1
  Ga  Ga20  1  0.863764  0.864246  0.750000  1
  Ga  Ga21  1  0.340354  0.547507  0.250000  1
  Ir  Ir22  1  0.671918  0.328783  0.000249  1
  Ir  Ir23  1  0.328123  0.673222  0.998013  1
  Ir  Ir24  1  0.328123  0.673222  0.501987  1
  Ir  Ir25  1  0.671918  0.328783  0.499751  1
  Ir  Ir26  1  0.000242  0.000303  0.999757  1
  Ir  Ir27  1  0.000242  0.000303  0.500243  1
