# generated using pymatgen
data_Y8Nb12Si15As
_symmetry_space_group_name_H-M   'P 1'
_cell_length_a   6.89607818
_cell_length_b   7.09535903
_cell_length_c   13.44599573
_cell_angle_alpha   90.04243087
_cell_angle_beta   89.78785975
_cell_angle_gamma   90.07661537
_symmetry_Int_Tables_number   1
_chemical_formula_structural   Y8Nb12Si15As
_chemical_formula_sum   'Y8 Nb12 Si15 As1'
_cell_volume   657.90932030
_cell_formula_units_Z   1
loop_
 _symmetry_equiv_pos_site_id
 _symmetry_equiv_pos_as_xyz
  1  'x, y, z'
loop_
 _atom_site_type_symbol
 _atom_site_label
 _atom_site_symmetry_multiplicity
 _atom_site_fract_x
 _atom_site_fract_y
 _atom_site_fract_z
 _atom_site_occupancy
  Y  Y0  1  0.503560  0.328670  0.096397  1
  Y  Y1  1  0.001877  0.172845  0.403879  1
  Y  Y2  1  0.500722  0.673788  0.597311  1
  Y  Y3  1  0.996262  0.828463  0.904190  1
  Y  Y4  1  0.496485  0.671206  0.904037  1
  Y  Y5  1  0.997269  0.827491  0.596262  1
  Y  Y6  1  0.502830  0.326922  0.402546  1
  Y  Y7  1  0.003584  0.171621  0.095979  1
  Nb  Nb8  1  0.662895  0.007896  0.749873  1
  Nb  Nb9  1  0.163642  0.490949  0.751385  1
  Nb  Nb10  1  0.336969  0.992009  0.250194  1
  Nb  Nb11  1  0.836695  0.507921  0.250077  1
  Nb  Nb12  1  0.837879  0.325700  0.625093  1
  Nb  Nb13  1  0.337312  0.175046  0.874211  1
  Nb  Nb14  1  0.162049  0.675344  0.125808  1
  Nb  Nb15  1  0.660869  0.826052  0.373802  1
  Nb  Nb16  1  0.160479  0.675969  0.373376  1
  Nb  Nb17  1  0.661826  0.824841  0.125712  1
  Nb  Nb18  1  0.837763  0.324846  0.874192  1
  Nb  Nb19  1  0.340451  0.171252  0.626798  1
  Si  Si20  1  0.796868  0.625781  0.750553  1
  Si  Si21  1  0.296477  0.873704  0.750935  1
  Si  Si22  1  0.203577  0.374242  0.249506  1
  Si  Si23  1  0.704005  0.125567  0.249312  1
  Si  Si24  1  0.542614  0.375478  0.750353  1
  Si  Si25  1  0.041184  0.123686  0.750087  1
  Si  Si26  1  0.457908  0.623609  0.249787  1
  Si  Si27  1  0.957424  0.876164  0.249479  1
  Si  Si28  1  0.663913  0.037930  0.540648  1
  Si  Si29  1  0.161695  0.462804  0.958953  1
  Si  Si30  1  0.337804  0.963142  0.041201  1
  Si  Si31  1  0.827067  0.540512  0.456790  1
  Si  Si32  1  0.337025  0.962448  0.458915  1
  Si  Si33  1  0.837976  0.537141  0.041349  1
  Si  Si34  1  0.661827  0.037287  0.959090  1
  As  As35  1  0.171215  0.461675  0.541921  1
