# generated using pymatgen
data_Tb3HoTa4(TiSi4)2
_symmetry_space_group_name_H-M   'P 1'
_cell_length_a   7.05929074
_cell_length_b   7.05612622
_cell_length_c   12.99010936
_cell_angle_alpha   89.95632744
_cell_angle_beta   90.09776634
_cell_angle_gamma   89.98262435
_symmetry_Int_Tables_number   1
_chemical_formula_structural   Tb3HoTa4(TiSi4)2
_chemical_formula_sum   'Tb6 Ho2 Ta8 Ti4 Si16'
_cell_volume   647.05237860
_cell_formula_units_Z   2
loop_
 _symmetry_equiv_pos_site_id
 _symmetry_equiv_pos_as_xyz
  1  'x, y, z'
loop_
 _atom_site_type_symbol
 _atom_site_label
 _atom_site_symmetry_multiplicity
 _atom_site_fract_x
 _atom_site_fract_y
 _atom_site_fract_z
 _atom_site_occupancy
  Tb  Tb0  1  0.340835  0.003385  0.466437  1
  Tb  Tb1  1  0.497749  0.840889  0.717098  1
  Tb  Tb2  1  0.501941  0.158379  0.217281  1
  Tb  Tb3  1  0.841582  0.498083  0.283097  1
  Tb  Tb4  1  0.158013  0.502479  0.782690  1
  Tb  Tb5  1  0.659182  0.996808  0.967369  1
  Ho  Ho6  1  0.002569  0.340949  0.533167  1
  Ho  Ho7  1  0.997477  0.659969  0.032816  1
  Ta  Ta8  1  0.329070  0.329365  0.999828  1
  Ta  Ta9  1  0.174267  0.825121  0.250129  1
  Ta  Ta10  1  0.826764  0.174366  0.749962  1
  Ta  Ta11  1  0.152424  0.009622  0.874492  1
  Ta  Ta12  1  0.492059  0.652458  0.123678  1
  Ta  Ta13  1  0.507125  0.346526  0.624770  1
  Ta  Ta14  1  0.652389  0.492249  0.876048  1
  Ta  Ta15  1  0.346881  0.507257  0.375590  1
  Ti  Ti16  1  0.669622  0.668587  0.499878  1
  Ti  Ti17  1  0.848026  0.991228  0.374274  1
  Ti  Ti18  1  0.008940  0.152977  0.125530  1
  Ti  Ti19  1  0.991296  0.846836  0.626000  1
  Si  Si20  1  0.201513  0.132258  0.682502  1
  Si  Si21  1  0.365195  0.704184  0.932723  1
  Si  Si22  1  0.635315  0.296460  0.433541  1
  Si  Si23  1  0.704963  0.365527  0.067582  1
  Si  Si24  1  0.295941  0.634221  0.566390  1
  Si  Si25  1  0.800262  0.867669  0.184587  1
  Si  Si26  1  0.130913  0.201352  0.316389  1
  Si  Si27  1  0.866132  0.798174  0.816090  1
  Si  Si28  1  0.291719  0.953858  0.064646  1
  Si  Si29  1  0.548789  0.793093  0.315145  1
  Si  Si30  1  0.453670  0.206478  0.813200  1
  Si  Si31  1  0.794075  0.547920  0.684034  1
  Si  Si32  1  0.205157  0.452842  0.185862  1
  Si  Si33  1  0.709503  0.045910  0.563291  1
  Si  Si34  1  0.953649  0.294750  0.937124  1
  Si  Si35  1  0.044992  0.707774  0.436763  1
