# generated using pymatgen
data_La5In4RhAu
_symmetry_space_group_name_H-M   'P 1'
_cell_length_a   3.84527100
_cell_length_b   8.50888023
_cell_length_c   19.08572466
_cell_angle_alpha   90.04365580
_cell_angle_beta   90.00000000
_cell_angle_gamma   90.00000000
_symmetry_Int_Tables_number   1
_chemical_formula_structural   La5In4RhAu
_chemical_formula_sum   'La10 In8 Rh2 Au2'
_cell_volume   624.46469725
_cell_formula_units_Z   2
loop_
 _symmetry_equiv_pos_site_id
 _symmetry_equiv_pos_as_xyz
  1  'x, y, z'
loop_
 _atom_site_type_symbol
 _atom_site_label
 _atom_site_symmetry_multiplicity
 _atom_site_fract_x
 _atom_site_fract_y
 _atom_site_fract_z
 _atom_site_occupancy
  La  La0  1  0.000000  0.123332  0.419818  1
  La  La1  1  0.000000  0.876668  0.580182  1
  La  La2  1  0.000000  0.381124  0.914656  1
  La  La3  1  0.000000  0.618876  0.085344  1
  La  La4  1  0.000000  0.260990  0.217370  1
  La  La5  1  0.000000  0.739010  0.782630  1
  La  La6  1  0.000000  0.273906  0.723061  1
  La  La7  1  0.000000  0.726094  0.276939  1
  La  La8  1  0.000000  0.000000  0.000000  1
  La  La9  1  0.000000  0.500000  0.500000  1
  In  In10  1  0.500000  0.429722  0.350207  1
  In  In11  1  0.500000  0.570278  0.649793  1
  In  In12  1  0.500000  0.070073  0.851257  1
  In  In13  1  0.500000  0.929927  0.148743  1
  In  In14  1  0.500000  0.294041  0.069160  1
  In  In15  1  0.500000  0.705959  0.930840  1
  In  In16  1  0.500000  0.210299  0.571908  1
  In  In17  1  0.500000  0.789701  0.428092  1
  Rh  Rh18  1  0.500000  0.485040  0.804942  1
  Rh  Rh19  1  0.500000  0.514960  0.195058  1
  Au  Au20  1  0.500000  0.022358  0.301498  1
  Au  Au21  1  0.500000  0.977642  0.698502  1
