# generated using pymatgen
data_La3(ZnGa3)2
_symmetry_space_group_name_H-M   'P 1'
_cell_length_a   4.38662679
_cell_length_b   4.37500422
_cell_length_c   13.07439779
_cell_angle_alpha   99.63155058
_cell_angle_beta   99.65739256
_cell_angle_gamma   90.00000570
_symmetry_Int_Tables_number   1
_chemical_formula_structural   La3(ZnGa3)2
_chemical_formula_sum   'La3 Zn2 Ga6'
_cell_volume   243.77306007
_cell_formula_units_Z   1
loop_
 _symmetry_equiv_pos_site_id
 _symmetry_equiv_pos_as_xyz
  1  'x, y, z'
loop_
 _atom_site_type_symbol
 _atom_site_label
 _atom_site_symmetry_multiplicity
 _atom_site_fract_x
 _atom_site_fract_y
 _atom_site_fract_z
 _atom_site_occupancy
  La  La0  1  0.148187  0.648187  0.296373  1
  La  La1  1  0.851813  0.351813  0.703627  1
  La  La2  1  0.000000  0.000000  0.000000  1
  Zn  Zn3  1  0.750425  0.750425  0.500850  1
  Zn  Zn4  1  0.249575  0.249575  0.499150  1
  Ga  Ga5  1  0.403478  0.903478  0.806957  1
  Ga  Ga6  1  0.596522  0.096522  0.193043  1
  Ga  Ga7  1  0.305316  0.805316  0.610634  1
  Ga  Ga8  1  0.694684  0.194684  0.389366  1
  Ga  Ga9  1  0.548715  0.548715  0.097428  1
  Ga  Ga10  1  0.451285  0.451285  0.902572  1
