# generated using pymatgen
data_Y6Tm4Sn5Sb
_symmetry_space_group_name_H-M   'P 1'
_cell_length_a   6.46447500
_cell_length_b   8.93597611
_cell_length_c   8.94262101
_cell_angle_alpha   120.02523117
_cell_angle_beta   89.99925698
_cell_angle_gamma   90.00002481
_symmetry_Int_Tables_number   1
_chemical_formula_structural   Y6Tm4Sn5Sb
_chemical_formula_sum   'Y6 Tm4 Sn5 Sb1'
_cell_volume   447.26018882
_cell_formula_units_Z   1
loop_
 _symmetry_equiv_pos_site_id
 _symmetry_equiv_pos_as_xyz
  1  'x, y, z'
loop_
 _atom_site_type_symbol
 _atom_site_label
 _atom_site_symmetry_multiplicity
 _atom_site_fract_x
 _atom_site_fract_y
 _atom_site_fract_z
 _atom_site_occupancy
  Y  Y0  1  0.750004  0.240854  0.000852  1
  Y  Y1  1  0.750008  0.759192  0.759994  1
  Y  Y2  1  0.750005  0.000004  0.241140  1
  Y  Y3  1  0.249996  0.758248  0.997910  1
  Y  Y4  1  0.250000  0.241754  0.239615  1
  Y  Y5  1  0.250006  0.999947  0.759751  1
  Tm  Tm6  1  0.500182  0.334269  0.667467  1
  Tm  Tm7  1  0.500164  0.665731  0.333207  1
  Tm  Tm8  1  0.999831  0.665738  0.333209  1
  Tm  Tm9  1  0.999816  0.334269  0.667463  1
  Sn  Sn10  1  0.750000  0.604836  0.000960  1
  Sn  Sn11  1  0.750004  0.395200  0.396123  1
  Sn  Sn12  1  0.750002  0.000004  0.605297  1
  Sn  Sn13  1  0.249977  0.396015  0.999587  1
  Sn  Sn14  1  0.250003  0.603932  0.603530  1
  Sb  Sb15  1  0.250002  0.000005  0.393897  1
