# generated using pymatgen
data_Dy5Lu5Si5Sn
_symmetry_space_group_name_H-M   'P 1'
_cell_length_a   8.42907504
_cell_length_b   8.46400359
_cell_length_c   6.27444100
_cell_angle_alpha   90.00000000
_cell_angle_beta   90.00000000
_cell_angle_gamma   119.98883248
_symmetry_Int_Tables_number   1
_chemical_formula_structural   Dy5Lu5Si5Sn
_chemical_formula_sum   'Dy5 Lu5 Si5 Sn1'
_cell_volume   387.71293600
_cell_formula_units_Z   1
loop_
 _symmetry_equiv_pos_site_id
 _symmetry_equiv_pos_as_xyz
  1  'x, y, z'
loop_
 _atom_site_type_symbol
 _atom_site_label
 _atom_site_symmetry_multiplicity
 _atom_site_fract_x
 _atom_site_fract_y
 _atom_site_fract_z
 _atom_site_occupancy
  Dy  Dy0  1  0.998841  0.244200  0.250000  1
  Dy  Dy1  1  0.756025  0.756759  0.250000  1
  Dy  Dy2  1  0.764979  0.999610  0.750000  1
  Dy  Dy3  1  0.241123  0.251266  0.750000  1
  Dy  Dy4  1  0.241149  0.999516  0.250000  1
  Lu  Lu5  1  0.989151  0.747673  0.750000  1
  Lu  Lu6  1  0.674013  0.342775  0.002603  1
  Lu  Lu7  1  0.331158  0.657784  0.497240  1
  Lu  Lu8  1  0.331158  0.657784  0.002760  1
  Lu  Lu9  1  0.674013  0.342775  0.497397  1
  Si  Si10  1  0.394979  0.393455  0.250000  1
  Si  Si11  1  0.001307  0.606098  0.250000  1
  Si  Si12  1  0.998382  0.396692  0.750000  1
  Si  Si13  1  0.604854  0.605077  0.750000  1
  Si  Si14  1  0.604285  0.999738  0.250000  1
  Sn  Sn15  1  0.394579  0.998798  0.750000  1
