# generated using pymatgen
data_Y3Ho7In8Pd3Pt
_symmetry_space_group_name_H-M   'P 1'
_cell_length_a   3.61801900
_cell_length_b   8.15894590
_cell_length_c   18.24776129
_cell_angle_alpha   90.01037126
_cell_angle_beta   90.00000000
_cell_angle_gamma   90.00000000
_symmetry_Int_Tables_number   1
_chemical_formula_structural   Y3Ho7In8Pd3Pt
_chemical_formula_sum   'Y3 Ho7 In8 Pd3 Pt1'
_cell_volume   538.65969447
_cell_formula_units_Z   1
loop_
 _symmetry_equiv_pos_site_id
 _symmetry_equiv_pos_as_xyz
  1  'x, y, z'
loop_
 _atom_site_type_symbol
 _atom_site_label
 _atom_site_symmetry_multiplicity
 _atom_site_fract_x
 _atom_site_fract_y
 _atom_site_fract_z
 _atom_site_occupancy
  Y  Y0  1  0.500000  0.617836  0.916910  1
  Y  Y1  1  0.500000  0.001096  0.000469  1
  Y  Y2  1  0.500000  0.499595  0.499983  1
  Ho  Ho3  1  0.500000  0.236620  0.779489  1
  Ho  Ho4  1  0.500000  0.759788  0.219187  1
  Ho  Ho5  1  0.500000  0.259328  0.281066  1
  Ho  Ho6  1  0.500000  0.744983  0.719230  1
  Ho  Ho7  1  0.500000  0.117276  0.584486  1
  Ho  Ho8  1  0.500000  0.882487  0.416224  1
  Ho  Ho9  1  0.500000  0.381580  0.084058  1
  In  In10  1  0.000000  0.080132  0.150532  1
  In  In11  1  0.000000  0.919765  0.850933  1
  In  In12  1  0.000000  0.422328  0.650058  1
  In  In13  1  0.000000  0.580081  0.349320  1
  In  In14  1  0.000000  0.207358  0.432589  1
  In  In15  1  0.000000  0.792528  0.566304  1
  In  In16  1  0.000000  0.292678  0.931993  1
  In  In17  1  0.000000  0.706628  0.068093  1
  Pd  Pd18  1  0.000000  0.975681  0.304083  1
  Pd  Pd19  1  0.000000  0.475507  0.196084  1
  Pd  Pd20  1  0.000000  0.522846  0.802949  1
  Pt  Pt21  1  0.000000  0.023880  0.695958  1
