# generated using pymatgen
data_Tm6NiI10
_symmetry_space_group_name_H-M   'P 1'
_cell_length_a   7.57704978
_cell_length_b   9.51226689
_cell_length_c   9.52858789
_cell_angle_alpha   107.28047150
_cell_angle_beta   96.99686214
_cell_angle_gamma   104.81108317
_symmetry_Int_Tables_number   1
_chemical_formula_structural   Tm6NiI10
_chemical_formula_sum   'Tm6 Ni1 I10'
_cell_volume   619.26689922
_cell_formula_units_Z   1
loop_
 _symmetry_equiv_pos_site_id
 _symmetry_equiv_pos_as_xyz
  1  'x, y, z'
loop_
 _atom_site_type_symbol
 _atom_site_label
 _atom_site_symmetry_multiplicity
 _atom_site_fract_x
 _atom_site_fract_y
 _atom_site_fract_z
 _atom_site_occupancy
  Tm  Tm0  1  0.889505  0.961250  0.234880  1
  Tm  Tm1  1  0.110495  0.038750  0.765120  1
  Tm  Tm2  1  0.028818  0.721489  0.916328  1
  Tm  Tm3  1  0.971182  0.278511  0.083672  1
  Tm  Tm4  1  0.661064  0.878812  0.839061  1
  Tm  Tm5  1  0.338936  0.121188  0.160939  1
  Ni  Ni6  1  0.000000  0.000000  0.000000  1
  I  I7  1  0.643678  0.545153  0.725858  1
  I  I8  1  0.356322  0.454847  0.274142  1
  I  I9  1  0.738519  0.910966  0.534505  1
  I  I10  1  0.261481  0.089034  0.465495  1
  I  I11  1  0.085687  0.373642  0.818425  1
  I  I12  1  0.914313  0.626358  0.181575  1
  I  I13  1  0.453168  0.813983  0.093551  1
  I  I14  1  0.546832  0.186017  0.906449  1
  I  I15  1  0.222062  0.739928  0.651434  1
  I  I16  1  0.777938  0.260072  0.348566  1
