# generated using pymatgen
data_YTm7(ThRu)4
_symmetry_space_group_name_H-M   'P 1'
_cell_length_a   6.28869424
_cell_length_b   7.19244930
_cell_length_c   9.49891345
_cell_angle_alpha   90.01575283
_cell_angle_beta   89.87144898
_cell_angle_gamma   89.91159772
_symmetry_Int_Tables_number   1
_chemical_formula_structural   YTm7(ThRu)4
_chemical_formula_sum   'Y1 Tm7 Th4 Ru4'
_cell_volume   429.64483194
_cell_formula_units_Z   1
loop_
 _symmetry_equiv_pos_site_id
 _symmetry_equiv_pos_as_xyz
  1  'x, y, z'
loop_
 _atom_site_type_symbol
 _atom_site_label
 _atom_site_symmetry_multiplicity
 _atom_site_fract_x
 _atom_site_fract_y
 _atom_site_fract_z
 _atom_site_occupancy
  Y  Y0  1  0.166417  0.176280  0.064967  1
  Tm  Tm1  1  0.833284  0.823750  0.933174  1
  Tm  Tm2  1  0.666331  0.324343  0.933081  1
  Tm  Tm3  1  0.834353  0.823478  0.566196  1
  Tm  Tm4  1  0.334419  0.675844  0.065998  1
  Tm  Tm5  1  0.165469  0.175966  0.434810  1
  Tm  Tm6  1  0.334072  0.675948  0.433935  1
  Tm  Tm7  1  0.664991  0.323900  0.566184  1
  Th  Th8  1  0.649112  0.045273  0.250830  1
  Th  Th9  1  0.351387  0.954363  0.748878  1
  Th  Th10  1  0.147670  0.455007  0.748674  1
  Th  Th11  1  0.850887  0.546077  0.250443  1
  Ru  Ru12  1  0.467937  0.371493  0.252371  1
  Ru  Ru13  1  0.535206  0.629798  0.750601  1
  Ru  Ru14  1  0.963973  0.129847  0.747221  1
  Ru  Ru15  1  0.034490  0.868632  0.252636  1
