# generated using pymatgen
data_Cs4CrO4
_symmetry_space_group_name_H-M   'P 1'
_cell_length_a   7.24633000
_cell_length_b   11.56638356
_cell_length_c   11.72877059
_cell_angle_alpha   68.84991221
_cell_angle_beta   90.00000000
_cell_angle_gamma   90.00000000
_symmetry_Int_Tables_number   1
_chemical_formula_structural   Cs4CrO4
_chemical_formula_sum   'Cs16 Cr4 O16'
_cell_volume   916.81458939
_cell_formula_units_Z   4
loop_
 _symmetry_equiv_pos_site_id
 _symmetry_equiv_pos_as_xyz
  1  'x, y, z'
loop_
 _atom_site_type_symbol
 _atom_site_label
 _atom_site_symmetry_multiplicity
 _atom_site_fract_x
 _atom_site_fract_y
 _atom_site_fract_z
 _atom_site_occupancy
  Cs  Cs0  1  0.588671  0.300885  0.063456  1
  Cs  Cs1  1  0.115114  0.416086  0.153767  1
  Cs  Cs2  1  0.911329  0.800885  0.063456  1
  Cs  Cs3  1  0.335290  0.106556  0.369659  1
  Cs  Cs4  1  0.384886  0.916086  0.153767  1
  Cs  Cs5  1  0.823683  0.209165  0.418623  1
  Cs  Cs6  1  0.164710  0.606556  0.369659  1
  Cs  Cs7  1  0.323683  0.290835  0.581377  1
  Cs  Cs8  1  0.676317  0.709165  0.418623  1
  Cs  Cs9  1  0.835290  0.393444  0.630341  1
  Cs  Cs10  1  0.176317  0.790835  0.581377  1
  Cs  Cs11  1  0.615114  0.083914  0.846233  1
  Cs  Cs12  1  0.664710  0.893444  0.630341  1
  Cs  Cs13  1  0.088671  0.199115  0.936544  1
  Cs  Cs14  1  0.884886  0.583914  0.846233  1
  Cs  Cs15  1  0.411329  0.699115  0.936544  1
  Cr  Cr16  1  0.873628  0.008842  0.241475  1
  Cr  Cr17  1  0.626372  0.508842  0.241475  1
  Cr  Cr18  1  0.373628  0.491158  0.758525  1
  Cr  Cr19  1  0.126372  0.991158  0.758525  1
  O  O20  1  0.769899  0.023128  0.095660  1
  O  O21  1  0.006090  0.150006  0.219251  1
  O  O22  1  0.730101  0.523128  0.095660  1
  O  O23  1  0.480741  0.370433  0.297422  1
  O  O24  1  0.493910  0.650006  0.219251  1
  O  O25  1  0.812174  0.493218  0.351799  1
  O  O26  1  0.019259  0.870433  0.297422  1
  O  O27  1  0.312174  0.006782  0.648201  1
  O  O28  1  0.687826  0.993218  0.351799  1
  O  O29  1  0.980741  0.129567  0.702578  1
  O  O30  1  0.187826  0.506782  0.648201  1
  O  O31  1  0.506090  0.349994  0.780749  1
  O  O32  1  0.519259  0.629567  0.702578  1
  O  O33  1  0.269899  0.476872  0.904340  1
  O  O34  1  0.993910  0.849994  0.780749  1
  O  O35  1  0.230101  0.976872  0.904340  1
