# generated using pymatgen
data_Nd3Mg3TlAgPb
_symmetry_space_group_name_H-M   'P 1'
_cell_length_a   7.79330900
_cell_length_b   7.79330825
_cell_length_c   4.60956700
_cell_angle_alpha   90.00000000
_cell_angle_beta   90.00000000
_cell_angle_gamma   119.99999892
_symmetry_Int_Tables_number   1
_chemical_formula_structural   Nd3Mg3TlAgPb
_chemical_formula_sum   'Nd3 Mg3 Tl1 Ag1 Pb1'
_cell_volume   242.45688366
_cell_formula_units_Z   1
loop_
 _symmetry_equiv_pos_site_id
 _symmetry_equiv_pos_as_xyz
  1  'x, y, z'
loop_
 _atom_site_type_symbol
 _atom_site_label
 _atom_site_symmetry_multiplicity
 _atom_site_fract_x
 _atom_site_fract_y
 _atom_site_fract_z
 _atom_site_occupancy
  Nd  Nd0  1  0.586739  0.997302  0.000000  1
  Nd  Nd1  1  0.002698  0.589437  0.000000  1
  Nd  Nd2  1  0.410563  0.413261  0.000000  1
  Mg  Mg3  1  0.233146  0.997484  0.500000  1
  Mg  Mg4  1  0.002516  0.235662  0.500000  1
  Mg  Mg5  1  0.764338  0.766854  0.500000  1
  Tl  Tl6  1  0.333333  0.666667  0.500000  1
  Ag  Ag7  1  0.000000  0.000000  0.000000  1
  Pb  Pb8  1  0.666667  0.333333  0.500000  1
