# generated using pymatgen
data_Ho12InSi4Hg
_symmetry_space_group_name_H-M   'P 1'
_cell_length_a   8.47372974
_cell_length_b   8.47373033
_cell_length_c   8.47373100
_cell_angle_alpha   112.48935539
_cell_angle_beta   110.79132936
_cell_angle_gamma   105.21980833
_symmetry_Int_Tables_number   1
_chemical_formula_structural   Ho12InSi4Hg
_chemical_formula_sum   'Ho12 In1 Si4 Hg1'
_cell_volume   466.35757236
_cell_formula_units_Z   1
loop_
 _symmetry_equiv_pos_site_id
 _symmetry_equiv_pos_as_xyz
  1  'x, y, z'
loop_
 _atom_site_type_symbol
 _atom_site_label
 _atom_site_symmetry_multiplicity
 _atom_site_fract_x
 _atom_site_fract_y
 _atom_site_fract_z
 _atom_site_occupancy
  Ho  Ho0  1  0.320993  0.617148  0.296154  1
  Ho  Ho1  1  0.679007  0.382852  0.703846  1
  Ho  Ho2  1  0.320993  0.024837  0.703846  1
  Ho  Ho3  1  0.679007  0.975163  0.296154  1
  Ho  Ho4  1  0.185507  0.276654  0.462160  1
  Ho  Ho5  1  0.814493  0.723346  0.537840  1
  Ho  Ho6  1  0.185507  0.723346  0.908852  1
  Ho  Ho7  1  0.814493  0.276654  0.091148  1
  Ho  Ho8  1  0.441077  0.237587  0.203491  1
  Ho  Ho9  1  0.558923  0.762413  0.796509  1
  Ho  Ho10  1  0.034096  0.237587  0.796509  1
  Ho  Ho11  1  0.965904  0.762413  0.203491  1
  In  In12  1  0.500000  0.500000  0.000000  1
  Si  Si13  1  0.116239  0.616239  0.500000  1
  Si  Si14  1  0.883761  0.383761  0.500000  1
  Si  Si15  1  0.367450  0.000000  0.367450  1
  Si  Si16  1  0.632550  0.000000  0.632550  1
  Hg  Hg17  1  0.000000  0.000000  0.000000  1
