# generated using pymatgen
data_Ga2P3(O3F)3
_symmetry_space_group_name_H-M   'P 1'
_cell_length_a   14.63232600
_cell_length_b   14.63232597
_cell_length_c   7.47517600
_cell_angle_alpha   90.00000000
_cell_angle_beta   90.00000000
_cell_angle_gamma   120.00000006
_symmetry_Int_Tables_number   1
_chemical_formula_structural   Ga2P3(O3F)3
_chemical_formula_sum   'Ga12 P18 O54 F18'
_cell_volume   1386.04965734
_cell_formula_units_Z   6
loop_
 _symmetry_equiv_pos_site_id
 _symmetry_equiv_pos_as_xyz
  1  'x, y, z'
loop_
 _atom_site_type_symbol
 _atom_site_label
 _atom_site_symmetry_multiplicity
 _atom_site_fract_x
 _atom_site_fract_y
 _atom_site_fract_z
 _atom_site_occupancy
  Ga  Ga0  1  0.350242  0.024047  0.951611  1
  Ga  Ga1  1  0.673804  0.649758  0.951611  1
  Ga  Ga2  1  0.975953  0.326196  0.951611  1
  Ga  Ga3  1  0.649758  0.975953  0.451611  1
  Ga  Ga4  1  0.326196  0.350242  0.451611  1
  Ga  Ga5  1  0.024047  0.673804  0.451611  1
  Ga  Ga6  1  0.649758  0.975953  0.048389  1
  Ga  Ga7  1  0.326196  0.350242  0.048389  1
  Ga  Ga8  1  0.024047  0.673804  0.048389  1
  Ga  Ga9  1  0.350242  0.024047  0.548389  1
  Ga  Ga10  1  0.673804  0.649758  0.548389  1
  Ga  Ga11  1  0.975953  0.326196  0.548389  1
  P  P12  1  0.462593  0.900788  0.750000  1
  P  P13  1  0.438195  0.537407  0.750000  1
  P  P14  1  0.099212  0.561805  0.750000  1
  P  P15  1  0.537407  0.099212  0.250000  1
  P  P16  1  0.561805  0.462593  0.250000  1
  P  P17  1  0.900788  0.438195  0.250000  1
  P  P18  1  0.248421  0.115578  0.250000  1
  P  P19  1  0.867157  0.751579  0.250000  1
  P  P20  1  0.884422  0.132843  0.250000  1
  P  P21  1  0.751579  0.884422  0.750000  1
  P  P22  1  0.132843  0.248421  0.750000  1
  P  P23  1  0.115578  0.867157  0.750000  1
  P  P24  1  0.428333  0.258437  0.750000  1
  P  P25  1  0.830105  0.571667  0.750000  1
  P  P26  1  0.741563  0.169895  0.750000  1
  P  P27  1  0.571667  0.741563  0.250000  1
  P  P28  1  0.169895  0.428333  0.250000  1
  P  P29  1  0.258437  0.830105  0.250000  1
  O  O30  1  0.389230  0.137510  0.750000  1
  O  O31  1  0.748280  0.610770  0.750000  1
  O  O32  1  0.862490  0.251720  0.750000  1
  O  O33  1  0.610770  0.862490  0.250000  1
  O  O34  1  0.251720  0.389230  0.250000  1
  O  O35  1  0.137510  0.748280  0.250000  1
  O  O36  1  0.424837  0.983541  0.750000  1
  O  O37  1  0.558704  0.575163  0.750000  1
  O  O38  1  0.016459  0.441296  0.750000  1
  O  O39  1  0.575163  0.016459  0.250000  1
  O  O40  1  0.441296  0.424837  0.250000  1
  O  O41  1  0.983541  0.558704  0.250000  1
  O  O42  1  0.293156  0.892413  0.077473  1
  O  O43  1  0.599256  0.706844  0.077473  1
  O  O44  1  0.107587  0.400744  0.077473  1
  O  O45  1  0.706844  0.107587  0.577473  1
  O  O46  1  0.400744  0.293156  0.577473  1
  O  O47  1  0.892413  0.599256  0.577473  1
  O  O48  1  0.706844  0.107587  0.922527  1
  O  O49  1  0.400744  0.293156  0.922527  1
  O  O50  1  0.892413  0.599256  0.922527  1
  O  O51  1  0.293156  0.892413  0.422527  1
  O  O52  1  0.599256  0.706844  0.422527  1
  O  O53  1  0.107587  0.400744  0.422527  1
  O  O54  1  0.481737  0.097086  0.077416  1
  O  O55  1  0.615348  0.518263  0.077416  1
  O  O56  1  0.902914  0.384652  0.077416  1
  O  O57  1  0.518263  0.902914  0.577416  1
  O  O58  1  0.384652  0.481737  0.577416  1
  O  O59  1  0.097086  0.615348  0.577416  1
  O  O60  1  0.518263  0.902914  0.922584  1
  O  O61  1  0.384652  0.481737  0.922584  1
  O  O62  1  0.097086  0.615348  0.922584  1
  O  O63  1  0.481737  0.097086  0.422584  1
  O  O64  1  0.615348  0.518263  0.422584  1
  O  O65  1  0.902914  0.384652  0.422584  1
  O  O66  1  0.274816  0.079856  0.077154  1
  O  O67  1  0.805040  0.725184  0.077154  1
  O  O68  1  0.920144  0.194960  0.077154  1
  O  O69  1  0.725184  0.920144  0.577154  1
  O  O70  1  0.194960  0.274816  0.577154  1
  O  O71  1  0.079856  0.805040  0.577154  1
  O  O72  1  0.725184  0.920144  0.922846  1
  O  O73  1  0.194960  0.274816  0.922846  1
  O  O74  1  0.079856  0.805040  0.922846  1
  O  O75  1  0.274816  0.079856  0.422846  1
  O  O76  1  0.805040  0.725184  0.422846  1
  O  O77  1  0.920144  0.194960  0.422846  1
  O  O78  1  0.236466  0.947570  0.750000  1
  O  O79  1  0.711103  0.763534  0.750000  1
  O  O80  1  0.052430  0.288897  0.750000  1
  O  O81  1  0.763534  0.052430  0.250000  1
  O  O82  1  0.288897  0.236466  0.250000  1
  O  O83  1  0.947570  0.711103  0.250000  1
  F  F84  1  0.064456  0.938631  0.750000  1
  F  F85  1  0.874175  0.935544  0.750000  1
  F  F86  1  0.061369  0.125825  0.750000  1
  F  F87  1  0.935544  0.061369  0.250000  1
  F  F88  1  0.125825  0.064456  0.250000  1
  F  F89  1  0.938631  0.874175  0.250000  1
  F  F90  1  0.358437  0.791648  0.750000  1
  F  F91  1  0.433212  0.641563  0.750000  1
  F  F92  1  0.208352  0.566788  0.750000  1
  F  F93  1  0.641563  0.208352  0.250000  1
  F  F94  1  0.566788  0.358437  0.250000  1
  F  F95  1  0.791648  0.433212  0.250000  1
  F  F96  1  0.312352  0.761391  0.250000  1
  F  F97  1  0.449039  0.687648  0.250000  1
  F  F98  1  0.238609  0.550961  0.250000  1
  F  F99  1  0.687648  0.238609  0.750000  1
  F  F100  1  0.550961  0.312352  0.750000  1
  F  F101  1  0.761391  0.449039  0.750000  1
