# generated using pymatgen
data_AcNd(Ni2B)12
_symmetry_space_group_name_H-M   'P 1'
_cell_length_a   6.05642096
_cell_length_b   6.05642010
_cell_length_c   11.07248512
_cell_angle_alpha   90.08950677
_cell_angle_beta   90.08950289
_cell_angle_gamma   104.55068975
_symmetry_Int_Tables_number   1
_chemical_formula_structural   AcNd(Ni2B)12
_chemical_formula_sum   'Ac1 Nd1 Ni24 B12'
_cell_volume   393.11333841
_cell_formula_units_Z   1
loop_
 _symmetry_equiv_pos_site_id
 _symmetry_equiv_pos_as_xyz
  1  'x, y, z'
loop_
 _atom_site_type_symbol
 _atom_site_label
 _atom_site_symmetry_multiplicity
 _atom_site_fract_x
 _atom_site_fract_y
 _atom_site_fract_z
 _atom_site_occupancy
  Ac  Ac0  1  0.832711  0.832711  0.501320  1
  Nd  Nd1  1  0.166410  0.166410  0.998631  1
  Ni  Ni2  1  0.567300  0.567300  0.917012  1
  Ni  Ni3  1  0.427771  0.427771  0.414228  1
  Ni  Ni4  1  0.778820  0.778820  0.098518  1
  Ni  Ni5  1  0.226034  0.226034  0.600392  1
  Ni  Ni6  1  0.538882  0.805659  0.736831  1
  Ni  Ni7  1  0.805659  0.538882  0.736831  1
  Ni  Ni8  1  0.459606  0.195035  0.233112  1
  Ni  Ni9  1  0.195035  0.459606  0.233112  1
  Ni  Ni10  1  0.146616  0.880689  0.757771  1
  Ni  Ni11  1  0.880689  0.146616  0.757771  1
  Ni  Ni12  1  0.853464  0.121446  0.254375  1
  Ni  Ni13  1  0.121446  0.853464  0.254375  1
  Ni  Ni14  1  0.655167  0.276198  0.567450  1
  Ni  Ni15  1  0.276198  0.655167  0.567450  1
  Ni  Ni16  1  0.342269  0.726489  0.066590  1
  Ni  Ni17  1  0.726489  0.342269  0.066590  1
  Ni  Ni18  1  0.629516  0.994192  0.937615  1
  Ni  Ni19  1  0.994192  0.629516  0.937615  1
  Ni  Ni20  1  0.371435  0.006538  0.436739  1
  Ni  Ni21  1  0.006538  0.371435  0.436739  1
  Ni  Ni22  1  0.474655  0.209245  0.776191  1
  Ni  Ni23  1  0.209245  0.474655  0.776191  1
  Ni  Ni24  1  0.524604  0.788981  0.272235  1
  Ni  Ni25  1  0.788981  0.524604  0.272235  1
  B  B26  1  0.835737  0.835737  0.835282  1
  B  B27  1  0.165237  0.165237  0.329570  1
  B  B28  1  0.485317  0.485317  0.666044  1
  B  B29  1  0.512795  0.512795  0.156768  1
  B  B30  1  0.323897  0.752804  0.886659  1
  B  B31  1  0.752804  0.323897  0.886659  1
  B  B32  1  0.676281  0.252632  0.384605  1
  B  B33  1  0.252632  0.676281  0.384605  1
  B  B34  1  0.395643  0.985968  0.622643  1
  B  B35  1  0.985968  0.395643  0.622643  1
  B  B36  1  0.601215  0.012742  0.121301  1
  B  B37  1  0.012742  0.601215  0.121301  1
