# generated using pymatgen
data_SmNp2(InPt)3
_symmetry_space_group_name_H-M   'P 1'
_cell_length_a   7.67448900
_cell_length_b   7.67448986
_cell_length_c   4.04304500
_cell_angle_alpha   90.00000000
_cell_angle_beta   90.00000000
_cell_angle_gamma   120.61161308
_symmetry_Int_Tables_number   1
_chemical_formula_structural   SmNp2(InPt)3
_chemical_formula_sum   'Sm1 Np2 In3 Pt3'
_cell_volume   204.94083340
_cell_formula_units_Z   1
loop_
 _symmetry_equiv_pos_site_id
 _symmetry_equiv_pos_as_xyz
  1  'x, y, z'
loop_
 _atom_site_type_symbol
 _atom_site_label
 _atom_site_symmetry_multiplicity
 _atom_site_fract_x
 _atom_site_fract_y
 _atom_site_fract_z
 _atom_site_occupancy
  Sm  Sm0  1  0.408045  0.408045  0.500000  1
  Np  Np1  1  0.000760  0.590419  0.500000  1
  Np  Np2  1  0.590419  0.000760  0.500000  1
  In  In3  1  0.004843  0.254897  0.000000  1
  In  In4  1  0.254897  0.004843  0.000000  1
  In  In5  1  0.740135  0.740135  0.000000  1
  Pt  Pt6  1  0.988158  0.988158  0.500000  1
  Pt  Pt7  1  0.680828  0.331915  0.000000  1
  Pt  Pt8  1  0.331915  0.680828  0.000000  1
