# generated using pymatgen
data_Tm9Al(GeB4)4
_symmetry_space_group_name_H-M   'P 1'
_cell_length_a   7.11872800
_cell_length_b   7.11872800
_cell_length_c   7.90305800
_cell_angle_alpha   90.00000000
_cell_angle_beta   90.00000000
_cell_angle_gamma   90.00000000
_symmetry_Int_Tables_number   1
_chemical_formula_structural   Tm9Al(GeB4)4
_chemical_formula_sum   'Tm9 Al1 Ge4 B16'
_cell_volume   400.49764596
_cell_formula_units_Z   1
loop_
 _symmetry_equiv_pos_site_id
 _symmetry_equiv_pos_as_xyz
  1  'x, y, z'
loop_
 _atom_site_type_symbol
 _atom_site_label
 _atom_site_symmetry_multiplicity
 _atom_site_fract_x
 _atom_site_fract_y
 _atom_site_fract_z
 _atom_site_occupancy
  Tm  Tm0  1  0.681935  0.179121  0.223431  1
  Tm  Tm1  1  0.318065  0.820879  0.776569  1
  Tm  Tm2  1  0.318065  0.820879  0.223431  1
  Tm  Tm3  1  0.820879  0.681935  0.223431  1
  Tm  Tm4  1  0.820879  0.681935  0.776569  1
  Tm  Tm5  1  0.681935  0.179121  0.776569  1
  Tm  Tm6  1  0.179121  0.318065  0.776569  1
  Tm  Tm7  1  0.179121  0.318065  0.223431  1
  Tm  Tm8  1  0.500000  0.500000  0.500000  1
  Al  Al9  1  0.000000  0.000000  0.500000  1
  Ge  Ge10  1  0.119855  0.627466  0.500000  1
  Ge  Ge11  1  0.880145  0.372534  0.500000  1
  Ge  Ge12  1  0.372534  0.119855  0.500000  1
  Ge  Ge13  1  0.627466  0.880145  0.500000  1
  B  B14  1  0.174410  0.040058  0.000000  1
  B  B15  1  0.825590  0.959942  0.000000  1
  B  B16  1  0.959942  0.174410  0.000000  1
  B  B17  1  0.327036  0.539640  0.000000  1
  B  B18  1  0.040058  0.825590  0.000000  1
  B  B19  1  0.672964  0.460360  0.000000  1
  B  B20  1  0.539640  0.672964  0.000000  1
  B  B21  1  0.460360  0.327036  0.000000  1
  B  B22  1  0.089898  0.588585  0.000000  1
  B  B23  1  0.910102  0.411415  0.000000  1
  B  B24  1  0.411415  0.089898  0.000000  1
  B  B25  1  0.588585  0.910102  0.000000  1
  B  B26  1  0.000000  0.000000  0.164724  1
  B  B27  1  0.000000  0.000000  0.835276  1
  B  B28  1  0.500000  0.500000  0.833224  1
  B  B29  1  0.500000  0.500000  0.166776  1
