# generated using pymatgen
data_Ho2LuCo2Sn3
_symmetry_space_group_name_H-M   'P 1'
_cell_length_a   5.76128739
_cell_length_b   5.76128697
_cell_length_c   14.71902400
_cell_angle_alpha   90.00000000
_cell_angle_beta   90.00000000
_cell_angle_gamma   134.67342703
_symmetry_Int_Tables_number   1
_chemical_formula_structural   Ho2LuCo2Sn3
_chemical_formula_sum   'Ho4 Lu2 Co4 Sn6'
_cell_volume   347.42765667
_cell_formula_units_Z   2
loop_
 _symmetry_equiv_pos_site_id
 _symmetry_equiv_pos_as_xyz
  1  'x, y, z'
loop_
 _atom_site_type_symbol
 _atom_site_label
 _atom_site_symmetry_multiplicity
 _atom_site_fract_x
 _atom_site_fract_y
 _atom_site_fract_z
 _atom_site_occupancy
  Ho  Ho0  1  0.568656  0.431344  0.612031  1
  Ho  Ho1  1  0.431344  0.568656  0.387969  1
  Ho  Ho2  1  0.431344  0.568656  0.112031  1
  Ho  Ho3  1  0.568656  0.431344  0.887969  1
  Lu  Lu4  1  0.147547  0.852453  0.250000  1
  Lu  Lu5  1  0.852453  0.147547  0.750000  1
  Co  Co6  1  0.300154  0.699846  0.609431  1
  Co  Co7  1  0.699846  0.300154  0.390569  1
  Co  Co8  1  0.699846  0.300154  0.109431  1
  Co  Co9  1  0.300154  0.699846  0.890569  1
  Sn  Sn10  1  0.860225  0.139775  0.535378  1
  Sn  Sn11  1  0.139775  0.860225  0.464622  1
  Sn  Sn12  1  0.151343  0.848657  0.750000  1
  Sn  Sn13  1  0.848657  0.151343  0.250000  1
  Sn  Sn14  1  0.860225  0.139775  0.964622  1
  Sn  Sn15  1  0.139775  0.860225  0.035378  1
