# generated using pymatgen
data_Nd16MgIn2AgRh4
_symmetry_space_group_name_H-M   'P 1'
_cell_length_a   9.96730402
_cell_length_b   9.96160823
_cell_length_c   9.98738600
_cell_angle_alpha   59.91424683
_cell_angle_beta   59.93341575
_cell_angle_gamma   59.89599170
_symmetry_Int_Tables_number   1
_chemical_formula_structural   Nd16MgIn2AgRh4
_chemical_formula_sum   'Nd16 Mg1 In2 Ag1 Rh4'
_cell_volume   699.84403700
_cell_formula_units_Z   1
loop_
 _symmetry_equiv_pos_site_id
 _symmetry_equiv_pos_as_xyz
  1  'x, y, z'
loop_
 _atom_site_type_symbol
 _atom_site_label
 _atom_site_symmetry_multiplicity
 _atom_site_fract_x
 _atom_site_fract_y
 _atom_site_fract_z
 _atom_site_occupancy
  Nd  Nd0  1  0.598915  0.598442  0.597143  1
  Nd  Nd1  1  0.598915  0.598446  0.205498  1
  Nd  Nd2  1  0.600530  0.203348  0.598062  1
  Nd  Nd3  1  0.198948  0.601531  0.599762  1
  Nd  Nd4  1  0.057623  0.440931  0.442194  1
  Nd  Nd5  1  0.438517  0.059831  0.060975  1
  Nd  Nd6  1  0.438517  0.059829  0.440680  1
  Nd  Nd7  1  0.057624  0.440931  0.059251  1
  Nd  Nd8  1  0.436246  0.437971  0.062890  1
  Nd  Nd9  1  0.055505  0.056480  0.444007  1
  Nd  Nd10  1  0.188822  0.813772  0.812191  1
  Nd  Nd11  1  0.811442  0.193609  0.182890  1
  Nd  Nd12  1  0.811442  0.193608  0.812060  1
  Nd  Nd13  1  0.188821  0.813773  0.185213  1
  Nd  Nd14  1  0.811686  0.813974  0.187169  1
  Nd  Nd15  1  0.186250  0.190335  0.811707  1
  Mg  Mg16  1  0.529187  0.818717  0.826048  1
  In  In17  1  0.831538  0.829567  0.833098  1
  In  In18  1  0.831534  0.829568  0.505796  1
  Ag  Ag19  1  0.830647  0.502895  0.833229  1
  Rh  Rh20  1  0.391226  0.392703  0.391982  1
  Rh  Rh21  1  0.391228  0.392704  0.824086  1
  Rh  Rh22  1  0.391621  0.824131  0.392124  1
  Rh  Rh23  1  0.823211  0.392904  0.391944  1
