# generated using pymatgen
data_Sm2Sn(AsRh2)6
_symmetry_space_group_name_H-M   'P 1'
_cell_length_a   10.08085600
_cell_length_b   10.08085616
_cell_length_c   3.97633400
_cell_angle_alpha   90.00000000
_cell_angle_beta   90.00000000
_cell_angle_gamma   120.00000602
_symmetry_Int_Tables_number   1
_chemical_formula_structural   Sm2Sn(AsRh2)6
_chemical_formula_sum   'Sm2 Sn1 As6 Rh12'
_cell_volume   349.95184804
_cell_formula_units_Z   1
loop_
 _symmetry_equiv_pos_site_id
 _symmetry_equiv_pos_as_xyz
  1  'x, y, z'
loop_
 _atom_site_type_symbol
 _atom_site_label
 _atom_site_symmetry_multiplicity
 _atom_site_fract_x
 _atom_site_fract_y
 _atom_site_fract_z
 _atom_site_occupancy
  Sm  Sm0  1  0.333333  0.666667  0.751851  1
  Sm  Sm1  1  0.000000  0.000000  0.248139  1
  Sn  Sn2  1  0.666667  0.333333  0.595291  1
  As  As3  1  0.955373  0.216690  0.747587  1
  As  As4  1  0.783310  0.738683  0.747587  1
  As  As5  1  0.261317  0.044627  0.747587  1
  As  As6  1  0.377562  0.448011  0.253172  1
  As  As7  1  0.551989  0.929552  0.253172  1
  As  As8  1  0.070448  0.622438  0.253172  1
  Rh  Rh9  1  0.732464  0.951503  0.749734  1
  Rh  Rh10  1  0.048497  0.780960  0.749734  1
  Rh  Rh11  1  0.219040  0.267536  0.749734  1
  Rh  Rh12  1  0.603805  0.718952  0.251962  1
  Rh  Rh13  1  0.281048  0.884853  0.251962  1
  Rh  Rh14  1  0.115147  0.396195  0.251962  1
  Rh  Rh15  1  0.954321  0.459452  0.756462  1
  Rh  Rh16  1  0.540548  0.494868  0.756462  1
  Rh  Rh17  1  0.505132  0.045679  0.756462  1
  Rh  Rh18  1  0.394563  0.212035  0.244051  1
  Rh  Rh19  1  0.787965  0.182528  0.244051  1
  Rh  Rh20  1  0.817472  0.605437  0.244051  1
