# generated using pymatgen
data_Tm2Zn2Co3Ni3B2
_symmetry_space_group_name_H-M   'P 1'
_cell_length_a   5.08317375
_cell_length_b   5.05449456
_cell_length_c   6.80503700
_cell_angle_alpha   90.00000000
_cell_angle_beta   90.00000000
_cell_angle_gamma   119.38503687
_symmetry_Int_Tables_number   1
_chemical_formula_structural   Tm2Zn2Co3Ni3B2
_chemical_formula_sum   'Tm2 Zn2 Co3 Ni3 B2'
_cell_volume   152.34626785
_cell_formula_units_Z   1
loop_
 _symmetry_equiv_pos_site_id
 _symmetry_equiv_pos_as_xyz
  1  'x, y, z'
loop_
 _atom_site_type_symbol
 _atom_site_label
 _atom_site_symmetry_multiplicity
 _atom_site_fract_x
 _atom_site_fract_y
 _atom_site_fract_z
 _atom_site_occupancy
  Tm  Tm0  1  0.000000  0.000000  0.003936  1
  Tm  Tm1  1  0.000000  0.000000  0.498971  1
  Zn  Zn2  1  0.670062  0.333396  0.000209  1
  Zn  Zn3  1  0.329938  0.666604  0.000209  1
  Co  Co4  1  0.000000  0.500000  0.701185  1
  Co  Co5  1  0.500000  0.000000  0.298795  1
  Co  Co6  1  0.000000  0.500000  0.297302  1
  Ni  Ni7  1  0.500000  0.500000  0.702960  1
  Ni  Ni8  1  0.500000  0.000000  0.704044  1
  Ni  Ni9  1  0.500000  0.500000  0.295950  1
  B  B10  1  0.675764  0.333010  0.498220  1
  B  B11  1  0.324236  0.666990  0.498220  1
