# generated using pymatgen
data_Sc2Al10Tc2Ru
_symmetry_space_group_name_H-M   'P 1'
_cell_length_a   9.06818800
_cell_length_b   9.06818800
_cell_length_c   6.00977700
_cell_angle_alpha   90.00000000
_cell_angle_beta   90.00000000
_cell_angle_gamma   90.00000000
_symmetry_Int_Tables_number   1
_chemical_formula_structural   Sc2Al10Tc2Ru
_chemical_formula_sum   'Sc4 Al20 Tc4 Ru2'
_cell_volume   494.19618421
_cell_formula_units_Z   2
loop_
 _symmetry_equiv_pos_site_id
 _symmetry_equiv_pos_as_xyz
  1  'x, y, z'
loop_
 _atom_site_type_symbol
 _atom_site_label
 _atom_site_symmetry_multiplicity
 _atom_site_fract_x
 _atom_site_fract_y
 _atom_site_fract_z
 _atom_site_occupancy
  Sc  Sc0  1  0.682019  0.182019  0.000000  1
  Sc  Sc1  1  0.317981  0.817981  0.000000  1
  Sc  Sc2  1  0.817981  0.682019  0.000000  1
  Sc  Sc3  1  0.182019  0.317981  0.000000  1
  Al  Al4  1  0.939743  0.204850  0.279927  1
  Al  Al5  1  0.704850  0.439743  0.279927  1
  Al  Al6  1  0.500000  0.000000  0.278473  1
  Al  Al7  1  0.560257  0.704850  0.720073  1
  Al  Al8  1  0.295150  0.560257  0.720073  1
  Al  Al9  1  0.795150  0.939743  0.279927  1
  Al  Al10  1  0.939743  0.204850  0.720073  1
  Al  Al11  1  0.295150  0.560257  0.279927  1
  Al  Al12  1  0.060257  0.795150  0.279927  1
  Al  Al13  1  0.704850  0.439743  0.720073  1
  Al  Al14  1  0.439743  0.295150  0.720073  1
  Al  Al15  1  0.060257  0.795150  0.720073  1
  Al  Al16  1  0.204850  0.060257  0.720073  1
  Al  Al17  1  0.795150  0.939743  0.720073  1
  Al  Al18  1  0.204850  0.060257  0.279927  1
  Al  Al19  1  0.000000  0.500000  0.721527  1
  Al  Al20  1  0.000000  0.500000  0.278473  1
  Al  Al21  1  0.560257  0.704850  0.279927  1
  Al  Al22  1  0.439743  0.295150  0.279927  1
  Al  Al23  1  0.500000  0.000000  0.721527  1
  Tc  Tc24  1  0.678437  0.178437  0.500000  1
  Tc  Tc25  1  0.821563  0.678437  0.500000  1
  Tc  Tc26  1  0.178437  0.321563  0.500000  1
  Tc  Tc27  1  0.321563  0.821563  0.500000  1
  Ru  Ru28  1  0.000000  0.000000  0.000000  1
  Ru  Ru29  1  0.500000  0.500000  0.000000  1
