# generated using pymatgen
data_Cr2Co(SeO3)4
_symmetry_space_group_name_H-M   'P 1'
_cell_length_a   8.08227300
_cell_length_b   8.14878156
_cell_length_c   8.26050657
_cell_angle_alpha   87.87258069
_cell_angle_beta   90.00000000
_cell_angle_gamma   90.00000000
_symmetry_Int_Tables_number   1
_chemical_formula_structural   Cr2Co(SeO3)4
_chemical_formula_sum   'Cr4 Co2 Se8 O24'
_cell_volume   543.66757160
_cell_formula_units_Z   2
loop_
 _symmetry_equiv_pos_site_id
 _symmetry_equiv_pos_as_xyz
  1  'x, y, z'
loop_
 _atom_site_type_symbol
 _atom_site_label
 _atom_site_symmetry_multiplicity
 _atom_site_fract_x
 _atom_site_fract_y
 _atom_site_fract_z
 _atom_site_occupancy
  Cr  Cr0  1  0.754322  0.751570  0.005048  1
  Cr  Cr1  1  0.740360  0.246668  0.505708  1
  Cr  Cr2  1  0.245678  0.251570  0.005048  1
  Cr  Cr3  1  0.259640  0.746668  0.505708  1
  Co  Co4  1  0.607488  0.343383  0.157924  1
  Co  Co5  1  0.392512  0.843383  0.157924  1
  Se  Se6  1  0.091147  0.552265  0.186210  1
  Se  Se7  1  0.908853  0.052265  0.186210  1
  Se  Se8  1  0.572590  0.451929  0.817827  1
  Se  Se9  1  0.320525  0.164865  0.417603  1
  Se  Se10  1  0.059066  0.418457  0.684628  1
  Se  Se11  1  0.427410  0.951929  0.817827  1
  Se  Se12  1  0.679475  0.664865  0.417603  1
  Se  Se13  1  0.940934  0.918457  0.684628  1
  O  O14  1  0.974357  0.712322  0.108038  1
  O  O15  1  0.306668  0.009979  0.987601  1
  O  O16  1  0.167177  0.253887  0.777168  1
  O  O17  1  0.668729  0.455085  0.368339  1
  O  O18  1  0.749704  0.171611  0.271416  1
  O  O19  1  0.197737  0.491850  0.017801  1
  O  O20  1  0.223522  0.514944  0.585767  1
  O  O21  1  0.628342  0.753736  0.227165  1
  O  O22  1  0.722308  0.346745  0.722625  1
  O  O23  1  0.331271  0.955085  0.368339  1
  O  O24  1  0.977259  0.315562  0.519338  1
  O  O25  1  0.485676  0.292513  0.940518  1
  O  O26  1  0.832823  0.753887  0.777168  1
  O  O27  1  0.504997  0.693330  0.525176  1
  O  O28  1  0.277692  0.846745  0.722625  1
  O  O29  1  0.250296  0.671611  0.271416  1
  O  O30  1  0.371658  0.253736  0.227165  1
  O  O31  1  0.025643  0.212322  0.108038  1
  O  O32  1  0.022741  0.815562  0.519338  1
  O  O33  1  0.514324  0.792513  0.940518  1
  O  O34  1  0.693332  0.509978  0.987601  1
  O  O35  1  0.776478  0.014944  0.585767  1
  O  O36  1  0.495003  0.193330  0.525176  1
  O  O37  1  0.802263  0.991850  0.017801  1
