# generated using pymatgen
data_Li3DyNi9MoAs7
_symmetry_space_group_name_H-M   'P 1'
_cell_length_a   9.44642301
_cell_length_b   9.50726569
_cell_length_c   3.80952300
_cell_angle_alpha   90.00000000
_cell_angle_beta   90.00000000
_cell_angle_gamma   120.24664542
_symmetry_Int_Tables_number   1
_chemical_formula_structural   Li3DyNi9MoAs7
_chemical_formula_sum   'Li3 Dy1 Ni9 Mo1 As7'
_cell_volume   295.55580797
_cell_formula_units_Z   1
loop_
 _symmetry_equiv_pos_site_id
 _symmetry_equiv_pos_as_xyz
  1  'x, y, z'
loop_
 _atom_site_type_symbol
 _atom_site_label
 _atom_site_symmetry_multiplicity
 _atom_site_fract_x
 _atom_site_fract_y
 _atom_site_fract_z
 _atom_site_occupancy
  Li  Li0  1  0.444827  0.219957  0.500000  1
  Li  Li1  1  0.778403  0.225506  0.500000  1
  Li  Li2  1  0.997372  0.001477  0.500000  1
  Dy  Dy3  1  0.333377  0.668373  0.000000  1
  Ni  Ni4  1  0.279445  0.378111  0.500000  1
  Ni  Ni5  1  0.622919  0.901441  0.500000  1
  Ni  Ni6  1  0.100686  0.720232  0.500000  1
  Ni  Ni7  1  0.501006  0.451967  0.000000  1
  Ni  Ni8  1  0.548218  0.047364  0.000000  1
  Ni  Ni9  1  0.954106  0.498460  0.000000  1
  Ni  Ni10  1  0.722112  0.761944  0.000000  1
  Ni  Ni11  1  0.239574  0.961810  0.000000  1
  Ni  Ni12  1  0.043061  0.281552  0.000000  1
  Mo  Mo13  1  0.766438  0.546035  0.500000  1
  As  As14  1  0.966305  0.757926  0.000000  1
  As  As15  1  0.241469  0.209038  0.000000  1
  As  As16  1  0.791957  0.033785  0.000000  1
  As  As17  1  0.666732  0.332566  0.000000  1
  As  As18  1  0.548371  0.622917  0.500000  1
  As  As19  1  0.378765  0.925794  0.500000  1
  As  As20  1  0.074858  0.453745  0.500000  1
