# generated using pymatgen
data_DyEr5Co2(P3Rh4)4
_symmetry_space_group_name_H-M   'P 1'
_cell_length_a   3.85402400
_cell_length_b   11.11448400
_cell_length_c   12.75683400
_cell_angle_alpha   90.00000000
_cell_angle_beta   90.00000000
_cell_angle_gamma   90.00000000
_symmetry_Int_Tables_number   1
_chemical_formula_structural   DyEr5Co2(P3Rh4)4
_chemical_formula_sum   'Dy1 Er5 Co2 P12 Rh16'
_cell_volume   546.44521079
_cell_formula_units_Z   1
loop_
 _symmetry_equiv_pos_site_id
 _symmetry_equiv_pos_as_xyz
  1  'x, y, z'
loop_
 _atom_site_type_symbol
 _atom_site_label
 _atom_site_symmetry_multiplicity
 _atom_site_fract_x
 _atom_site_fract_y
 _atom_site_fract_z
 _atom_site_occupancy
  Dy  Dy0  1  0.500000  0.000000  0.478056  1
  Er  Er1  1  0.000000  0.500000  0.521916  1
  Er  Er2  1  0.500000  0.814810  0.201849  1
  Er  Er3  1  0.500000  0.185190  0.201849  1
  Er  Er4  1  0.000000  0.685141  0.798136  1
  Er  Er5  1  0.000000  0.314859  0.798136  1
  Co  Co6  1  0.000000  0.500000  0.978983  1
  Co  Co7  1  0.500000  0.000000  0.021047  1
  P  P8  1  0.500000  0.500000  0.880984  1
  P  P9  1  0.000000  0.000000  0.118924  1
  P  P10  1  0.500000  0.500000  0.352121  1
  P  P11  1  0.000000  0.000000  0.648319  1
  P  P12  1  0.500000  0.316085  0.619753  1
  P  P13  1  0.500000  0.683915  0.619753  1
  P  P14  1  0.000000  0.184118  0.380196  1
  P  P15  1  0.000000  0.815882  0.380196  1
  P  P16  1  0.500000  0.853281  0.895682  1
  P  P17  1  0.500000  0.146719  0.895682  1
  P  P18  1  0.000000  0.646769  0.104285  1
  P  P19  1  0.000000  0.353231  0.104285  1
  Rh  Rh20  1  0.500000  0.500000  0.168352  1
  Rh  Rh21  1  0.000000  0.000000  0.831685  1
  Rh  Rh22  1  0.500000  0.500000  0.703058  1
  Rh  Rh23  1  0.000000  0.000000  0.296400  1
  Rh  Rh24  1  0.500000  0.336646  0.993866  1
  Rh  Rh25  1  0.500000  0.663354  0.993866  1
  Rh  Rh26  1  0.000000  0.163421  0.006104  1
  Rh  Rh27  1  0.000000  0.836579  0.006104  1
  Rh  Rh28  1  0.500000  0.294087  0.430234  1
  Rh  Rh29  1  0.500000  0.705913  0.430234  1
  Rh  Rh30  1  0.000000  0.206338  0.569840  1
  Rh  Rh31  1  0.000000  0.793662  0.569840  1
  Rh  Rh32  1  0.500000  0.873051  0.712391  1
  Rh  Rh33  1  0.500000  0.126949  0.712391  1
  Rh  Rh34  1  0.000000  0.626884  0.287742  1
  Rh  Rh35  1  0.000000  0.373116  0.287742  1
