# generated using pymatgen
data_TbDy3Al18ZnIr5
_symmetry_space_group_name_H-M   'P 1'
_cell_length_a   7.58764856
_cell_length_b   7.58750888
_cell_length_c   9.45040712
_cell_angle_alpha   90.03307056
_cell_angle_beta   90.02372208
_cell_angle_gamma   119.56403143
_symmetry_Int_Tables_number   1
_chemical_formula_structural   TbDy3Al18ZnIr5
_chemical_formula_sum   'Tb1 Dy3 Al18 Zn1 Ir5'
_cell_volume   473.23683923
_cell_formula_units_Z   1
loop_
 _symmetry_equiv_pos_site_id
 _symmetry_equiv_pos_as_xyz
  1  'x, y, z'
loop_
 _atom_site_type_symbol
 _atom_site_label
 _atom_site_symmetry_multiplicity
 _atom_site_fract_x
 _atom_site_fract_y
 _atom_site_fract_z
 _atom_site_occupancy
  Tb  Tb0  1  0.325794  0.005103  0.750411  1
  Dy  Dy1  1  0.994906  0.674138  0.249710  1
  Dy  Dy2  1  0.005083  0.325872  0.750286  1
  Dy  Dy3  1  0.674182  0.994906  0.249709  1
  Al  Al4  1  0.134636  0.134657  0.256274  1
  Al  Al5  1  0.865200  0.865295  0.743703  1
  Al  Al6  1  0.001699  0.344161  0.078929  1
  Al  Al7  1  0.998166  0.655666  0.921156  1
  Al  Al8  1  0.000752  0.664735  0.571620  1
  Al  Al9  1  0.335124  0.999120  0.428162  1
  Al  Al10  1  0.999119  0.335132  0.428278  1
  Al  Al11  1  0.664986  0.000874  0.571631  1
  Al  Al12  1  0.655960  0.998288  0.921177  1
  Al  Al13  1  0.344199  0.001704  0.079033  1
  Al  Al14  1  0.332966  0.333077  0.551248  1
  Al  Al15  1  0.667042  0.667051  0.448629  1
  Al  Al16  1  0.657999  0.658002  0.059327  1
  Al  Al17  1  0.342023  0.342146  0.940789  1
  Al  Al18  1  0.338473  0.549819  0.251520  1
  Al  Al19  1  0.661656  0.450348  0.748475  1
  Al  Al20  1  0.549821  0.338478  0.251521  1
  Al  Al21  1  0.450221  0.661446  0.748476  1
  Zn  Zn22  1  0.999983  0.000007  0.000014  1
  Ir  Ir23  1  0.671714  0.328420  0.000064  1
  Ir  Ir24  1  0.328337  0.671574  0.000066  1
  Ir  Ir25  1  0.328514  0.671438  0.499938  1
  Ir  Ir26  1  0.671546  0.328566  0.499928  1
  Ir  Ir27  1  0.999901  0.999976  0.499925  1
