# generated using pymatgen
data_LaY4(FeB3)2
_symmetry_space_group_name_H-M   'P 1'
_cell_length_a   5.46388580
_cell_length_b   5.46388558
_cell_length_c   8.28547606
_cell_angle_alpha   70.74780737
_cell_angle_beta   70.74780876
_cell_angle_gamma   59.99999457
_symmetry_Int_Tables_number   1
_chemical_formula_structural   LaY4(FeB3)2
_chemical_formula_sum   'La1 Y4 Fe2 B6'
_cell_volume   198.08180794
_cell_formula_units_Z   1
loop_
 _symmetry_equiv_pos_site_id
 _symmetry_equiv_pos_as_xyz
  1  'x, y, z'
loop_
 _atom_site_type_symbol
 _atom_site_label
 _atom_site_symmetry_multiplicity
 _atom_site_fract_x
 _atom_site_fract_y
 _atom_site_fract_z
 _atom_site_occupancy
  La  La0  1  0.000000  0.000000  0.000000  1
  Y  Y1  1  0.749732  0.749732  0.750805  1
  Y  Y2  1  0.250268  0.250268  0.249195  1
  Y  Y3  1  0.582710  0.582710  0.251870  1
  Y  Y4  1  0.417290  0.417290  0.748130  1
  Fe  Fe5  1  0.884263  0.884263  0.347210  1
  Fe  Fe6  1  0.115737  0.115737  0.652790  1
  B  B7  1  0.500000  0.167232  0.500000  1
  B  B8  1  0.832768  0.500000  0.500000  1
  B  B9  1  0.167232  0.832768  0.500000  1
  B  B10  1  0.167232  0.500000  0.500000  1
  B  B11  1  0.832768  0.167232  0.500000  1
  B  B12  1  0.500000  0.832768  0.500000  1
