# generated using pymatgen
data_Ho2Th(InNi)3
_symmetry_space_group_name_H-M   'P 1'
_cell_length_a   7.50197863
_cell_length_b   7.58711223
_cell_length_c   3.80053200
_cell_angle_alpha   90.00000000
_cell_angle_beta   90.00000000
_cell_angle_gamma   120.37610656
_symmetry_Int_Tables_number   1
_chemical_formula_structural   Ho2Th(InNi)3
_chemical_formula_sum   'Ho2 Th1 In3 Ni3'
_cell_volume   186.62461145
_cell_formula_units_Z   1
loop_
 _symmetry_equiv_pos_site_id
 _symmetry_equiv_pos_as_xyz
  1  'x, y, z'
loop_
 _atom_site_type_symbol
 _atom_site_label
 _atom_site_symmetry_multiplicity
 _atom_site_fract_x
 _atom_site_fract_y
 _atom_site_fract_z
 _atom_site_occupancy
  Ho  Ho0  1  0.409738  0.411587  0.500000  1
  Ho  Ho1  1  0.590262  0.001849  0.500000  1
  Th  Th2  1  0.000000  0.584836  0.500000  1
  In  In3  1  0.264952  0.012121  0.000000  1
  In  In4  1  0.735048  0.747169  0.000000  1
  In  In5  1  0.000000  0.241895  0.000000  1
  Ni  Ni6  1  0.322224  0.666230  0.000000  1
  Ni  Ni7  1  0.000000  0.990310  0.500000  1
  Ni  Ni8  1  0.677776  0.344004  0.000000  1
