# generated using pymatgen
data_Tm2U2Ga12Tc
_symmetry_space_group_name_H-M   'P 1'
_cell_length_a   7.46464627
_cell_length_b   7.40118310
_cell_length_c   7.46464678
_cell_angle_alpha   109.36052834
_cell_angle_beta   110.03624142
_cell_angle_gamma   109.36053323
_symmetry_Int_Tables_number   1
_chemical_formula_structural   Tm2U2Ga12Tc
_chemical_formula_sum   'Tm2 U2 Ga12 Tc1'
_cell_volume   316.10185278
_cell_formula_units_Z   1
loop_
 _symmetry_equiv_pos_site_id
 _symmetry_equiv_pos_as_xyz
  1  'x, y, z'
loop_
 _atom_site_type_symbol
 _atom_site_label
 _atom_site_symmetry_multiplicity
 _atom_site_fract_x
 _atom_site_fract_y
 _atom_site_fract_z
 _atom_site_occupancy
  Tm  Tm0  1  0.000000  0.000000  0.500000  1
  Tm  Tm1  1  0.500000  0.000000  0.000000  1
  U  U2  1  0.500000  0.500000  0.500000  1
  U  U3  1  0.000000  0.500000  0.000000  1
  Ga  Ga4  1  0.748745  0.250576  0.501831  1
  Ga  Ga5  1  0.998630  0.706139  0.707507  1
  Ga  Ga6  1  0.293296  0.000000  0.293296  1
  Ga  Ga7  1  0.501831  0.250576  0.748745  1
  Ga  Ga8  1  0.750000  0.500000  0.250000  1
  Ga  Ga9  1  0.251255  0.749424  0.498169  1
  Ga  Ga10  1  0.250000  0.500000  0.750000  1
  Ga  Ga11  1  0.706704  0.000000  0.706704  1
  Ga  Ga12  1  0.498169  0.749424  0.251255  1
  Ga  Ga13  1  0.707507  0.706139  0.998630  1
  Ga  Ga14  1  0.292493  0.293861  0.001370  1
  Ga  Ga15  1  0.001370  0.293861  0.292493  1
  Tc  Tc16  1  0.000000  0.000000  0.000000  1
