# generated using pymatgen
data_BaCa2CuF9
_symmetry_space_group_name_H-M   'P 1'
_cell_length_a   5.49035268
_cell_length_b   5.49613738
_cell_length_c   12.53758400
_cell_angle_alpha   92.09095720
_cell_angle_beta   100.91696538
_cell_angle_gamma   90.85740613
_symmetry_Int_Tables_number   1
_chemical_formula_structural   BaCa2CuF9
_chemical_formula_sum   'Ba2 Ca4 Cu2 F18'
_cell_volume   371.14441027
_cell_formula_units_Z   2
loop_
 _symmetry_equiv_pos_site_id
 _symmetry_equiv_pos_as_xyz
  1  'x, y, z'
loop_
 _atom_site_type_symbol
 _atom_site_label
 _atom_site_symmetry_multiplicity
 _atom_site_fract_x
 _atom_site_fract_y
 _atom_site_fract_z
 _atom_site_occupancy
  Ba  Ba0  1  0.691197  0.752005  0.892658  1
  Ba  Ba1  1  0.308803  0.247995  0.107342  1
  Ca  Ca2  1  0.965592  0.241617  0.388786  1
  Ca  Ca3  1  0.034408  0.758383  0.611214  1
  Ca  Ca4  1  0.551131  0.270094  0.609522  1
  Ca  Ca5  1  0.448869  0.729906  0.390478  1
  Cu  Cu6  1  0.797257  0.792474  0.184199  1
  Cu  Cu7  1  0.202743  0.207526  0.815801  1
  F  F8  1  0.169411  0.941024  0.908117  1
  F  F9  1  0.830589  0.058976  0.091883  1
  F  F10  1  0.272494  0.464692  0.725142  1
  F  F11  1  0.727506  0.535308  0.274858  1
  F  F12  1  0.625559  0.006170  0.273553  1
  F  F13  1  0.374441  0.993830  0.726447  1
  F  F14  1  0.954454  0.593742  0.093384  1
  F  F15  1  0.045546  0.406258  0.906616  1
  F  F16  1  0.097867  0.902798  0.281065  1
  F  F17  1  0.902133  0.097202  0.718935  1
  F  F18  1  0.485750  0.719262  0.087883  1
  F  F19  1  0.514250  0.280738  0.912117  1
  F  F20  1  0.748620  0.991191  0.498950  1
  F  F21  1  0.251380  0.008809  0.501050  1
  F  F22  1  0.749261  0.485843  0.490737  1
  F  F23  1  0.250739  0.514157  0.509263  1
  F  F24  1  0.747562  0.605285  0.699533  1
  F  F25  1  0.252438  0.394715  0.300467  1
