# generated using pymatgen
data_Pa2SeO2
_symmetry_space_group_name_H-M   'P 1'
_cell_length_a   3.90245900
_cell_length_b   3.90245857
_cell_length_c   6.81108000
_cell_angle_alpha   90.00000000
_cell_angle_beta   90.00000000
_cell_angle_gamma   119.99997822
_symmetry_Int_Tables_number   1
_chemical_formula_structural   Pa2SeO2
_chemical_formula_sum   'Pa2 Se1 O2'
_cell_volume   89.83040514
_cell_formula_units_Z   1
loop_
 _symmetry_equiv_pos_site_id
 _symmetry_equiv_pos_as_xyz
  1  'x, y, z'
loop_
 _atom_site_type_symbol
 _atom_site_label
 _atom_site_symmetry_multiplicity
 _atom_site_fract_x
 _atom_site_fract_y
 _atom_site_fract_z
 _atom_site_occupancy
  Pa  Pa0  1  0.666667  0.333333  0.716638  1
  Pa  Pa1  1  0.333333  0.666667  0.283362  1
  Se  Se2  1  0.000000  0.000000  0.000000  1
  O  O3  1  0.333333  0.666667  0.624749  1
  O  O4  1  0.666667  0.333333  0.375251  1
