# generated using pymatgen
data_Tb4Ni13Ge
_symmetry_space_group_name_H-M   'P 1'
_cell_length_a   12.51659132
_cell_length_b   12.51659085
_cell_length_c   12.50738248
_cell_angle_alpha   22.65034825
_cell_angle_beta   22.65035205
_cell_angle_gamma   23.07453884
_symmetry_Int_Tables_number   1
_chemical_formula_structural   Tb4Ni13Ge
_chemical_formula_sum   'Tb4 Ni13 Ge1'
_cell_volume   257.94913004
_cell_formula_units_Z   1
loop_
 _symmetry_equiv_pos_site_id
 _symmetry_equiv_pos_as_xyz
  1  'x, y, z'
loop_
 _atom_site_type_symbol
 _atom_site_label
 _atom_site_symmetry_multiplicity
 _atom_site_fract_x
 _atom_site_fract_y
 _atom_site_fract_z
 _atom_site_occupancy
  Tb  Tb0  1  0.949027  0.949027  0.948508  1
  Tb  Tb1  1  0.050973  0.050973  0.051492  1
  Tb  Tb2  1  0.852435  0.852435  0.853413  1
  Tb  Tb3  1  0.147565  0.147565  0.146587  1
  Ni  Ni4  1  0.390791  0.889929  0.390786  1
  Ni  Ni5  1  0.389488  0.389488  0.890869  1
  Ni  Ni6  1  0.889929  0.390791  0.390786  1
  Ni  Ni7  1  0.609209  0.110071  0.609214  1
  Ni  Ni8  1  0.610512  0.610512  0.109131  1
  Ni  Ni9  1  0.110071  0.609209  0.609214  1
  Ni  Ni10  1  0.000000  0.500000  0.500000  1
  Ni  Ni11  1  0.500000  0.000000  0.500000  1
  Ni  Ni12  1  0.721709  0.721709  0.723992  1
  Ni  Ni13  1  0.278291  0.278291  0.276008  1
  Ni  Ni14  1  0.610423  0.610423  0.612325  1
  Ni  Ni15  1  0.389577  0.389577  0.387675  1
  Ni  Ni16  1  0.500000  0.500000  0.500000  1
  Ge  Ge17  1  0.500000  0.500000  0.000000  1
