# generated using pymatgen
data_K2RbLiSi4
_symmetry_space_group_name_H-M   'P 1'
_cell_length_a   7.78516000
_cell_length_b   9.79608200
_cell_length_c   12.41571100
_cell_angle_alpha   90.00000000
_cell_angle_beta   90.00000000
_cell_angle_gamma   90.00000000
_symmetry_Int_Tables_number   1
_chemical_formula_structural   K2RbLiSi4
_chemical_formula_sum   'K8 Rb4 Li4 Si16'
_cell_volume   946.87259995
_cell_formula_units_Z   4
loop_
 _symmetry_equiv_pos_site_id
 _symmetry_equiv_pos_as_xyz
  1  'x, y, z'
loop_
 _atom_site_type_symbol
 _atom_site_label
 _atom_site_symmetry_multiplicity
 _atom_site_fract_x
 _atom_site_fract_y
 _atom_site_fract_z
 _atom_site_occupancy
  K  K0  1  0.655794  0.444604  0.692920  1
  K  K1  1  0.155794  0.055396  0.807080  1
  K  K2  1  0.344206  0.944604  0.307080  1
  K  K3  1  0.844206  0.555396  0.192920  1
  K  K4  1  0.344206  0.555396  0.307080  1
  K  K5  1  0.844206  0.944604  0.192920  1
  K  K6  1  0.655794  0.055396  0.692920  1
  K  K7  1  0.155794  0.444604  0.807080  1
  Rb  Rb8  1  0.653534  0.250000  0.397991  1
  Rb  Rb9  1  0.153534  0.250000  0.102009  1
  Rb  Rb10  1  0.346466  0.750000  0.602009  1
  Rb  Rb11  1  0.846466  0.750000  0.897991  1
  Li  Li12  1  0.500000  0.500000  0.000000  1
  Li  Li13  1  0.000000  0.000000  0.500000  1
  Li  Li14  1  0.500000  0.000000  0.000000  1
  Li  Li15  1  0.000000  0.500000  0.500000  1
  Si  Si16  1  0.361214  0.750000  0.902657  1
  Si  Si17  1  0.861214  0.750000  0.597343  1
  Si  Si18  1  0.638786  0.250000  0.097343  1
  Si  Si19  1  0.138786  0.250000  0.402657  1
  Si  Si20  1  0.718005  0.628465  0.450249  1
  Si  Si21  1  0.218005  0.871535  0.049751  1
  Si  Si22  1  0.281995  0.128465  0.549751  1
  Si  Si23  1  0.781995  0.371535  0.950249  1
  Si  Si24  1  0.013534  0.250000  0.584411  1
  Si  Si25  1  0.513534  0.250000  0.915589  1
  Si  Si26  1  0.986466  0.750000  0.415589  1
  Si  Si27  1  0.486466  0.750000  0.084411  1
  Si  Si28  1  0.218005  0.628465  0.049751  1
  Si  Si29  1  0.718005  0.871535  0.450249  1
  Si  Si30  1  0.781995  0.128465  0.950249  1
  Si  Si31  1  0.281995  0.371535  0.549751  1
