# generated using pymatgen
data_Nd9Mg(Ga2Sn)2
_symmetry_space_group_name_H-M   'P 1'
_cell_length_a   9.17269026
_cell_length_b   9.17269122
_cell_length_c   9.17269095
_cell_angle_alpha   128.37173057
_cell_angle_beta   128.37173778
_cell_angle_gamma   76.02360756
_symmetry_Int_Tables_number   1
_chemical_formula_structural   Nd9Mg(Ga2Sn)2
_chemical_formula_sum   'Nd9 Mg1 Ga4 Sn2'
_cell_volume   461.20646156
_cell_formula_units_Z   1
loop_
 _symmetry_equiv_pos_site_id
 _symmetry_equiv_pos_as_xyz
  1  'x, y, z'
loop_
 _atom_site_type_symbol
 _atom_site_label
 _atom_site_symmetry_multiplicity
 _atom_site_fract_x
 _atom_site_fract_y
 _atom_site_fract_z
 _atom_site_occupancy
  Nd  Nd0  1  0.000000  0.000000  0.000000  1
  Nd  Nd1  1  0.521562  0.029592  0.838265  1
  Nd  Nd2  1  0.191325  0.683295  0.161735  1
  Nd  Nd3  1  0.029592  0.191325  0.508030  1
  Nd  Nd4  1  0.683295  0.521562  0.491970  1
  Nd  Nd5  1  0.478438  0.970408  0.161735  1
  Nd  Nd6  1  0.808675  0.316705  0.838265  1
  Nd  Nd7  1  0.970408  0.808675  0.491970  1
  Nd  Nd8  1  0.316705  0.478438  0.508030  1
  Mg  Mg9  1  0.500000  0.500000  0.000000  1
  Ga  Ga10  1  0.877255  0.376929  0.254183  1
  Ga  Ga11  1  0.122745  0.623071  0.745817  1
  Ga  Ga12  1  0.376929  0.122745  0.499674  1
  Ga  Ga13  1  0.623071  0.877255  0.500326  1
  Sn  Sn14  1  0.246851  0.246851  0.000000  1
  Sn  Sn15  1  0.753149  0.753149  0.000000  1
