# generated using pymatgen
data_Ba2Li2DyLuO6
_symmetry_space_group_name_H-M   'P 1'
_cell_length_a   6.09135039
_cell_length_b   6.09135117
_cell_length_c   8.67148007
_cell_angle_alpha   90.01493073
_cell_angle_beta   89.98506861
_cell_angle_gamma   146.60607332
_symmetry_Int_Tables_number   1
_chemical_formula_structural   Ba2Li2DyLuO6
_chemical_formula_sum   'Ba2 Li2 Dy1 Lu1 O6'
_cell_volume   177.08947037
_cell_formula_units_Z   1
loop_
 _symmetry_equiv_pos_site_id
 _symmetry_equiv_pos_as_xyz
  1  'x, y, z'
loop_
 _atom_site_type_symbol
 _atom_site_label
 _atom_site_symmetry_multiplicity
 _atom_site_fract_x
 _atom_site_fract_y
 _atom_site_fract_z
 _atom_site_occupancy
  Ba  Ba0  1  0.759930  0.240072  0.247456  1
  Ba  Ba1  1  0.240072  0.759930  0.752544  1
  Li  Li2  1  0.031941  0.968060  0.247774  1
  Li  Li3  1  0.968060  0.031941  0.752226  1
  Dy  Dy4  1  0.500001  0.500001  0.500000  1
  Lu  Lu5  1  0.500001  0.500001  0.000000  1
  O  O6  1  0.117038  0.882963  0.061743  1
  O  O7  1  0.445306  0.554696  0.245798  1
  O  O8  1  0.120021  0.879980  0.434276  1
  O  O9  1  0.879980  0.120021  0.565724  1
  O  O10  1  0.554696  0.445306  0.754202  1
  O  O11  1  0.882963  0.117038  0.938257  1
