# generated using pymatgen
data_Tb5Tm3Au4
_symmetry_space_group_name_H-M   'P 1'
_cell_length_a   4.93240000
_cell_length_b   7.14661725
_cell_length_c   8.94101458
_cell_angle_alpha   90.24509615
_cell_angle_beta   90.00000000
_cell_angle_gamma   90.00000000
_symmetry_Int_Tables_number   1
_chemical_formula_structural   Tb5Tm3Au4
_chemical_formula_sum   'Tb5 Tm3 Au4'
_cell_volume   315.16765585
_cell_formula_units_Z   1
loop_
 _symmetry_equiv_pos_site_id
 _symmetry_equiv_pos_as_xyz
  1  'x, y, z'
loop_
 _atom_site_type_symbol
 _atom_site_label
 _atom_site_symmetry_multiplicity
 _atom_site_fract_x
 _atom_site_fract_y
 _atom_site_fract_z
 _atom_site_occupancy
  Tb  Tb0  1  0.750000  0.647808  0.419411  1
  Tb  Tb1  1  0.250000  0.484924  0.176746  1
  Tb  Tb2  1  0.250000  0.987565  0.322946  1
  Tb  Tb3  1  0.750000  0.514176  0.823416  1
  Tb  Tb4  1  0.750000  0.015328  0.677642  1
  Tm  Tm5  1  0.250000  0.852671  0.920528  1
  Tm  Tm6  1  0.250000  0.352427  0.580984  1
  Tm  Tm7  1  0.750000  0.147619  0.078985  1
  Au  Au8  1  0.250000  0.252818  0.899909  1
  Au  Au9  1  0.250000  0.754277  0.602811  1
  Au  Au10  1  0.750000  0.747440  0.096877  1
  Au  Au11  1  0.750000  0.242946  0.399745  1
