# generated using pymatgen
data_Ce3Y2Sn3C
_symmetry_space_group_name_H-M   'P 1'
_cell_length_a   9.14817400
_cell_length_b   9.14817443
_cell_length_c   6.57306800
_cell_angle_alpha   90.00000000
_cell_angle_beta   90.00000000
_cell_angle_gamma   120.00000568
_symmetry_Int_Tables_number   1
_chemical_formula_structural   Ce3Y2Sn3C
_chemical_formula_sum   'Ce6 Y4 Sn6 C2'
_cell_volume   476.39542827
_cell_formula_units_Z   2
loop_
 _symmetry_equiv_pos_site_id
 _symmetry_equiv_pos_as_xyz
  1  'x, y, z'
loop_
 _atom_site_type_symbol
 _atom_site_label
 _atom_site_symmetry_multiplicity
 _atom_site_fract_x
 _atom_site_fract_y
 _atom_site_fract_z
 _atom_site_occupancy
  Ce  Ce0  1  0.215889  0.000000  0.750000  1
  Ce  Ce1  1  0.784111  0.000000  0.250000  1
  Ce  Ce2  1  0.000000  0.215889  0.750000  1
  Ce  Ce3  1  0.000000  0.784111  0.250000  1
  Ce  Ce4  1  0.784111  0.784111  0.750000  1
  Ce  Ce5  1  0.215889  0.215889  0.250000  1
  Y  Y6  1  0.333333  0.666667  0.500000  1
  Y  Y7  1  0.666667  0.333333  0.500000  1
  Y  Y8  1  0.666667  0.333333  0.000000  1
  Y  Y9  1  0.333333  0.666667  0.000000  1
  Sn  Sn10  1  0.592781  0.000000  0.750000  1
  Sn  Sn11  1  0.407219  0.000000  0.250000  1
  Sn  Sn12  1  0.000000  0.592781  0.750000  1
  Sn  Sn13  1  0.000000  0.407219  0.250000  1
  Sn  Sn14  1  0.407219  0.407219  0.750000  1
  Sn  Sn15  1  0.592781  0.592781  0.250000  1
  C  C16  1  0.000000  0.000000  0.500000  1
  C  C17  1  0.000000  0.000000  0.000000  1
