# generated using pymatgen
data_La(TmSe2)2
_symmetry_space_group_name_H-M   'P 1'
_cell_length_a   4.04173300
_cell_length_b   13.56437600
_cell_length_c   13.68599700
_cell_angle_alpha   90.00000000
_cell_angle_beta   90.00000000
_cell_angle_gamma   90.00000000
_symmetry_Int_Tables_number   1
_chemical_formula_structural   La(TmSe2)2
_chemical_formula_sum   'La4 Tm8 Se16'
_cell_volume   750.31543494
_cell_formula_units_Z   4
loop_
 _symmetry_equiv_pos_site_id
 _symmetry_equiv_pos_as_xyz
  1  'x, y, z'
loop_
 _atom_site_type_symbol
 _atom_site_label
 _atom_site_symmetry_multiplicity
 _atom_site_fract_x
 _atom_site_fract_y
 _atom_site_fract_z
 _atom_site_occupancy
  La  La0  1  0.250000  0.368225  0.588076  1
  La  La1  1  0.250000  0.868225  0.911924  1
  La  La2  1  0.750000  0.631775  0.411924  1
  La  La3  1  0.750000  0.131775  0.088076  1
  Tm  Tm4  1  0.250000  0.107229  0.424961  1
  Tm  Tm5  1  0.250000  0.607229  0.075039  1
  Tm  Tm6  1  0.750000  0.892771  0.575039  1
  Tm  Tm7  1  0.750000  0.392771  0.924961  1
  Tm  Tm8  1  0.250000  0.150993  0.797411  1
  Tm  Tm9  1  0.250000  0.650993  0.702589  1
  Tm  Tm10  1  0.750000  0.849007  0.202589  1
  Tm  Tm11  1  0.750000  0.349007  0.297411  1
  Se  Se12  1  0.250000  0.213859  0.239822  1
  Se  Se13  1  0.250000  0.713859  0.260178  1
  Se  Se14  1  0.750000  0.786141  0.760178  1
  Se  Se15  1  0.750000  0.286141  0.739822  1
  Se  Se16  1  0.250000  0.257823  0.975869  1
  Se  Se17  1  0.250000  0.757823  0.524131  1
  Se  Se18  1  0.750000  0.742177  0.024131  1
  Se  Se19  1  0.750000  0.242177  0.475869  1
  Se  Se20  1  0.250000  0.465666  0.382146  1
  Se  Se21  1  0.250000  0.965666  0.117854  1
  Se  Se22  1  0.750000  0.534334  0.617854  1
  Se  Se23  1  0.750000  0.034334  0.882146  1
  Se  Se24  1  0.250000  0.031577  0.622644  1
  Se  Se25  1  0.250000  0.531577  0.877356  1
  Se  Se26  1  0.750000  0.968423  0.377356  1
  Se  Se27  1  0.750000  0.468423  0.122644  1
