# generated using pymatgen
data_CaLa5PrCoBr12
_symmetry_space_group_name_H-M   'P 1'
_cell_length_a   9.66041121
_cell_length_b   9.67182250
_cell_length_c   9.51868100
_cell_angle_alpha   107.27046808
_cell_angle_beta   106.71067071
_cell_angle_gamma   107.06919416
_symmetry_Int_Tables_number   1
_chemical_formula_structural   CaLa5PrCoBr12
_chemical_formula_sum   'Ca1 La5 Pr1 Co1 Br12'
_cell_volume   740.31955822
_cell_formula_units_Z   1
loop_
 _symmetry_equiv_pos_site_id
 _symmetry_equiv_pos_as_xyz
  1  'x, y, z'
loop_
 _atom_site_type_symbol
 _atom_site_label
 _atom_site_symmetry_multiplicity
 _atom_site_fract_x
 _atom_site_fract_y
 _atom_site_fract_z
 _atom_site_occupancy
  Ca  Ca0  1  0.499626  0.501336  0.500568  1
  La  La1  1  0.975027  0.897988  0.699465  1
  La  La2  1  0.025965  0.101555  0.300597  1
  La  La3  1  0.108199  0.319597  0.025263  1
  La  La4  1  0.321308  0.026659  0.108828  1
  La  La5  1  0.889093  0.679047  0.973956  1
  Pr  Pr6  1  0.683766  0.973139  0.891907  1
  Co  Co7  1  0.000835  0.999492  0.000108  1
  Br  Br8  1  0.540073  0.622243  0.834076  1
  Br  Br9  1  0.459044  0.380991  0.166721  1
  Br  Br10  1  0.317021  0.928454  0.776716  1
  Br  Br11  1  0.382811  0.172286  0.462411  1
  Br  Br12  1  0.929301  0.780293  0.320308  1
  Br  Br13  1  0.684596  0.070671  0.220880  1
  Br  Br14  1  0.070066  0.219440  0.679541  1
  Br  Br15  1  0.777227  0.313598  0.928400  1
  Br  Br16  1  0.219423  0.683316  0.070554  1
  Br  Br17  1  0.828388  0.539968  0.616433  1
  Br  Br18  1  0.170249  0.459734  0.383331  1
  Br  Br19  1  0.617979  0.830192  0.539939  1
