# generated using pymatgen
data_Tm4InNi
_symmetry_space_group_name_H-M   'P 1'
_cell_length_a   9.48103597
_cell_length_b   9.48103633
_cell_length_c   9.48103600
_cell_angle_alpha   60.00000114
_cell_angle_beta   59.99999991
_cell_angle_gamma   60.00000319
_symmetry_Int_Tables_number   1
_chemical_formula_structural   Tm4InNi
_chemical_formula_sum   'Tm16 In4 Ni4'
_cell_volume   602.63231578
_cell_formula_units_Z   4
loop_
 _symmetry_equiv_pos_site_id
 _symmetry_equiv_pos_as_xyz
  1  'x, y, z'
loop_
 _atom_site_type_symbol
 _atom_site_label
 _atom_site_symmetry_multiplicity
 _atom_site_fract_x
 _atom_site_fract_y
 _atom_site_fract_z
 _atom_site_occupancy
  Tm  Tm0  1  0.347696  0.347696  0.347696  1
  Tm  Tm1  1  0.347696  0.347696  0.956911  1
  Tm  Tm2  1  0.347696  0.956911  0.347696  1
  Tm  Tm3  1  0.956911  0.347696  0.347696  1
  Tm  Tm4  1  0.812398  0.187602  0.187602  1
  Tm  Tm5  1  0.187602  0.812398  0.812398  1
  Tm  Tm6  1  0.187602  0.812398  0.187602  1
  Tm  Tm7  1  0.812398  0.187602  0.812398  1
  Tm  Tm8  1  0.187602  0.187602  0.812398  1
  Tm  Tm9  1  0.812398  0.812398  0.187602  1
  Tm  Tm10  1  0.937691  0.562309  0.562309  1
  Tm  Tm11  1  0.562309  0.937691  0.937691  1
  Tm  Tm12  1  0.562309  0.937691  0.562309  1
  Tm  Tm13  1  0.937691  0.562309  0.937691  1
  Tm  Tm14  1  0.562309  0.562309  0.937691  1
  Tm  Tm15  1  0.937691  0.937691  0.562309  1
  In  In16  1  0.582781  0.582781  0.582781  1
  In  In17  1  0.582781  0.582781  0.251657  1
  In  In18  1  0.582781  0.251657  0.582781  1
  In  In19  1  0.251657  0.582781  0.582781  1
  Ni  Ni20  1  0.142404  0.142404  0.142404  1
  Ni  Ni21  1  0.142404  0.142404  0.572790  1
  Ni  Ni22  1  0.142404  0.572790  0.142404  1
  Ni  Ni23  1  0.572790  0.142404  0.142404  1
