# generated using pymatgen
data_Y3Tl2InPd2Pt
_symmetry_space_group_name_H-M   'P 1'
_cell_length_a   7.88306373
_cell_length_b   7.86861264
_cell_length_c   3.76451900
_cell_angle_alpha   90.00000000
_cell_angle_beta   90.00000000
_cell_angle_gamma   119.66547397
_symmetry_Int_Tables_number   1
_chemical_formula_structural   Y3Tl2InPd2Pt
_chemical_formula_sum   'Y3 Tl2 In1 Pd2 Pt1'
_cell_volume   202.90252297
_cell_formula_units_Z   1
loop_
 _symmetry_equiv_pos_site_id
 _symmetry_equiv_pos_as_xyz
  1  'x, y, z'
loop_
 _atom_site_type_symbol
 _atom_site_label
 _atom_site_symmetry_multiplicity
 _atom_site_fract_x
 _atom_site_fract_y
 _atom_site_fract_z
 _atom_site_occupancy
  Y  Y0  1  0.401406  0.988796  0.500000  1
  Y  Y1  1  0.009165  0.411468  0.500000  1
  Y  Y2  1  0.587390  0.597603  0.500000  1
  Tl  Tl3  1  0.738935  0.008785  0.000000  1
  Tl  Tl4  1  0.270420  0.260447  0.000000  1
  In  In5  1  0.992089  0.732158  0.000000  1
  Pd  Pd6  1  0.000000  0.991359  0.500000  1
  Pd  Pd7  1  0.673640  0.341740  0.000000  1
  Pt  Pt8  1  0.326955  0.667644  0.000000  1
