# generated using pymatgen
data_Zr7U(Si4Mo3)4
_symmetry_space_group_name_H-M   'P 1'
_cell_length_a   6.64871996
_cell_length_b   6.79789119
_cell_length_c   12.69561181
_cell_angle_alpha   90.09541447
_cell_angle_beta   90.12104195
_cell_angle_gamma   89.82540303
_symmetry_Int_Tables_number   1
_chemical_formula_structural   Zr7U(Si4Mo3)4
_chemical_formula_sum   'Zr7 U1 Si16 Mo12'
_cell_volume   573.80232158
_cell_formula_units_Z   1
loop_
 _symmetry_equiv_pos_site_id
 _symmetry_equiv_pos_as_xyz
  1  'x, y, z'
loop_
 _atom_site_type_symbol
 _atom_site_label
 _atom_site_symmetry_multiplicity
 _atom_site_fract_x
 _atom_site_fract_y
 _atom_site_fract_z
 _atom_site_occupancy
  Zr  Zr0  1  0.497125  0.329722  0.092023  1
  Zr  Zr1  1  0.994941  0.171526  0.407101  1
  Zr  Zr2  1  0.503624  0.671594  0.594045  1
  Zr  Zr3  1  0.007472  0.828478  0.905528  1
  Zr  Zr4  1  0.504939  0.671595  0.904751  1
  Zr  Zr5  1  0.004394  0.828396  0.593767  1
  Zr  Zr6  1  0.496109  0.329081  0.408474  1
  U  U7  1  0.991790  0.168489  0.096335  1
  Si  Si8  1  0.664936  0.040880  0.543336  1
  Si  Si9  1  0.168606  0.460745  0.956146  1
  Si  Si10  1  0.336869  0.955840  0.041296  1
  Si  Si11  1  0.834502  0.541498  0.457411  1
  Si  Si12  1  0.332801  0.958730  0.457440  1
  Si  Si13  1  0.834545  0.545602  0.042908  1
  Si  Si14  1  0.663011  0.039552  0.954148  1
  Si  Si15  1  0.165599  0.458832  0.543264  1
  Si  Si16  1  0.532802  0.376022  0.749293  1
  Si  Si17  1  0.032759  0.124248  0.749967  1
  Si  Si18  1  0.468228  0.624852  0.248918  1
  Si  Si19  1  0.965491  0.870974  0.251998  1
  Si  Si20  1  0.798549  0.636440  0.749904  1
  Si  Si21  1  0.300066  0.864304  0.749622  1
  Si  Si22  1  0.203814  0.366187  0.251645  1
  Si  Si23  1  0.695003  0.136085  0.252810  1
  Mo  Mo24  1  0.831551  0.334519  0.623888  1
  Mo  Mo25  1  0.331897  0.165943  0.875024  1
  Mo  Mo26  1  0.173046  0.662884  0.123609  1
  Mo  Mo27  1  0.665538  0.832742  0.377742  1
  Mo  Mo28  1  0.169671  0.664626  0.376982  1
  Mo  Mo29  1  0.672102  0.839469  0.125146  1
  Mo  Mo30  1  0.832988  0.334065  0.876959  1
  Mo  Mo31  1  0.329394  0.165560  0.623447  1
  Mo  Mo32  1  0.666657  0.989107  0.748836  1
  Mo  Mo33  1  0.165469  0.513099  0.749529  1
  Mo  Mo34  1  0.328583  0.009308  0.248204  1
  Mo  Mo35  1  0.835131  0.489002  0.248505  1
