# generated using pymatgen
data_TbTh2(InPd)3
_symmetry_space_group_name_H-M   'P 1'
_cell_length_a   7.72826086
_cell_length_b   7.70289323
_cell_length_c   4.05603300
_cell_angle_alpha   90.00000000
_cell_angle_beta   90.00000000
_cell_angle_gamma   119.89147262
_symmetry_Int_Tables_number   1
_chemical_formula_structural   TbTh2(InPd)3
_chemical_formula_sum   'Tb1 Th2 In3 Pd3'
_cell_volume   209.33491316
_cell_formula_units_Z   1
loop_
 _symmetry_equiv_pos_site_id
 _symmetry_equiv_pos_as_xyz
  1  'x, y, z'
loop_
 _atom_site_type_symbol
 _atom_site_label
 _atom_site_symmetry_multiplicity
 _atom_site_fract_x
 _atom_site_fract_y
 _atom_site_fract_z
 _atom_site_occupancy
  Tb  Tb0  1  0.000000  0.591276  0.500000  1
  Th  Th1  1  0.588910  0.000120  0.500000  1
  Th  Th2  1  0.411090  0.411209  0.500000  1
  In  In3  1  0.755214  0.746153  0.000000  1
  In  In4  1  0.244786  0.990939  0.000000  1
  In  In5  1  0.000000  0.260839  0.000000  1
  Pd  Pd6  1  0.000000  0.005620  0.500000  1
  Pd  Pd7  1  0.658986  0.326415  0.000000  1
  Pd  Pd8  1  0.341014  0.667430  0.000000  1
