# generated using pymatgen
data_LiTb8Hf10Si16Ag
_symmetry_space_group_name_H-M   'P 1'
_cell_length_a   7.31106824
_cell_length_b   7.31106813
_cell_length_c   13.22021835
_cell_angle_alpha   90.03647798
_cell_angle_beta   89.96352260
_cell_angle_gamma   89.65033047
_symmetry_Int_Tables_number   1
_chemical_formula_structural   LiTb8Hf10Si16Ag
_chemical_formula_sum   'Li1 Tb8 Hf10 Si16 Ag1'
_cell_volume   706.62993476
_cell_formula_units_Z   1
loop_
 _symmetry_equiv_pos_site_id
 _symmetry_equiv_pos_as_xyz
  1  'x, y, z'
loop_
 _atom_site_type_symbol
 _atom_site_label
 _atom_site_symmetry_multiplicity
 _atom_site_fract_x
 _atom_site_fract_y
 _atom_site_fract_z
 _atom_site_occupancy
  Li  Li0  1  0.179112  0.179112  0.000000  1
  Tb  Tb1  1  0.996941  0.347202  0.212497  1
  Tb  Tb2  1  0.002983  0.652377  0.711714  1
  Tb  Tb3  1  0.148892  0.502733  0.466109  1
  Tb  Tb4  1  0.497513  0.850768  0.033894  1
  Tb  Tb5  1  0.850768  0.497513  0.966106  1
  Tb  Tb6  1  0.502733  0.148892  0.533891  1
  Tb  Tb7  1  0.347202  0.996941  0.787503  1
  Tb  Tb8  1  0.652377  0.002983  0.288286  1
  Hf  Hf9  1  0.320787  0.679754  0.250377  1
  Hf  Hf10  1  0.679754  0.320787  0.749623  1
  Hf  Hf11  1  0.140678  0.998606  0.379244  1
  Hf  Hf12  1  0.859678  0.001620  0.879049  1
  Hf  Hf13  1  0.508683  0.643973  0.624719  1
  Hf  Hf14  1  0.355819  0.490728  0.875471  1
  Hf  Hf15  1  0.490728  0.355819  0.124529  1
  Hf  Hf16  1  0.643973  0.508683  0.375281  1
  Hf  Hf17  1  0.998606  0.140678  0.620756  1
  Hf  Hf18  1  0.001620  0.859678  0.120951  1
  Si  Si19  1  0.357765  0.297070  0.319033  1
  Si  Si20  1  0.641821  0.703337  0.819154  1
  Si  Si21  1  0.226418  0.866374  0.573847  1
  Si  Si22  1  0.134132  0.775799  0.926731  1
  Si  Si23  1  0.775799  0.134132  0.073269  1
  Si  Si24  1  0.866374  0.226418  0.426153  1
  Si  Si25  1  0.297070  0.357765  0.680967  1
  Si  Si26  1  0.703337  0.641821  0.180846  1
  Si  Si27  1  0.292455  0.053020  0.190254  1
  Si  Si28  1  0.707003  0.947325  0.691086  1
  Si  Si29  1  0.433576  0.788835  0.436149  1
  Si  Si30  1  0.210587  0.564203  0.064013  1
  Si  Si31  1  0.564203  0.210587  0.935987  1
  Si  Si32  1  0.788835  0.433576  0.563851  1
  Si  Si33  1  0.053020  0.292455  0.809746  1
  Si  Si34  1  0.947325  0.707003  0.308914  1
  Ag  Ag35  1  0.821435  0.821435  0.500000  1
