# generated using pymatgen
data_Sr3Tl13Rh4
_symmetry_space_group_name_H-M   'P 1'
_cell_length_a   10.26409900
_cell_length_b   10.26409900
_cell_length_c   10.26409900
_cell_angle_alpha   90.00000000
_cell_angle_beta   90.00000000
_cell_angle_gamma   90.00000000
_symmetry_Int_Tables_number   1
_chemical_formula_structural   Sr3Tl13Rh4
_chemical_formula_sum   'Sr6 Tl26 Rh8'
_cell_volume   1081.34056891
_cell_formula_units_Z   2
loop_
 _symmetry_equiv_pos_site_id
 _symmetry_equiv_pos_as_xyz
  1  'x, y, z'
loop_
 _atom_site_type_symbol
 _atom_site_label
 _atom_site_symmetry_multiplicity
 _atom_site_fract_x
 _atom_site_fract_y
 _atom_site_fract_z
 _atom_site_occupancy
  Sr  Sr0  1  0.250000  0.500001  0.000000  1
  Sr  Sr1  1  0.750000  0.500001  0.000000  1
  Sr  Sr2  1  0.500001  0.000000  0.250000  1
  Sr  Sr3  1  0.000000  0.250000  0.500001  1
  Sr  Sr4  1  0.000000  0.750000  0.500001  1
  Sr  Sr5  1  0.500001  0.000000  0.750000  1
  Tl  Tl6  1  0.000000  0.000000  0.000000  1
  Tl  Tl7  1  0.300752  0.155142  0.000000  1
  Tl  Tl8  1  0.699249  0.155142  0.000000  1
  Tl  Tl9  1  0.300752  0.844858  0.000000  1
  Tl  Tl10  1  0.699249  0.844858  0.000000  1
  Tl  Tl11  1  0.000000  0.300752  0.155142  1
  Tl  Tl12  1  0.000000  0.699249  0.155142  1
  Tl  Tl13  1  0.500001  0.344858  0.199248  1
  Tl  Tl14  1  0.500001  0.655142  0.199248  1
  Tl  Tl15  1  0.155142  0.000000  0.300752  1
  Tl  Tl16  1  0.844858  0.000000  0.300752  1
  Tl  Tl17  1  0.199248  0.500001  0.344858  1
  Tl  Tl18  1  0.800752  0.500001  0.344858  1
  Tl  Tl19  1  0.344858  0.199248  0.500001  1
  Tl  Tl20  1  0.655142  0.199248  0.500001  1
  Tl  Tl21  1  0.500001  0.500001  0.500001  1
  Tl  Tl22  1  0.344858  0.800752  0.500001  1
  Tl  Tl23  1  0.655142  0.800752  0.500001  1
  Tl  Tl24  1  0.199248  0.500001  0.655142  1
  Tl  Tl25  1  0.800752  0.500001  0.655142  1
  Tl  Tl26  1  0.155142  0.000000  0.699249  1
  Tl  Tl27  1  0.844858  0.000000  0.699249  1
  Tl  Tl28  1  0.500001  0.344858  0.800752  1
  Tl  Tl29  1  0.500001  0.655142  0.800752  1
  Tl  Tl30  1  0.000000  0.300752  0.844858  1
  Tl  Tl31  1  0.000000  0.699249  0.844858  1
  Rh  Rh32  1  0.250000  0.250000  0.250000  1
  Rh  Rh33  1  0.750000  0.250000  0.250000  1
  Rh  Rh34  1  0.250000  0.750000  0.250000  1
  Rh  Rh35  1  0.750000  0.750000  0.250000  1
  Rh  Rh36  1  0.250000  0.250000  0.750000  1
  Rh  Rh37  1  0.750000  0.250000  0.750000  1
  Rh  Rh38  1  0.250000  0.750000  0.750000  1
  Rh  Rh39  1  0.750000  0.750000  0.750000  1
