# generated using pymatgen
data_CaHo(Si7Ir3)2
_symmetry_space_group_name_H-M   'P 1'
_cell_length_a   8.02892768
_cell_length_b   8.02892822
_cell_length_c   8.02892873
_cell_angle_alpha   56.75896323
_cell_angle_beta   56.75896071
_cell_angle_gamma   56.75896116
_symmetry_Int_Tables_number   1
_chemical_formula_structural   CaHo(Si7Ir3)2
_chemical_formula_sum   'Ca1 Ho1 Si14 Ir6'
_cell_volume   338.59798164
_cell_formula_units_Z   1
loop_
 _symmetry_equiv_pos_site_id
 _symmetry_equiv_pos_as_xyz
  1  'x, y, z'
loop_
 _atom_site_type_symbol
 _atom_site_label
 _atom_site_symmetry_multiplicity
 _atom_site_fract_x
 _atom_site_fract_y
 _atom_site_fract_z
 _atom_site_occupancy
  Ca  Ca0  1  0.500000  0.500000  0.500000  1
  Ho  Ho1  1  0.000000  0.000000  0.000000  1
  Si  Si2  1  0.066000  0.849688  0.672381  1
  Si  Si3  1  0.672381  0.066000  0.849688  1
  Si  Si4  1  0.849688  0.672381  0.066000  1
  Si  Si5  1  0.173197  0.350950  0.565336  1
  Si  Si6  1  0.565336  0.173197  0.350950  1
  Si  Si7  1  0.350950  0.565336  0.173197  1
  Si  Si8  1  0.934000  0.150312  0.327619  1
  Si  Si9  1  0.327619  0.934000  0.150312  1
  Si  Si10  1  0.150312  0.327619  0.934000  1
  Si  Si11  1  0.826803  0.649050  0.434664  1
  Si  Si12  1  0.434664  0.826803  0.649050  1
  Si  Si13  1  0.649050  0.434664  0.826803  1
  Si  Si14  1  0.750111  0.750111  0.750111  1
  Si  Si15  1  0.249889  0.249889  0.249889  1
  Ir  Ir16  1  0.068529  0.751928  0.427516  1
  Ir  Ir17  1  0.427516  0.068529  0.751928  1
  Ir  Ir18  1  0.751928  0.427516  0.068529  1
  Ir  Ir19  1  0.931471  0.248072  0.572484  1
  Ir  Ir20  1  0.572484  0.931471  0.248072  1
  Ir  Ir21  1  0.248072  0.572484  0.931471  1
