# generated using pymatgen
data_V5Zn(GaCo2)6
_symmetry_space_group_name_H-M   'P 1'
_cell_length_a   4.07445602
_cell_length_b   5.76709700
_cell_length_c   12.22423305
_cell_angle_alpha   90.00000000
_cell_angle_beta   89.98929905
_cell_angle_gamma   90.00000000
_symmetry_Int_Tables_number   1
_chemical_formula_structural   V5Zn(GaCo2)6
_chemical_formula_sum   'V5 Zn1 Ga6 Co12'
_cell_volume   287.24237156
_cell_formula_units_Z   1
loop_
 _symmetry_equiv_pos_site_id
 _symmetry_equiv_pos_as_xyz
  1  'x, y, z'
loop_
 _atom_site_type_symbol
 _atom_site_label
 _atom_site_symmetry_multiplicity
 _atom_site_fract_x
 _atom_site_fract_y
 _atom_site_fract_z
 _atom_site_occupancy
  V  V0  1  0.999978  0.500000  0.997638  1
  V  V1  1  0.499919  0.000000  0.165019  1
  V  V2  1  0.000010  0.500000  0.333316  1
  V  V3  1  0.500054  0.000000  0.501753  1
  V  V4  1  0.000110  0.500000  0.669026  1
  Zn  Zn5  1  0.500031  0.000000  0.833350  1
  Ga  Ga6  1  0.999993  0.000000  0.999990  1
  Ga  Ga7  1  0.499886  0.500000  0.167978  1
  Ga  Ga8  1  0.999997  0.000000  0.333290  1
  Ga  Ga9  1  0.500052  0.500000  0.498651  1
  Ga  Ga10  1  0.999947  0.000000  0.666722  1
  Ga  Ga11  1  0.500017  0.500000  0.833369  1
  Co  Co12  1  0.499990  0.254130  0.004229  1
  Co  Co13  1  0.499990  0.745871  0.004229  1
  Co  Co14  1  0.999901  0.249502  0.166596  1
  Co  Co15  1  0.999901  0.750497  0.166596  1
  Co  Co16  1  0.500031  0.249809  0.333301  1
  Co  Co17  1  0.500031  0.750190  0.333301  1
  Co  Co18  1  0.000064  0.249487  0.499990  1
  Co  Co19  1  0.000064  0.750512  0.499990  1
  Co  Co20  1  0.500000  0.254020  0.662459  1
  Co  Co21  1  0.500000  0.745979  0.662459  1
  Co  Co22  1  0.000016  0.260132  0.833372  1
  Co  Co23  1  0.000016  0.739867  0.833372  1
