# generated using pymatgen
data_Nd3Dy5(Si3Pt)4
_symmetry_space_group_name_H-M   'P 1'
_cell_length_a   8.17932194
_cell_length_b   8.16955547
_cell_length_c   8.32157400
_cell_angle_alpha   90.00000000
_cell_angle_beta   90.00000000
_cell_angle_gamma   119.96050011
_symmetry_Int_Tables_number   1
_chemical_formula_structural   Nd3Dy5(Si3Pt)4
_chemical_formula_sum   'Nd3 Dy5 Si12 Pt4'
_cell_volume   481.75315021
_cell_formula_units_Z   1
loop_
 _symmetry_equiv_pos_site_id
 _symmetry_equiv_pos_as_xyz
  1  'x, y, z'
loop_
 _atom_site_type_symbol
 _atom_site_label
 _atom_site_symmetry_multiplicity
 _atom_site_fract_x
 _atom_site_fract_y
 _atom_site_fract_z
 _atom_site_occupancy
  Nd  Nd0  1  0.999973  0.999987  0.250000  1
  Nd  Nd1  1  0.999993  0.999997  0.750000  1
  Nd  Nd2  1  0.001405  0.500702  0.250000  1
  Dy  Dy3  1  0.499407  0.500746  0.250000  1
  Dy  Dy4  1  0.500811  0.001603  0.750000  1
  Dy  Dy5  1  0.499407  0.998662  0.250000  1
  Dy  Dy6  1  0.500811  0.499207  0.750000  1
  Dy  Dy7  1  0.998446  0.499223  0.750000  1
  Si  Si8  1  0.166895  0.332796  0.997518  1
  Si  Si9  1  0.667726  0.833863  0.999549  1
  Si  Si10  1  0.166895  0.332796  0.502482  1
  Si  Si11  1  0.332207  0.166103  0.000811  1
  Si  Si12  1  0.166895  0.834099  0.997518  1
  Si  Si13  1  0.667726  0.833863  0.500451  1
  Si  Si14  1  0.833124  0.667198  0.998835  1
  Si  Si15  1  0.332207  0.166103  0.499189  1
  Si  Si16  1  0.166895  0.834099  0.502482  1
  Si  Si17  1  0.833124  0.667198  0.501165  1
  Si  Si18  1  0.833124  0.165926  0.998835  1
  Si  Si19  1  0.833124  0.165926  0.501165  1
  Pt  Pt20  1  0.335286  0.667644  0.994495  1
  Pt  Pt21  1  0.335286  0.667644  0.505505  1
  Pt  Pt22  1  0.664616  0.332308  0.997500  1
  Pt  Pt23  1  0.664616  0.332308  0.502500  1
