# generated using pymatgen
data_Tb3Y13(CdPt)4
_symmetry_space_group_name_H-M   'P 1'
_cell_length_a   9.73346967
_cell_length_b   9.73552001
_cell_length_c   9.73552100
_cell_angle_alpha   60.00000004
_cell_angle_beta   59.99303160
_cell_angle_gamma   59.99303534
_symmetry_Int_Tables_number   1
_chemical_formula_structural   Tb3Y13(CdPt)4
_chemical_formula_sum   'Tb3 Y13 Cd4 Pt4'
_cell_volume   652.26683221
_cell_formula_units_Z   1
loop_
 _symmetry_equiv_pos_site_id
 _symmetry_equiv_pos_as_xyz
  1  'x, y, z'
loop_
 _atom_site_type_symbol
 _atom_site_label
 _atom_site_symmetry_multiplicity
 _atom_site_fract_x
 _atom_site_fract_y
 _atom_site_fract_z
 _atom_site_occupancy
  Tb  Tb0  1  0.352316  0.352305  0.352305  1
  Tb  Tb1  1  0.352316  0.352305  0.943075  1
  Tb  Tb2  1  0.352316  0.943075  0.352305  1
  Y  Y3  1  0.942106  0.352631  0.352631  1
  Y  Y4  1  0.810762  0.189262  0.189262  1
  Y  Y5  1  0.189246  0.810798  0.810798  1
  Y  Y6  1  0.189246  0.810798  0.189157  1
  Y  Y7  1  0.810762  0.189262  0.810714  1
  Y  Y8  1  0.189246  0.189157  0.810798  1
  Y  Y9  1  0.810762  0.810714  0.189262  1
  Y  Y10  1  0.934755  0.565277  0.565277  1
  Y  Y11  1  0.565082  0.934827  0.934827  1
  Y  Y12  1  0.565082  0.934827  0.565263  1
  Y  Y13  1  0.934755  0.565277  0.934692  1
  Y  Y14  1  0.565082  0.565263  0.934827  1
  Y  Y15  1  0.934755  0.934692  0.565277  1
  Cd  Cd16  1  0.582245  0.581975  0.581975  1
  Cd  Cd17  1  0.582245  0.581975  0.253805  1
  Cd  Cd18  1  0.582245  0.253805  0.581975  1
  Cd  Cd19  1  0.253813  0.582062  0.582062  1
  Pt  Pt20  1  0.143832  0.143318  0.143318  1
  Pt  Pt21  1  0.143832  0.143318  0.569532  1
  Pt  Pt22  1  0.143832  0.569532  0.143318  1
  Pt  Pt23  1  0.569368  0.143544  0.143544  1
