# generated using pymatgen
data_Ho10ErTh5(MgRu)4
_symmetry_space_group_name_H-M   'P 1'
_cell_length_a   9.69934434
_cell_length_b   9.75357621
_cell_length_c   9.75357660
_cell_angle_alpha   59.86629938
_cell_angle_beta   60.18376057
_cell_angle_gamma   60.18376415
_symmetry_Int_Tables_number   1
_chemical_formula_structural   Ho10ErTh5(MgRu)4
_chemical_formula_sum   'Ho10 Er1 Th5 Mg4 Ru4'
_cell_volume   653.60100231
_cell_formula_units_Z   1
loop_
 _symmetry_equiv_pos_site_id
 _symmetry_equiv_pos_as_xyz
  1  'x, y, z'
loop_
 _atom_site_type_symbol
 _atom_site_label
 _atom_site_symmetry_multiplicity
 _atom_site_fract_x
 _atom_site_fract_y
 _atom_site_fract_z
 _atom_site_occupancy
  Ho  Ho0  1  0.190953  0.810080  0.184975  1
  Ho  Ho1  1  0.813992  0.184975  0.810080  1
  Ho  Ho2  1  0.190953  0.184975  0.810080  1
  Ho  Ho3  1  0.813992  0.810080  0.184975  1
  Ho  Ho4  1  0.932925  0.567075  0.567075  1
  Ho  Ho5  1  0.565023  0.934977  0.934977  1
  Ho  Ho6  1  0.563278  0.935155  0.565152  1
  Ho  Ho7  1  0.936415  0.565152  0.935155  1
  Ho  Ho8  1  0.563278  0.565152  0.935155  1
  Ho  Ho9  1  0.936415  0.935155  0.565152  1
  Er  Er10  1  0.186179  0.813821  0.813821  1
  Th  Th11  1  0.342713  0.348804  0.348804  1
  Th  Th12  1  0.346535  0.347762  0.959166  1
  Th  Th13  1  0.346535  0.959166  0.347762  1
  Th  Th14  1  0.959679  0.348804  0.348804  1
  Th  Th15  1  0.815989  0.184011  0.184011  1
  Mg  Mg16  1  0.581075  0.579792  0.579792  1
  Mg  Mg17  1  0.579695  0.581904  0.258707  1
  Mg  Mg18  1  0.579695  0.258707  0.581904  1
  Mg  Mg19  1  0.259344  0.579792  0.579792  1
  Ru  Ru20  1  0.129290  0.147200  0.147200  1
  Ru  Ru21  1  0.144869  0.141990  0.568271  1
  Ru  Ru22  1  0.144869  0.568271  0.141990  1
  Ru  Ru23  1  0.576308  0.147200  0.147200  1
