# generated using pymatgen
data_Y3ErAl24CoPt8
_symmetry_space_group_name_H-M   'P 1'
_cell_length_a   7.48495962
_cell_length_b   7.48643605
_cell_length_c   13.12459085
_cell_angle_alpha   84.55750008
_cell_angle_beta   100.85449136
_cell_angle_gamma   119.69097465
_symmetry_Int_Tables_number   1
_chemical_formula_structural   Y3ErAl24CoPt8
_chemical_formula_sum   'Y3 Er1 Al24 Co1 Pt8'
_cell_volume   627.45665133
_cell_formula_units_Z   1
loop_
 _symmetry_equiv_pos_site_id
 _symmetry_equiv_pos_as_xyz
  1  'x, y, z'
loop_
 _atom_site_type_symbol
 _atom_site_label
 _atom_site_symmetry_multiplicity
 _atom_site_fract_x
 _atom_site_fract_y
 _atom_site_fract_z
 _atom_site_occupancy
  Y  Y0  1  0.736068  0.000902  0.190303  1
  Y  Y1  1  0.268204  0.004296  0.809626  1
  Y  Y2  1  0.059115  0.668306  0.190433  1
  Er  Er3  1  0.935676  0.327492  0.809469  1
  Al  Al4  1  0.804661  0.865957  0.816936  1
  Al  Al5  1  0.195631  0.134135  0.183077  1
  Al  Al6  1  0.995255  0.665675  0.945583  1
  Al  Al7  1  0.026063  0.343359  0.052755  1
  Al  Al8  1  0.390587  0.662106  0.823503  1
  Al  Al9  1  0.599947  0.336566  0.181875  1
  Al  Al10  1  0.883008  0.664717  0.672710  1
  Al  Al11  1  0.118797  0.335642  0.327245  1
  Al  Al12  1  0.603283  0.459728  0.817803  1
  Al  Al13  1  0.396188  0.550882  0.176842  1
  Al  Al14  1  0.231195  0.341365  0.670843  1
  Al  Al15  1  0.767930  0.659261  0.329303  1
  Al  Al16  1  0.853582  0.333470  0.559159  1
  Al  Al17  1  0.186592  0.999797  0.559053  1
  Al  Al18  1  0.813950  0.000047  0.440977  1
  Al  Al19  1  0.351894  0.986247  0.054153  1
  Al  Al20  1  0.639335  0.992244  0.946776  1
  Al  Al21  1  0.556185  0.991788  0.672866  1
  Al  Al22  1  0.443659  0.006763  0.327527  1
  Al  Al23  1  0.521427  0.667909  0.561425  1
  Al  Al24  1  0.478834  0.331879  0.438310  1
  Al  Al25  1  0.674536  0.668417  0.041007  1
  Al  Al26  1  0.317214  0.339104  0.958686  1
  Al  Al27  1  0.146588  0.666035  0.441255  1
  Co  Co28  1  0.330360  0.669517  0.999965  1
  Pt  Pt29  1  0.546946  0.325264  0.637890  1
  Pt  Pt30  1  0.453449  0.674277  0.361750  1
  Pt  Pt31  1  0.887947  0.008259  0.638983  1
  Pt  Pt32  1  0.112474  0.991898  0.361291  1
  Pt  Pt33  1  0.672318  0.327738  0.999881  1
  Pt  Pt34  1  0.205181  0.666782  0.639588  1
  Pt  Pt35  1  0.795333  0.332695  0.361219  1
  Pt  Pt36  1  0.000586  0.999480  0.999933  1
