# generated using pymatgen
data_MgNbB4Ru5
_symmetry_space_group_name_H-M   'P 1'
_cell_length_a   2.94118100
_cell_length_b   8.69161408
_cell_length_c   9.96898217
_cell_angle_alpha   92.25776688
_cell_angle_beta   90.00000000
_cell_angle_gamma   90.00000000
_symmetry_Int_Tables_number   1
_chemical_formula_structural   MgNbB4Ru5
_chemical_formula_sum   'Mg2 Nb2 B8 Ru10'
_cell_volume   254.64534061
_cell_formula_units_Z   2
loop_
 _symmetry_equiv_pos_site_id
 _symmetry_equiv_pos_as_xyz
  1  'x, y, z'
loop_
 _atom_site_type_symbol
 _atom_site_label
 _atom_site_symmetry_multiplicity
 _atom_site_fract_x
 _atom_site_fract_y
 _atom_site_fract_z
 _atom_site_occupancy
  Mg  Mg0  1  0.500000  0.155118  0.682830  1
  Mg  Mg1  1  0.500000  0.844882  0.317170  1
  Nb  Nb2  1  0.500000  0.660348  0.817900  1
  Nb  Nb3  1  0.500000  0.339652  0.182100  1
  B  B4  1  0.500000  0.859421  0.599234  1
  B  B5  1  0.500000  0.140579  0.400766  1
  B  B6  1  0.500000  0.350372  0.893013  1
  B  B7  1  0.500000  0.649628  0.106987  1
  B  B8  1  0.500000  0.968908  0.914209  1
  B  B9  1  0.500000  0.031092  0.085791  1
  B  B10  1  0.500000  0.461930  0.584404  1
  B  B11  1  0.500000  0.538070  0.415596  1
  Ru  Ru12  1  0.000000  0.406622  0.734392  1
  Ru  Ru13  1  0.000000  0.593378  0.265608  1
  Ru  Ru14  1  0.000000  0.905815  0.765753  1
  Ru  Ru15  1  0.000000  0.094185  0.234247  1
  Ru  Ru16  1  0.000000  0.000000  0.500000  1
  Ru  Ru17  1  0.000000  0.500000  0.000000  1
  Ru  Ru18  1  0.000000  0.664106  0.557529  1
  Ru  Ru19  1  0.000000  0.335894  0.442471  1
  Ru  Ru20  1  0.000000  0.174817  0.955154  1
  Ru  Ru21  1  0.000000  0.825183  0.044846  1
