# generated using pymatgen
data_Tb4V3FeB16
_symmetry_space_group_name_H-M   'P 1'
_cell_length_a   3.45398000
_cell_length_b   5.99290346
_cell_length_c   11.58652589
_cell_angle_alpha   89.95512465
_cell_angle_beta   90.00003142
_cell_angle_gamma   90.00000957
_symmetry_Int_Tables_number   1
_chemical_formula_structural   Tb4V3FeB16
_chemical_formula_sum   'Tb4 V3 Fe1 B16'
_cell_volume   239.83369765
_cell_formula_units_Z   1
loop_
 _symmetry_equiv_pos_site_id
 _symmetry_equiv_pos_as_xyz
  1  'x, y, z'
loop_
 _atom_site_type_symbol
 _atom_site_label
 _atom_site_symmetry_multiplicity
 _atom_site_fract_x
 _atom_site_fract_y
 _atom_site_fract_z
 _atom_site_occupancy
  Tb  Tb0  1  0.500004  0.376264  0.151255  1
  Tb  Tb1  1  0.500002  0.625497  0.849097  1
  Tb  Tb2  1  0.499999  0.123961  0.650511  1
  Tb  Tb3  1  0.500001  0.876229  0.348919  1
  V  V4  1  0.499999  0.373606  0.414416  1
  V  V5  1  0.500000  0.626332  0.582563  1
  V  V6  1  0.500000  0.126409  0.920346  1
  Fe  Fe7  1  0.499985  0.874082  0.081702  1
  B  B8  1  0.000003  0.108873  0.049488  1
  B  B9  1  0.000002  0.883686  0.955871  1
  B  B10  1  0.999999  0.385526  0.546245  1
  B  B11  1  0.999999  0.614203  0.452356  1
  B  B12  1  0.999999  0.135358  0.466679  1
  B  B13  1  0.999999  0.864172  0.532647  1
  B  B14  1  0.000001  0.364108  0.969653  1
  B  B15  1  0.000003  0.639151  0.032992  1
  B  B16  1  0.000004  0.021963  0.190386  1
  B  B17  1  0.999999  0.975137  0.809597  1
  B  B18  1  0.999999  0.474256  0.692274  1
  B  B19  1  0.000002  0.527488  0.306053  1
  B  B20  1  0.000000  0.214624  0.312605  1
  B  B21  1  0.999999  0.784471  0.686305  1
  B  B22  1  0.999999  0.282873  0.815967  1
  B  B23  1  0.000005  0.721730  0.182076  1
