# generated using pymatgen
data_LiPr16Tl2InRh4
_symmetry_space_group_name_H-M   'P 1'
_cell_length_a   10.05026408
_cell_length_b   10.07333008
_cell_length_c   10.08642542
_cell_angle_alpha   59.83464290
_cell_angle_beta   59.82229631
_cell_angle_gamma   59.83042667
_symmetry_Int_Tables_number   1
_chemical_formula_structural   LiPr16Tl2InRh4
_chemical_formula_sum   'Li1 Pr16 Tl2 In1 Rh4'
_cell_volume   719.25879224
_cell_formula_units_Z   1
loop_
 _symmetry_equiv_pos_site_id
 _symmetry_equiv_pos_as_xyz
  1  'x, y, z'
loop_
 _atom_site_type_symbol
 _atom_site_label
 _atom_site_symmetry_multiplicity
 _atom_site_fract_x
 _atom_site_fract_y
 _atom_site_fract_z
 _atom_site_occupancy
  Li  Li0  1  0.285827  0.571207  0.571050  1
  Pr  Pr1  1  0.350183  0.346891  0.347712  1
  Pr  Pr2  1  0.350000  0.347351  0.954437  1
  Pr  Pr3  1  0.349559  0.954383  0.348020  1
  Pr  Pr4  1  0.952680  0.348770  0.349164  1
  Pr  Pr5  1  0.807951  0.190862  0.191820  1
  Pr  Pr6  1  0.187017  0.812018  0.812196  1
  Pr  Pr7  1  0.186612  0.812595  0.187830  1
  Pr  Pr8  1  0.807698  0.191406  0.808811  1
  Pr  Pr9  1  0.187741  0.187714  0.812169  1
  Pr  Pr10  1  0.807685  0.808071  0.192593  1
  Pr  Pr11  1  0.939929  0.562462  0.562927  1
  Pr  Pr12  1  0.563380  0.939200  0.937183  1
  Pr  Pr13  1  0.563591  0.938745  0.561317  1
  Pr  Pr14  1  0.939423  0.561888  0.936683  1
  Pr  Pr15  1  0.563217  0.560992  0.937991  1
  Pr  Pr16  1  0.937151  0.937274  0.562894  1
  Tl  Tl17  1  0.576398  0.583768  0.585122  1
  Tl  Tl18  1  0.574949  0.583331  0.256798  1
  In  In19  1  0.575638  0.260237  0.581989  1
  Rh  Rh20  1  0.140616  0.143140  0.142820  1
  Rh  Rh21  1  0.140468  0.142122  0.573631  1
  Rh  Rh22  1  0.140767  0.573280  0.142293  1
  Rh  Rh23  1  0.571520  0.142296  0.142546  1
