# generated using pymatgen
data_Nd10Tl2In6Ir3Pt
_symmetry_space_group_name_H-M   'P 1'
_cell_length_a   3.80538800
_cell_length_b   8.29644721
_cell_length_c   18.71398849
_cell_angle_alpha   89.93939967
_cell_angle_beta   90.00000000
_cell_angle_gamma   90.00000000
_symmetry_Int_Tables_number   1
_chemical_formula_structural   Nd10Tl2In6Ir3Pt
_chemical_formula_sum   'Nd10 Tl2 In6 Ir3 Pt1'
_cell_volume   590.82275513
_cell_formula_units_Z   1
loop_
 _symmetry_equiv_pos_site_id
 _symmetry_equiv_pos_as_xyz
  1  'x, y, z'
loop_
 _atom_site_type_symbol
 _atom_site_label
 _atom_site_symmetry_multiplicity
 _atom_site_fract_x
 _atom_site_fract_y
 _atom_site_fract_z
 _atom_site_occupancy
  Nd  Nd0  1  0.000000  0.113087  0.412434  1
  Nd  Nd1  1  0.000000  0.885873  0.590194  1
  Nd  Nd2  1  0.000000  0.383613  0.910896  1
  Nd  Nd3  1  0.000000  0.616935  0.085579  1
  Nd  Nd4  1  0.000000  0.235104  0.221838  1
  Nd  Nd5  1  0.000000  0.757523  0.778673  1
  Nd  Nd6  1  0.000000  0.257350  0.722813  1
  Nd  Nd7  1  0.000000  0.750225  0.278378  1
  Nd  Nd8  1  0.000000  0.998808  0.999245  1
  Nd  Nd9  1  0.000000  0.500786  0.500375  1
  Tl  Tl10  1  0.500000  0.429565  0.352537  1
  Tl  Tl11  1  0.500000  0.566760  0.648424  1
  In  In12  1  0.500000  0.065251  0.850288  1
  In  In13  1  0.500000  0.931170  0.148667  1
  In  In14  1  0.500000  0.289220  0.068574  1
  In  In15  1  0.500000  0.707937  0.929835  1
  In  In16  1  0.500000  0.206884  0.569458  1
  In  In17  1  0.500000  0.792527  0.430975  1
  Ir  Ir18  1  0.500000  0.011714  0.304302  1
  Ir  Ir19  1  0.500000  0.993421  0.695707  1
  Ir  Ir20  1  0.500000  0.489311  0.805454  1
  Pt  Pt21  1  0.500000  0.516933  0.195353  1
