# generated using pymatgen
data_Be6PRu12W5
_symmetry_space_group_name_H-M   'P 1'
_cell_length_a   4.21055400
_cell_length_b   5.95955500
_cell_length_c   12.56031901
_cell_angle_alpha   90.00000000
_cell_angle_beta   89.99612445
_cell_angle_gamma   90.00000000
_symmetry_Int_Tables_number   1
_chemical_formula_structural   Be6PRu12W5
_chemical_formula_sum   'Be6 P1 Ru12 W5'
_cell_volume   315.17643780
_cell_formula_units_Z   1
loop_
 _symmetry_equiv_pos_site_id
 _symmetry_equiv_pos_as_xyz
  1  'x, y, z'
loop_
 _atom_site_type_symbol
 _atom_site_label
 _atom_site_symmetry_multiplicity
 _atom_site_fract_x
 _atom_site_fract_y
 _atom_site_fract_z
 _atom_site_occupancy
  Be  Be0  1  0.000000  0.499999  0.000000  1
  Be  Be1  1  0.499785  0.000000  0.176782  1
  Be  Be2  1  0.999746  0.499999  0.327401  1
  Be  Be3  1  0.500001  0.000000  0.500000  1
  Be  Be4  1  0.000253  0.499999  0.672599  1
  Be  Be5  1  0.500214  0.000000  0.823218  1
  P  P6  1  0.000000  0.000000  0.000000  1
  Ru  Ru7  1  0.500001  0.230664  0.000000  1
  Ru  Ru8  1  0.500001  0.769335  0.000000  1
  Ru  Ru9  1  0.999934  0.241241  0.157728  1
  Ru  Ru10  1  0.999934  0.758758  0.157728  1
  Ru  Ru11  1  0.499896  0.252676  0.331113  1
  Ru  Ru12  1  0.499896  0.747325  0.331113  1
  Ru  Ru13  1  0.000000  0.249170  0.500000  1
  Ru  Ru14  1  0.000000  0.750831  0.500000  1
  Ru  Ru15  1  0.500105  0.252676  0.668887  1
  Ru  Ru16  1  0.500105  0.747325  0.668887  1
  Ru  Ru17  1  0.000065  0.241241  0.842273  1
  Ru  Ru18  1  0.000065  0.758758  0.842273  1
  W  W19  1  0.499899  0.499999  0.158889  1
  W  W20  1  0.999853  0.000000  0.330087  1
  W  W21  1  0.500001  0.499999  0.500000  1
  W  W22  1  0.000148  0.000000  0.669913  1
  W  W23  1  0.500100  0.499999  0.841111  1
