# generated using pymatgen
data_Sr14NdBi11
_symmetry_space_group_name_H-M   'P 1'
_cell_length_a   17.85572174
_cell_length_b   17.85572208
_cell_length_c   17.85572200
_cell_angle_alpha   117.53088420
_cell_angle_beta   117.53088477
_cell_angle_gamma   94.33263160
_symmetry_Int_Tables_number   1
_chemical_formula_structural   Sr14NdBi11
_chemical_formula_sum   'Sr56 Nd4 Bi44'
_cell_volume   4162.83308668
_cell_formula_units_Z   4
loop_
 _symmetry_equiv_pos_site_id
 _symmetry_equiv_pos_as_xyz
  1  'x, y, z'
loop_
 _atom_site_type_symbol
 _atom_site_label
 _atom_site_symmetry_multiplicity
 _atom_site_fract_x
 _atom_site_fract_y
 _atom_site_fract_z
 _atom_site_occupancy
  Sr  Sr0  1  0.500595  0.605344  0.840154  1
  Sr  Sr1  1  0.625000  0.228933  0.103933  1
  Sr  Sr2  1  0.160218  0.027585  0.782586  1
  Sr  Sr3  1  0.895542  0.376797  0.839423  1
  Sr  Sr4  1  0.125000  0.021067  0.396067  1
  Sr  Sr5  1  0.771067  0.875000  0.396067  1
  Sr  Sr6  1  0.127632  0.410218  0.632634  1
  Sr  Sr7  1  0.765190  0.660441  0.159846  1
  Sr  Sr8  1  0.712627  0.373203  0.018745  1
  Sr  Sr9  1  0.443881  0.962627  0.839423  1
  Sr  Sr10  1  0.306119  0.287373  0.660577  1
  Sr  Sr11  1  0.037373  0.876797  0.481255  1
  Sr  Sr12  1  0.484810  0.144656  0.395251  1
  Sr  Sr13  1  0.355344  0.015190  0.604749  1
  Sr  Sr14  1  0.125000  0.521067  0.896067  1
  Sr  Sr15  1  0.984810  0.589559  0.340154  1
  Sr  Sr16  1  0.943881  0.104458  0.481255  1
  Sr  Sr17  1  0.626797  0.645542  0.339423  1
  Sr  Sr18  1  0.894656  0.999405  0.159846  1
  Sr  Sr19  1  0.354458  0.693881  0.981255  1
  Sr  Sr20  1  0.123203  0.604458  0.160577  1
  Sr  Sr21  1  0.000595  0.160441  0.895251  1
  Sr  Sr22  1  0.660218  0.877632  0.132634  1
  Sr  Sr23  1  0.505002  0.872368  0.282586  1
  Sr  Sr24  1  0.854458  0.873203  0.660577  1
  Sr  Sr25  1  0.212627  0.193881  0.339423  1
  Sr  Sr26  1  0.005002  0.722415  0.632634  1
  Sr  Sr27  1  0.744998  0.527585  0.867366  1
  Sr  Sr28  1  0.265190  0.105344  0.104749  1
  Sr  Sr29  1  0.244998  0.377632  0.217414  1
  Sr  Sr30  1  0.339559  0.499405  0.104749  1
  Sr  Sr31  1  0.249405  0.644656  0.659846  1
  Sr  Sr32  1  0.749405  0.089559  0.604749  1
  Sr  Sr33  1  0.625000  0.728933  0.603933  1
  Sr  Sr34  1  0.910441  0.515190  0.659846  1
  Sr  Sr35  1  0.839559  0.734810  0.840154  1
  Sr  Sr36  1  0.622368  0.839782  0.867366  1
  Sr  Sr37  1  0.277585  0.910218  0.282586  1
  Sr  Sr38  1  0.855344  0.250595  0.340154  1
  Sr  Sr39  1  0.126797  0.787373  0.981255  1
  Sr  Sr40  1  0.777585  0.494998  0.367366  1
  Sr  Sr41  1  0.972415  0.755002  0.132634  1
  Sr  Sr42  1  0.122368  0.255002  0.782586  1
  Sr  Sr43  1  0.589782  0.222415  0.717414  1
  Sr  Sr44  1  0.623203  0.462627  0.518745  1
  Sr  Sr45  1  0.978933  0.375000  0.103933  1
  Sr  Sr46  1  0.537373  0.056119  0.160577  1
  Sr  Sr47  1  0.394656  0.234810  0.895251  1
  Sr  Sr48  1  0.410441  0.750595  0.395251  1
  Sr  Sr49  1  0.478933  0.375000  0.603933  1
  Sr  Sr50  1  0.089782  0.372368  0.367366  1
  Sr  Sr51  1  0.806119  0.145542  0.018745  1
  Sr  Sr52  1  0.271067  0.875000  0.896067  1
  Sr  Sr53  1  0.472415  0.339782  0.217414  1
  Sr  Sr54  1  0.395542  0.556119  0.518745  1
  Sr  Sr55  1  0.627632  0.994998  0.717414  1
  Nd  Nd56  1  0.250000  0.750000  0.500000  1
  Nd  Nd57  1  0.750000  0.250000  0.500000  1
  Nd  Nd58  1  0.000000  0.000000  0.000000  1
  Nd  Nd59  1  0.500000  0.500000  0.000000  1
  Bi  Bi60  1  0.865443  0.365443  0.230886  1
  Bi  Bi61  1  0.290820  0.699282  0.145319  1
  Bi  Bi62  1  0.884557  0.884557  0.269114  1
  Bi  Bi63  1  0.553963  0.145501  0.854681  1
  Bi  Bi64  1  0.949282  0.040820  0.645319  1
  Bi  Bi65  1  0.365443  0.134557  0.500000  1
  Bi  Bi66  1  0.459180  0.550718  0.354681  1
  Bi  Bi67  1  0.354499  0.946037  0.145319  1
  Bi  Bi68  1  0.059646  0.209454  0.136555  1
  Bi  Bi69  1  0.053963  0.199282  0.408462  1
  Bi  Bi70  1  0.500000  0.000000  0.500000  1
  Bi  Bi71  1  0.196037  0.104499  0.645319  1
  Bi  Bi72  1  0.790546  0.927100  0.850192  1
  Bi  Bi73  1  0.677100  0.326910  0.636555  1
  Bi  Bi74  1  0.459454  0.809646  0.636555  1
  Bi  Bi75  1  0.173090  0.822900  0.363445  1
  Bi  Bi76  1  0.572900  0.709454  0.149808  1
  Bi  Bi77  1  0.673090  0.309646  0.350192  1
  Bi  Bi78  1  0.076910  0.940354  0.149808  1
  Bi  Bi79  1  0.750000  0.750000  0.000000  1
  Bi  Bi80  1  0.559646  0.423090  0.850192  1
  Bi  Bi81  1  0.384557  0.115443  0.000000  1
  Bi  Bi82  1  0.072900  0.923090  0.863445  1
  Bi  Bi83  1  0.000000  0.500000  0.500000  1
  Bi  Bi84  1  0.290546  0.440354  0.863445  1
  Bi  Bi85  1  0.800718  0.209180  0.854681  1
  Bi  Bi86  1  0.250000  0.250000  0.000000  1
  Bi  Bi87  1  0.395501  0.303963  0.354681  1
  Bi  Bi88  1  0.300718  0.446037  0.591538  1
  Bi  Bi89  1  0.696037  0.050718  0.091538  1
  Bi  Bi90  1  0.790820  0.645501  0.591538  1
  Bi  Bi91  1  0.190354  0.826910  0.649808  1
  Bi  Bi92  1  0.959180  0.604499  0.908462  1
  Bi  Bi93  1  0.115443  0.384557  0.000000  1
  Bi  Bi94  1  0.959454  0.322900  0.649808  1
  Bi  Bi95  1  0.634557  0.865443  0.500000  1
  Bi  Bi96  1  0.690354  0.040546  0.363445  1
  Bi  Bi97  1  0.576910  0.427100  0.136555  1
  Bi  Bi98  1  0.854499  0.709180  0.408462  1
  Bi  Bi99  1  0.895501  0.540820  0.091538  1
  Bi  Bi100  1  0.449282  0.803963  0.908462  1
  Bi  Bi101  1  0.134557  0.634557  0.769114  1
  Bi  Bi102  1  0.615443  0.615443  0.730886  1
  Bi  Bi103  1  0.177100  0.540546  0.350192  1
