# generated using pymatgen
data_Nd6Er10Cd4CoPt3
_symmetry_space_group_name_H-M   'P 1'
_cell_length_a   9.67711770
_cell_length_b   9.67711712
_cell_length_c   9.67711755
_cell_angle_alpha   60.33378203
_cell_angle_beta   60.33378304
_cell_angle_gamma   60.33379213
_symmetry_Int_Tables_number   1
_chemical_formula_structural   Nd6Er10Cd4CoPt3
_chemical_formula_sum   'Nd6 Er10 Cd4 Co1 Pt3'
_cell_volume   645.63990462
_cell_formula_units_Z   1
loop_
 _symmetry_equiv_pos_site_id
 _symmetry_equiv_pos_as_xyz
  1  'x, y, z'
loop_
 _atom_site_type_symbol
 _atom_site_label
 _atom_site_symmetry_multiplicity
 _atom_site_fract_x
 _atom_site_fract_y
 _atom_site_fract_z
 _atom_site_occupancy
  Nd  Nd0  1  0.939277  0.560506  0.560506  1
  Nd  Nd1  1  0.560137  0.938532  0.938532  1
  Nd  Nd2  1  0.560506  0.939277  0.560506  1
  Nd  Nd3  1  0.938532  0.560137  0.938532  1
  Nd  Nd4  1  0.560506  0.560506  0.939277  1
  Nd  Nd5  1  0.938532  0.938532  0.560137  1
  Er  Er6  1  0.350634  0.350634  0.350634  1
  Er  Er7  1  0.343962  0.343962  0.956649  1
  Er  Er8  1  0.343962  0.956649  0.343962  1
  Er  Er9  1  0.956649  0.343962  0.343962  1
  Er  Er10  1  0.821038  0.186704  0.186704  1
  Er  Er11  1  0.186405  0.812054  0.812054  1
  Er  Er12  1  0.186704  0.821038  0.186704  1
  Er  Er13  1  0.812054  0.186405  0.812054  1
  Er  Er14  1  0.186704  0.186704  0.821038  1
  Er  Er15  1  0.812054  0.812054  0.186405  1
  Cd  Cd16  1  0.579051  0.579051  0.579051  1
  Cd  Cd17  1  0.580399  0.580399  0.260709  1
  Cd  Cd18  1  0.580399  0.260709  0.580399  1
  Cd  Cd19  1  0.260709  0.580399  0.580399  1
  Co  Co20  1  0.141682  0.141682  0.141682  1
  Pt  Pt21  1  0.143265  0.143265  0.573572  1
  Pt  Pt22  1  0.143265  0.573572  0.143265  1
  Pt  Pt23  1  0.573572  0.143265  0.143265  1
