# generated using pymatgen
data_Ho4TcOsRu6
_symmetry_space_group_name_H-M   'P 1'
_cell_length_a   5.15566283
_cell_length_b   5.35438289
_cell_length_c   8.97023000
_cell_angle_alpha   90.00000000
_cell_angle_beta   90.00000000
_cell_angle_gamma   119.35416317
_symmetry_Int_Tables_number   1
_chemical_formula_structural   Ho4TcOsRu6
_chemical_formula_sum   'Ho4 Tc1 Os1 Ru6'
_cell_volume   215.83300091
_cell_formula_units_Z   1
loop_
 _symmetry_equiv_pos_site_id
 _symmetry_equiv_pos_as_xyz
  1  'x, y, z'
loop_
 _atom_site_type_symbol
 _atom_site_label
 _atom_site_symmetry_multiplicity
 _atom_site_fract_x
 _atom_site_fract_y
 _atom_site_fract_z
 _atom_site_occupancy
  Ho  Ho0  1  0.329415  0.668901  0.432973  1
  Ho  Ho1  1  0.657921  0.328082  0.565773  1
  Ho  Ho2  1  0.657921  0.328082  0.934227  1
  Ho  Ho3  1  0.329415  0.668901  0.067027  1
  Tc  Tc4  1  0.681058  0.839719  0.750000  1
  Os  Os5  1  0.839678  0.162567  0.250000  1
  Ru  Ru6  1  0.982640  0.000890  0.499409  1
  Ru  Ru7  1  0.982640  0.000890  0.000591  1
  Ru  Ru8  1  0.830119  0.652356  0.250000  1
  Ru  Ru9  1  0.351579  0.171899  0.250000  1
  Ru  Ru10  1  0.180332  0.828541  0.750000  1
  Ru  Ru11  1  0.177284  0.349170  0.750000  1
