# generated using pymatgen
data_Yb2Sc2FeRu7
_symmetry_space_group_name_H-M   'P 1'
_cell_length_a   5.25168400
_cell_length_b   5.13486491
_cell_length_c   8.66848231
_cell_angle_alpha   89.70460667
_cell_angle_beta   90.00000000
_cell_angle_gamma   120.75548017
_symmetry_Int_Tables_number   1
_chemical_formula_structural   Yb2Sc2FeRu7
_chemical_formula_sum   'Yb2 Sc2 Fe1 Ru7'
_cell_volume   200.88001595
_cell_formula_units_Z   1
loop_
 _symmetry_equiv_pos_site_id
 _symmetry_equiv_pos_as_xyz
  1  'x, y, z'
loop_
 _atom_site_type_symbol
 _atom_site_label
 _atom_site_symmetry_multiplicity
 _atom_site_fract_x
 _atom_site_fract_y
 _atom_site_fract_z
 _atom_site_occupancy
  Yb  Yb0  1  0.331910  0.663822  0.437639  1
  Yb  Yb1  1  0.667162  0.334324  0.562894  1
  Sc  Sc2  1  0.668745  0.337490  0.930526  1
  Sc  Sc3  1  0.331477  0.662956  0.069045  1
  Fe  Fe4  1  0.168549  0.337097  0.756038  1
  Ru  Ru5  1  0.174306  0.825195  0.756403  1
  Ru  Ru6  1  0.344956  0.170966  0.242821  1
  Ru  Ru7  1  0.830917  0.661835  0.243739  1
  Ru  Ru8  1  0.650889  0.825195  0.756403  1
  Ru  Ru9  1  0.005321  0.010644  0.995848  1
  Ru  Ru10  1  0.826010  0.170966  0.242821  1
  Ru  Ru11  1  0.999755  0.999511  0.505822  1
