# generated using pymatgen
data_Sr2Zn21Ni
_symmetry_space_group_name_H-M   'P 1'
_cell_length_a   6.86607446
_cell_length_b   8.35377084
_cell_length_c   8.35377643
_cell_angle_alpha   99.19414408
_cell_angle_beta   65.64215119
_cell_angle_gamma   114.35781944
_symmetry_Int_Tables_number   1
_chemical_formula_structural   Sr2Zn21Ni
_chemical_formula_sum   'Sr2 Zn21 Ni1'
_cell_volume   397.61713611
_cell_formula_units_Z   1
loop_
 _symmetry_equiv_pos_site_id
 _symmetry_equiv_pos_as_xyz
  1  'x, y, z'
loop_
 _atom_site_type_symbol
 _atom_site_label
 _atom_site_symmetry_multiplicity
 _atom_site_fract_x
 _atom_site_fract_y
 _atom_site_fract_z
 _atom_site_occupancy
  Sr  Sr0  1  0.122221  0.748905  0.251095  1
  Sr  Sr1  1  0.877780  0.251095  0.748905  1
  Zn  Zn2  1  0.499999  0.500000  0.000000  1
  Zn  Zn3  1  0.356852  0.159998  0.078250  1
  Zn  Zn4  1  0.058613  0.323084  0.072716  1
  Zn  Zn5  1  0.699544  0.418680  0.162968  1
  Zn  Zn6  1  0.643148  0.078250  0.159998  1
  Zn  Zn7  1  0.646066  0.761898  0.238102  1
  Zn  Zn8  1  0.224215  0.424157  0.333735  1
  Zn  Zn9  1  0.941386  0.072716  0.323084  1
  Zn  Zn10  1  0.775786  0.333735  0.424157  1
  Zn  Zn11  1  0.300455  0.162968  0.418680  1
  Zn  Zn12  1  0.500000  0.000000  0.500000  1
  Zn  Zn13  1  0.500001  0.500000  0.500000  1
  Zn  Zn14  1  0.224215  0.666265  0.575843  1
  Zn  Zn15  1  0.699544  0.837032  0.581320  1
  Zn  Zn16  1  0.775786  0.575843  0.666265  1
  Zn  Zn17  1  0.058614  0.927283  0.676916  1
  Zn  Zn18  1  0.353934  0.238102  0.761898  1
  Zn  Zn19  1  0.300455  0.581320  0.837032  1
  Zn  Zn20  1  0.356852  0.921750  0.840002  1
  Zn  Zn21  1  0.941386  0.676916  0.927283  1
  Zn  Zn22  1  0.643148  0.840002  0.921750  1
  Ni  Ni23  1  0.000000  0.000000  0.000000  1
