# generated using pymatgen
data_Y5ReRuO12
_symmetry_space_group_name_H-M   'P 1'
_cell_length_a   6.85827599
_cell_length_b   6.85827521
_cell_length_c   7.52233700
_cell_angle_alpha   73.80313871
_cell_angle_beta   73.80314060
_cell_angle_gamma   48.87069403
_symmetry_Int_Tables_number   1
_chemical_formula_structural   Y5ReRuO12
_chemical_formula_sum   'Y5 Re1 Ru1 O12'
_cell_volume   253.69032794
_cell_formula_units_Z   1
loop_
 _symmetry_equiv_pos_site_id
 _symmetry_equiv_pos_as_xyz
  1  'x, y, z'
loop_
 _atom_site_type_symbol
 _atom_site_label
 _atom_site_symmetry_multiplicity
 _atom_site_fract_x
 _atom_site_fract_y
 _atom_site_fract_z
 _atom_site_occupancy
  Y  Y0  1  0.181149  0.212358  0.642493  1
  Y  Y1  1  0.180378  0.190644  0.173616  1
  Y  Y2  1  0.489708  0.510292  0.500000  1
  Y  Y3  1  0.787642  0.818851  0.357507  1
  Y  Y4  1  0.809356  0.819622  0.826384  1
  Re  Re5  1  0.298516  0.701484  0.000000  1
  Ru  Ru6  1  0.732341  0.267659  0.000000  1
  O  O7  1  0.411137  0.904771  0.915703  1
  O  O8  1  0.933720  0.413234  0.915040  1
  O  O9  1  0.898480  0.412696  0.422822  1
  O  O10  1  0.390336  0.910496  0.431727  1
  O  O11  1  0.501436  0.502575  0.202309  1
  O  O12  1  0.014051  0.984478  0.175626  1
  O  O13  1  0.015522  0.985949  0.824374  1
  O  O14  1  0.497425  0.498564  0.797691  1
  O  O15  1  0.095229  0.588863  0.084297  1
  O  O16  1  0.586766  0.066280  0.084960  1
  O  O17  1  0.089504  0.609664  0.568273  1
  O  O18  1  0.587304  0.101520  0.577178  1
