# generated using pymatgen
data_Er6TmLu(OsBr4)2
_symmetry_space_group_name_H-M   'P 1'
_cell_length_a   8.87166953
_cell_length_b   8.90111436
_cell_length_c   6.49915021
_cell_angle_alpha   89.44492258
_cell_angle_beta   89.63515131
_cell_angle_gamma   89.23986638
_symmetry_Int_Tables_number   1
_chemical_formula_structural   Er6TmLu(OsBr4)2
_chemical_formula_sum   'Er6 Tm1 Lu1 Os2 Br8'
_cell_volume   513.14399829
_cell_formula_units_Z   1
loop_
 _symmetry_equiv_pos_site_id
 _symmetry_equiv_pos_as_xyz
  1  'x, y, z'
loop_
 _atom_site_type_symbol
 _atom_site_label
 _atom_site_symmetry_multiplicity
 _atom_site_fract_x
 _atom_site_fract_y
 _atom_site_fract_z
 _atom_site_occupancy
  Er  Er0  1  0.099438  0.751118  0.490391  1
  Er  Er1  1  0.901763  0.248500  0.510254  1
  Er  Er2  1  0.752089  0.902775  0.508594  1
  Er  Er3  1  0.248584  0.096332  0.492304  1
  Er  Er4  1  0.097515  0.247544  0.992251  1
  Er  Er5  1  0.902404  0.752157  0.008745  1
  Tm  Tm6  1  0.752355  0.098022  0.989220  1
  Lu  Lu7  1  0.244391  0.902804  0.011722  1
  Os  Os8  1  0.994822  0.004763  0.250304  1
  Os  Os9  1  0.005181  0.994906  0.750656  1
  Br  Br10  1  0.419913  0.816794  0.405151  1
  Br  Br11  1  0.580913  0.183829  0.591315  1
  Br  Br12  1  0.184583  0.581940  0.090864  1
  Br  Br13  1  0.816435  0.418930  0.909080  1
  Br  Br14  1  0.415041  0.188750  0.093837  1
  Br  Br15  1  0.583462  0.811445  0.904978  1
  Br  Br16  1  0.809918  0.585356  0.406515  1
  Br  Br17  1  0.191194  0.414035  0.593819  1
