# generated using pymatgen
data_TbTh2Sc2AlIr3
_symmetry_space_group_name_H-M   'P 1'
_cell_length_a   7.23585302
_cell_length_b   7.33750829
_cell_length_c   4.28003900
_cell_angle_alpha   90.00000000
_cell_angle_beta   90.00000000
_cell_angle_gamma   119.55023218
_symmetry_Int_Tables_number   1
_chemical_formula_structural   TbTh2Sc2AlIr3
_chemical_formula_sum   'Tb1 Th2 Sc2 Al1 Ir3'
_cell_volume   197.68203497
_cell_formula_units_Z   1
loop_
 _symmetry_equiv_pos_site_id
 _symmetry_equiv_pos_as_xyz
  1  'x, y, z'
loop_
 _atom_site_type_symbol
 _atom_site_label
 _atom_site_symmetry_multiplicity
 _atom_site_fract_x
 _atom_site_fract_y
 _atom_site_fract_z
 _atom_site_occupancy
  Tb  Tb0  1  0.411912  0.013315  0.500000  1
  Th  Th1  1  0.011000  0.417358  0.500000  1
  Th  Th2  1  0.569307  0.566960  0.500000  1
  Sc  Sc3  1  0.750730  0.004369  0.000000  1
  Sc  Sc4  1  0.017038  0.773620  0.000000  1
  Al  Al5  1  0.239096  0.233186  0.000000  1
  Ir  Ir6  1  0.339033  0.647934  0.000000  1
  Ir  Ir7  1  0.675159  0.348313  0.000000  1
  Ir  Ir8  1  0.986727  0.994944  0.500000  1
