# generated using pymatgen
data_LaFe(BrO3)6
_symmetry_space_group_name_H-M   'P 1'
_cell_length_a   9.56919600
_cell_length_b   9.56919478
_cell_length_c   5.90266600
_cell_angle_alpha   90.00000000
_cell_angle_beta   90.00000000
_cell_angle_gamma   119.99999730
_symmetry_Int_Tables_number   1
_chemical_formula_structural   LaFe(BrO3)6
_chemical_formula_sum   'La1 Fe1 Br6 O18'
_cell_volume   468.09036070
_cell_formula_units_Z   1
loop_
 _symmetry_equiv_pos_site_id
 _symmetry_equiv_pos_as_xyz
  1  'x, y, z'
loop_
 _atom_site_type_symbol
 _atom_site_label
 _atom_site_symmetry_multiplicity
 _atom_site_fract_x
 _atom_site_fract_y
 _atom_site_fract_z
 _atom_site_occupancy
  La  La0  1  0.666667  0.333333  0.691125  1
  Fe  Fe1  1  0.333333  0.666667  0.201641  1
  Br  Br2  1  0.662398  0.000355  0.351009  1
  Br  Br3  1  0.304769  0.954486  0.881410  1
  Br  Br4  1  0.045514  0.350282  0.881410  1
  Br  Br5  1  0.337957  0.337602  0.351009  1
  Br  Br6  1  0.999645  0.662043  0.351009  1
  Br  Br7  1  0.649718  0.695231  0.881410  1
  O  O8  1  0.765076  0.848062  0.045644  1
  O  O9  1  0.960217  0.767006  0.532814  1
  O  O10  1  0.806787  0.039783  0.532814  1
  O  O11  1  0.151938  0.917013  0.045644  1
  O  O12  1  0.082987  0.234924  0.045644  1
  O  O13  1  0.232994  0.193213  0.532814  1
  O  O14  1  0.707084  0.555216  0.931336  1
  O  O15  1  0.199040  0.720403  0.409102  1
  O  O16  1  0.532035  0.433407  0.454145  1
  O  O17  1  0.136460  0.543172  0.996084  1
  O  O18  1  0.406711  0.863540  0.996084  1
  O  O19  1  0.566593  0.098627  0.454145  1
  O  O20  1  0.901373  0.467965  0.454145  1
  O  O21  1  0.456828  0.593289  0.996084  1
  O  O22  1  0.279597  0.478637  0.409102  1
  O  O23  1  0.848131  0.292916  0.931336  1
  O  O24  1  0.444784  0.151869  0.931336  1
  O  O25  1  0.521363  0.800960  0.409102  1
