# generated using pymatgen
data_DyHo19Ru5Rh7
_symmetry_space_group_name_H-M   'P 1'
_cell_length_a   10.79313591
_cell_length_b   10.79281698
_cell_length_c   6.38305300
_cell_angle_alpha   89.95444608
_cell_angle_beta   89.96590325
_cell_angle_gamma   90.03950674
_symmetry_Int_Tables_number   1
_chemical_formula_structural   DyHo19Ru5Rh7
_chemical_formula_sum   'Dy1 Ho19 Ru5 Rh7'
_cell_volume   743.55070784
_cell_formula_units_Z   1
loop_
 _symmetry_equiv_pos_site_id
 _symmetry_equiv_pos_as_xyz
  1  'x, y, z'
loop_
 _atom_site_type_symbol
 _atom_site_label
 _atom_site_symmetry_multiplicity
 _atom_site_fract_x
 _atom_site_fract_y
 _atom_site_fract_z
 _atom_site_occupancy
  Dy  Dy0  1  0.294277  0.086469  0.377220  1
  Ho  Ho1  1  0.293475  0.913250  0.877710  1
  Ho  Ho2  1  0.707262  0.087326  0.878451  1
  Ho  Ho3  1  0.706935  0.914868  0.376273  1
  Ho  Ho4  1  0.586259  0.794207  0.877473  1
  Ho  Ho5  1  0.588287  0.206288  0.377595  1
  Ho  Ho6  1  0.413546  0.793803  0.377370  1
  Ho  Ho7  1  0.413707  0.205962  0.877080  1
  Ho  Ho8  1  0.205754  0.413809  0.622599  1
  Ho  Ho9  1  0.206000  0.586503  0.122590  1
  Ho  Ho10  1  0.793800  0.411907  0.122479  1
  Ho  Ho11  1  0.794121  0.586398  0.622921  1
  Ho  Ho12  1  0.913656  0.705520  0.122448  1
  Ho  Ho13  1  0.912689  0.292761  0.621475  1
  Ho  Ho14  1  0.086624  0.706532  0.622376  1
  Ho  Ho15  1  0.084999  0.293232  0.123569  1
  Ho  Ho16  1  0.999337  0.001112  0.499534  1
  Ho  Ho17  1  0.998751  0.000483  0.000601  1
  Ho  Ho18  1  0.500107  0.500320  0.000163  1
  Ho  Ho19  1  0.499746  0.499912  0.499889  1
  Ru  Ru20  1  0.848073  0.151917  0.250054  1
  Ru  Ru21  1  0.500051  0.000051  0.122412  1
  Ru  Ru22  1  0.499767  0.999709  0.623114  1
  Ru  Ru23  1  0.000173  0.500472  0.877054  1
  Ru  Ru24  1  0.999870  0.500130  0.377399  1
  Rh  Rh25  1  0.847168  0.846654  0.749799  1
  Rh  Rh26  1  0.153110  0.152927  0.750843  1
  Rh  Rh27  1  0.152656  0.846911  0.249663  1
  Rh  Rh28  1  0.651665  0.348335  0.749943  1
  Rh  Rh29  1  0.652596  0.652184  0.249461  1
  Rh  Rh30  1  0.347838  0.347680  0.250359  1
  Rh  Rh31  1  0.347702  0.652368  0.750084  1
