# generated using pymatgen
data_Er2Lu6Mn(B8Rh)3
_symmetry_space_group_name_H-M   'P 1'
_cell_length_a   3.58039900
_cell_length_b   9.04121839
_cell_length_c   11.39421911
_cell_angle_alpha   90.12032986
_cell_angle_beta   90.00000000
_cell_angle_gamma   90.00000000
_symmetry_Int_Tables_number   1
_chemical_formula_structural   Er2Lu6Mn(B8Rh)3
_chemical_formula_sum   'Er2 Lu6 Mn1 B24 Rh3'
_cell_volume   368.84338239
_cell_formula_units_Z   1
loop_
 _symmetry_equiv_pos_site_id
 _symmetry_equiv_pos_as_xyz
  1  'x, y, z'
loop_
 _atom_site_type_symbol
 _atom_site_label
 _atom_site_symmetry_multiplicity
 _atom_site_fract_x
 _atom_site_fract_y
 _atom_site_fract_z
 _atom_site_occupancy
  Er  Er0  1  0.500000  0.317097  0.409414  1
  Er  Er1  1  0.500000  0.678826  0.585832  1
  Lu  Lu2  1  0.500000  0.178257  0.918783  1
  Lu  Lu3  1  0.500000  0.826413  0.087486  1
  Lu  Lu4  1  0.500000  0.439411  0.126246  1
  Lu  Lu5  1  0.500000  0.555941  0.874193  1
  Lu  Lu6  1  0.500000  0.056303  0.626976  1
  Lu  Lu7  1  0.500000  0.947407  0.370685  1
  Mn  Mn8  1  0.500000  0.138351  0.179570  1
  B  B9  1  0.000000  0.105893  0.471075  1
  B  B10  1  0.000000  0.894129  0.528953  1
  B  B11  1  0.000000  0.392350  0.970568  1
  B  B12  1  0.000000  0.608141  0.029534  1
  B  B13  1  0.000000  0.130973  0.313526  1
  B  B14  1  0.000000  0.868498  0.683213  1
  B  B15  1  0.000000  0.367954  0.817643  1
  B  B16  1  0.000000  0.631592  0.182967  1
  B  B17  1  0.000000  0.054398  0.067708  1
  B  B18  1  0.000000  0.947755  0.935338  1
  B  B19  1  0.000000  0.446064  0.564954  1
  B  B20  1  0.000000  0.552984  0.433711  1
  B  B21  1  0.000000  0.480894  0.286205  1
  B  B22  1  0.000000  0.518784  0.713305  1
  B  B23  1  0.000000  0.019741  0.787930  1
  B  B24  1  0.000000  0.984375  0.211975  1
  B  B25  1  0.000000  0.247109  0.081671  1
  B  B26  1  0.000000  0.750367  0.921999  1
  B  B27  1  0.000000  0.249376  0.578935  1
  B  B28  1  0.000000  0.750892  0.419865  1
  B  B29  1  0.000000  0.290601  0.233623  1
  B  B30  1  0.000000  0.706502  0.764331  1
  B  B31  1  0.000000  0.206685  0.736944  1
  B  B32  1  0.000000  0.794048  0.264200  1
  Rh  Rh33  1  0.500000  0.861502  0.821682  1
  Rh  Rh34  1  0.500000  0.361234  0.679034  1
  Rh  Rh35  1  0.500000  0.639155  0.319926  1
