# generated using pymatgen
data_Y3Pa(FeB4)4
_symmetry_space_group_name_H-M   'P 1'
_cell_length_a   3.39834600
_cell_length_b   5.90536242
_cell_length_c   11.43413282
_cell_angle_alpha   89.95666770
_cell_angle_beta   90.00000000
_cell_angle_gamma   90.00000000
_symmetry_Int_Tables_number   1
_chemical_formula_structural   Y3Pa(FeB4)4
_chemical_formula_sum   'Y3 Pa1 Fe4 B16'
_cell_volume   229.46542595
_cell_formula_units_Z   1
loop_
 _symmetry_equiv_pos_site_id
 _symmetry_equiv_pos_as_xyz
  1  'x, y, z'
loop_
 _atom_site_type_symbol
 _atom_site_label
 _atom_site_symmetry_multiplicity
 _atom_site_fract_x
 _atom_site_fract_y
 _atom_site_fract_z
 _atom_site_occupancy
  Y  Y0  1  0.500000  0.627441  0.848177  1
  Y  Y1  1  0.500000  0.126378  0.650324  1
  Y  Y2  1  0.500000  0.873586  0.351841  1
  Pa  Pa3  1  0.500000  0.373013  0.150054  1
  Fe  Fe4  1  0.500000  0.367803  0.409705  1
  Fe  Fe5  1  0.500000  0.631479  0.588106  1
  Fe  Fe6  1  0.500000  0.134990  0.913063  1
  Fe  Fe7  1  0.500000  0.866327  0.090795  1
  B  B8  1  0.000000  0.109792  0.045068  1
  B  B9  1  0.000000  0.888262  0.953053  1
  B  B10  1  0.000000  0.388697  0.545857  1
  B  B11  1  0.000000  0.612103  0.455111  1
  B  B12  1  0.000000  0.139829  0.468063  1
  B  B13  1  0.000000  0.861103  0.532486  1
  B  B14  1  0.000000  0.360089  0.966450  1
  B  B15  1  0.000000  0.639314  0.032056  1
  B  B16  1  0.000000  0.022975  0.190301  1
  B  B17  1  0.000000  0.975789  0.809338  1
  B  B18  1  0.000000  0.475308  0.690055  1
  B  B19  1  0.000000  0.525072  0.310920  1
  B  B20  1  0.000000  0.218561  0.316305  1
  B  B21  1  0.000000  0.781780  0.683418  1
  B  B22  1  0.000000  0.281189  0.815037  1
  B  B23  1  0.000000  0.719119  0.184417  1
