# generated using pymatgen
data_Nd3Ho3U2O14
_symmetry_space_group_name_H-M   'P 1'
_cell_length_a   6.64764516
_cell_length_b   6.65083813
_cell_length_c   7.80422500
_cell_angle_alpha   106.95754906
_cell_angle_beta   89.85889026
_cell_angle_gamma   99.04919606
_symmetry_Int_Tables_number   1
_chemical_formula_structural   Nd3Ho3U2O14
_chemical_formula_sum   'Nd3 Ho3 U2 O14'
_cell_volume   325.58932997
_cell_formula_units_Z   1
loop_
 _symmetry_equiv_pos_site_id
 _symmetry_equiv_pos_as_xyz
  1  'x, y, z'
loop_
 _atom_site_type_symbol
 _atom_site_label
 _atom_site_symmetry_multiplicity
 _atom_site_fract_x
 _atom_site_fract_y
 _atom_site_fract_z
 _atom_site_occupancy
  Nd  Nd0  1  0.727514  0.460020  0.114244  1
  Nd  Nd1  1  0.738470  0.481994  0.619383  1
  Nd  Nd2  1  0.259595  0.519675  0.385714  1
  Ho  Ho3  1  0.463618  0.007713  0.252970  1
  Ho  Ho4  1  0.534956  0.990533  0.747223  1
  Ho  Ho5  1  0.272584  0.541820  0.884049  1
  U  U6  1  0.001777  0.002799  0.502035  1
  U  U7  1  0.003491  0.999884  0.998344  1
  O  O8  1  0.441318  0.655565  0.161857  1
  O  O9  1  0.539973  0.342158  0.830988  1
  O  O10  1  0.302372  0.920503  0.949593  1
  O  O11  1  0.702038  0.074314  0.051891  1
  O  O12  1  0.296945  0.927662  0.516688  1
  O  O13  1  0.706259  0.072084  0.482515  1
  O  O14  1  0.545885  0.358995  0.344352  1
  O  O15  1  0.448896  0.641304  0.663512  1
  O  O16  1  0.933705  0.670469  0.952290  1
  O  O17  1  0.077953  0.325460  0.033347  1
  O  O18  1  0.070791  0.346971  0.625528  1
  O  O19  1  0.933264  0.657672  0.382925  1
  O  O20  1  0.861831  0.905741  0.724419  1
  O  O21  1  0.136765  0.096663  0.276131  1
