# generated using pymatgen
data_InCu(RhS2)4
_symmetry_space_group_name_H-M   'P 1'
_cell_length_a   7.15657050
_cell_length_b   7.15657092
_cell_length_c   7.15657000
_cell_angle_alpha   60.00000427
_cell_angle_beta   60.00000231
_cell_angle_gamma   60.00000350
_symmetry_Int_Tables_number   1
_chemical_formula_structural   InCu(RhS2)4
_chemical_formula_sum   'In1 Cu1 Rh4 S8'
_cell_volume   259.17904919
_cell_formula_units_Z   1
loop_
 _symmetry_equiv_pos_site_id
 _symmetry_equiv_pos_as_xyz
  1  'x, y, z'
loop_
 _atom_site_type_symbol
 _atom_site_label
 _atom_site_symmetry_multiplicity
 _atom_site_fract_x
 _atom_site_fract_y
 _atom_site_fract_z
 _atom_site_occupancy
  In  In0  1  0.750000  0.750000  0.750000  1
  Cu  Cu1  1  0.500000  0.500000  0.500000  1
  Rh  Rh2  1  0.127207  0.127207  0.618379  1
  Rh  Rh3  1  0.127207  0.618379  0.127207  1
  Rh  Rh4  1  0.618379  0.127207  0.127207  1
  Rh  Rh5  1  0.127207  0.127207  0.127207  1
  S  S6  1  0.892313  0.323059  0.892313  1
  S  S7  1  0.362975  0.362975  0.911077  1
  S  S8  1  0.362975  0.362975  0.362975  1
  S  S9  1  0.911077  0.362975  0.362975  1
  S  S10  1  0.892313  0.892313  0.892313  1
  S  S11  1  0.323059  0.892313  0.892313  1
  S  S12  1  0.362975  0.911077  0.362975  1
  S  S13  1  0.892313  0.892313  0.323059  1
