# generated using pymatgen
data_Ac2TlRh2
_symmetry_space_group_name_H-M   'P 1'
_cell_length_a   7.96464600
_cell_length_b   7.96464600
_cell_length_c   4.10603800
_cell_angle_alpha   90.00000000
_cell_angle_beta   90.00000000
_cell_angle_gamma   90.00000000
_symmetry_Int_Tables_number   1
_chemical_formula_structural   Ac2TlRh2
_chemical_formula_sum   'Ac4 Tl2 Rh4'
_cell_volume   260.46892628
_cell_formula_units_Z   2
loop_
 _symmetry_equiv_pos_site_id
 _symmetry_equiv_pos_as_xyz
  1  'x, y, z'
loop_
 _atom_site_type_symbol
 _atom_site_label
 _atom_site_symmetry_multiplicity
 _atom_site_fract_x
 _atom_site_fract_y
 _atom_site_fract_z
 _atom_site_occupancy
  Ac  Ac0  1  0.327743  0.172257  0.499999  1
  Ac  Ac1  1  0.827743  0.327743  0.499999  1
  Ac  Ac2  1  0.172257  0.672256  0.499999  1
  Ac  Ac3  1  0.672256  0.827743  0.499999  1
  Tl  Tl4  1  0.000000  0.000000  0.000000  1
  Tl  Tl5  1  0.500000  0.500000  0.000000  1
  Rh  Rh6  1  0.627813  0.127813  0.000000  1
  Rh  Rh7  1  0.127813  0.372187  0.000000  1
  Rh  Rh8  1  0.872188  0.627813  0.000000  1
  Rh  Rh9  1  0.372187  0.872188  0.000000  1
