# generated using pymatgen
data_Ho5Lu11Cd4NiRu3
_symmetry_space_group_name_H-M   'P 1'
_cell_length_a   9.43025249
_cell_length_b   9.48362666
_cell_length_c   9.48362740
_cell_angle_alpha   59.96273799
_cell_angle_beta   59.73202452
_cell_angle_gamma   59.73202889
_symmetry_Int_Tables_number   1
_chemical_formula_structural   Ho5Lu11Cd4NiRu3
_chemical_formula_sum   'Ho5 Lu11 Cd4 Ni1 Ru3'
_cell_volume   597.12438392
_cell_formula_units_Z   1
loop_
 _symmetry_equiv_pos_site_id
 _symmetry_equiv_pos_as_xyz
  1  'x, y, z'
loop_
 _atom_site_type_symbol
 _atom_site_label
 _atom_site_symmetry_multiplicity
 _atom_site_fract_x
 _atom_site_fract_y
 _atom_site_fract_z
 _atom_site_occupancy
  Ho  Ho0  1  0.558045  0.938854  0.938854  1
  Ho  Ho1  1  0.558959  0.937794  0.564315  1
  Ho  Ho2  1  0.939518  0.559738  0.939680  1
  Ho  Ho3  1  0.558959  0.564315  0.937794  1
  Ho  Ho4  1  0.939518  0.939680  0.559738  1
  Lu  Lu5  1  0.349722  0.345983  0.345983  1
  Lu  Lu6  1  0.350865  0.345111  0.958532  1
  Lu  Lu7  1  0.350865  0.958532  0.345111  1
  Lu  Lu8  1  0.959272  0.347211  0.347211  1
  Lu  Lu9  1  0.812051  0.187699  0.187699  1
  Lu  Lu10  1  0.186533  0.812995  0.812995  1
  Lu  Lu11  1  0.186619  0.812620  0.187829  1
  Lu  Lu12  1  0.811931  0.188418  0.812353  1
  Lu  Lu13  1  0.186619  0.187829  0.812620  1
  Lu  Lu14  1  0.811931  0.812353  0.188418  1
  Lu  Lu15  1  0.939277  0.560144  0.560144  1
  Cd  Cd16  1  0.580127  0.580300  0.580300  1
  Cd  Cd17  1  0.578590  0.580567  0.260541  1
  Cd  Cd18  1  0.578590  0.260541  0.580567  1
  Cd  Cd19  1  0.257320  0.580445  0.580445  1
  Ni  Ni20  1  0.577539  0.140804  0.140804  1
  Ru  Ru21  1  0.142220  0.141103  0.141103  1
  Ru  Ru22  1  0.142464  0.141415  0.575548  1
  Ru  Ru23  1  0.142464  0.575548  0.141415  1
