# generated using pymatgen
data_La2Tb3YRh18
_symmetry_space_group_name_H-M   'P 1'
_cell_length_a   5.31736101
_cell_length_b   5.31621231
_cell_length_c   17.56523000
_cell_angle_alpha   89.99918517
_cell_angle_beta   89.99910379
_cell_angle_gamma   119.99940581
_symmetry_Int_Tables_number   1
_chemical_formula_structural   La2Tb3YRh18
_chemical_formula_sum   'La2 Tb3 Y1 Rh18'
_cell_volume   430.01691151
_cell_formula_units_Z   1
loop_
 _symmetry_equiv_pos_site_id
 _symmetry_equiv_pos_as_xyz
  1  'x, y, z'
loop_
 _atom_site_type_symbol
 _atom_site_label
 _atom_site_symmetry_multiplicity
 _atom_site_fract_x
 _atom_site_fract_y
 _atom_site_fract_z
 _atom_site_occupancy
  La  La0  1  0.333339  0.666674  0.750004  1
  La  La1  1  0.666661  0.333338  0.249981  1
  Tb  Tb2  1  0.333336  0.666659  0.958378  1
  Tb  Tb3  1  0.666662  0.333338  0.041622  1
  Tb  Tb4  1  0.666674  0.333337  0.458388  1
  Y  Y5  1  0.333338  0.666666  0.541599  1
  Rh  Rh6  1  0.167232  0.832777  0.375125  1
  Rh  Rh7  1  0.167236  0.334481  0.375114  1
  Rh  Rh8  1  0.665528  0.832775  0.375118  1
  Rh  Rh9  1  0.832769  0.167215  0.624873  1
  Rh  Rh10  1  0.832777  0.665523  0.624881  1
  Rh  Rh11  1  0.334467  0.167229  0.624882  1
  Rh  Rh12  1  0.832775  0.167221  0.875146  1
  Rh  Rh13  1  0.832769  0.665520  0.875135  1
  Rh  Rh14  1  0.334478  0.167234  0.875139  1
  Rh  Rh15  1  0.167223  0.832770  0.124860  1
  Rh  Rh16  1  0.167228  0.334481  0.124868  1
  Rh  Rh17  1  0.665526  0.832771  0.124864  1
  Rh  Rh18  1  0.333322  0.666740  0.250013  1
  Rh  Rh19  1  0.666667  0.333252  0.749964  1
  Rh  Rh20  1  0.999993  0.999924  0.250020  1
  Rh  Rh21  1  0.000004  0.000071  0.749966  1
  Rh  Rh22  1  0.000003  0.000007  0.500055  1
  Rh  Rh23  1  0.999993  0.999995  0.000004  1
