# generated using pymatgen
data_TiNb9(GaAs2)2
_symmetry_space_group_name_H-M   'P 1'
_cell_length_a   5.15484604
_cell_length_b   7.64990666
_cell_length_c   7.64990721
_cell_angle_alpha   83.48113946
_cell_angle_beta   70.29507928
_cell_angle_gamma   70.29507222
_symmetry_Int_Tables_number   1
_chemical_formula_structural   TiNb9(GaAs2)2
_chemical_formula_sum   'Ti1 Nb9 Ga2 As4'
_cell_volume   267.37126919
_cell_formula_units_Z   1
loop_
 _symmetry_equiv_pos_site_id
 _symmetry_equiv_pos_as_xyz
  1  'x, y, z'
loop_
 _atom_site_type_symbol
 _atom_site_label
 _atom_site_symmetry_multiplicity
 _atom_site_fract_x
 _atom_site_fract_y
 _atom_site_fract_z
 _atom_site_occupancy
  Ti  Ti0  1  0.250000  0.499620  0.500380  1
  Nb  Nb1  1  0.724487  0.853099  0.699558  1
  Nb  Nb2  1  0.276524  0.146899  0.300465  1
  Nb  Nb3  1  0.775513  0.300442  0.146901  1
  Nb  Nb4  1  0.223476  0.699535  0.853101  1
  Nb  Nb5  1  0.578154  0.699378  0.145963  1
  Nb  Nb6  1  0.420776  0.300732  0.853964  1
  Nb  Nb7  1  0.079224  0.146036  0.699268  1
  Nb  Nb8  1  0.921846  0.854037  0.300622  1
  Nb  Nb9  1  0.750000  0.500132  0.499868  1
  Ga  Ga10  1  0.250000  0.999823  0.000177  1
  Ga  Ga11  1  0.750000  0.000308  0.999692  1
  As  As12  1  0.171693  0.500253  0.172945  1
  As  As13  1  0.843996  0.499776  0.827124  1
  As  As14  1  0.328307  0.827055  0.499747  1
  As  As15  1  0.656004  0.172876  0.500224  1
