# generated using pymatgen
data_Sr8DyY3(GaO5)4
_symmetry_space_group_name_H-M   'P 1'
_cell_length_a   5.97011000
_cell_length_b   7.63947456
_cell_length_c   12.49462100
_cell_angle_alpha   91.38893364
_cell_angle_beta   90.00053469
_cell_angle_gamma   89.99996889
_symmetry_Int_Tables_number   1
_chemical_formula_structural   Sr8DyY3(GaO5)4
_chemical_formula_sum   'Sr8 Dy1 Y3 Ga4 O20'
_cell_volume   569.69353465
_cell_formula_units_Z   1
loop_
 _symmetry_equiv_pos_site_id
 _symmetry_equiv_pos_as_xyz
  1  'x, y, z'
loop_
 _atom_site_type_symbol
 _atom_site_label
 _atom_site_symmetry_multiplicity
 _atom_site_fract_x
 _atom_site_fract_y
 _atom_site_fract_z
 _atom_site_occupancy
  Sr  Sr0  1  0.773074  0.486897  0.330295  1
  Sr  Sr1  1  0.726922  0.986906  0.830298  1
  Sr  Sr2  1  0.226929  0.513086  0.669704  1
  Sr  Sr3  1  0.273074  0.013097  0.169711  1
  Sr  Sr4  1  0.772496  0.985570  0.367332  1
  Sr  Sr5  1  0.727499  0.485558  0.867333  1
  Sr  Sr6  1  0.227512  0.014449  0.632667  1
  Sr  Sr7  1  0.272494  0.514438  0.132672  1
  Dy  Dy8  1  0.754830  0.270863  0.619830  1
  Y  Y9  1  0.745201  0.770901  0.119783  1
  Y  Y10  1  0.245202  0.729098  0.380217  1
  Y  Y11  1  0.254812  0.229098  0.880227  1
  Ga  Ga12  1  0.719925  0.742313  0.580058  1
  Ga  Ga13  1  0.780068  0.242337  0.080070  1
  Ga  Ga14  1  0.280089  0.257665  0.419939  1
  Ga  Ga15  1  0.219932  0.757662  0.919936  1
  O  O16  1  0.790025  0.970673  0.628939  1
  O  O17  1  0.709949  0.470440  0.128937  1
  O  O18  1  0.209943  0.029551  0.371060  1
  O  O19  1  0.290047  0.529559  0.871061  1
  O  O20  1  0.716720  0.067640  0.176973  1
  O  O21  1  0.783267  0.567483  0.676954  1
  O  O22  1  0.283277  0.932359  0.823025  1
  O  O23  1  0.216713  0.432365  0.323023  1
  O  O24  1  0.541665  0.747566  0.275834  1
  O  O25  1  0.958198  0.247569  0.775735  1
  O  O26  1  0.458532  0.252437  0.724111  1
  O  O27  1  0.041664  0.752434  0.224164  1
  O  O28  1  0.597012  0.213048  0.959939  1
  O  O29  1  0.902982  0.713052  0.459948  1
  O  O30  1  0.402987  0.786951  0.040059  1
  O  O31  1  0.096883  0.286936  0.540095  1
  O  O32  1  0.089445  0.237268  0.046965  1
  O  O33  1  0.410565  0.737271  0.546971  1
  O  O34  1  0.910552  0.762732  0.953034  1
  O  O35  1  0.589514  0.262724  0.453101  1
