# generated using pymatgen
data_YEr3Tm4(WO6)4
_symmetry_space_group_name_H-M   'P 1'
_cell_length_a   5.35645800
_cell_length_b   7.65092996
_cell_length_c   11.38459309
_cell_angle_alpha   75.35937799
_cell_angle_beta   90.00000000
_cell_angle_gamma   90.00000000
_symmetry_Int_Tables_number   1
_chemical_formula_structural   YEr3Tm4(WO6)4
_chemical_formula_sum   'Y1 Er3 Tm4 W4 O24'
_cell_volume   451.41291346
_cell_formula_units_Z   1
loop_
 _symmetry_equiv_pos_site_id
 _symmetry_equiv_pos_as_xyz
  1  'x, y, z'
loop_
 _atom_site_type_symbol
 _atom_site_label
 _atom_site_symmetry_multiplicity
 _atom_site_fract_x
 _atom_site_fract_y
 _atom_site_fract_z
 _atom_site_occupancy
  Y  Y0  1  0.684379  0.500000  0.250000  1
  Er  Er1  1  0.260299  0.000000  0.750000  1
  Er  Er2  1  0.741080  0.000000  0.250000  1
  Er  Er3  1  0.315565  0.500000  0.750000  1
  Tm  Tm4  1  0.184456  0.795611  0.077853  1
  Tm  Tm5  1  0.184456  0.204389  0.422147  1
  Tm  Tm6  1  0.816070  0.205283  0.921249  1
  Tm  Tm7  1  0.816070  0.794717  0.578751  1
  W  W8  1  0.744466  0.723667  0.884955  1
  W  W9  1  0.255468  0.724339  0.385974  1
  W  W10  1  0.744466  0.276333  0.615045  1
  W  W11  1  0.255468  0.275661  0.114026  1
  O  O12  1  0.852755  0.365132  0.451629  1
  O  O13  1  0.464304  0.847410  0.931009  1
  O  O14  1  0.852755  0.634868  0.048371  1
  O  O15  1  0.020544  0.289643  0.729351  1
  O  O16  1  0.980962  0.286351  0.229896  1
  O  O17  1  0.149363  0.364418  0.949847  1
  O  O18  1  0.638241  0.488406  0.885461  1
  O  O19  1  0.536883  0.152965  0.068743  1
  O  O20  1  0.149363  0.635582  0.550153  1
  O  O21  1  0.020544  0.710357  0.770649  1
  O  O22  1  0.457383  0.207042  0.273973  1
  O  O23  1  0.042428  0.940938  0.396750  1
  O  O24  1  0.464304  0.152590  0.568991  1
  O  O25  1  0.980962  0.713649  0.270104  1
  O  O26  1  0.956936  0.058437  0.604936  1
  O  O27  1  0.541422  0.208266  0.774210  1
  O  O28  1  0.541422  0.791734  0.725790  1
  O  O29  1  0.042428  0.059062  0.103250  1
  O  O30  1  0.638241  0.511594  0.614539  1
  O  O31  1  0.357660  0.511689  0.113299  1
  O  O32  1  0.457383  0.792958  0.226027  1
  O  O33  1  0.357660  0.488311  0.386701  1
  O  O34  1  0.536883  0.847035  0.431257  1
  O  O35  1  0.956936  0.941563  0.895064  1
