# generated using pymatgen
data_La6BiO12
_symmetry_space_group_name_H-M   'P 1'
_cell_length_a   6.92988607
_cell_length_b   6.92988624
_cell_length_c   6.92988668
_cell_angle_alpha   98.77187184
_cell_angle_beta   98.77186912
_cell_angle_gamma   98.77188378
_symmetry_Int_Tables_number   1
_chemical_formula_structural   La6BiO12
_chemical_formula_sum   'La6 Bi1 O12'
_cell_volume   319.75069031
_cell_formula_units_Z   1
loop_
 _symmetry_equiv_pos_site_id
 _symmetry_equiv_pos_as_xyz
  1  'x, y, z'
loop_
 _atom_site_type_symbol
 _atom_site_label
 _atom_site_symmetry_multiplicity
 _atom_site_fract_x
 _atom_site_fract_y
 _atom_site_fract_z
 _atom_site_occupancy
  La  La0  1  0.301338  0.605472  0.139751  1
  La  La1  1  0.605472  0.139751  0.301338  1
  La  La2  1  0.394528  0.860249  0.698662  1
  La  La3  1  0.698662  0.394528  0.860249  1
  La  La4  1  0.860249  0.698662  0.394528  1
  La  La5  1  0.139751  0.301338  0.605472  1
  Bi  Bi6  1  0.000000  0.000000  0.000000  1
  O  O7  1  0.437586  0.177483  0.592419  1
  O  O8  1  0.929359  0.695653  0.045308  1
  O  O9  1  0.177483  0.592419  0.437586  1
  O  O10  1  0.822517  0.407581  0.562414  1
  O  O11  1  0.562414  0.822517  0.407581  1
  O  O12  1  0.592419  0.437586  0.177483  1
  O  O13  1  0.407581  0.562414  0.822517  1
  O  O14  1  0.954692  0.070641  0.304347  1
  O  O15  1  0.045308  0.929359  0.695653  1
  O  O16  1  0.695653  0.045308  0.929359  1
  O  O17  1  0.070641  0.304347  0.954692  1
  O  O18  1  0.304347  0.954692  0.070641  1
