# generated using pymatgen
data_PrU9S20
_symmetry_space_group_name_H-M   'P 1'
_cell_length_a   10.17921141
_cell_length_b   10.17573629
_cell_length_c   6.30198867
_cell_angle_alpha   89.86770820
_cell_angle_beta   89.83833728
_cell_angle_gamma   89.85932511
_symmetry_Int_Tables_number   1
_chemical_formula_structural   PrU9S20
_chemical_formula_sum   'Pr1 U9 S20'
_cell_volume   652.75981014
_cell_formula_units_Z   1
loop_
 _symmetry_equiv_pos_site_id
 _symmetry_equiv_pos_as_xyz
  1  'x, y, z'
loop_
 _atom_site_type_symbol
 _atom_site_label
 _atom_site_symmetry_multiplicity
 _atom_site_fract_x
 _atom_site_fract_y
 _atom_site_fract_z
 _atom_site_occupancy
  Pr  Pr0  1  0.839620  0.150906  0.248211  1
  U  U1  1  0.651722  0.657999  0.251548  1
  U  U2  1  0.349337  0.339736  0.248635  1
  U  U3  1  0.159450  0.846576  0.250237  1
  U  U4  1  0.497039  0.998971  0.857617  1
  U  U5  1  0.340655  0.651434  0.751440  1
  U  U6  1  0.152747  0.160661  0.749208  1
  U  U7  1  0.848465  0.838414  0.751637  1
  U  U8  1  0.659618  0.349119  0.750231  1
  U  U9  1  0.000588  0.501207  0.141265  1
  S  S10  1  0.707813  0.088175  0.641097  1
  S  S11  1  0.589799  0.788970  0.619082  1
  S  S12  1  0.408830  0.207841  0.617673  1
  S  S13  1  0.293632  0.908905  0.617886  1
  S  S14  1  0.704334  0.904338  0.101362  1
  S  S15  1  0.578227  0.210386  0.103566  1
  S  S16  1  0.409693  0.791076  0.108554  1
  S  S17  1  0.288787  0.088997  0.108118  1
  S  S18  1  0.500885  0.502066  0.999911  1
  S  S19  1  0.005754  0.995780  0.994002  1
  S  S20  1  0.210949  0.411585  0.893517  1
  S  S21  1  0.089067  0.707124  0.891168  1
  S  S22  1  0.914592  0.298186  0.876775  1
  S  S23  1  0.791095  0.589631  0.894296  1
  S  S24  1  0.498331  0.498306  0.500125  1
  S  S25  1  0.005143  0.994378  0.506469  1
  S  S26  1  0.208693  0.591713  0.381408  1
  S  S27  1  0.093782  0.295870  0.384617  1
  S  S28  1  0.910463  0.710874  0.377954  1
  S  S29  1  0.790890  0.420773  0.382388  1
