# generated using pymatgen
data_Ti4CrGe3C
_symmetry_space_group_name_H-M   'P 1'
_cell_length_a   7.49081800
_cell_length_b   7.49081827
_cell_length_c   5.12603400
_cell_angle_alpha   90.00000000
_cell_angle_beta   90.00000000
_cell_angle_gamma   119.99999879
_symmetry_Int_Tables_number   1
_chemical_formula_structural   Ti4CrGe3C
_chemical_formula_sum   'Ti8 Cr2 Ge6 C2'
_cell_volume   249.09822114
_cell_formula_units_Z   2
loop_
 _symmetry_equiv_pos_site_id
 _symmetry_equiv_pos_as_xyz
  1  'x, y, z'
loop_
 _atom_site_type_symbol
 _atom_site_label
 _atom_site_symmetry_multiplicity
 _atom_site_fract_x
 _atom_site_fract_y
 _atom_site_fract_z
 _atom_site_occupancy
  Ti  Ti0  1  0.666667  0.333333  0.500000  1
  Ti  Ti1  1  0.333333  0.666667  0.500000  1
  Ti  Ti2  1  0.229677  0.000000  0.252333  1
  Ti  Ti3  1  0.770323  0.000000  0.747667  1
  Ti  Ti4  1  0.000000  0.229677  0.252333  1
  Ti  Ti5  1  0.000000  0.770323  0.747667  1
  Ti  Ti6  1  0.770323  0.770323  0.252333  1
  Ti  Ti7  1  0.229677  0.229677  0.747667  1
  Cr  Cr8  1  0.333333  0.666667  0.000000  1
  Cr  Cr9  1  0.666667  0.333333  0.000000  1
  Ge  Ge10  1  0.593491  0.000000  0.237463  1
  Ge  Ge11  1  0.406509  0.000000  0.762537  1
  Ge  Ge12  1  0.000000  0.593491  0.237463  1
  Ge  Ge13  1  0.000000  0.406509  0.762537  1
  Ge  Ge14  1  0.406509  0.406509  0.237463  1
  Ge  Ge15  1  0.593491  0.593491  0.762537  1
  C  C16  1  0.000000  0.000000  0.000000  1
  C  C17  1  0.000000  0.000000  0.500000  1
