# generated using pymatgen
data_Sm4Co17(P4Ru)3
_symmetry_space_group_name_H-M   'P 1'
_cell_length_a   3.71368900
_cell_length_b   10.46040015
_cell_length_c   11.84245149
_cell_angle_alpha   90.07386667
_cell_angle_beta   90.00000000
_cell_angle_gamma   90.00000000
_symmetry_Int_Tables_number   1
_chemical_formula_structural   Sm4Co17(P4Ru)3
_chemical_formula_sum   'Sm4 Co17 P12 Ru3'
_cell_volume   460.03945779
_cell_formula_units_Z   1
loop_
 _symmetry_equiv_pos_site_id
 _symmetry_equiv_pos_as_xyz
  1  'x, y, z'
loop_
 _atom_site_type_symbol
 _atom_site_label
 _atom_site_symmetry_multiplicity
 _atom_site_fract_x
 _atom_site_fract_y
 _atom_site_fract_z
 _atom_site_occupancy
  Sm  Sm0  1  0.250000  0.583327  0.701195  1
  Sm  Sm1  1  0.250000  0.914036  0.203756  1
  Sm  Sm2  1  0.750000  0.412869  0.296032  1
  Sm  Sm3  1  0.750000  0.086451  0.796567  1
  Co  Co4  1  0.750000  0.216006  0.507969  1
  Co  Co5  1  0.250000  0.405670  0.489143  1
  Co  Co6  1  0.250000  0.092058  0.990564  1
  Co  Co7  1  0.750000  0.591819  0.508410  1
  Co  Co8  1  0.750000  0.908419  0.009544  1
  Co  Co9  1  0.250000  0.219579  0.176460  1
  Co  Co10  1  0.250000  0.278984  0.675802  1
  Co  Co11  1  0.750000  0.779624  0.823653  1
  Co  Co12  1  0.750000  0.721143  0.323883  1
  Co  Co13  1  0.250000  0.886992  0.701015  1
  Co  Co14  1  0.250000  0.612819  0.202210  1
  Co  Co15  1  0.750000  0.115533  0.301537  1
  Co  Co16  1  0.750000  0.386533  0.798019  1
  Co  Co17  1  0.250000  0.466233  0.931391  1
  Co  Co18  1  0.250000  0.034551  0.432583  1
  Co  Co19  1  0.750000  0.534427  0.068963  1
  Co  Co20  1  0.750000  0.968108  0.568137  1
  P  P21  1  0.250000  0.419052  0.110726  1
  P  P22  1  0.250000  0.082624  0.610318  1
  P  P23  1  0.750000  0.580415  0.888841  1
  P  P24  1  0.750000  0.920440  0.389189  1
  P  P25  1  0.250000  0.274741  0.866521  1
  P  P26  1  0.250000  0.226619  0.369963  1
  P  P27  1  0.750000  0.725523  0.133155  1
  P  P28  1  0.750000  0.774977  0.632768  1
  P  P29  1  0.250000  0.596693  0.391785  1
  P  P30  1  0.250000  0.902657  0.891067  1
  P  P31  1  0.750000  0.395984  0.606047  1
  P  P32  1  0.750000  0.098544  0.110289  1
  Ru  Ru33  1  0.250000  0.716175  0.992317  1
  Ru  Ru34  1  0.250000  0.785628  0.491447  1
  Ru  Ru35  1  0.750000  0.284747  0.008737  1
