# generated using pymatgen
data_Er3TmB16Os3Ru
_symmetry_space_group_name_H-M   'P 1'
_cell_length_a   3.55032800
_cell_length_b   5.93999010
_cell_length_c   11.48874504
_cell_angle_alpha   90.01542659
_cell_angle_beta   90.00000000
_cell_angle_gamma   90.00000000
_symmetry_Int_Tables_number   1
_chemical_formula_structural   Er3TmB16Os3Ru
_chemical_formula_sum   'Er3 Tm1 B16 Os3 Ru1'
_cell_volume   242.28513792
_cell_formula_units_Z   1
loop_
 _symmetry_equiv_pos_site_id
 _symmetry_equiv_pos_as_xyz
  1  'x, y, z'
loop_
 _atom_site_type_symbol
 _atom_site_label
 _atom_site_symmetry_multiplicity
 _atom_site_fract_x
 _atom_site_fract_y
 _atom_site_fract_z
 _atom_site_occupancy
  Er  Er0  1  0.500000  0.128683  0.149706  1
  Er  Er1  1  0.500000  0.871298  0.850375  1
  Er  Er2  1  0.500000  0.629024  0.349562  1
  Tm  Tm3  1  0.500000  0.370964  0.650468  1
  B  B4  1  0.000000  0.476534  0.192109  1
  B  B5  1  0.000000  0.523017  0.807681  1
  B  B6  1  0.000000  0.976332  0.307805  1
  B  B7  1  0.000000  0.024276  0.692342  1
  B  B8  1  0.000000  0.290576  0.313636  1
  B  B9  1  0.000000  0.709194  0.686341  1
  B  B10  1  0.000000  0.790559  0.185936  1
  B  B11  1  0.000000  0.209505  0.814065  1
  B  B12  1  0.000000  0.364435  0.470379  1
  B  B13  1  0.000000  0.635511  0.529935  1
  B  B14  1  0.000000  0.864516  0.029928  1
  B  B15  1  0.000000  0.135434  0.969720  1
  B  B16  1  0.000000  0.387488  0.046962  1
  B  B17  1  0.000000  0.612441  0.952994  1
  B  B18  1  0.000000  0.887432  0.452898  1
  B  B19  1  0.000000  0.112918  0.547364  1
  Os  Os20  1  0.500000  0.142382  0.406685  1
  Os  Os21  1  0.500000  0.857693  0.593444  1
  Os  Os22  1  0.500000  0.641193  0.093215  1
  Ru  Ru23  1  0.500000  0.358596  0.906449  1
