# generated using pymatgen
data_YErSi2(Os2C)2
_symmetry_space_group_name_H-M   'P 1'
_cell_length_a   5.89727137
_cell_length_b   5.89727200
_cell_length_c   7.11693100
_cell_angle_alpha   90.00000000
_cell_angle_beta   90.00000000
_cell_angle_gamma   141.72586189
_symmetry_Int_Tables_number   1
_chemical_formula_structural   YErSi2(Os2C)2
_chemical_formula_sum   'Y1 Er1 Si2 Os4 C2'
_cell_volume   153.31462131
_cell_formula_units_Z   1
loop_
 _symmetry_equiv_pos_site_id
 _symmetry_equiv_pos_as_xyz
  1  'x, y, z'
loop_
 _atom_site_type_symbol
 _atom_site_label
 _atom_site_symmetry_multiplicity
 _atom_site_fract_x
 _atom_site_fract_y
 _atom_site_fract_z
 _atom_site_occupancy
  Y  Y0  1  0.547797  0.452203  0.250000  1
  Er  Er1  1  0.452141  0.547859  0.750000  1
  Si  Si2  1  0.268387  0.731613  0.250000  1
  Si  Si3  1  0.731860  0.268140  0.750000  1
  Os  Os4  1  0.834990  0.165010  0.057495  1
  Os  Os5  1  0.165083  0.834917  0.941235  1
  Os  Os6  1  0.165083  0.834917  0.558765  1
  Os  Os7  1  0.834990  0.165010  0.442505  1
  C  C8  1  0.999835  0.000165  0.998210  1
  C  C9  1  0.999835  0.000165  0.501790  1
