# generated using pymatgen
data_TmFe3P3Rh2
_symmetry_space_group_name_H-M   'P 1'
_cell_length_a   3.76470300
_cell_length_b   10.31256600
_cell_length_c   12.17326400
_cell_angle_alpha   90.00000000
_cell_angle_beta   90.00000000
_cell_angle_gamma   90.00000000
_symmetry_Int_Tables_number   1
_chemical_formula_structural   TmFe3P3Rh2
_chemical_formula_sum   'Tm4 Fe12 P12 Rh8'
_cell_volume   472.61173580
_cell_formula_units_Z   4
loop_
 _symmetry_equiv_pos_site_id
 _symmetry_equiv_pos_as_xyz
  1  'x, y, z'
loop_
 _atom_site_type_symbol
 _atom_site_label
 _atom_site_symmetry_multiplicity
 _atom_site_fract_x
 _atom_site_fract_y
 _atom_site_fract_z
 _atom_site_occupancy
  Tm  Tm0  1  0.250000  0.580399  0.711799  1
  Tm  Tm1  1  0.250000  0.919601  0.211799  1
  Tm  Tm2  1  0.750000  0.419601  0.288201  1
  Tm  Tm3  1  0.750000  0.080399  0.788201  1
  Fe  Fe4  1  0.250000  0.224197  0.170736  1
  Fe  Fe5  1  0.250000  0.275803  0.670736  1
  Fe  Fe6  1  0.750000  0.775803  0.829264  1
  Fe  Fe7  1  0.750000  0.724197  0.329264  1
  Fe  Fe8  1  0.250000  0.877291  0.697350  1
  Fe  Fe9  1  0.250000  0.622709  0.197350  1
  Fe  Fe10  1  0.750000  0.122709  0.302650  1
  Fe  Fe11  1  0.750000  0.377291  0.802650  1
  Fe  Fe12  1  0.250000  0.458998  0.935004  1
  Fe  Fe13  1  0.250000  0.041002  0.435004  1
  Fe  Fe14  1  0.750000  0.541002  0.064996  1
  Fe  Fe15  1  0.750000  0.958998  0.564996  1
  P  P16  1  0.250000  0.429544  0.113278  1
  P  P17  1  0.250000  0.070456  0.613278  1
  P  P18  1  0.750000  0.570456  0.886722  1
  P  P19  1  0.750000  0.929544  0.386722  1
  P  P20  1  0.250000  0.272508  0.852503  1
  P  P21  1  0.250000  0.227492  0.352503  1
  P  P22  1  0.750000  0.727492  0.147497  1
  P  P23  1  0.750000  0.772508  0.647497  1
  P  P24  1  0.250000  0.605188  0.377367  1
  P  P25  1  0.250000  0.894812  0.877367  1
  P  P26  1  0.750000  0.394812  0.622633  1
  P  P27  1  0.750000  0.105188  0.122633  1
  Rh  Rh28  1  0.250000  0.707980  0.985458  1
  Rh  Rh29  1  0.250000  0.792020  0.485458  1
  Rh  Rh30  1  0.750000  0.292020  0.014542  1
  Rh  Rh31  1  0.750000  0.207980  0.514542  1
  Rh  Rh32  1  0.250000  0.405205  0.477415  1
  Rh  Rh33  1  0.250000  0.094795  0.977415  1
  Rh  Rh34  1  0.750000  0.594795  0.522585  1
  Rh  Rh35  1  0.750000  0.905205  0.022585  1
