# generated using pymatgen
data_ZrFe12P7W
_symmetry_space_group_name_H-M   'P 1'
_cell_length_a   8.82689400
_cell_length_b   8.82689398
_cell_length_c   3.56389300
_cell_angle_alpha   90.00000000
_cell_angle_beta   90.00000000
_cell_angle_gamma   119.99999256
_symmetry_Int_Tables_number   1
_chemical_formula_structural   ZrFe12P7W
_chemical_formula_sum   'Zr1 Fe12 P7 W1'
_cell_volume   240.47566957
_cell_formula_units_Z   1
loop_
 _symmetry_equiv_pos_site_id
 _symmetry_equiv_pos_as_xyz
  1  'x, y, z'
loop_
 _atom_site_type_symbol
 _atom_site_label
 _atom_site_symmetry_multiplicity
 _atom_site_fract_x
 _atom_site_fract_y
 _atom_site_fract_z
 _atom_site_occupancy
  Zr  Zr0  1  0.000000  0.000000  0.000000  1
  Fe  Fe1  1  0.101994  0.404802  0.000000  1
  Fe  Fe2  1  0.302807  0.898006  0.000000  1
  Fe  Fe3  1  0.595198  0.697193  0.000000  1
  Fe  Fe4  1  0.823087  0.610599  0.000000  1
  Fe  Fe5  1  0.787512  0.176913  0.000000  1
  Fe  Fe6  1  0.389401  0.212488  0.000000  1
  Fe  Fe7  1  0.059245  0.770870  0.500000  1
  Fe  Fe8  1  0.711625  0.940755  0.500000  1
  Fe  Fe9  1  0.229130  0.288375  0.500000  1
  Fe  Fe10  1  0.888543  0.431371  0.500000  1
  Fe  Fe11  1  0.542828  0.111457  0.500000  1
  Fe  Fe12  1  0.568629  0.457172  0.500000  1
  P  P13  1  0.081766  0.633615  0.000000  1
  P  P14  1  0.551848  0.918234  0.000000  1
  P  P15  1  0.366385  0.448152  0.000000  1
  P  P16  1  0.785567  0.737778  0.500000  1
  P  P17  1  0.952212  0.214433  0.500000  1
  P  P18  1  0.262222  0.047788  0.500000  1
  P  P19  1  0.666667  0.333333  0.000000  1
  W  W20  1  0.333333  0.666667  0.500000  1
