# generated using pymatgen
data_Ho8Ta11NbSi16
_symmetry_space_group_name_H-M   'P 1'
_cell_length_a   7.03601119
_cell_length_b   7.03597542
_cell_length_c   12.97914406
_cell_angle_alpha   89.95572755
_cell_angle_beta   90.01467162
_cell_angle_gamma   89.96857414
_symmetry_Int_Tables_number   1
_chemical_formula_structural   Ho8Ta11NbSi16
_chemical_formula_sum   'Ho8 Ta11 Nb1 Si16'
_cell_volume   642.53483604
_cell_formula_units_Z   1
loop_
 _symmetry_equiv_pos_site_id
 _symmetry_equiv_pos_as_xyz
  1  'x, y, z'
loop_
 _atom_site_type_symbol
 _atom_site_label
 _atom_site_symmetry_multiplicity
 _atom_site_fract_x
 _atom_site_fract_y
 _atom_site_fract_z
 _atom_site_occupancy
  Ho  Ho0  1  0.342490  0.002421  0.468145  1
  Ho  Ho1  1  0.497804  0.841844  0.717986  1
  Ho  Ho2  1  0.502329  0.158083  0.218097  1
  Ho  Ho3  1  0.841967  0.497596  0.282000  1
  Ho  Ho4  1  0.157938  0.502396  0.781943  1
  Ho  Ho5  1  0.658179  0.997658  0.968066  1
  Ho  Ho6  1  0.002708  0.342021  0.531952  1
  Ho  Ho7  1  0.997593  0.658087  0.031766  1
  Ta  Ta8  1  0.328418  0.328369  0.000043  1
  Ta  Ta9  1  0.171622  0.828273  0.250043  1
  Ta  Ta10  1  0.827918  0.172422  0.750247  1
  Ta  Ta11  1  0.671034  0.671146  0.499733  1
  Ta  Ta12  1  0.152426  0.007074  0.874206  1
  Ta  Ta13  1  0.493009  0.652880  0.123994  1
  Ta  Ta14  1  0.506968  0.347208  0.624018  1
  Ta  Ta15  1  0.652775  0.493075  0.875891  1
  Ta  Ta16  1  0.347051  0.506928  0.375891  1
  Ta  Ta17  1  0.846857  0.993016  0.373851  1
  Ta  Ta18  1  0.006984  0.152774  0.126028  1
  Nb  Nb19  1  0.993707  0.847089  0.625986  1
  Si  Si20  1  0.203791  0.134458  0.681972  1
  Si  Si21  1  0.365475  0.703711  0.931529  1
  Si  Si22  1  0.634584  0.296161  0.431823  1
  Si  Si23  1  0.703776  0.365594  0.068362  1
  Si  Si24  1  0.296825  0.634241  0.568206  1
  Si  Si25  1  0.796270  0.865502  0.181567  1
  Si  Si26  1  0.134378  0.203591  0.318508  1
  Si  Si27  1  0.865256  0.796336  0.818366  1
  Si  Si28  1  0.294379  0.954316  0.063951  1
  Si  Si29  1  0.545572  0.794404  0.313862  1
  Si  Si30  1  0.453856  0.205742  0.813863  1
  Si  Si31  1  0.794368  0.545540  0.685931  1
  Si  Si32  1  0.205379  0.454444  0.186026  1
  Si  Si33  1  0.706399  0.045620  0.563932  1
  Si  Si34  1  0.954281  0.294338  0.936153  1
  Si  Si35  1  0.045635  0.705644  0.436065  1
