# generated using pymatgen
data_HgBr35
_symmetry_space_group_name_H-M   'P 1'
_cell_length_a   15.98197694
_cell_length_b   11.40028128
_cell_length_c   10.79188300
_cell_angle_alpha   88.81408278
_cell_angle_beta   66.02770512
_cell_angle_gamma   92.31545406
_symmetry_Int_Tables_number   1
_chemical_formula_structural   HgBr35
_chemical_formula_sum   'Hg1 Br35'
_cell_volume   1793.71352310
_cell_formula_units_Z   1
loop_
 _symmetry_equiv_pos_site_id
 _symmetry_equiv_pos_as_xyz
  1  'x, y, z'
loop_
 _atom_site_type_symbol
 _atom_site_label
 _atom_site_symmetry_multiplicity
 _atom_site_fract_x
 _atom_site_fract_y
 _atom_site_fract_z
 _atom_site_occupancy
  Hg  Hg0  1  0.190822  0.511449  0.454996  1
  Br  Br1  1  0.511498  0.269746  0.554821  1
  Br  Br2  1  0.738122  0.587675  0.599116  1
  Br  Br3  1  0.465708  0.689702  0.745815  1
  Br  Br4  1  0.067145  0.902919  0.836103  1
  Br  Br5  1  0.913617  0.162224  0.059142  1
  Br  Br6  1  0.631199  0.327230  0.315756  1
  Br  Br7  1  0.613811  0.320222  0.863755  1
  Br  Br8  1  0.335423  0.771128  0.698563  1
  Br  Br9  1  0.345069  0.596891  0.203920  1
  Br  Br10  1  0.674957  0.130461  0.812570  1
  Br  Br11  1  0.891835  0.557341  0.402528  1
  Br  Br12  1  0.084582  0.950510  0.596027  1
  Br  Br13  1  0.862932  0.122286  0.316133  1
  Br  Br14  1  0.959933  0.206841  0.809851  1
  Br  Br15  1  0.645309  0.052224  0.244630  1
  Br  Br16  1  0.035187  0.848306  0.085602  1
  Br  Br17  1  0.360235  0.986485  0.740477  1
  Br  Br18  1  0.876414  0.338778  0.365534  1
  Br  Br19  1  0.905383  0.926366  0.662721  1
  Br  Br20  1  0.894430  0.655392  0.766879  1
  Br  Br21  1  0.359648  0.044365  0.131165  1
  Br  Br22  1  0.245887  0.199119  0.241928  1
  Br  Br23  1  0.592327  0.612343  0.810103  1
  Br  Br24  1  0.129653  0.362697  0.328476  1
  Br  Br25  1  0.736733  0.907478  0.738349  1
  Br  Br26  1  0.912252  0.454415  0.798786  1
  Br  Br27  1  0.509865  0.052210  0.203741  1
  Br  Br28  1  0.136356  0.287037  0.700130  1
  Br  Br29  1  0.687777  0.773116  0.259599  1
  Br  Br30  1  0.861279  0.808629  0.174209  1
  Br  Br31  1  0.389734  0.200582  0.786600  1
  Br  Br32  1  0.293745  0.370707  0.572884  1
  Br  Br33  1  0.657550  0.548754  0.292324  1
  Br  Br34  1  0.149305  0.655553  0.636685  1
  Br  Br35  1  0.334276  0.808821  0.190087  1
