# generated using pymatgen
data_Sr4YbEu3Sn4
_symmetry_space_group_name_H-M   'P 1'
_cell_length_a   8.44519509
_cell_length_b   5.26106000
_cell_length_c   9.84777961
_cell_angle_alpha   90.00000000
_cell_angle_beta   89.64717033
_cell_angle_gamma   90.00000000
_symmetry_Int_Tables_number   1
_chemical_formula_structural   Sr4YbEu3Sn4
_chemical_formula_sum   'Sr4 Yb1 Eu3 Sn4'
_cell_volume   437.53522964
_cell_formula_units_Z   1
loop_
 _symmetry_equiv_pos_site_id
 _symmetry_equiv_pos_as_xyz
  1  'x, y, z'
loop_
 _atom_site_type_symbol
 _atom_site_label
 _atom_site_symmetry_multiplicity
 _atom_site_fract_x
 _atom_site_fract_y
 _atom_site_fract_z
 _atom_site_occupancy
  Sr  Sr0  1  0.978814  0.750000  0.181366  1
  Sr  Sr1  1  0.479352  0.750000  0.316018  1
  Sr  Sr2  1  0.519991  0.249999  0.684998  1
  Sr  Sr3  1  0.022662  0.249999  0.817335  1
  Yb  Yb4  1  0.349701  0.750000  0.928318  1
  Eu  Eu5  1  0.651653  0.249999  0.072145  1
  Eu  Eu6  1  0.153288  0.249999  0.427167  1
  Eu  Eu7  1  0.847283  0.750000  0.572707  1
  Sn  Sn8  1  0.260327  0.249999  0.104331  1
  Sn  Sn9  1  0.758968  0.249999  0.390749  1
  Sn  Sn10  1  0.241865  0.750000  0.612891  1
  Sn  Sn11  1  0.736097  0.750000  0.891974  1
