# generated using pymatgen
data_Zr2P3Ir3Ru
_symmetry_space_group_name_H-M   'P 1'
_cell_length_a   12.78924585
_cell_length_b   12.70030359
_cell_length_c   3.91940500
_cell_angle_alpha   90.00000000
_cell_angle_beta   90.00000000
_cell_angle_gamma   119.77021174
_symmetry_Int_Tables_number   1
_chemical_formula_structural   Zr2P3Ir3Ru
_chemical_formula_sum   'Zr8 P12 Ir12 Ru4'
_cell_volume   552.59986060
_cell_formula_units_Z   4
loop_
 _symmetry_equiv_pos_site_id
 _symmetry_equiv_pos_as_xyz
  1  'x, y, z'
loop_
 _atom_site_type_symbol
 _atom_site_label
 _atom_site_symmetry_multiplicity
 _atom_site_fract_x
 _atom_site_fract_y
 _atom_site_fract_z
 _atom_site_occupancy
  Zr  Zr0  1  0.444864  0.447815  0.000000  1
  Zr  Zr1  1  0.555136  0.002951  0.000000  1
  Zr  Zr2  1  0.000000  0.552989  0.000000  1
  Zr  Zr3  1  0.669951  0.335094  0.000000  1
  Zr  Zr4  1  0.330049  0.665145  0.000000  1
  Zr  Zr5  1  0.813341  0.812345  0.500000  1
  Zr  Zr6  1  0.186659  0.999004  0.500000  1
  Zr  Zr7  1  0.000000  0.188280  0.500000  1
  P  P8  1  0.653857  0.648327  0.000000  1
  P  P9  1  0.346143  0.994470  0.000000  1
  P  P10  1  0.000000  0.347409  0.000000  1
  P  P11  1  0.483729  0.313651  0.500000  1
  P  P12  1  0.692383  0.171740  0.500000  1
  P  P13  1  0.829339  0.519618  0.500000  1
  P  P14  1  0.516271  0.829923  0.500000  1
  P  P15  1  0.170661  0.690280  0.500000  1
  P  P16  1  0.827647  0.003606  0.000000  1
  P  P17  1  0.000000  0.824035  0.000000  1
  P  P18  1  0.307617  0.479358  0.500000  1
  P  P19  1  0.172353  0.175960  0.000000  1
  Ir  Ir20  1  0.368911  0.187733  0.000000  1
  Ir  Ir21  1  0.134532  0.493448  0.500000  1
  Ir  Ir22  1  0.358332  0.868644  0.500000  1
  Ir  Ir23  1  0.500856  0.641594  0.500000  1
  Ir  Ir24  1  0.641668  0.510312  0.500000  1
  Ir  Ir25  1  0.865468  0.358916  0.500000  1
  Ir  Ir26  1  0.499144  0.140738  0.500000  1
  Ir  Ir27  1  0.000000  0.999475  0.000000  1
  Ir  Ir28  1  0.724459  0.997257  0.500000  1
  Ir  Ir29  1  0.000000  0.726687  0.500000  1
  Ir  Ir30  1  0.631089  0.818823  0.000000  1
  Ir  Ir31  1  0.275541  0.272798  0.500000  1
  Ru  Ru32  1  0.191848  0.370588  0.000000  1
  Ru  Ru33  1  0.178754  0.805502  0.000000  1
  Ru  Ru34  1  0.821246  0.626747  0.000000  1
  Ru  Ru35  1  0.808152  0.178739  0.000000  1
