# generated using pymatgen
data_Er6MnAl18Si6Ru7
_symmetry_space_group_name_H-M   'P 1'
_cell_length_a   8.66322200
_cell_length_b   8.61875589
_cell_length_c   9.52254987
_cell_angle_alpha   89.93771963
_cell_angle_beta   90.00000000
_cell_angle_gamma   120.17082076
_symmetry_Int_Tables_number   1
_chemical_formula_structural   Er6MnAl18Si6Ru7
_chemical_formula_sum   'Er6 Mn1 Al18 Si6 Ru7'
_cell_volume   614.69182740
_cell_formula_units_Z   1
loop_
 _symmetry_equiv_pos_site_id
 _symmetry_equiv_pos_as_xyz
  1  'x, y, z'
loop_
 _atom_site_type_symbol
 _atom_site_label
 _atom_site_symmetry_multiplicity
 _atom_site_fract_x
 _atom_site_fract_y
 _atom_site_fract_z
 _atom_site_occupancy
  Er  Er0  1  0.193913  0.387826  0.248495  1
  Er  Er1  1  0.806087  0.612174  0.751505  1
  Er  Er2  1  0.608475  0.808524  0.248594  1
  Er  Er3  1  0.391525  0.191476  0.751406  1
  Er  Er4  1  0.200048  0.808524  0.248594  1
  Er  Er5  1  0.799952  0.191476  0.751406  1
  Mn  Mn6  1  0.500000  0.000000  0.000000  1
  Al  Al7  1  0.164933  0.329866  0.580087  1
  Al  Al8  1  0.835067  0.670134  0.419913  1
  Al  Al9  1  0.669799  0.834547  0.577983  1
  Al  Al10  1  0.834654  0.669307  0.079491  1
  Al  Al11  1  0.330201  0.165453  0.422017  1
  Al  Al12  1  0.165346  0.330693  0.920509  1
  Al  Al13  1  0.164747  0.834547  0.577983  1
  Al  Al14  1  0.332240  0.162739  0.076781  1
  Al  Al15  1  0.835253  0.165453  0.422017  1
  Al  Al16  1  0.667760  0.837261  0.923219  1
  Al  Al17  1  0.830499  0.162739  0.076781  1
  Al  Al18  1  0.169501  0.837261  0.923219  1
  Al  Al19  1  0.873501  0.433774  0.249916  1
  Al  Al20  1  0.126499  0.566226  0.750084  1
  Al  Al21  1  0.560273  0.433774  0.249916  1
  Al  Al22  1  0.439727  0.566226  0.750084  1
  Al  Al23  1  0.999033  0.998066  0.249952  1
  Al  Al24  1  0.000967  0.001934  0.750048  1
  Si  Si25  1  0.335736  0.671473  0.038203  1
  Si  Si26  1  0.664264  0.328527  0.961797  1
  Si  Si27  1  0.668200  0.336399  0.540303  1
  Si  Si28  1  0.331800  0.663601  0.459697  1
  Si  Si29  1  0.561802  0.123603  0.244346  1
  Si  Si30  1  0.438198  0.876397  0.755654  1
  Ru  Ru31  1  0.000000  0.500000  0.000000  1
  Ru  Ru32  1  0.500000  0.000000  0.500000  1
  Ru  Ru33  1  0.500000  0.500000  0.000000  1
  Ru  Ru34  1  0.000000  0.500000  0.500000  1
  Ru  Ru35  1  0.500000  0.500000  0.500000  1
  Ru  Ru36  1  0.000000  0.000000  0.000000  1
  Ru  Ru37  1  0.000000  0.000000  0.500000  1
