# generated using pymatgen
data_DyHo7Cd2IrRu
_symmetry_space_group_name_H-M   'P 1'
_cell_length_a   9.59238676
_cell_length_b   9.59238740
_cell_length_c   9.62588600
_cell_angle_alpha   59.88441135
_cell_angle_beta   59.88440912
_cell_angle_gamma   59.74923413
_symmetry_Int_Tables_number   1
_chemical_formula_structural   DyHo7Cd2IrRu
_chemical_formula_sum   'Dy2 Ho14 Cd4 Ir2 Ru2'
_cell_volume   624.00945860
_cell_formula_units_Z   2
loop_
 _symmetry_equiv_pos_site_id
 _symmetry_equiv_pos_as_xyz
  1  'x, y, z'
loop_
 _atom_site_type_symbol
 _atom_site_label
 _atom_site_symmetry_multiplicity
 _atom_site_fract_x
 _atom_site_fract_y
 _atom_site_fract_z
 _atom_site_occupancy
  Dy  Dy0  1  0.812024  0.812024  0.187976  1
  Dy  Dy1  1  0.188693  0.188693  0.811307  1
  Ho  Ho2  1  0.597881  0.597881  0.597848  1
  Ho  Ho3  1  0.597881  0.597881  0.206390  1
  Ho  Ho4  1  0.597063  0.208728  0.597105  1
  Ho  Ho5  1  0.208728  0.597063  0.597105  1
  Ho  Ho6  1  0.061959  0.438132  0.439592  1
  Ho  Ho7  1  0.438132  0.061959  0.060317  1
  Ho  Ho8  1  0.438132  0.061959  0.439592  1
  Ho  Ho9  1  0.061959  0.438132  0.060317  1
  Ho  Ho10  1  0.438114  0.438114  0.061886  1
  Ho  Ho11  1  0.059907  0.059907  0.440093  1
  Ho  Ho12  1  0.188146  0.810478  0.812764  1
  Ho  Ho13  1  0.810478  0.188146  0.188612  1
  Ho  Ho14  1  0.810478  0.188146  0.812764  1
  Ho  Ho15  1  0.188146  0.810478  0.188612  1
  Cd  Cd16  1  0.830371  0.830371  0.830557  1
  Cd  Cd17  1  0.830371  0.830371  0.508701  1
  Cd  Cd18  1  0.830282  0.507821  0.830949  1
  Cd  Cd19  1  0.507821  0.830282  0.830949  1
  Ir  Ir20  1  0.393232  0.827085  0.389841  1
  Ir  Ir21  1  0.827085  0.393232  0.389841  1
  Ru  Ru22  1  0.391558  0.391558  0.387983  1
  Ru  Ru23  1  0.391558  0.391558  0.828901  1
