# generated using pymatgen
data_Yb3Cd13Hg2
_symmetry_space_group_name_H-M   'P 1'
_cell_length_a   15.77609567
_cell_length_b   15.77609646
_cell_length_c   7.13585184
_cell_angle_alpha   96.20772184
_cell_angle_beta   96.20772226
_cell_angle_gamma   14.21637515
_symmetry_Int_Tables_number   1
_chemical_formula_structural   Yb3Cd13Hg2
_chemical_formula_sum   'Yb3 Cd13 Hg2'
_cell_volume   433.56257071
_cell_formula_units_Z   1
loop_
 _symmetry_equiv_pos_site_id
 _symmetry_equiv_pos_as_xyz
  1  'x, y, z'
loop_
 _atom_site_type_symbol
 _atom_site_label
 _atom_site_symmetry_multiplicity
 _atom_site_fract_x
 _atom_site_fract_y
 _atom_site_fract_z
 _atom_site_occupancy
  Yb  Yb0  1  0.002829  0.002829  0.999361  1
  Yb  Yb1  1  0.664863  0.664863  0.334913  1
  Yb  Yb2  1  0.883616  0.883616  0.450530  1
  Cd  Cd3  1  0.106485  0.106485  0.034575  1
  Cd  Cd4  1  0.224038  0.224038  0.106147  1
  Cd  Cd5  1  0.329750  0.329750  0.150915  1
  Cd  Cd6  1  0.441418  0.441418  0.222797  1
  Cd  Cd7  1  0.557034  0.557034  0.295693  1
  Cd  Cd8  1  0.775510  0.775510  0.392676  1
  Cd  Cd9  1  0.997277  0.997277  0.485175  1
  Cd  Cd10  1  0.223954  0.223954  0.620218  1
  Cd  Cd11  1  0.447284  0.447284  0.712625  1
  Cd  Cd12  1  0.556999  0.556999  0.750681  1
  Cd  Cd13  1  0.667491  0.667491  0.856984  1
  Cd  Cd14  1  0.776466  0.776466  0.882554  1
  Cd  Cd15  1  0.895327  0.895327  0.948603  1
  Hg  Hg16  1  0.115812  0.115812  0.571263  1
  Hg  Hg17  1  0.333848  0.333848  0.684289  1
