# generated using pymatgen
data_Pr2Ho7TmBi6
_symmetry_space_group_name_H-M   'P 1'
_cell_length_a   8.33994100
_cell_length_b   9.50962700
_cell_length_c   12.18675500
_cell_angle_alpha   90.00000000
_cell_angle_beta   90.00000000
_cell_angle_gamma   90.00000000
_symmetry_Int_Tables_number   1
_chemical_formula_structural   Pr2Ho7TmBi6
_chemical_formula_sum   'Pr4 Ho14 Tm2 Bi12'
_cell_volume   966.52822562
_cell_formula_units_Z   2
loop_
 _symmetry_equiv_pos_site_id
 _symmetry_equiv_pos_as_xyz
  1  'x, y, z'
loop_
 _atom_site_type_symbol
 _atom_site_label
 _atom_site_symmetry_multiplicity
 _atom_site_fract_x
 _atom_site_fract_y
 _atom_site_fract_z
 _atom_site_occupancy
  Pr  Pr0  1  0.170021  0.750000  0.225000  1
  Pr  Pr1  1  0.329979  0.750000  0.725000  1
  Pr  Pr2  1  0.829950  0.250000  0.774933  1
  Pr  Pr3  1  0.670050  0.250000  0.274933  1
  Ho  Ho4  1  0.810755  0.563193  0.063901  1
  Ho  Ho5  1  0.689245  0.936807  0.563901  1
  Ho  Ho6  1  0.189048  0.062992  0.936046  1
  Ho  Ho7  1  0.310952  0.437008  0.436046  1
  Ho  Ho8  1  0.189048  0.437008  0.936046  1
  Ho  Ho9  1  0.310952  0.062992  0.436046  1
  Ho  Ho10  1  0.810755  0.936807  0.063901  1
  Ho  Ho11  1  0.689245  0.563193  0.563901  1
  Ho  Ho12  1  0.521504  0.250000  0.997084  1
  Ho  Ho13  1  0.978496  0.250000  0.497084  1
  Ho  Ho14  1  0.664801  0.750000  0.288260  1
  Ho  Ho15  1  0.835199  0.750000  0.788260  1
  Ho  Ho16  1  0.335038  0.250000  0.711727  1
  Ho  Ho17  1  0.164962  0.250000  0.211727  1
  Tm  Tm18  1  0.478909  0.750000  0.002960  1
  Tm  Tm19  1  0.021091  0.750000  0.502960  1
  Bi  Bi20  1  0.402034  0.750000  0.465560  1
  Bi  Bi21  1  0.097966  0.750000  0.965560  1
  Bi  Bi22  1  0.597014  0.250000  0.534516  1
  Bi  Bi23  1  0.902986  0.250000  0.034516  1
  Bi  Bi24  1  0.934888  0.506768  0.329073  1
  Bi  Bi25  1  0.565112  0.993232  0.829073  1
  Bi  Bi26  1  0.065446  0.005798  0.670960  1
  Bi  Bi27  1  0.434554  0.494202  0.170960  1
  Bi  Bi28  1  0.065446  0.494202  0.670960  1
  Bi  Bi29  1  0.434554  0.005798  0.170960  1
  Bi  Bi30  1  0.934888  0.993232  0.329073  1
  Bi  Bi31  1  0.565112  0.506768  0.829073  1
