# generated using pymatgen
data_Ho8Ti9Re2Si16W
_symmetry_space_group_name_H-M   'P 1'
_cell_length_a   6.96412518
_cell_length_b   6.96412515
_cell_length_c   12.80769406
_cell_angle_alpha   90.00817500
_cell_angle_beta   89.99182795
_cell_angle_gamma   90.04306408
_symmetry_Int_Tables_number   1
_chemical_formula_structural   Ho8Ti9Re2Si16W
_chemical_formula_sum   'Ho8 Ti9 Re2 Si16 W1'
_cell_volume   621.16066958
_cell_formula_units_Z   1
loop_
 _symmetry_equiv_pos_site_id
 _symmetry_equiv_pos_as_xyz
  1  'x, y, z'
loop_
 _atom_site_type_symbol
 _atom_site_label
 _atom_site_symmetry_multiplicity
 _atom_site_fract_x
 _atom_site_fract_y
 _atom_site_fract_z
 _atom_site_occupancy
  Ho  Ho0  1  0.340364  0.001102  0.466685  1
  Ho  Ho1  1  0.499137  0.841224  0.718605  1
  Ho  Ho2  1  0.500286  0.158530  0.217317  1
  Ho  Ho3  1  0.841224  0.499137  0.281395  1
  Ho  Ho4  1  0.158530  0.500286  0.782683  1
  Ho  Ho5  1  0.659207  0.999364  0.967283  1
  Ho  Ho6  1  0.001102  0.340364  0.533315  1
  Ho  Ho7  1  0.999364  0.659207  0.032717  1
  Ti  Ti8  1  0.673512  0.673512  0.500000  1
  Ti  Ti9  1  0.152626  0.007463  0.877042  1
  Ti  Ti10  1  0.493373  0.652359  0.124882  1
  Ti  Ti11  1  0.505986  0.347109  0.627296  1
  Ti  Ti12  1  0.652359  0.493373  0.875118  1
  Ti  Ti13  1  0.347109  0.505986  0.372704  1
  Ti  Ti14  1  0.847792  0.992339  0.375812  1
  Ti  Ti15  1  0.007463  0.152626  0.122958  1
  Ti  Ti16  1  0.992339  0.847792  0.624188  1
  Re  Re17  1  0.173515  0.827900  0.249035  1
  Re  Re18  1  0.827900  0.173515  0.750965  1
  Si  Si19  1  0.200185  0.130041  0.684028  1
  Si  Si20  1  0.368892  0.700927  0.933854  1
  Si  Si21  1  0.631597  0.297739  0.434433  1
  Si  Si22  1  0.700927  0.368892  0.066146  1
  Si  Si23  1  0.297739  0.631597  0.565567  1
  Si  Si24  1  0.800073  0.869502  0.184185  1
  Si  Si25  1  0.130041  0.200185  0.315972  1
  Si  Si26  1  0.869502  0.800073  0.815815  1
  Si  Si27  1  0.291921  0.952176  0.066216  1
  Si  Si28  1  0.546250  0.790595  0.315406  1
  Si  Si29  1  0.453704  0.209283  0.815371  1
  Si  Si30  1  0.790595  0.546250  0.684594  1
  Si  Si31  1  0.209283  0.453704  0.184629  1
  Si  Si32  1  0.707971  0.048794  0.567034  1
  Si  Si33  1  0.952176  0.291921  0.933784  1
  Si  Si34  1  0.048794  0.707971  0.432966  1
  W  W35  1  0.327160  0.327160  0.000000  1
