# generated using pymatgen
data_Ti9Nb3Al8(IrN)4
_symmetry_space_group_name_H-M   'P 1'
_cell_length_a   8.19956013
_cell_length_b   8.18540639
_cell_length_c   8.18867223
_cell_angle_alpha   60.10120880
_cell_angle_beta   59.92964625
_cell_angle_gamma   60.04484532
_symmetry_Int_Tables_number   1
_chemical_formula_structural   Ti9Nb3Al8(IrN)4
_chemical_formula_sum   'Ti9 Nb3 Al8 Ir4 N4'
_cell_volume   388.84419744
_cell_formula_units_Z   1
loop_
 _symmetry_equiv_pos_site_id
 _symmetry_equiv_pos_as_xyz
  1  'x, y, z'
loop_
 _atom_site_type_symbol
 _atom_site_label
 _atom_site_symmetry_multiplicity
 _atom_site_fract_x
 _atom_site_fract_y
 _atom_site_fract_z
 _atom_site_occupancy
  Ti  Ti0  1  0.064437  0.064437  0.435563  1
  Ti  Ti1  1  0.064761  0.435089  0.063966  1
  Ti  Ti2  1  0.435089  0.064761  0.436184  1
  Ti  Ti3  1  0.185043  0.815067  0.185761  1
  Ti  Ti4  1  0.184926  0.815564  0.813970  1
  Ti  Ti5  1  0.815564  0.184926  0.185540  1
  Ti  Ti6  1  0.815067  0.185043  0.814129  1
  Ti  Ti7  1  0.435740  0.435740  0.064260  1
  Ti  Ti8  1  0.185335  0.185335  0.814665  1
  Nb  Nb9  1  0.813912  0.813912  0.186088  1
  Nb  Nb10  1  0.064216  0.435605  0.436789  1
  Nb  Nb11  1  0.435605  0.064216  0.063389  1
  Al  Al12  1  0.414222  0.754056  0.416979  1
  Al  Al13  1  0.835217  0.835331  0.496467  1
  Al  Al14  1  0.494699  0.834919  0.835292  1
  Al  Al15  1  0.835331  0.835217  0.832987  1
  Al  Al16  1  0.754056  0.414222  0.414741  1
  Al  Al17  1  0.416941  0.414339  0.414974  1
  Al  Al18  1  0.414339  0.416941  0.753744  1
  Al  Al19  1  0.834919  0.494699  0.835092  1
  Ir  Ir20  1  0.625369  0.125152  0.623729  1
  Ir  Ir21  1  0.625160  0.622285  0.124714  1
  Ir  Ir22  1  0.125152  0.625369  0.625749  1
  Ir  Ir23  1  0.622285  0.625160  0.627842  1
  N  N24  1  0.132103  0.624721  0.118396  1
  N  N25  1  0.126201  0.119589  0.628635  1
  N  N26  1  0.624721  0.132103  0.124780  1
  N  N27  1  0.119589  0.126201  0.125575  1
