# generated using pymatgen
data_PuPaB8
_symmetry_space_group_name_H-M   'P 1'
_cell_length_a   7.11006600
_cell_length_b   7.08972800
_cell_length_c   4.00653800
_cell_angle_alpha   90.00000000
_cell_angle_beta   90.00000000
_cell_angle_gamma   90.00000000
_symmetry_Int_Tables_number   1
_chemical_formula_structural   PuPaB8
_chemical_formula_sum   'Pu2 Pa2 B16'
_cell_volume   201.96330635
_cell_formula_units_Z   2
loop_
 _symmetry_equiv_pos_site_id
 _symmetry_equiv_pos_as_xyz
  1  'x, y, z'
loop_
 _atom_site_type_symbol
 _atom_site_label
 _atom_site_symmetry_multiplicity
 _atom_site_fract_x
 _atom_site_fract_y
 _atom_site_fract_z
 _atom_site_occupancy
  Pu  Pu0  1  0.312098  0.187913  0.000000  1
  Pu  Pu1  1  0.812098  0.312087  0.000000  1
  Pa  Pa2  1  0.188078  0.687689  0.000000  1
  Pa  Pa3  1  0.688078  0.812311  0.000000  1
  B  B4  1  0.321953  0.461104  0.500000  1
  B  B5  1  0.677350  0.538664  0.500000  1
  B  B6  1  0.539391  0.321233  0.500000  1
  B  B7  1  0.461091  0.676590  0.500000  1
  B  B8  1  0.000091  0.002120  0.200193  1
  B  B9  1  0.500091  0.497880  0.799807  1
  B  B10  1  0.000091  0.002120  0.799807  1
  B  B11  1  0.500091  0.497880  0.200193  1
  B  B12  1  0.587584  0.086349  0.500000  1
  B  B13  1  0.087584  0.413651  0.500000  1
  B  B14  1  0.912276  0.588516  0.500000  1
  B  B15  1  0.412276  0.911484  0.500000  1
  B  B16  1  0.039391  0.178767  0.500000  1
  B  B17  1  0.177350  0.961336  0.500000  1
  B  B18  1  0.821953  0.038896  0.500000  1
  B  B19  1  0.961091  0.823410  0.500000  1
