# generated using pymatgen
data_Dy2Tm6Cd2IrRu
_symmetry_space_group_name_H-M   'P 1'
_cell_length_a   9.54228970
_cell_length_b   9.53737227
_cell_length_c   9.57179727
_cell_angle_alpha   59.91456100
_cell_angle_beta   59.86363719
_cell_angle_gamma   59.75018010
_symmetry_Int_Tables_number   1
_chemical_formula_structural   Dy2Tm6Cd2IrRu
_chemical_formula_sum   'Dy4 Tm12 Cd4 Ir2 Ru2'
_cell_volume   613.77006385
_cell_formula_units_Z   2
loop_
 _symmetry_equiv_pos_site_id
 _symmetry_equiv_pos_as_xyz
  1  'x, y, z'
loop_
 _atom_site_type_symbol
 _atom_site_label
 _atom_site_symmetry_multiplicity
 _atom_site_fract_x
 _atom_site_fract_y
 _atom_site_fract_z
 _atom_site_occupancy
  Dy  Dy0  1  0.809493  0.188732  0.812752  1
  Dy  Dy1  1  0.188732  0.809493  0.189023  1
  Dy  Dy2  1  0.811266  0.811266  0.188734  1
  Dy  Dy3  1  0.189183  0.189183  0.810817  1
  Tm  Tm4  1  0.597386  0.597924  0.597945  1
  Tm  Tm5  1  0.597924  0.597386  0.206745  1
  Tm  Tm6  1  0.596995  0.209553  0.596439  1
  Tm  Tm7  1  0.209553  0.596995  0.597015  1
  Tm  Tm8  1  0.062426  0.437629  0.439190  1
  Tm  Tm9  1  0.437629  0.062426  0.060755  1
  Tm  Tm10  1  0.437865  0.062309  0.439478  1
  Tm  Tm11  1  0.062309  0.437865  0.060348  1
  Tm  Tm12  1  0.437737  0.437737  0.062263  1
  Tm  Tm13  1  0.059851  0.059851  0.440149  1
  Tm  Tm14  1  0.189192  0.809047  0.811933  1
  Tm  Tm15  1  0.809047  0.189192  0.189828  1
  Cd  Cd16  1  0.830826  0.830080  0.830414  1
  Cd  Cd17  1  0.830080  0.830826  0.508681  1
  Cd  Cd18  1  0.830311  0.507564  0.831385  1
  Cd  Cd19  1  0.507564  0.830311  0.830741  1
  Ir  Ir20  1  0.393143  0.827620  0.389948  1
  Ir  Ir21  1  0.827620  0.393143  0.389289  1
  Ru  Ru22  1  0.392357  0.391514  0.387689  1
  Ru  Ru23  1  0.391514  0.392357  0.828440  1
