# generated using pymatgen
data_CaTbU4O12
_symmetry_space_group_name_H-M   'P 1'
_cell_length_a   6.63664408
_cell_length_b   6.63664392
_cell_length_c   6.52536587
_cell_angle_alpha   80.27563214
_cell_angle_beta   80.27562986
_cell_angle_gamma   119.94140296
_symmetry_Int_Tables_number   1
_chemical_formula_structural   CaTbU4O12
_chemical_formula_sum   'Ca1 Tb1 U4 O12'
_cell_volume   234.43663700
_cell_formula_units_Z   1
loop_
 _symmetry_equiv_pos_site_id
 _symmetry_equiv_pos_as_xyz
  1  'x, y, z'
loop_
 _atom_site_type_symbol
 _atom_site_label
 _atom_site_symmetry_multiplicity
 _atom_site_fract_x
 _atom_site_fract_y
 _atom_site_fract_z
 _atom_site_occupancy
  Ca  Ca0  1  0.500106  0.499894  0.500000  1
  Tb  Tb1  1  0.832867  0.167133  0.500000  1
  U  U2  1  0.167071  0.832929  0.500000  1
  U  U3  1  0.666367  0.333633  0.000000  1
  U  U4  1  0.999831  0.000169  0.000000  1
  U  U5  1  0.333796  0.666204  0.000000  1
  O  O6  1  0.111237  0.101702  0.642277  1
  O  O7  1  0.702521  0.040322  0.887546  1
  O  O8  1  0.959678  0.297479  0.112454  1
  O  O9  1  0.364999  0.363768  0.895951  1
  O  O10  1  0.042716  0.706145  0.884388  1
  O  O11  1  0.535951  0.197787  0.358438  1
  O  O12  1  0.898298  0.888763  0.357723  1
  O  O13  1  0.444670  0.792408  0.640969  1
  O  O14  1  0.636232  0.635001  0.104049  1
  O  O15  1  0.293855  0.957284  0.115612  1
  O  O16  1  0.802213  0.464049  0.641562  1
  O  O17  1  0.207592  0.555330  0.359031  1
