# generated using pymatgen
data_RbTi(Te2Rh)4
_symmetry_space_group_name_H-M   'P 1'
_cell_length_a   10.20148391
_cell_length_b   10.20148369
_cell_length_c   9.41604870
_cell_angle_alpha   76.55365387
_cell_angle_beta   76.55365370
_cell_angle_gamma   22.54172094
_symmetry_Int_Tables_number   1
_chemical_formula_structural   RbTi(Te2Rh)4
_chemical_formula_sum   'Rb1 Ti1 Te8 Rh4'
_cell_volume   364.94979203
_cell_formula_units_Z   1
loop_
 _symmetry_equiv_pos_site_id
 _symmetry_equiv_pos_as_xyz
  1  'x, y, z'
loop_
 _atom_site_type_symbol
 _atom_site_label
 _atom_site_symmetry_multiplicity
 _atom_site_fract_x
 _atom_site_fract_y
 _atom_site_fract_z
 _atom_site_occupancy
  Rb  Rb0  1  0.484279  0.484279  0.505376  1
  Ti  Ti1  1  0.639454  0.639454  0.010966  1
  Te  Te2  1  0.437109  0.437109  0.144222  1
  Te  Te3  1  0.914530  0.914530  0.851319  1
  Te  Te4  1  0.826553  0.826553  0.475993  1
  Te  Te5  1  0.759856  0.759856  0.148426  1
  Te  Te6  1  0.236479  0.236479  0.853760  1
  Te  Te7  1  0.180409  0.180409  0.516661  1
  Te  Te8  1  0.088482  0.088482  0.204615  1
  Te  Te9  1  0.570673  0.570673  0.804346  1
  Rh  Rh10  1  0.015931  0.015931  0.995729  1
  Rh  Rh11  1  0.340821  0.340821  0.992204  1
  Rh  Rh12  1  0.296486  0.296486  0.313974  1
  Rh  Rh13  1  0.708940  0.708940  0.682409  1
