# generated using pymatgen
data_Ba6TaNb3S16
_symmetry_space_group_name_H-M   'P 1'
_cell_length_a   11.31923534
_cell_length_b   11.31923433
_cell_length_c   11.31923500
_cell_angle_alpha   51.63092690
_cell_angle_beta   51.63093094
_cell_angle_gamma   51.63093202
_symmetry_Int_Tables_number   1
_chemical_formula_structural   Ba6TaNb3S16
_chemical_formula_sum   'Ba6 Ta1 Nb3 S16'
_cell_volume   823.51272488
_cell_formula_units_Z   1
loop_
 _symmetry_equiv_pos_site_id
 _symmetry_equiv_pos_as_xyz
  1  'x, y, z'
loop_
 _atom_site_type_symbol
 _atom_site_label
 _atom_site_symmetry_multiplicity
 _atom_site_fract_x
 _atom_site_fract_y
 _atom_site_fract_z
 _atom_site_occupancy
  Ba  Ba0  1  0.749626  0.431121  0.069527  1
  Ba  Ba1  1  0.571212  0.929780  0.248863  1
  Ba  Ba2  1  0.069527  0.749626  0.431122  1
  Ba  Ba3  1  0.929781  0.248863  0.571212  1
  Ba  Ba4  1  0.431122  0.069528  0.749625  1
  Ba  Ba5  1  0.248863  0.571212  0.929781  1
  Ta  Ta6  1  0.839340  0.839340  0.839340  1
  Nb  Nb7  1  0.160512  0.160512  0.160512  1
  Nb  Nb8  1  0.339441  0.339441  0.339441  1
  Nb  Nb9  1  0.660510  0.660510  0.660510  1
  S  S10  1  0.609582  0.787637  0.041815  1
  S  S11  1  0.082074  0.082074  0.082074  1
  S  S12  1  0.543171  0.286141  0.109584  1
  S  S13  1  0.956334  0.389736  0.215043  1
  S  S14  1  0.109584  0.543170  0.286141  1
  S  S15  1  0.215042  0.956335  0.389736  1
  S  S16  1  0.417946  0.417946  0.417946  1
  S  S17  1  0.713579  0.890566  0.457221  1
  S  S18  1  0.286141  0.109584  0.543171  1
  S  S19  1  0.582054  0.582054  0.582054  1
  S  S20  1  0.787637  0.041815  0.609582  1
  S  S21  1  0.890566  0.457222  0.713579  1
  S  S22  1  0.041815  0.609582  0.787637  1
  S  S23  1  0.457222  0.713579  0.890566  1
  S  S24  1  0.917583  0.917583  0.917583  1
  S  S25  1  0.389737  0.215042  0.956334  1
