# generated using pymatgen
data_Pr6Dy4Y5Er(CdIr)4
_symmetry_space_group_name_H-M   'P 1'
_cell_length_a   9.76377186
_cell_length_b   9.78032982
_cell_length_c   9.78033000
_cell_angle_alpha   60.00922409
_cell_angle_beta   60.05599487
_cell_angle_gamma   60.05598909
_symmetry_Int_Tables_number   1
_chemical_formula_structural   Pr6Dy4Y5Er(CdIr)4
_chemical_formula_sum   'Pr6 Dy4 Y5 Er1 Cd4 Ir4'
_cell_volume   661.00840991
_cell_formula_units_Z   1
loop_
 _symmetry_equiv_pos_site_id
 _symmetry_equiv_pos_as_xyz
  1  'x, y, z'
loop_
 _atom_site_type_symbol
 _atom_site_label
 _atom_site_symmetry_multiplicity
 _atom_site_fract_x
 _atom_site_fract_y
 _atom_site_fract_z
 _atom_site_occupancy
  Pr  Pr0  1  0.940298  0.559702  0.559702  1
  Pr  Pr1  1  0.558700  0.941300  0.941300  1
  Pr  Pr2  1  0.558945  0.943367  0.556585  1
  Pr  Pr3  1  0.941103  0.556585  0.943367  1
  Pr  Pr4  1  0.558945  0.556585  0.943367  1
  Pr  Pr5  1  0.941103  0.943367  0.556585  1
  Dy  Dy6  1  0.346679  0.347560  0.347560  1
  Dy  Dy7  1  0.347224  0.347034  0.958516  1
  Dy  Dy8  1  0.347224  0.958516  0.347034  1
  Dy  Dy9  1  0.958200  0.347560  0.347560  1
  Y  Y10  1  0.188249  0.811751  0.811751  1
  Y  Y11  1  0.188310  0.811624  0.187379  1
  Y  Y12  1  0.812688  0.187379  0.811624  1
  Y  Y13  1  0.188310  0.187379  0.811624  1
  Y  Y14  1  0.812688  0.811624  0.187379  1
  Er  Er15  1  0.812773  0.187227  0.187227  1
  Cd  Cd16  1  0.579148  0.579215  0.579215  1
  Cd  Cd17  1  0.579216  0.579278  0.262290  1
  Cd  Cd18  1  0.579216  0.262290  0.579278  1
  Cd  Cd19  1  0.262422  0.579215  0.579215  1
  Ir  Ir20  1  0.138816  0.142567  0.142567  1
  Ir  Ir21  1  0.141847  0.142053  0.574254  1
  Ir  Ir22  1  0.141847  0.574254  0.142053  1
  Ir  Ir23  1  0.576050  0.142567  0.142567  1
