# generated using pymatgen
data_Tb3Pr2Ho(RuO7)2
_symmetry_space_group_name_H-M   'P 1'
_cell_length_a   6.48039921
_cell_length_b   6.47995837
_cell_length_c   7.53277700
_cell_angle_alpha   90.00000000
_cell_angle_beta   90.00000000
_cell_angle_gamma   110.18235786
_symmetry_Int_Tables_number   1
_chemical_formula_structural   Tb3Pr2Ho(RuO7)2
_chemical_formula_sum   'Tb3 Pr2 Ho1 Ru2 O14'
_cell_volume   296.89939509
_cell_formula_units_Z   1
loop_
 _symmetry_equiv_pos_site_id
 _symmetry_equiv_pos_as_xyz
  1  'x, y, z'
loop_
 _atom_site_type_symbol
 _atom_site_label
 _atom_site_symmetry_multiplicity
 _atom_site_fract_x
 _atom_site_fract_y
 _atom_site_fract_z
 _atom_site_occupancy
  Tb  Tb0  1  0.481071  0.927864  0.750000  1
  Tb  Tb1  1  0.518766  0.071714  0.250000  1
  Tb  Tb2  1  0.928033  0.481203  0.750000  1
  Pr  Pr3  1  0.000228  0.999971  0.499671  1
  Pr  Pr4  1  0.000228  0.999971  0.000329  1
  Ho  Ho5  1  0.069727  0.518040  0.250000  1
  Ru  Ru6  1  0.500025  0.500192  0.499564  1
  Ru  Ru7  1  0.500025  0.500192  0.000436  1
  O  O8  1  0.588876  0.588650  0.750000  1
  O  O9  1  0.410180  0.411472  0.250000  1
  O  O10  1  0.837892  0.116654  0.750000  1
  O  O11  1  0.162151  0.879932  0.250000  1
  O  O12  1  0.116730  0.837941  0.750000  1
  O  O13  1  0.884477  0.164806  0.250000  1
  O  O14  1  0.440570  0.182806  0.962867  1
  O  O15  1  0.559934  0.817504  0.462731  1
  O  O16  1  0.182794  0.441468  0.964327  1
  O  O17  1  0.817497  0.558921  0.461858  1
  O  O18  1  0.440570  0.182806  0.537133  1
  O  O19  1  0.559934  0.817504  0.037269  1
  O  O20  1  0.817497  0.558921  0.038142  1
  O  O21  1  0.182794  0.441468  0.535673  1
