# generated using pymatgen
data_LiTb2Sm(Co4P3)2
_symmetry_space_group_name_H-M   'P 1'
_cell_length_a   3.74720700
_cell_length_b   10.63740000
_cell_length_c   12.28325500
_cell_angle_alpha   90.00000000
_cell_angle_beta   90.00000000
_cell_angle_gamma   90.00000000
_symmetry_Int_Tables_number   1
_chemical_formula_structural   LiTb2Sm(Co4P3)2
_chemical_formula_sum   'Li2 Tb4 Sm2 Co16 P12'
_cell_volume   489.61717409
_cell_formula_units_Z   2
loop_
 _symmetry_equiv_pos_site_id
 _symmetry_equiv_pos_as_xyz
  1  'x, y, z'
loop_
 _atom_site_type_symbol
 _atom_site_label
 _atom_site_symmetry_multiplicity
 _atom_site_fract_x
 _atom_site_fract_y
 _atom_site_fract_z
 _atom_site_occupancy
  Li  Li0  1  0.500000  0.500000  0.152256  1
  Li  Li1  1  0.000000  0.000000  0.847744  1
  Tb  Tb2  1  0.500000  0.819094  0.205769  1
  Tb  Tb3  1  0.500000  0.180906  0.205769  1
  Tb  Tb4  1  0.000000  0.680906  0.794231  1
  Tb  Tb5  1  0.000000  0.319094  0.794231  1
  Sm  Sm6  1  0.000000  0.500000  0.523194  1
  Sm  Sm7  1  0.500000  0.000000  0.476806  1
  Co  Co8  1  0.500000  0.500000  0.705647  1
  Co  Co9  1  0.000000  0.000000  0.294353  1
  Co  Co10  1  0.000000  0.500000  0.987078  1
  Co  Co11  1  0.500000  0.000000  0.012922  1
  Co  Co12  1  0.500000  0.332981  0.996922  1
  Co  Co13  1  0.500000  0.667019  0.996922  1
  Co  Co14  1  0.000000  0.167019  0.003078  1
  Co  Co15  1  0.000000  0.832981  0.003078  1
  Co  Co16  1  0.500000  0.296323  0.430456  1
  Co  Co17  1  0.500000  0.703677  0.430456  1
  Co  Co18  1  0.000000  0.203677  0.569544  1
  Co  Co19  1  0.000000  0.796323  0.569544  1
  Co  Co20  1  0.500000  0.879082  0.707474  1
  Co  Co21  1  0.500000  0.120918  0.707474  1
  Co  Co22  1  0.000000  0.620918  0.292526  1
  Co  Co23  1  0.000000  0.379082  0.292526  1
  P  P24  1  0.500000  0.500000  0.885752  1
  P  P25  1  0.000000  0.000000  0.114248  1
  P  P26  1  0.500000  0.500000  0.343809  1
  P  P27  1  0.000000  0.000000  0.656191  1
  P  P28  1  0.500000  0.307396  0.615985  1
  P  P29  1  0.500000  0.692604  0.615985  1
  P  P30  1  0.000000  0.192604  0.384015  1
  P  P31  1  0.000000  0.807396  0.384015  1
  P  P32  1  0.500000  0.843545  0.894686  1
  P  P33  1  0.500000  0.156455  0.894686  1
  P  P34  1  0.000000  0.656455  0.105314  1
  P  P35  1  0.000000  0.343545  0.105314  1
