# generated using pymatgen
data_Sc2(Al3Rh)3
_symmetry_space_group_name_H-M   'P 1'
_cell_length_a   7.46594792
_cell_length_b   7.46594722
_cell_length_c   9.33759900
_cell_angle_alpha   90.00000000
_cell_angle_beta   90.00000000
_cell_angle_gamma   119.65378660
_symmetry_Int_Tables_number   1
_chemical_formula_structural   Sc2(Al3Rh)3
_chemical_formula_sum   'Sc4 Al18 Rh6'
_cell_volume   452.31426864
_cell_formula_units_Z   2
loop_
 _symmetry_equiv_pos_site_id
 _symmetry_equiv_pos_as_xyz
  1  'x, y, z'
loop_
 _atom_site_type_symbol
 _atom_site_label
 _atom_site_symmetry_multiplicity
 _atom_site_fract_x
 _atom_site_fract_y
 _atom_site_fract_z
 _atom_site_occupancy
  Sc  Sc0  1  0.995226  0.670698  0.250000  1
  Sc  Sc1  1  0.004774  0.329302  0.750000  1
  Sc  Sc2  1  0.670698  0.995226  0.250000  1
  Sc  Sc3  1  0.329302  0.004774  0.750000  1
  Al  Al4  1  0.122780  0.122780  0.250000  1
  Al  Al5  1  0.877220  0.877220  0.750000  1
  Al  Al6  1  0.998289  0.334670  0.075797  1
  Al  Al7  1  0.001711  0.665330  0.924203  1
  Al  Al8  1  0.001711  0.665330  0.575797  1
  Al  Al9  1  0.334670  0.998289  0.424203  1
  Al  Al10  1  0.998289  0.334670  0.424203  1
  Al  Al11  1  0.665330  0.001711  0.575797  1
  Al  Al12  1  0.665330  0.001711  0.924203  1
  Al  Al13  1  0.334670  0.998289  0.075797  1
  Al  Al14  1  0.331228  0.331228  0.556658  1
  Al  Al15  1  0.668772  0.668772  0.443342  1
  Al  Al16  1  0.668772  0.668772  0.056658  1
  Al  Al17  1  0.331228  0.331228  0.943342  1
  Al  Al18  1  0.339010  0.553496  0.250000  1
  Al  Al19  1  0.660990  0.446504  0.750000  1
  Al  Al20  1  0.553496  0.339010  0.250000  1
  Al  Al21  1  0.446504  0.660990  0.750000  1
  Rh  Rh22  1  0.672412  0.327588  0.000000  1
  Rh  Rh23  1  0.327588  0.672412  0.000000  1
  Rh  Rh24  1  0.327588  0.672412  0.500000  1
  Rh  Rh25  1  0.672412  0.327588  0.500000  1
  Rh  Rh26  1  0.000000  0.000000  0.000000  1
  Rh  Rh27  1  0.000000  0.000000  0.500000  1
