# generated using pymatgen
data_Ce3Lu7(In2Co)4
_symmetry_space_group_name_H-M   'P 1'
_cell_length_a   3.53587800
_cell_length_b   7.96161612
_cell_length_c   17.76233593
_cell_angle_alpha   90.78306017
_cell_angle_beta   90.00000000
_cell_angle_gamma   90.00000000
_symmetry_Int_Tables_number   1
_chemical_formula_structural   Ce3Lu7(In2Co)4
_chemical_formula_sum   'Ce3 Lu7 In8 Co4'
_cell_volume   499.98620723
_cell_formula_units_Z   1
loop_
 _symmetry_equiv_pos_site_id
 _symmetry_equiv_pos_as_xyz
  1  'x, y, z'
loop_
 _atom_site_type_symbol
 _atom_site_label
 _atom_site_symmetry_multiplicity
 _atom_site_fract_x
 _atom_site_fract_y
 _atom_site_fract_z
 _atom_site_occupancy
  Ce  Ce0  1  0.000000  0.884806  0.095260  1
  Ce  Ce1  1  0.000000  0.742400  0.278197  1
  Ce  Ce2  1  0.000000  0.751148  0.775003  1
  Lu  Lu3  1  0.000000  0.383468  0.410549  1
  Lu  Lu4  1  0.000000  0.113896  0.909955  1
  Lu  Lu5  1  0.000000  0.247075  0.721934  1
  Lu  Lu6  1  0.000000  0.507682  0.998367  1
  Lu  Lu7  1  0.000000  0.256701  0.224860  1
  Lu  Lu8  1  0.000000  0.614297  0.590571  1
  Lu  Lu9  1  0.000000  0.999621  0.497117  1
  In  In10  1  0.500000  0.213606  0.067354  1
  In  In11  1  0.500000  0.424334  0.849044  1
  In  In12  1  0.500000  0.550403  0.149496  1
  In  In13  1  0.500000  0.075379  0.348811  1
  In  In14  1  0.500000  0.936099  0.645071  1
  In  In15  1  0.500000  0.797347  0.934039  1
  In  In16  1  0.500000  0.698769  0.436400  1
  In  In17  1  0.500000  0.296766  0.567753  1
  Co  Co18  1  0.500000  0.973873  0.190643  1
  Co  Co19  1  0.500000  0.000497  0.802995  1
  Co  Co20  1  0.500000  0.536264  0.701903  1
  Co  Co21  1  0.500000  0.495569  0.304680  1
