# generated using pymatgen
data_Rb2MnVTe4
_symmetry_space_group_name_H-M   'P 1'
_cell_length_a   15.23413456
_cell_length_b   13.57821789
_cell_length_c   8.16619384
_cell_angle_alpha   85.09133801
_cell_angle_beta   62.62714193
_cell_angle_gamma   32.28152579
_symmetry_Int_Tables_number   1
_chemical_formula_structural   Rb2MnVTe4
_chemical_formula_sum   'Rb4 Mn2 V2 Te8'
_cell_volume   616.14008161
_cell_formula_units_Z   2
loop_
 _symmetry_equiv_pos_site_id
 _symmetry_equiv_pos_as_xyz
  1  'x, y, z'
loop_
 _atom_site_type_symbol
 _atom_site_label
 _atom_site_symmetry_multiplicity
 _atom_site_fract_x
 _atom_site_fract_y
 _atom_site_fract_z
 _atom_site_occupancy
  Rb  Rb0  1  0.817257  0.817257  0.182743  1
  Rb  Rb1  1  0.182743  0.182743  0.817257  1
  Rb  Rb2  1  0.432743  0.432743  0.067257  1
  Rb  Rb3  1  0.067257  0.067257  0.432743  1
  Mn  Mn4  1  0.750000  0.750000  0.750000  1
  Mn  Mn5  1  0.500000  0.500000  0.500000  1
  V  V6  1  0.250000  0.250000  0.250000  1
  V  V7  1  0.000000  0.000000  0.000000  1
  Te  Te8  1  0.390334  0.723831  0.807206  1
  Te  Te9  1  0.078629  0.807206  0.723831  1
  Te  Te10  1  0.807206  0.078629  0.390334  1
  Te  Te11  1  0.723831  0.390334  0.078629  1
  Te  Te12  1  0.859666  0.526169  0.442794  1
  Te  Te13  1  0.171371  0.442794  0.526169  1
  Te  Te14  1  0.442794  0.171371  0.859666  1
  Te  Te15  1  0.526169  0.859666  0.171371  1
