# generated using pymatgen
data_Tb5Rh2
_symmetry_space_group_name_H-M   'P 1'
_cell_length_a   6.44579658
_cell_length_b   7.14336194
_cell_length_c   8.74930871
_cell_angle_alpha   96.93515154
_cell_angle_beta   111.61453468
_cell_angle_gamma   90.00000495
_symmetry_Int_Tables_number   1
_chemical_formula_structural   Tb5Rh2
_chemical_formula_sum   'Tb10 Rh4'
_cell_volume   371.35881068
_cell_formula_units_Z   2
loop_
 _symmetry_equiv_pos_site_id
 _symmetry_equiv_pos_as_xyz
  1  'x, y, z'
loop_
 _atom_site_type_symbol
 _atom_site_label
 _atom_site_symmetry_multiplicity
 _atom_site_fract_x
 _atom_site_fract_y
 _atom_site_fract_z
 _atom_site_occupancy
  Tb  Tb0  1  0.981745  0.918041  0.188354  1
  Tb  Tb1  1  0.793390  0.581959  0.811646  1
  Tb  Tb2  1  0.018255  0.081959  0.811646  1
  Tb  Tb3  1  0.206610  0.418041  0.188354  1
  Tb  Tb4  1  0.647415  0.811923  0.437152  1
  Tb  Tb5  1  0.210264  0.688077  0.562848  1
  Tb  Tb6  1  0.352585  0.188077  0.562848  1
  Tb  Tb7  1  0.789736  0.311923  0.437152  1
  Tb  Tb8  1  0.424678  0.750000  0.000000  1
  Tb  Tb9  1  0.575322  0.250000  0.000000  1
  Rh  Rh10  1  0.815436  0.573567  0.222205  1
  Rh  Rh11  1  0.593231  0.926433  0.777795  1
  Rh  Rh12  1  0.184564  0.426433  0.777795  1
  Rh  Rh13  1  0.406769  0.073567  0.222205  1
