# generated using pymatgen
data_Hf18TiRe6B2Mo
_symmetry_space_group_name_H-M   'P 1'
_cell_length_a   8.49928800
_cell_length_b   8.49928772
_cell_length_c   8.51567500
_cell_angle_alpha   90.00000000
_cell_angle_beta   90.00000000
_cell_angle_gamma   120.00000109
_symmetry_Int_Tables_number   1
_chemical_formula_structural   Hf18TiRe6B2Mo
_chemical_formula_sum   'Hf18 Ti1 Re6 B2 Mo1'
_cell_volume   532.73935707
_cell_formula_units_Z   1
loop_
 _symmetry_equiv_pos_site_id
 _symmetry_equiv_pos_as_xyz
  1  'x, y, z'
loop_
 _atom_site_type_symbol
 _atom_site_label
 _atom_site_symmetry_multiplicity
 _atom_site_fract_x
 _atom_site_fract_y
 _atom_site_fract_z
 _atom_site_occupancy
  Hf  Hf0  1  0.201827  0.798173  0.443701  1
  Hf  Hf1  1  0.201827  0.403653  0.443701  1
  Hf  Hf2  1  0.596347  0.798173  0.443701  1
  Hf  Hf3  1  0.798173  0.201827  0.556299  1
  Hf  Hf4  1  0.798173  0.596347  0.556299  1
  Hf  Hf5  1  0.403653  0.201827  0.556299  1
  Hf  Hf6  1  0.798553  0.201447  0.944119  1
  Hf  Hf7  1  0.798553  0.597107  0.944119  1
  Hf  Hf8  1  0.402893  0.201447  0.944119  1
  Hf  Hf9  1  0.201447  0.798553  0.055881  1
  Hf  Hf10  1  0.201447  0.402893  0.055881  1
  Hf  Hf11  1  0.597107  0.798553  0.055881  1
  Hf  Hf12  1  0.540846  0.459154  0.250356  1
  Hf  Hf13  1  0.540846  0.081693  0.250356  1
  Hf  Hf14  1  0.918307  0.459154  0.250356  1
  Hf  Hf15  1  0.459154  0.540846  0.749644  1
  Hf  Hf16  1  0.459154  0.918307  0.749644  1
  Hf  Hf17  1  0.081693  0.540846  0.749644  1
  Ti  Ti18  1  0.000000  0.000000  0.000000  1
  Re  Re19  1  0.888012  0.111988  0.249244  1
  Re  Re20  1  0.888012  0.776024  0.249244  1
  Re  Re21  1  0.223976  0.111988  0.249244  1
  Re  Re22  1  0.111988  0.888012  0.750756  1
  Re  Re23  1  0.111988  0.223976  0.750756  1
  Re  Re24  1  0.776024  0.888012  0.750756  1
  B  B25  1  0.333333  0.666667  0.250131  1
  B  B26  1  0.666667  0.333333  0.749869  1
  Mo  Mo27  1  0.000000  0.000000  0.500000  1
