# generated using pymatgen
data_CaNd2(Al3Pd2)3
_symmetry_space_group_name_H-M   'P 1'
_cell_length_a   4.22479800
_cell_length_b   9.52953561
_cell_length_c   9.53281716
_cell_angle_alpha   119.98863813
_cell_angle_beta   90.00000000
_cell_angle_gamma   90.00000000
_symmetry_Int_Tables_number   1
_chemical_formula_structural   CaNd2(Al3Pd2)3
_chemical_formula_sum   'Ca1 Nd2 Al9 Pd6'
_cell_volume   332.41398906
_cell_formula_units_Z   1
loop_
 _symmetry_equiv_pos_site_id
 _symmetry_equiv_pos_as_xyz
  1  'x, y, z'
loop_
 _atom_site_type_symbol
 _atom_site_label
 _atom_site_symmetry_multiplicity
 _atom_site_fract_x
 _atom_site_fract_y
 _atom_site_fract_z
 _atom_site_occupancy
  Ca  Ca0  1  0.000000  0.999852  0.000000  1
  Nd  Nd1  1  0.500000  0.333306  0.666450  1
  Nd  Nd2  1  0.500000  0.666857  0.333550  1
  Al  Al3  1  0.500000  0.303036  0.000000  1
  Al  Al4  1  0.500000  0.696985  0.697044  1
  Al  Al5  1  0.500000  0.999941  0.302956  1
  Al  Al6  1  0.500000  0.697009  0.000000  1
  Al  Al7  1  0.500000  0.303019  0.302956  1
  Al  Al8  1  0.500000  0.000063  0.697044  1
  Al  Al9  1  0.000000  0.499969  0.000000  1
  Al  Al10  1  0.000000  0.499965  0.500008  1
  Al  Al11  1  0.000000  0.999957  0.499992  1
  Pd  Pd12  1  0.000000  0.182597  0.365301  1
  Pd  Pd13  1  0.000000  0.182625  0.817218  1
  Pd  Pd14  1  0.000000  0.634665  0.817317  1
  Pd  Pd15  1  0.000000  0.817297  0.634699  1
  Pd  Pd16  1  0.000000  0.365408  0.182782  1
  Pd  Pd17  1  0.000000  0.817350  0.182683  1
