# generated using pymatgen
data_Yb2Tc5(NiP)7
_symmetry_space_group_name_H-M   'P 1'
_cell_length_a   9.31118997
_cell_length_b   9.33532721
_cell_length_c   3.74599000
_cell_angle_alpha   90.00000000
_cell_angle_beta   90.00000000
_cell_angle_gamma   120.27908873
_symmetry_Int_Tables_number   1
_chemical_formula_structural   Yb2Tc5(NiP)7
_chemical_formula_sum   'Yb2 Tc5 Ni7 P7'
_cell_volume   281.19250203
_cell_formula_units_Z   1
loop_
 _symmetry_equiv_pos_site_id
 _symmetry_equiv_pos_as_xyz
  1  'x, y, z'
loop_
 _atom_site_type_symbol
 _atom_site_label
 _atom_site_symmetry_multiplicity
 _atom_site_fract_x
 _atom_site_fract_y
 _atom_site_fract_z
 _atom_site_occupancy
  Yb  Yb0  1  0.996066  0.995370  0.000000  1
  Yb  Yb1  1  0.331999  0.666849  0.500000  1
  Tc  Tc2  1  0.058984  0.768809  0.500000  1
  Tc  Tc3  1  0.711212  0.942025  0.500000  1
  Tc  Tc4  1  0.236748  0.294462  0.500000  1
  Tc  Tc5  1  0.875278  0.417305  0.500000  1
  Tc  Tc6  1  0.548777  0.132319  0.500000  1
  Ni  Ni7  1  0.091849  0.397759  0.000000  1
  Ni  Ni8  1  0.305321  0.905364  0.000000  1
  Ni  Ni9  1  0.600084  0.696419  0.000000  1
  Ni  Ni10  1  0.819891  0.603863  0.000000  1
  Ni  Ni11  1  0.784428  0.174058  0.000000  1
  Ni  Ni12  1  0.391134  0.218896  0.000000  1
  Ni  Ni13  1  0.586165  0.458710  0.500000  1
  P  P14  1  0.075653  0.629815  0.000000  1
  P  P15  1  0.551255  0.917636  0.000000  1
  P  P16  1  0.369494  0.451546  0.000000  1
  P  P17  1  0.782650  0.732264  0.500000  1
  P  P18  1  0.953268  0.213915  0.500000  1
  P  P19  1  0.264001  0.052093  0.500000  1
  P  P20  1  0.665741  0.330525  0.000000  1
