# generated using pymatgen
data_Ho8Cd2NiOs
_symmetry_space_group_name_H-M   'P 1'
_cell_length_a   9.54083722
_cell_length_b   9.54083749
_cell_length_c   9.64288700
_cell_angle_alpha   59.64553793
_cell_angle_beta   59.64553698
_cell_angle_gamma   59.46404640
_symmetry_Int_Tables_number   1
_chemical_formula_structural   Ho8Cd2NiOs
_chemical_formula_sum   'Ho16 Cd4 Ni2 Os2'
_cell_volume   614.81752748
_cell_formula_units_Z   2
loop_
 _symmetry_equiv_pos_site_id
 _symmetry_equiv_pos_as_xyz
  1  'x, y, z'
loop_
 _atom_site_type_symbol
 _atom_site_label
 _atom_site_symmetry_multiplicity
 _atom_site_fract_x
 _atom_site_fract_y
 _atom_site_fract_z
 _atom_site_occupancy
  Ho  Ho0  1  0.350752  0.350752  0.342302  1
  Ho  Ho1  1  0.350752  0.350752  0.956192  1
  Ho  Ho2  1  0.352521  0.956051  0.345714  1
  Ho  Ho3  1  0.956051  0.352521  0.345714  1
  Ho  Ho4  1  0.810849  0.185486  0.191140  1
  Ho  Ho5  1  0.185486  0.810849  0.812524  1
  Ho  Ho6  1  0.185486  0.810849  0.191140  1
  Ho  Ho7  1  0.810849  0.185486  0.812524  1
  Ho  Ho8  1  0.188164  0.188164  0.811836  1
  Ho  Ho9  1  0.809523  0.809523  0.190477  1
  Ho  Ho10  1  0.939157  0.555699  0.567288  1
  Ho  Ho11  1  0.555699  0.939157  0.937856  1
  Ho  Ho12  1  0.555699  0.939157  0.567288  1
  Ho  Ho13  1  0.939157  0.555699  0.937856  1
  Ho  Ho14  1  0.565774  0.565774  0.934226  1
  Ho  Ho15  1  0.941749  0.941749  0.558251  1
  Cd  Cd16  1  0.579115  0.579115  0.582998  1
  Cd  Cd17  1  0.579115  0.579115  0.258772  1
  Cd  Cd18  1  0.579965  0.255893  0.582071  1
  Cd  Cd19  1  0.255893  0.579965  0.582071  1
  Ni  Ni20  1  0.143250  0.576893  0.139929  1
  Ni  Ni21  1  0.576893  0.143250  0.139929  1
  Os  Os22  1  0.144050  0.144050  0.138082  1
  Os  Os23  1  0.144050  0.144050  0.573818  1
