# generated using pymatgen
data_TbLu9(Bi3C)2
_symmetry_space_group_name_H-M   'P 1'
_cell_length_a   9.03255700
_cell_length_b   9.03255740
_cell_length_c   6.36420800
_cell_angle_alpha   90.00000000
_cell_angle_beta   90.00000000
_cell_angle_gamma   120.00000219
_symmetry_Int_Tables_number   1
_chemical_formula_structural   TbLu9(Bi3C)2
_chemical_formula_sum   'Tb1 Lu9 Bi6 C2'
_cell_volume   449.67260310
_cell_formula_units_Z   1
loop_
 _symmetry_equiv_pos_site_id
 _symmetry_equiv_pos_as_xyz
  1  'x, y, z'
loop_
 _atom_site_type_symbol
 _atom_site_label
 _atom_site_symmetry_multiplicity
 _atom_site_fract_x
 _atom_site_fract_y
 _atom_site_fract_z
 _atom_site_occupancy
  Tb  Tb0  1  0.666667  0.333333  0.500000  1
  Lu  Lu1  1  0.333333  0.666667  0.500000  1
  Lu  Lu2  1  0.333333  0.666667  0.000000  1
  Lu  Lu3  1  0.666667  0.333333  0.000000  1
  Lu  Lu4  1  0.796136  0.795961  0.249819  1
  Lu  Lu5  1  0.204039  0.000175  0.249819  1
  Lu  Lu6  1  0.999825  0.203864  0.249819  1
  Lu  Lu7  1  0.204039  0.203864  0.750181  1
  Lu  Lu8  1  0.796136  0.000175  0.750181  1
  Lu  Lu9  1  0.999825  0.795961  0.750181  1
  Bi  Bi10  1  0.398523  0.400348  0.248273  1
  Bi  Bi11  1  0.599652  0.998175  0.248273  1
  Bi  Bi12  1  0.001825  0.601477  0.248273  1
  Bi  Bi13  1  0.599652  0.601477  0.751727  1
  Bi  Bi14  1  0.398523  0.998175  0.751727  1
  Bi  Bi15  1  0.001825  0.400348  0.751727  1
  C  C16  1  0.000000  0.000000  0.500000  1
  C  C17  1  0.000000  0.000000  0.000000  1
