# generated using pymatgen
data_Ce2Dy11Tm3Mg3Co4Hg
_symmetry_space_group_name_H-M   'P 1'
_cell_length_a   9.32355981
_cell_length_b   9.53409017
_cell_length_c   9.55443246
_cell_angle_alpha   58.95734006
_cell_angle_beta   61.29706250
_cell_angle_gamma   61.20255142
_symmetry_Int_Tables_number   1
_chemical_formula_structural   Ce2Dy11Tm3Mg3Co4Hg
_chemical_formula_sum   'Ce2 Dy11 Tm3 Mg3 Co4 Hg1'
_cell_volume   606.51457972
_cell_formula_units_Z   1
loop_
 _symmetry_equiv_pos_site_id
 _symmetry_equiv_pos_as_xyz
  1  'x, y, z'
loop_
 _atom_site_type_symbol
 _atom_site_label
 _atom_site_symmetry_multiplicity
 _atom_site_fract_x
 _atom_site_fract_y
 _atom_site_fract_z
 _atom_site_occupancy
  Ce  Ce0  1  0.818048  0.181494  0.181721  1
  Ce  Ce1  1  0.180040  0.818994  0.816881  1
  Dy  Dy2  1  0.810151  0.810642  0.189899  1
  Dy  Dy3  1  0.926684  0.572389  0.574290  1
  Dy  Dy4  1  0.574907  0.925308  0.924773  1
  Dy  Dy5  1  0.558347  0.938726  0.558561  1
  Dy  Dy6  1  0.940067  0.558263  0.942011  1
  Dy  Dy7  1  0.557738  0.557289  0.938196  1
  Dy  Dy8  1  0.939711  0.942884  0.558314  1
  Dy  Dy9  1  0.332923  0.348495  0.349803  1
  Dy  Dy10  1  0.350628  0.332677  0.966121  1
  Dy  Dy11  1  0.350922  0.966023  0.333831  1
  Dy  Dy12  1  0.968460  0.349187  0.349562  1
  Tm  Tm13  1  0.188313  0.812560  0.186861  1
  Tm  Tm14  1  0.810182  0.190959  0.809487  1
  Tm  Tm15  1  0.187561  0.187322  0.812540  1
  Mg  Mg16  1  0.577961  0.582102  0.265317  1
  Mg  Mg17  1  0.578495  0.265582  0.582357  1
  Mg  Mg18  1  0.267776  0.578620  0.578810  1
  Co  Co19  1  0.096242  0.153607  0.153982  1
  Co  Co20  1  0.150706  0.097532  0.595901  1
  Co  Co21  1  0.152073  0.594097  0.097296  1
  Co  Co22  1  0.595298  0.154086  0.152451  1
  Hg  Hg23  1  0.586769  0.581158  0.581032  1
