# generated using pymatgen
data_SmY(LuBi)3
_symmetry_space_group_name_H-M   'P 1'
_cell_length_a   8.24725900
_cell_length_b   9.39751200
_cell_length_c   12.04427400
_cell_angle_alpha   90.00000000
_cell_angle_beta   90.00000000
_cell_angle_gamma   90.00000000
_symmetry_Int_Tables_number   1
_chemical_formula_structural   SmY(LuBi)3
_chemical_formula_sum   'Sm4 Y4 Lu12 Bi12'
_cell_volume   933.47598453
_cell_formula_units_Z   4
loop_
 _symmetry_equiv_pos_site_id
 _symmetry_equiv_pos_as_xyz
  1  'x, y, z'
loop_
 _atom_site_type_symbol
 _atom_site_label
 _atom_site_symmetry_multiplicity
 _atom_site_fract_x
 _atom_site_fract_y
 _atom_site_fract_z
 _atom_site_occupancy
  Sm  Sm0  1  0.185805  0.750000  0.719199  1
  Sm  Sm1  1  0.685805  0.750000  0.780801  1
  Sm  Sm2  1  0.814195  0.250000  0.280801  1
  Sm  Sm3  1  0.314195  0.250000  0.219199  1
  Y  Y4  1  0.353331  0.750000  0.216672  1
  Y  Y5  1  0.853331  0.750000  0.283328  1
  Y  Y6  1  0.646669  0.250000  0.783328  1
  Y  Y7  1  0.146669  0.250000  0.716672  1
  Lu  Lu8  1  0.023570  0.750000  0.989635  1
  Lu  Lu9  1  0.523570  0.750000  0.510365  1
  Lu  Lu10  1  0.976430  0.250000  0.010365  1
  Lu  Lu11  1  0.476430  0.250000  0.489635  1
  Lu  Lu12  1  0.307745  0.432913  0.940721  1
  Lu  Lu13  1  0.807745  0.067087  0.559279  1
  Lu  Lu14  1  0.692255  0.932913  0.059279  1
  Lu  Lu15  1  0.192255  0.567087  0.440721  1
  Lu  Lu16  1  0.692255  0.567087  0.059279  1
  Lu  Lu17  1  0.192255  0.932913  0.440721  1
  Lu  Lu18  1  0.307745  0.067087  0.940721  1
  Lu  Lu19  1  0.807745  0.432913  0.559279  1
  Bi  Bi20  1  0.434503  0.005692  0.671329  1
  Bi  Bi21  1  0.934503  0.494308  0.828671  1
  Bi  Bi22  1  0.565497  0.505692  0.328671  1
  Bi  Bi23  1  0.065497  0.994308  0.171329  1
  Bi  Bi24  1  0.565497  0.994308  0.328671  1
  Bi  Bi25  1  0.065497  0.505692  0.171329  1
  Bi  Bi26  1  0.434503  0.494308  0.671329  1
  Bi  Bi27  1  0.934503  0.005692  0.828671  1
  Bi  Bi28  1  0.403962  0.750000  0.958877  1
  Bi  Bi29  1  0.903962  0.750000  0.541123  1
  Bi  Bi30  1  0.596038  0.250000  0.041123  1
  Bi  Bi31  1  0.096038  0.250000  0.458877  1
