# generated using pymatgen
data_LiSc6Ni2Os3
_symmetry_space_group_name_H-M   'P 1'
_cell_length_a   4.54960000
_cell_length_b   6.43508600
_cell_length_c   13.63538001
_cell_angle_alpha   90.00093833
_cell_angle_beta   90.00317095
_cell_angle_gamma   89.99879005
_symmetry_Int_Tables_number   1
_chemical_formula_structural   LiSc6Ni2Os3
_chemical_formula_sum   'Li2 Sc12 Ni4 Os6'
_cell_volume   399.20393708
_cell_formula_units_Z   2
loop_
 _symmetry_equiv_pos_site_id
 _symmetry_equiv_pos_as_xyz
  1  'x, y, z'
loop_
 _atom_site_type_symbol
 _atom_site_label
 _atom_site_symmetry_multiplicity
 _atom_site_fract_x
 _atom_site_fract_y
 _atom_site_fract_z
 _atom_site_occupancy
  Li  Li0  1  0.000023  0.000000  0.999299  1
  Li  Li1  1  0.499439  0.500002  0.167451  1
  Sc  Sc2  1  0.500023  0.253158  0.996876  1
  Sc  Sc3  1  0.500025  0.746845  0.996876  1
  Sc  Sc4  1  0.999651  0.246842  0.169959  1
  Sc  Sc5  1  0.999653  0.753159  0.169959  1
  Sc  Sc6  1  0.499672  0.246773  0.337357  1
  Sc  Sc7  1  0.499673  0.753223  0.337358  1
  Sc  Sc8  1  0.999996  0.250304  0.500635  1
  Sc  Sc9  1  0.999998  0.749696  0.500635  1
  Sc  Sc10  1  0.500303  0.249864  0.665744  1
  Sc  Sc11  1  0.500306  0.750135  0.665743  1
  Sc  Sc12  1  0.000351  0.253122  0.829462  1
  Sc  Sc13  1  0.000353  0.746879  0.829461  1
  Ni  Ni14  1  0.999514  0.000000  0.335558  1
  Ni  Ni15  1  0.500019  0.499999  0.501671  1
  Ni  Ni16  1  0.000456  0.999999  0.664972  1
  Ni  Ni17  1  0.500525  0.500001  0.830985  1
  Os  Os18  1  0.000022  0.500001  0.999919  1
  Os  Os19  1  0.499655  0.000000  0.166904  1
  Os  Os20  1  0.999669  0.500000  0.333471  1
  Os  Os21  1  0.499998  0.999999  0.500854  1
  Os  Os22  1  0.000325  0.500000  0.665700  1
  Os  Os23  1  0.500349  0.000000  0.833152  1
