# generated using pymatgen
data_Hf2Zr3BeSn2Sb
_symmetry_space_group_name_H-M   'P 1'
_cell_length_a   8.58953017
_cell_length_b   8.59451544
_cell_length_c   5.78383300
_cell_angle_alpha   90.00000000
_cell_angle_beta   90.00000000
_cell_angle_gamma   120.01919903
_symmetry_Int_Tables_number   1
_chemical_formula_structural   Hf2Zr3BeSn2Sb
_chemical_formula_sum   'Hf4 Zr6 Be2 Sn4 Sb2'
_cell_volume   369.70313242
_cell_formula_units_Z   2
loop_
 _symmetry_equiv_pos_site_id
 _symmetry_equiv_pos_as_xyz
  1  'x, y, z'
loop_
 _atom_site_type_symbol
 _atom_site_label
 _atom_site_symmetry_multiplicity
 _atom_site_fract_x
 _atom_site_fract_y
 _atom_site_fract_z
 _atom_site_occupancy
  Hf  Hf0  1  0.333671  0.666836  0.000000  1
  Hf  Hf1  1  0.665060  0.332530  0.500000  1
  Hf  Hf2  1  0.665060  0.332530  0.000000  1
  Hf  Hf3  1  0.333671  0.666836  0.500000  1
  Zr  Zr4  1  0.254639  0.000719  0.250000  1
  Zr  Zr5  1  0.254639  0.253922  0.750000  1
  Zr  Zr6  1  0.000885  0.747332  0.750000  1
  Zr  Zr7  1  0.000885  0.253551  0.250000  1
  Zr  Zr8  1  0.745673  0.745589  0.250000  1
  Zr  Zr9  1  0.745673  0.000084  0.750000  1
  Be  Be10  1  0.998326  0.999163  0.000000  1
  Be  Be11  1  0.998326  0.999163  0.500000  1
  Sn  Sn12  1  0.611737  0.000344  0.250000  1
  Sn  Sn13  1  0.611737  0.611393  0.750000  1
  Sn  Sn14  1  0.999510  0.390322  0.750000  1
  Sn  Sn15  1  0.999510  0.609187  0.250000  1
  Sb  Sb16  1  0.390498  0.391228  0.250000  1
  Sb  Sb17  1  0.390498  0.999271  0.750000  1
