# generated using pymatgen
data_Th4Mn3FeI2
_symmetry_space_group_name_H-M   'P 1'
_cell_length_a   3.99967200
_cell_length_b   3.99967152
_cell_length_c   18.10841200
_cell_angle_alpha   90.00000000
_cell_angle_beta   90.00000000
_cell_angle_gamma   120.00000400
_symmetry_Int_Tables_number   1
_chemical_formula_structural   Th4Mn3FeI2
_chemical_formula_sum   'Th4 Mn3 Fe1 I2'
_cell_volume   250.87632777
_cell_formula_units_Z   1
loop_
 _symmetry_equiv_pos_site_id
 _symmetry_equiv_pos_as_xyz
  1  'x, y, z'
loop_
 _atom_site_type_symbol
 _atom_site_label
 _atom_site_symmetry_multiplicity
 _atom_site_fract_x
 _atom_site_fract_y
 _atom_site_fract_z
 _atom_site_occupancy
  Th  Th0  1  0.000000  0.000000  0.105265  1
  Th  Th1  1  0.000000  0.000000  0.602938  1
  Th  Th2  1  0.000000  0.000000  0.894733  1
  Th  Th3  1  0.000000  0.000000  0.397651  1
  Mn  Mn4  1  0.666667  0.333333  0.007457  1
  Mn  Mn5  1  0.333333  0.666667  0.504517  1
  Mn  Mn6  1  0.333333  0.666667  0.992644  1
  Fe  Fe7  1  0.666667  0.333333  0.494499  1
  I  I8  1  0.666667  0.333333  0.250900  1
  I  I9  1  0.333333  0.666667  0.749394  1
