# generated using pymatgen
data_NdTm5Bi2Os
_symmetry_space_group_name_H-M   'P 1'
_cell_length_a   8.28674400
_cell_length_b   8.25426182
_cell_length_c   4.26225600
_cell_angle_alpha   90.00000000
_cell_angle_beta   90.00000000
_cell_angle_gamma   120.13026099
_symmetry_Int_Tables_number   1
_chemical_formula_structural   NdTm5Bi2Os
_chemical_formula_sum   'Nd1 Tm5 Bi2 Os1'
_cell_volume   252.15104620
_cell_formula_units_Z   1
loop_
 _symmetry_equiv_pos_site_id
 _symmetry_equiv_pos_as_xyz
  1  'x, y, z'
loop_
 _atom_site_type_symbol
 _atom_site_label
 _atom_site_symmetry_multiplicity
 _atom_site_fract_x
 _atom_site_fract_y
 _atom_site_fract_z
 _atom_site_occupancy
  Nd  Nd0  1  0.395661  0.000000  0.000000  1
  Tm  Tm1  1  0.002844  0.381890  0.000000  1
  Tm  Tm2  1  0.620954  0.618110  0.000000  1
  Tm  Tm3  1  0.761577  0.000000  0.499999  1
  Tm  Tm4  1  0.228371  0.226398  0.499999  1
  Tm  Tm5  1  0.001971  0.773602  0.499999  1
  Bi  Bi6  1  0.674110  0.342136  0.499999  1
  Bi  Bi7  1  0.331973  0.657864  0.499999  1
  Os  Os8  1  0.982540  0.000000  0.000000  1
