# generated using pymatgen
data_Dy8ErLu11Sn16
_symmetry_space_group_name_H-M   'P 1'
_cell_length_a   7.94819006
_cell_length_b   8.07430940
_cell_length_c   15.26071603
_cell_angle_alpha   90.02857108
_cell_angle_beta   90.00736645
_cell_angle_gamma   90.06554406
_symmetry_Int_Tables_number   1
_chemical_formula_structural   Dy8ErLu11Sn16
_chemical_formula_sum   'Dy8 Er1 Lu11 Sn16'
_cell_volume   979.37316482
_cell_formula_units_Z   1
loop_
 _symmetry_equiv_pos_site_id
 _symmetry_equiv_pos_as_xyz
  1  'x, y, z'
loop_
 _atom_site_type_symbol
 _atom_site_label
 _atom_site_symmetry_multiplicity
 _atom_site_fract_x
 _atom_site_fract_y
 _atom_site_fract_z
 _atom_site_occupancy
  Dy  Dy0  1  0.520465  0.321215  0.904165  1
  Dy  Dy1  1  0.020661  0.178682  0.595620  1
  Dy  Dy2  1  0.479205  0.678438  0.403878  1
  Dy  Dy3  1  0.978767  0.822468  0.097425  1
  Dy  Dy4  1  0.480672  0.677894  0.096224  1
  Dy  Dy5  1  0.979446  0.821781  0.403455  1
  Dy  Dy6  1  0.519738  0.321151  0.595412  1
  Dy  Dy7  1  0.020414  0.178373  0.903701  1
  Er  Er8  1  0.866188  0.663509  0.877735  1
  Lu  Lu9  1  0.364577  0.837486  0.876205  1
  Lu  Lu10  1  0.865233  0.661964  0.623061  1
  Lu  Lu11  1  0.634937  0.161581  0.376679  1
  Lu  Lu12  1  0.135015  0.337920  0.123639  1
  Lu  Lu13  1  0.633821  0.161956  0.124608  1
  Lu  Lu14  1  0.134675  0.337461  0.376608  1
  Lu  Lu15  1  0.365972  0.838137  0.622740  1
  Lu  Lu16  1  0.196897  0.504797  0.749694  1
  Lu  Lu17  1  0.696232  0.995677  0.749283  1
  Lu  Lu18  1  0.803578  0.494985  0.250386  1
  Lu  Lu19  1  0.303169  0.004729  0.250009  1
  Sn  Sn20  1  0.296473  0.039432  0.041503  1
  Sn  Sn21  1  0.796926  0.460661  0.458150  1
  Sn  Sn22  1  0.704201  0.960265  0.541231  1
  Sn  Sn23  1  0.206632  0.538183  0.958972  1
  Sn  Sn24  1  0.701021  0.963550  0.958632  1
  Sn  Sn25  1  0.202535  0.539601  0.541452  1
  Sn  Sn26  1  0.296523  0.039116  0.458333  1
  Sn  Sn27  1  0.796672  0.459029  0.043020  1
  Sn  Sn28  1  0.561885  0.620056  0.749004  1
  Sn  Sn29  1  0.063035  0.880923  0.749000  1
  Sn  Sn30  1  0.437619  0.379835  0.250719  1
  Sn  Sn31  1  0.937564  0.120289  0.250051  1
  Sn  Sn32  1  0.330609  0.149404  0.749580  1
  Sn  Sn33  1  0.830119  0.350490  0.749391  1
  Sn  Sn34  1  0.669060  0.849916  0.250248  1
  Sn  Sn35  1  0.169463  0.649048  0.250187  1
