# generated using pymatgen
data_DyTmB6MoW
_symmetry_space_group_name_H-M   'P 1'
_cell_length_a   3.16253200
_cell_length_b   5.43644431
_cell_length_c   6.82273296
_cell_angle_alpha   78.12660034
_cell_angle_beta   90.00000000
_cell_angle_gamma   90.00000000
_symmetry_Int_Tables_number   1
_chemical_formula_structural   DyTmB6MoW
_chemical_formula_sum   'Dy1 Tm1 B6 Mo1 W1'
_cell_volume   114.79302593
_cell_formula_units_Z   1
loop_
 _symmetry_equiv_pos_site_id
 _symmetry_equiv_pos_as_xyz
  1  'x, y, z'
loop_
 _atom_site_type_symbol
 _atom_site_label
 _atom_site_symmetry_multiplicity
 _atom_site_fract_x
 _atom_site_fract_y
 _atom_site_fract_z
 _atom_site_occupancy
  Dy  Dy0  1  0.250000  0.326131  0.706767  1
  Tm  Tm1  1  0.750000  0.678088  0.288590  1
  B  B2  1  0.250000  0.913873  0.523020  1
  B  B3  1  0.750000  0.079280  0.474550  1
  B  B4  1  0.250000  0.912688  0.006363  1
  B  B5  1  0.750000  0.087526  0.996508  1
  B  B6  1  0.250000  0.583786  0.008876  1
  B  B7  1  0.750000  0.417397  0.994282  1
  Mo  Mo8  1  0.750000  0.812020  0.780296  1
  W  W9  1  0.250000  0.189212  0.220746  1
