# generated using pymatgen
data_Er3U(Si5Os3)2
_symmetry_space_group_name_H-M   'P 1'
_cell_length_a   8.10355638
_cell_length_b   8.09688914
_cell_length_c   5.77640611
_cell_angle_alpha   70.70107650
_cell_angle_beta   70.71498929
_cell_angle_gamma   93.86832268
_symmetry_Int_Tables_number   1
_chemical_formula_structural   Er3U(Si5Os3)2
_chemical_formula_sum   'Er3 U1 Si10 Os6'
_cell_volume   330.93879186
_cell_formula_units_Z   1
loop_
 _symmetry_equiv_pos_site_id
 _symmetry_equiv_pos_as_xyz
  1  'x, y, z'
loop_
 _atom_site_type_symbol
 _atom_site_label
 _atom_site_symmetry_multiplicity
 _atom_site_fract_x
 _atom_site_fract_y
 _atom_site_fract_z
 _atom_site_occupancy
  Er  Er0  1  0.870768  0.601354  0.752080  1
  Er  Er1  1  0.400388  0.134363  0.739689  1
  Er  Er2  1  0.133237  0.397557  0.244281  1
  U  U3  1  0.594018  0.870787  0.260153  1
  Si  Si4  1  0.067597  0.259790  0.836873  1
  Si  Si5  1  0.735496  0.934596  0.668456  1
  Si  Si6  1  0.931640  0.739365  0.163177  1
  Si  Si7  1  0.265355  0.064514  0.331919  1
  Si  Si8  1  0.208214  0.797187  0.739562  1
  Si  Si9  1  0.794775  0.205706  0.258894  1
  Si  Si10  1  0.515721  0.486295  0.749395  1
  Si  Si11  1  0.484563  0.511109  0.254139  1
  Si  Si12  1  0.774675  0.226710  0.743647  1
  Si  Si13  1  0.224937  0.776083  0.254829  1
  Os  Os14  1  0.255882  0.540244  0.634280  1
  Os  Os15  1  0.453315  0.745069  0.869112  1
  Os  Os16  1  0.744534  0.460057  0.363336  1
  Os  Os17  1  0.549466  0.252707  0.129905  1
  Os  Os18  1  0.000496  0.996992  0.751732  1
  Os  Os19  1  0.994923  0.999514  0.254539  1
