# generated using pymatgen
data_Ce2Lu2Al4IrRh3
_symmetry_space_group_name_H-M   'P 1'
_cell_length_a   6.79553557
_cell_length_b   4.26541600
_cell_length_c   7.93212668
_cell_angle_alpha   90.00000000
_cell_angle_beta   90.04710865
_cell_angle_gamma   90.00000000
_symmetry_Int_Tables_number   1
_chemical_formula_structural   Ce2Lu2Al4IrRh3
_chemical_formula_sum   'Ce2 Lu2 Al4 Ir1 Rh3'
_cell_volume   229.91884980
_cell_formula_units_Z   1
loop_
 _symmetry_equiv_pos_site_id
 _symmetry_equiv_pos_as_xyz
  1  'x, y, z'
loop_
 _atom_site_type_symbol
 _atom_site_label
 _atom_site_symmetry_multiplicity
 _atom_site_fract_x
 _atom_site_fract_y
 _atom_site_fract_z
 _atom_site_occupancy
  Ce  Ce0  1  0.035624  0.750000  0.825965  1
  Ce  Ce1  1  0.535224  0.750000  0.675518  1
  Lu  Lu2  1  0.959417  0.250000  0.185264  1
  Lu  Lu3  1  0.464487  0.250000  0.316399  1
  Al  Al4  1  0.866165  0.250000  0.554235  1
  Al  Al5  1  0.367533  0.250000  0.946343  1
  Al  Al6  1  0.135626  0.750000  0.433234  1
  Al  Al7  1  0.634013  0.750000  0.067588  1
  Ir  Ir8  1  0.760175  0.750000  0.379440  1
  Rh  Rh9  1  0.742367  0.250000  0.876449  1
  Rh  Rh10  1  0.242543  0.250000  0.623178  1
  Rh  Rh11  1  0.256826  0.750000  0.116388  1
