# generated using pymatgen
data_Zr2MnFe11P7
_symmetry_space_group_name_H-M   'P 1'
_cell_length_a   8.89592011
_cell_length_b   8.88673293
_cell_length_c   3.58460300
_cell_angle_alpha   90.00000000
_cell_angle_beta   90.00000000
_cell_angle_gamma   120.02916761
_symmetry_Int_Tables_number   1
_chemical_formula_structural   Zr2MnFe11P7
_chemical_formula_sum   'Zr2 Mn1 Fe11 P7'
_cell_volume   245.34486826
_cell_formula_units_Z   1
loop_
 _symmetry_equiv_pos_site_id
 _symmetry_equiv_pos_as_xyz
  1  'x, y, z'
loop_
 _atom_site_type_symbol
 _atom_site_label
 _atom_site_symmetry_multiplicity
 _atom_site_fract_x
 _atom_site_fract_y
 _atom_site_fract_z
 _atom_site_occupancy
  Zr  Zr0  1  0.665675  0.332784  0.000000  1
  Zr  Zr1  1  0.332049  0.666637  0.500000  1
  Mn  Mn2  1  0.883048  0.781366  0.000000  1
  Fe  Fe3  1  0.429357  0.061393  0.500000  1
  Fe  Fe4  1  0.938394  0.366800  0.500000  1
  Fe  Fe5  1  0.632098  0.570794  0.500000  1
  Fe  Fe6  1  0.156487  0.276871  0.500000  1
  Fe  Fe7  1  0.725568  0.881071  0.500000  1
  Fe  Fe8  1  0.119232  0.845304  0.500000  1
  Fe  Fe9  1  0.384221  0.436720  0.000000  1
  Fe  Fe10  1  0.562551  0.947996  0.000000  1
  Fe  Fe11  1  0.051733  0.614101  0.000000  1
  Fe  Fe12  1  0.222037  0.099561  0.000000  1
  Fe  Fe13  1  0.901436  0.118952  0.000000  1
  P  P14  1  0.115082  0.403618  0.000000  1
  P  P15  1  0.589999  0.709664  0.000000  1
  P  P16  1  0.289131  0.884924  0.000000  1
  P  P17  1  0.002401  0.004107  0.500000  1
  P  P18  1  0.413597  0.299712  0.500000  1
  P  P19  1  0.700051  0.113706  0.500000  1
  P  P20  1  0.885854  0.583919  0.500000  1
