# generated using pymatgen
data_K2RbTlCl6
_symmetry_space_group_name_H-M   'P 1'
_cell_length_a   7.70119866
_cell_length_b   12.92961837
_cell_length_c   13.26865000
_cell_angle_alpha   98.62632257
_cell_angle_beta   106.87009454
_cell_angle_gamma   90.00000280
_symmetry_Int_Tables_number   1
_chemical_formula_structural   K2RbTlCl6
_chemical_formula_sum   'K8 Rb4 Tl4 Cl24'
_cell_volume   1248.72242426
_cell_formula_units_Z   4
loop_
 _symmetry_equiv_pos_site_id
 _symmetry_equiv_pos_as_xyz
  1  'x, y, z'
loop_
 _atom_site_type_symbol
 _atom_site_label
 _atom_site_symmetry_multiplicity
 _atom_site_fract_x
 _atom_site_fract_y
 _atom_site_fract_z
 _atom_site_occupancy
  K  K0  1  0.525055  0.358424  0.680470  1
  K  K1  1  0.021904  0.202219  0.677048  1
  K  K2  1  0.344857  0.297781  0.322952  1
  K  K3  1  0.474945  0.641576  0.319530  1
  K  K4  1  0.844586  0.141576  0.319530  1
  K  K5  1  0.978096  0.797781  0.322952  1
  K  K6  1  0.155414  0.858424  0.680470  1
  K  K7  1  0.655143  0.702219  0.677048  1
  Rb  Rb8  1  0.211893  0.570589  0.897431  1
  Rb  Rb9  1  0.788107  0.429411  0.102569  1
  Rb  Rb10  1  0.685537  0.070589  0.897431  1
  Rb  Rb11  1  0.314463  0.929411  0.102569  1
  Tl  Tl12  1  0.000000  0.500000  0.500000  1
  Tl  Tl13  1  0.779871  0.750000  0.000000  1
  Tl  Tl14  1  0.220129  0.250000  0.000000  1
  Tl  Tl15  1  0.500000  0.000000  0.500000  1
  Cl  Cl16  1  0.867657  0.693345  0.501261  1
  Cl  Cl17  1  0.605778  0.685642  0.127835  1
  Cl  Cl18  1  0.862245  0.475546  0.652421  1
  Cl  Cl19  1  0.298286  0.570831  0.648935  1
  Cl  Cl20  1  0.350649  0.070831  0.648935  1
  Cl  Cl21  1  0.522057  0.185642  0.127835  1
  Cl  Cl22  1  0.209824  0.024454  0.347579  1
  Cl  Cl23  1  0.094089  0.696072  0.125413  1
  Cl  Cl24  1  0.132343  0.306655  0.498739  1
  Cl  Cl25  1  0.286275  0.432946  0.112914  1
  Cl  Cl26  1  0.790176  0.975546  0.652421  1
  Cl  Cl27  1  0.633605  0.193345  0.501261  1
  Cl  Cl28  1  0.713725  0.567054  0.887086  1
  Cl  Cl29  1  0.137755  0.524454  0.347579  1
  Cl  Cl30  1  0.905911  0.303928  0.874587  1
  Cl  Cl31  1  0.701714  0.429169  0.351065  1
  Cl  Cl32  1  0.366395  0.806655  0.498739  1
  Cl  Cl33  1  0.477943  0.814358  0.872165  1
  Cl  Cl34  1  0.968675  0.803928  0.874587  1
  Cl  Cl35  1  0.031325  0.196072  0.125413  1
  Cl  Cl36  1  0.394222  0.314358  0.872165  1
  Cl  Cl37  1  0.649351  0.929169  0.351065  1
  Cl  Cl38  1  0.173358  0.067054  0.887086  1
  Cl  Cl39  1  0.826642  0.932946  0.112914  1
