# generated using pymatgen
data_Th2Mn3Cr2(PIr)7
_symmetry_space_group_name_H-M   'P 1'
_cell_length_a   9.43632374
_cell_length_b   9.47569740
_cell_length_c   3.91032300
_cell_angle_alpha   90.00000000
_cell_angle_beta   90.00000000
_cell_angle_gamma   120.05590358
_symmetry_Int_Tables_number   1
_chemical_formula_structural   Th2Mn3Cr2(PIr)7
_chemical_formula_sum   'Th2 Mn3 Cr2 P7 Ir7'
_cell_volume   302.63026392
_cell_formula_units_Z   1
loop_
 _symmetry_equiv_pos_site_id
 _symmetry_equiv_pos_as_xyz
  1  'x, y, z'
loop_
 _atom_site_type_symbol
 _atom_site_label
 _atom_site_symmetry_multiplicity
 _atom_site_fract_x
 _atom_site_fract_y
 _atom_site_fract_z
 _atom_site_occupancy
  Th  Th0  1  0.336103  0.668055  0.000000  1
  Th  Th1  1  0.000620  0.997263  0.500000  1
  Mn  Mn2  1  0.561508  0.071109  0.000000  1
  Mn  Mn3  1  0.934971  0.486703  0.000000  1
  Mn  Mn4  1  0.506902  0.443000  0.000000  1
  Cr  Cr5  1  0.761664  0.548311  0.500000  1
  Cr  Cr6  1  0.449854  0.218295  0.500000  1
  P  P7  1  0.770116  0.029926  0.000000  1
  P  P8  1  0.958379  0.728547  0.000000  1
  P  P9  1  0.264225  0.226015  0.000000  1
  P  P10  1  0.389534  0.944930  0.500000  1
  P  P11  1  0.061561  0.454492  0.500000  1
  P  P12  1  0.555264  0.605044  0.500000  1
  P  P13  1  0.666979  0.340056  0.000000  1
  Ir  Ir14  1  0.026956  0.264425  0.000000  1
  Ir  Ir15  1  0.730660  0.759765  0.000000  1
  Ir  Ir16  1  0.238550  0.969011  0.000000  1
  Ir  Ir17  1  0.611246  0.893072  0.500000  1
  Ir  Ir18  1  0.106415  0.720346  0.500000  1
  Ir  Ir19  1  0.275868  0.387395  0.500000  1
  Ir  Ir20  1  0.792627  0.244243  0.500000  1
