# generated using pymatgen
data_HoReO5
_symmetry_space_group_name_H-M   'P 1'
_cell_length_a   12.67087800
_cell_length_b   5.29858506
_cell_length_c   6.76177998
_cell_angle_alpha   62.59579534
_cell_angle_beta   90.00000000
_cell_angle_gamma   90.00000000
_symmetry_Int_Tables_number   1
_chemical_formula_structural   HoReO5
_chemical_formula_sum   'Ho4 Re4 O20'
_cell_volume   403.02668313
_cell_formula_units_Z   4
loop_
 _symmetry_equiv_pos_site_id
 _symmetry_equiv_pos_as_xyz
  1  'x, y, z'
loop_
 _atom_site_type_symbol
 _atom_site_label
 _atom_site_symmetry_multiplicity
 _atom_site_fract_x
 _atom_site_fract_y
 _atom_site_fract_z
 _atom_site_occupancy
  Ho  Ho0  1  0.952836  0.636380  0.695980  1
  Ho  Ho1  1  0.452836  0.363620  0.804020  1
  Ho  Ho2  1  0.047164  0.363620  0.304020  1
  Ho  Ho3  1  0.547164  0.636380  0.195980  1
  Re  Re4  1  0.637871  0.860789  0.667731  1
  Re  Re5  1  0.137871  0.139211  0.832269  1
  Re  Re6  1  0.362129  0.139211  0.332269  1
  Re  Re7  1  0.862129  0.860789  0.167731  1
  O  O8  1  0.774632  0.805477  0.695417  1
  O  O9  1  0.274632  0.194523  0.804583  1
  O  O10  1  0.225368  0.194523  0.304583  1
  O  O11  1  0.725368  0.805477  0.195417  1
  O  O12  1  0.367469  0.797782  0.573861  1
  O  O13  1  0.867469  0.202218  0.926139  1
  O  O14  1  0.632531  0.202218  0.426139  1
  O  O15  1  0.132531  0.797782  0.073861  1
  O  O16  1  0.574135  0.019701  0.836902  1
  O  O17  1  0.074135  0.980299  0.663098  1
  O  O18  1  0.425865  0.980299  0.163098  1
  O  O19  1  0.925865  0.019701  0.336902  1
  O  O20  1  0.573787  0.682252  0.523592  1
  O  O21  1  0.073787  0.317748  0.976408  1
  O  O22  1  0.426213  0.317748  0.476408  1
  O  O23  1  0.926213  0.682252  0.023592  1
  O  O24  1  0.598362  0.517497  0.927619  1
  O  O25  1  0.098362  0.482503  0.572381  1
  O  O26  1  0.401638  0.482503  0.072381  1
  O  O27  1  0.901638  0.517497  0.427619  1
