# generated using pymatgen
data_Sr2CaLa7Si8O3
_symmetry_space_group_name_H-M   'P 1'
_cell_length_a   11.07136935
_cell_length_b   10.93503666
_cell_length_c   4.64688000
_cell_angle_alpha   90.00000000
_cell_angle_beta   90.00000000
_cell_angle_gamma   119.90979466
_symmetry_Int_Tables_number   1
_chemical_formula_structural   Sr2CaLa7Si8O3
_chemical_formula_sum   'Sr2 Ca1 La7 Si8 O3'
_cell_volume   487.64942323
_cell_formula_units_Z   1
loop_
 _symmetry_equiv_pos_site_id
 _symmetry_equiv_pos_as_xyz
  1  'x, y, z'
loop_
 _atom_site_type_symbol
 _atom_site_label
 _atom_site_symmetry_multiplicity
 _atom_site_fract_x
 _atom_site_fract_y
 _atom_site_fract_z
 _atom_site_occupancy
  Sr  Sr0  1  0.195532  0.775030  0.000000  1
  Sr  Sr1  1  0.584034  0.793533  0.000000  1
  Ca  Ca2  1  0.995103  0.499768  0.500000  1
  La  La3  1  0.788358  0.574813  0.000000  1
  La  La4  1  0.999556  0.999897  0.000000  1
  La  La5  1  0.189017  0.422877  0.000000  1
  La  La6  1  0.425216  0.213283  0.000000  1
  La  La7  1  0.498371  0.504336  0.500000  1
  La  La8  1  0.791811  0.218290  0.000000  1
  La  La9  1  0.494998  0.992108  0.500000  1
  Si  Si10  1  0.997562  0.783080  0.500000  1
  Si  Si11  1  0.999381  0.216975  0.500000  1
  Si  Si12  1  0.216711  0.220751  0.500000  1
  Si  Si13  1  0.785284  0.002931  0.500000  1
  Si  Si14  1  0.326110  0.657355  0.500000  1
  Si  Si15  1  0.216482  0.003317  0.500000  1
  Si  Si16  1  0.670686  0.335278  0.500000  1
  Si  Si17  1  0.784896  0.783866  0.500000  1
  O  O18  1  0.996753  0.483068  0.000000  1
  O  O19  1  0.523072  0.483118  0.000000  1
  O  O20  1  0.521066  0.036327  0.000000  1
