# generated using pymatgen
data_Ho16TlCd2InNi4
_symmetry_space_group_name_H-M   'P 1'
_cell_length_a   9.48359278
_cell_length_b   9.48359188
_cell_length_c   9.50277333
_cell_angle_alpha   60.23956636
_cell_angle_beta   60.23957257
_cell_angle_gamma   60.39313335
_symmetry_Int_Tables_number   1
_chemical_formula_structural   Ho16TlCd2InNi4
_chemical_formula_sum   'Ho16 Tl1 Cd2 In1 Ni4'
_cell_volume   608.31336933
_cell_formula_units_Z   1
loop_
 _symmetry_equiv_pos_site_id
 _symmetry_equiv_pos_as_xyz
  1  'x, y, z'
loop_
 _atom_site_type_symbol
 _atom_site_label
 _atom_site_symmetry_multiplicity
 _atom_site_fract_x
 _atom_site_fract_y
 _atom_site_fract_z
 _atom_site_occupancy
  Ho  Ho0  1  0.344129  0.344129  0.346706  1
  Ho  Ho1  1  0.348312  0.348312  0.954399  1
  Ho  Ho2  1  0.351536  0.950717  0.348900  1
  Ho  Ho3  1  0.950717  0.351536  0.348900  1
  Ho  Ho4  1  0.811855  0.190391  0.187938  1
  Ho  Ho5  1  0.188581  0.811832  0.812634  1
  Ho  Ho6  1  0.190391  0.811855  0.187938  1
  Ho  Ho7  1  0.811832  0.188581  0.812634  1
  Ho  Ho8  1  0.187934  0.187934  0.812498  1
  Ho  Ho9  1  0.811353  0.811353  0.189744  1
  Ho  Ho10  1  0.939336  0.566231  0.563740  1
  Ho  Ho11  1  0.563839  0.938695  0.934956  1
  Ho  Ho12  1  0.566231  0.939336  0.563740  1
  Ho  Ho13  1  0.938695  0.563839  0.934956  1
  Ho  Ho14  1  0.564546  0.564546  0.936392  1
  Ho  Ho15  1  0.940137  0.940137  0.560962  1
  Tl  Tl16  1  0.583238  0.583238  0.586017  1
  Cd  Cd17  1  0.578390  0.254768  0.581560  1
  Cd  Cd18  1  0.254768  0.578390  0.581560  1
  In  In19  1  0.581041  0.581041  0.253217  1
  Ni  Ni20  1  0.142270  0.142270  0.144889  1
  Ni  Ni21  1  0.137709  0.137709  0.573506  1
  Ni  Ni22  1  0.139773  0.573389  0.141108  1
  Ni  Ni23  1  0.573389  0.139773  0.141108  1
