# generated using pymatgen
data_Tb17Er2LuPb16
_symmetry_space_group_name_H-M   'P 1'
_cell_length_a   8.22235200
_cell_length_b   8.31320780
_cell_length_c   15.71152800
_cell_angle_alpha   90.00000000
_cell_angle_beta   90.00000000
_cell_angle_gamma   89.92149163
_symmetry_Int_Tables_number   1
_chemical_formula_structural   Tb17Er2LuPb16
_chemical_formula_sum   'Tb17 Er2 Lu1 Pb16'
_cell_volume   1073.94667491
_cell_formula_units_Z   1
loop_
 _symmetry_equiv_pos_site_id
 _symmetry_equiv_pos_as_xyz
  1  'x, y, z'
loop_
 _atom_site_type_symbol
 _atom_site_label
 _atom_site_symmetry_multiplicity
 _atom_site_fract_x
 _atom_site_fract_y
 _atom_site_fract_z
 _atom_site_occupancy
  Tb  Tb0  1  0.376635  0.841603  0.878976  1
  Tb  Tb1  1  0.876518  0.658350  0.620618  1
  Tb  Tb2  1  0.623982  0.158927  0.379727  1
  Tb  Tb3  1  0.122753  0.341872  0.120354  1
  Tb  Tb4  1  0.623982  0.158927  0.120273  1
  Tb  Tb5  1  0.122753  0.341872  0.379646  1
  Tb  Tb6  1  0.376635  0.841603  0.621024  1
  Tb  Tb7  1  0.876518  0.658350  0.879382  1
  Tb  Tb8  1  0.534056  0.323437  0.900108  1
  Tb  Tb9  1  0.034108  0.176562  0.600241  1
  Tb  Tb10  1  0.466404  0.676040  0.400267  1
  Tb  Tb11  1  0.965651  0.822911  0.099695  1
  Tb  Tb12  1  0.466404  0.676040  0.099733  1
  Tb  Tb13  1  0.965651  0.822911  0.400305  1
  Tb  Tb14  1  0.534056  0.323437  0.599892  1
  Tb  Tb15  1  0.034108  0.176562  0.899759  1
  Tb  Tb16  1  0.291429  0.003708  0.250000  1
  Er  Er17  1  0.208654  0.503983  0.750000  1
  Er  Er18  1  0.708638  0.995847  0.750000  1
  Lu  Lu19  1  0.790958  0.495639  0.250000  1
  Pb  Pb20  1  0.281459  0.033688  0.042530  1
  Pb  Pb21  1  0.781582  0.466898  0.456476  1
  Pb  Pb22  1  0.718450  0.966907  0.543974  1
  Pb  Pb23  1  0.218636  0.533422  0.956066  1
  Pb  Pb24  1  0.718450  0.966907  0.956026  1
  Pb  Pb25  1  0.218636  0.533422  0.543934  1
  Pb  Pb26  1  0.281459  0.033688  0.457470  1
  Pb  Pb27  1  0.781582  0.466898  0.043524  1
  Pb  Pb28  1  0.572027  0.625757  0.750000  1
  Pb  Pb29  1  0.071956  0.873798  0.750000  1
  Pb  Pb30  1  0.428688  0.375330  0.250000  1
  Pb  Pb31  1  0.926466  0.126793  0.250000  1
  Pb  Pb32  1  0.346444  0.154304  0.750000  1
  Pb  Pb33  1  0.845991  0.346435  0.750000  1
  Pb  Pb34  1  0.654612  0.845052  0.250000  1
  Pb  Pb35  1  0.153678  0.652121  0.250000  1
