# generated using pymatgen
data_Tb6TmCo6Sn23
_symmetry_space_group_name_H-M   'P 1'
_cell_length_a   9.72568801
_cell_length_b   9.72566839
_cell_length_c   9.99460902
_cell_angle_alpha   89.99722572
_cell_angle_beta   90.00322918
_cell_angle_gamma   120.01861701
_symmetry_Int_Tables_number   1
_chemical_formula_structural   Tb6TmCo6Sn23
_chemical_formula_sum   'Tb6 Tm1 Co6 Sn23'
_cell_volume   818.56793613
_cell_formula_units_Z   1
loop_
 _symmetry_equiv_pos_site_id
 _symmetry_equiv_pos_as_xyz
  1  'x, y, z'
loop_
 _atom_site_type_symbol
 _atom_site_label
 _atom_site_symmetry_multiplicity
 _atom_site_fract_x
 _atom_site_fract_y
 _atom_site_fract_z
 _atom_site_occupancy
  Tb  Tb0  1  0.999943  0.000056  0.000101  1
  Tb  Tb1  1  0.521669  0.478319  0.694158  1
  Tb  Tb2  1  0.478288  0.956684  0.305631  1
  Tb  Tb3  1  0.521601  0.043265  0.694323  1
  Tb  Tb4  1  0.043317  0.521712  0.305631  1
  Tb  Tb5  1  0.956740  0.478395  0.694325  1
  Tm  Tm6  1  0.478805  0.521190  0.305528  1
  Co  Co7  1  0.832667  0.167333  0.196907  1
  Co  Co8  1  0.167441  0.832558  0.803305  1
  Co  Co9  1  0.831822  0.664781  0.197017  1
  Co  Co10  1  0.167471  0.334920  0.803178  1
  Co  Co11  1  0.335219  0.168177  0.197017  1
  Co  Co12  1  0.665082  0.832530  0.803178  1
  Sn  Sn13  1  0.345682  0.000121  0.000094  1
  Sn  Sn14  1  0.654322  0.999958  0.000079  1
  Sn  Sn15  1  0.000051  0.345680  0.000067  1
  Sn  Sn16  1  0.999883  0.654317  0.000090  1
  Sn  Sn17  1  0.654218  0.654270  0.000189  1
  Sn  Sn18  1  0.345722  0.345778  0.000182  1
  Sn  Sn19  1  0.333325  0.666661  0.818034  1
  Sn  Sn20  1  0.666540  0.333456  0.182219  1
  Sn  Sn21  1  0.999923  0.000074  0.499888  1
  Sn  Sn22  1  0.781111  0.218887  0.451399  1
  Sn  Sn23  1  0.218846  0.781154  0.548513  1
  Sn  Sn24  1  0.780370  0.562284  0.450977  1
  Sn  Sn25  1  0.219255  0.437820  0.548093  1
  Sn  Sn26  1  0.437715  0.219629  0.450971  1
  Sn  Sn27  1  0.562176  0.780743  0.548080  1
  Sn  Sn28  1  0.334117  0.665881  0.116323  1
  Sn  Sn29  1  0.666616  0.333383  0.884421  1
  Sn  Sn30  1  0.117689  0.882322  0.274846  1
  Sn  Sn31  1  0.882306  0.117720  0.725080  1
  Sn  Sn32  1  0.118565  0.236251  0.274965  1
  Sn  Sn33  1  0.882197  0.764440  0.725112  1
  Sn  Sn34  1  0.763747  0.881440  0.274966  1
  Sn  Sn35  1  0.235556  0.117815  0.725115  1
