# generated using pymatgen
data_LaTb4Zr3(Ni4P3)4
_symmetry_space_group_name_H-M   'P 1'
_cell_length_a   12.39551400
_cell_length_b   12.39551362
_cell_length_c   3.82808300
_cell_angle_alpha   90.00000000
_cell_angle_beta   90.00000000
_cell_angle_gamma   120.00000173
_symmetry_Int_Tables_number   1
_chemical_formula_structural   LaTb4Zr3(Ni4P3)4
_chemical_formula_sum   'La1 Tb4 Zr3 Ni16 P12'
_cell_volume   509.37900026
_cell_formula_units_Z   1
loop_
 _symmetry_equiv_pos_site_id
 _symmetry_equiv_pos_as_xyz
  1  'x, y, z'
loop_
 _atom_site_type_symbol
 _atom_site_label
 _atom_site_symmetry_multiplicity
 _atom_site_fract_x
 _atom_site_fract_y
 _atom_site_fract_z
 _atom_site_occupancy
  La  La0  1  0.333333  0.666667  0.000000  1
  Tb  Tb1  1  0.184400  0.185747  0.500000  1
  Tb  Tb2  1  0.814253  0.998653  0.500000  1
  Tb  Tb3  1  0.001347  0.815600  0.500000  1
  Tb  Tb4  1  0.666667  0.333333  0.000000  1
  Zr  Zr5  1  0.564210  0.561773  0.000000  1
  Zr  Zr6  1  0.438227  0.002438  0.000000  1
  Zr  Zr7  1  0.997562  0.435790  0.000000  1
  Ni  Ni8  1  0.730510  0.725864  0.500000  1
  Ni  Ni9  1  0.274136  0.004646  0.500000  1
  Ni  Ni10  1  0.995354  0.269490  0.500000  1
  Ni  Ni11  1  0.182306  0.372578  0.000000  1
  Ni  Ni12  1  0.627422  0.809727  0.000000  1
  Ni  Ni13  1  0.190273  0.817694  0.000000  1
  Ni  Ni14  1  0.810681  0.623090  0.000000  1
  Ni  Ni15  1  0.812410  0.189319  0.000000  1
  Ni  Ni16  1  0.376910  0.187590  0.000000  1
  Ni  Ni17  1  0.361049  0.480256  0.500000  1
  Ni  Ni18  1  0.519744  0.880794  0.500000  1
  Ni  Ni19  1  0.119206  0.638951  0.500000  1
  Ni  Ni20  1  0.875027  0.513780  0.500000  1
  Ni  Ni21  1  0.638754  0.124973  0.500000  1
  Ni  Ni22  1  0.486220  0.361246  0.500000  1
  Ni  Ni23  1  0.000000  0.000000  0.000000  1
  P  P24  1  0.823841  0.821977  0.000000  1
  P  P25  1  0.178023  0.001864  0.000000  1
  P  P26  1  0.998136  0.176159  0.000000  1
  P  P27  1  0.166186  0.468485  0.500000  1
  P  P28  1  0.531515  0.697701  0.500000  1
  P  P29  1  0.302299  0.833814  0.500000  1
  P  P30  1  0.696713  0.524294  0.500000  1
  P  P31  1  0.827580  0.303287  0.500000  1
  P  P32  1  0.475706  0.172420  0.500000  1
  P  P33  1  0.356863  0.358265  0.000000  1
  P  P34  1  0.641735  0.998598  0.000000  1
  P  P35  1  0.001402  0.643137  0.000000  1
