# generated using pymatgen
data_Ac2TeIr2
_symmetry_space_group_name_H-M   'P 1'
_cell_length_a   4.48785400
_cell_length_b   4.48785250
_cell_length_c   17.23950500
_cell_angle_alpha   90.00000000
_cell_angle_beta   90.00000000
_cell_angle_gamma   119.99998154
_symmetry_Int_Tables_number   1
_chemical_formula_structural   Ac2TeIr2
_chemical_formula_sum   'Ac4 Te2 Ir4'
_cell_volume   300.69956459
_cell_formula_units_Z   2
loop_
 _symmetry_equiv_pos_site_id
 _symmetry_equiv_pos_as_xyz
  1  'x, y, z'
loop_
 _atom_site_type_symbol
 _atom_site_label
 _atom_site_symmetry_multiplicity
 _atom_site_fract_x
 _atom_site_fract_y
 _atom_site_fract_z
 _atom_site_occupancy
  Ac  Ac0  1  0.000000  0.000000  0.114431  1
  Ac  Ac1  1  0.000000  0.000000  0.885569  1
  Ac  Ac2  1  0.000000  0.000000  0.614431  1
  Ac  Ac3  1  0.000000  0.000000  0.385569  1
  Te  Te4  1  0.333333  0.666667  0.250000  1
  Te  Te5  1  0.666667  0.333333  0.750000  1
  Ir  Ir6  1  0.333333  0.666667  0.501219  1
  Ir  Ir7  1  0.666667  0.333333  0.498781  1
  Ir  Ir8  1  0.666667  0.333333  0.001219  1
  Ir  Ir9  1  0.333333  0.666667  0.998781  1
