# generated using pymatgen
data_Tb9Er2In9Co4
_symmetry_space_group_name_H-M   'P 1'
_cell_length_a   3.66282500
_cell_length_b   12.94894457
_cell_length_c   12.96021440
_cell_angle_alpha   111.17747334
_cell_angle_beta   90.00000000
_cell_angle_gamma   90.00000000
_symmetry_Int_Tables_number   1
_chemical_formula_structural   Tb9Er2In9Co4
_chemical_formula_sum   'Tb9 Er2 In9 Co4'
_cell_volume   573.18615246
_cell_formula_units_Z   1
loop_
 _symmetry_equiv_pos_site_id
 _symmetry_equiv_pos_as_xyz
  1  'x, y, z'
loop_
 _atom_site_type_symbol
 _atom_site_label
 _atom_site_symmetry_multiplicity
 _atom_site_fract_x
 _atom_site_fract_y
 _atom_site_fract_z
 _atom_site_occupancy
  Tb  Tb0  1  0.000000  0.580345  0.917891  1
  Tb  Tb1  1  0.000000  0.419655  0.082109  1
  Tb  Tb2  1  0.000000  0.160630  0.839070  1
  Tb  Tb3  1  0.000000  0.839370  0.160930  1
  Tb  Tb4  1  0.000000  0.374714  0.624217  1
  Tb  Tb5  1  0.000000  0.625286  0.375783  1
  Tb  Tb6  1  0.000000  0.685686  0.684334  1
  Tb  Tb7  1  0.000000  0.314314  0.315666  1
  Tb  Tb8  1  0.000000  0.000000  0.000000  1
  Er  Er9  1  0.000000  0.918279  0.580699  1
  Er  Er10  1  0.000000  0.081721  0.419301  1
  In  In11  1  0.500000  0.158160  0.629309  1
  In  In12  1  0.500000  0.841840  0.370691  1
  In  In13  1  0.500000  0.632500  0.161585  1
  In  In14  1  0.500000  0.367500  0.838415  1
  In  In15  1  0.500000  0.920922  0.777509  1
  In  In16  1  0.500000  0.079078  0.222491  1
  In  In17  1  0.500000  0.778661  0.919257  1
  In  In18  1  0.500000  0.221339  0.080743  1
  In  In19  1  0.500000  0.500000  0.500000  1
  Co  Co20  1  0.500000  0.755737  0.550265  1
  Co  Co21  1  0.500000  0.244263  0.449735  1
  Co  Co22  1  0.500000  0.549847  0.753109  1
  Co  Co23  1  0.500000  0.450153  0.246891  1
