# generated using pymatgen
data_NaTaNi4P3
_symmetry_space_group_name_H-M   'P 1'
_cell_length_a   3.69705200
_cell_length_b   10.56492200
_cell_length_c   12.11693300
_cell_angle_alpha   90.00000000
_cell_angle_beta   90.00000000
_cell_angle_gamma   90.00000000
_symmetry_Int_Tables_number   1
_chemical_formula_structural   NaTaNi4P3
_chemical_formula_sum   'Na4 Ta4 Ni16 P12'
_cell_volume   473.27608589
_cell_formula_units_Z   4
loop_
 _symmetry_equiv_pos_site_id
 _symmetry_equiv_pos_as_xyz
  1  'x, y, z'
loop_
 _atom_site_type_symbol
 _atom_site_label
 _atom_site_symmetry_multiplicity
 _atom_site_fract_x
 _atom_site_fract_y
 _atom_site_fract_z
 _atom_site_occupancy
  Na  Na0  1  0.250000  0.582163  0.705567  1
  Na  Na1  1  0.250000  0.917837  0.205567  1
  Na  Na2  1  0.750000  0.417837  0.294433  1
  Na  Na3  1  0.750000  0.082163  0.794433  1
  Ta  Ta4  1  0.250000  0.707680  0.991093  1
  Ta  Ta5  1  0.250000  0.792320  0.491093  1
  Ta  Ta6  1  0.750000  0.292320  0.008907  1
  Ta  Ta7  1  0.750000  0.207680  0.508907  1
  Ni  Ni8  1  0.250000  0.409453  0.489231  1
  Ni  Ni9  1  0.250000  0.090547  0.989231  1
  Ni  Ni10  1  0.750000  0.590547  0.510769  1
  Ni  Ni11  1  0.750000  0.909453  0.010769  1
  Ni  Ni12  1  0.250000  0.220414  0.174834  1
  Ni  Ni13  1  0.250000  0.279586  0.674834  1
  Ni  Ni14  1  0.750000  0.779586  0.825166  1
  Ni  Ni15  1  0.750000  0.720414  0.325166  1
  Ni  Ni16  1  0.250000  0.883858  0.705062  1
  Ni  Ni17  1  0.250000  0.616142  0.205062  1
  Ni  Ni18  1  0.750000  0.116142  0.294938  1
  Ni  Ni19  1  0.750000  0.383858  0.794938  1
  Ni  Ni20  1  0.250000  0.466847  0.929012  1
  Ni  Ni21  1  0.250000  0.033153  0.429012  1
  Ni  Ni22  1  0.750000  0.533153  0.070988  1
  Ni  Ni23  1  0.750000  0.966847  0.570988  1
  P  P24  1  0.250000  0.421360  0.115167  1
  P  P25  1  0.250000  0.078640  0.615167  1
  P  P26  1  0.750000  0.578640  0.884833  1
  P  P27  1  0.750000  0.921360  0.384833  1
  P  P28  1  0.250000  0.267695  0.861604  1
  P  P29  1  0.250000  0.232305  0.361604  1
  P  P30  1  0.750000  0.732305  0.138396  1
  P  P31  1  0.750000  0.767695  0.638396  1
  P  P32  1  0.250000  0.592266  0.389816  1
  P  P33  1  0.250000  0.907734  0.889816  1
  P  P34  1  0.750000  0.407734  0.610184  1
  P  P35  1  0.750000  0.092266  0.110184  1
