# generated using pymatgen
data_Ho4LuCo19(SiP)6
_symmetry_space_group_name_H-M   'P 1'
_cell_length_a   12.06674815
_cell_length_b   12.06675000
_cell_length_c   3.67592200
_cell_angle_alpha   90.00000000
_cell_angle_beta   90.00000000
_cell_angle_gamma   120.01826561
_symmetry_Int_Tables_number   1
_chemical_formula_structural   Ho4LuCo19(SiP)6
_chemical_formula_sum   'Ho4 Lu1 Co19 Si6 P6'
_cell_volume   463.44427197
_cell_formula_units_Z   1
loop_
 _symmetry_equiv_pos_site_id
 _symmetry_equiv_pos_as_xyz
  1  'x, y, z'
loop_
 _atom_site_type_symbol
 _atom_site_label
 _atom_site_symmetry_multiplicity
 _atom_site_fract_x
 _atom_site_fract_y
 _atom_site_fract_z
 _atom_site_occupancy
  Ho  Ho0  1  0.666913  0.333129  0.000000  1
  Ho  Ho1  1  0.333129  0.666913  0.000000  1
  Ho  Ho2  1  0.184083  0.999864  0.500000  1
  Ho  Ho3  1  0.999864  0.184083  0.500000  1
  Lu  Lu4  1  0.815625  0.815625  0.500000  1
  Co  Co5  1  0.878193  0.354384  0.500000  1
  Co  Co6  1  0.646022  0.524425  0.500000  1
  Co  Co7  1  0.476630  0.121825  0.500000  1
  Co  Co8  1  0.354384  0.878193  0.500000  1
  Co  Co9  1  0.524425  0.646022  0.500000  1
  Co  Co10  1  0.121825  0.476630  0.500000  1
  Co  Co11  1  0.448446  0.448446  0.000000  1
  Co  Co12  1  0.552227  0.999553  0.000000  1
  Co  Co13  1  0.999553  0.552227  0.000000  1
  Co  Co14  1  0.805414  0.177852  0.000000  1
  Co  Co15  1  0.821176  0.627849  0.000000  1
  Co  Co16  1  0.373300  0.194699  0.000000  1
  Co  Co17  1  0.177852  0.805414  0.000000  1
  Co  Co18  1  0.627849  0.821176  0.000000  1
  Co  Co19  1  0.194699  0.373300  0.000000  1
  Co  Co20  1  0.277598  0.277598  0.500000  1
  Co  Co21  1  0.722752  0.998950  0.500000  1
  Co  Co22  1  0.998950  0.722752  0.500000  1
  Co  Co23  1  0.999196  0.999196  0.000000  1
  Si  Si24  1  0.680839  0.158466  0.500000  1
  Si  Si25  1  0.840802  0.521638  0.500000  1
  Si  Si26  1  0.478752  0.319705  0.500000  1
  Si  Si27  1  0.158466  0.680839  0.500000  1
  Si  Si28  1  0.521638  0.840802  0.500000  1
  Si  Si29  1  0.319705  0.478752  0.500000  1
  P  P30  1  0.180491  0.180491  0.000000  1
  P  P31  1  0.819262  0.998739  0.000000  1
  P  P32  1  0.998739  0.819262  0.000000  1
  P  P33  1  0.633280  0.633280  0.000000  1
  P  P34  1  0.367927  0.999996  0.000000  1
  P  P35  1  0.999996  0.367927  0.000000  1
