# generated using pymatgen
data_Lu7(ScPb2)5
_symmetry_space_group_name_H-M   'P 1'
_cell_length_a   6.36111087
_cell_length_b   9.24056113
_cell_length_c   11.39185476
_cell_angle_alpha   114.09339348
_cell_angle_beta   106.21220506
_cell_angle_gamma   90.00000399
_symmetry_Int_Tables_number   1
_chemical_formula_structural   Lu7(ScPb2)5
_chemical_formula_sum   'Lu7 Sc5 Pb10'
_cell_volume   581.98903209
_cell_formula_units_Z   1
loop_
 _symmetry_equiv_pos_site_id
 _symmetry_equiv_pos_as_xyz
  1  'x, y, z'
loop_
 _atom_site_type_symbol
 _atom_site_label
 _atom_site_symmetry_multiplicity
 _atom_site_fract_x
 _atom_site_fract_y
 _atom_site_fract_z
 _atom_site_occupancy
  Lu  Lu0  1  0.560327  0.323748  0.120655  1
  Lu  Lu1  1  0.939311  0.204475  0.878624  1
  Lu  Lu2  1  0.061196  0.793875  0.122390  1
  Lu  Lu3  1  0.143247  0.251660  0.286492  1
  Lu  Lu4  1  0.856892  0.747021  0.713784  1
  Lu  Lu5  1  0.642186  0.031593  0.284371  1
  Lu  Lu6  1  0.358729  0.970933  0.717459  1
  Sc  Sc7  1  0.555255  0.307470  0.610150  1
  Sc  Sc8  1  0.444603  0.694279  0.389082  1
  Sc  Sc9  1  0.944479  0.694279  0.389082  1
  Sc  Sc10  1  0.054895  0.307470  0.610150  1
  Sc  Sc11  1  0.439173  0.674207  0.878345  1
  Pb  Pb12  1  0.292750  0.595241  0.585501  1
  Pb  Pb13  1  0.709675  0.409009  0.419349  1
  Pb  Pb14  1  0.789804  0.989803  0.579607  1
  Pb  Pb15  1  0.210662  0.010806  0.421325  1
  Pb  Pb16  1  0.249907  0.995365  0.997923  1
  Pb  Pb17  1  0.748016  0.995365  0.997923  1
  Pb  Pb18  1  0.077287  0.476702  0.154576  1
  Pb  Pb19  1  0.923528  0.522085  0.847054  1
  Pb  Pb20  1  0.573997  0.672682  0.147995  1
  Pb  Pb21  1  0.424082  0.331930  0.848164  1
