# generated using pymatgen
data_Np(TlCl3)2
_symmetry_space_group_name_H-M   'P 1'
_cell_length_a   7.40896000
_cell_length_b   7.40896010
_cell_length_c   7.40896000
_cell_angle_alpha   119.99999955
_cell_angle_beta   90.00000000
_cell_angle_gamma   119.99999955
_symmetry_Int_Tables_number   1
_chemical_formula_structural   Np(TlCl3)2
_chemical_formula_sum   'Np1 Tl2 Cl6'
_cell_volume   287.57873185
_cell_formula_units_Z   1
loop_
 _symmetry_equiv_pos_site_id
 _symmetry_equiv_pos_as_xyz
  1  'x, y, z'
loop_
 _atom_site_type_symbol
 _atom_site_label
 _atom_site_symmetry_multiplicity
 _atom_site_fract_x
 _atom_site_fract_y
 _atom_site_fract_z
 _atom_site_occupancy
  Np  Np0  1  0.000000  0.000000  0.000000  1
  Tl  Tl1  1  0.749999  0.500000  0.250000  1
  Tl  Tl2  1  0.250000  0.500000  0.749999  1
  Cl  Cl3  1  0.248402  0.000000  0.248402  1
  Cl  Cl4  1  0.248402  0.496804  0.248402  1
  Cl  Cl5  1  0.751599  0.000000  0.248402  1
  Cl  Cl6  1  0.751598  0.000000  0.751598  1
  Cl  Cl7  1  0.248402  0.000000  0.751599  1
  Cl  Cl8  1  0.751599  0.503197  0.751599  1
