# generated using pymatgen
data_BeV3AuN
_symmetry_space_group_name_H-M   'P 1'
_cell_length_a   6.54512200
_cell_length_b   6.54512200
_cell_length_c   6.54512200
_cell_angle_alpha   90.00000000
_cell_angle_beta   90.00000000
_cell_angle_gamma   90.00000000
_symmetry_Int_Tables_number   1
_chemical_formula_structural   BeV3AuN
_chemical_formula_sum   'Be4 V12 Au4 N4'
_cell_volume   280.38400727
_cell_formula_units_Z   4
loop_
 _symmetry_equiv_pos_site_id
 _symmetry_equiv_pos_as_xyz
  1  'x, y, z'
loop_
 _atom_site_type_symbol
 _atom_site_label
 _atom_site_symmetry_multiplicity
 _atom_site_fract_x
 _atom_site_fract_y
 _atom_site_fract_z
 _atom_site_occupancy
  Be  Be0  1  0.178167  0.821833  0.321833  1
  Be  Be1  1  0.321833  0.178167  0.821833  1
  Be  Be2  1  0.821833  0.321833  0.178167  1
  Be  Be3  1  0.678167  0.678167  0.678167  1
  V  V4  1  0.792998  0.968245  0.371210  1
  V  V5  1  0.707002  0.031755  0.871210  1
  V  V6  1  0.207002  0.468245  0.128790  1
  V  V7  1  0.292998  0.531755  0.628790  1
  V  V8  1  0.968245  0.371210  0.792998  1
  V  V9  1  0.031755  0.871210  0.707002  1
  V  V10  1  0.468245  0.128790  0.207002  1
  V  V11  1  0.531755  0.628790  0.292998  1
  V  V12  1  0.371210  0.792998  0.968245  1
  V  V13  1  0.871210  0.707002  0.031755  1
  V  V14  1  0.128790  0.207002  0.468245  1
  V  V15  1  0.628790  0.292998  0.531755  1
  Au  Au16  1  0.575724  0.424276  0.924276  1
  Au  Au17  1  0.424276  0.924276  0.575724  1
  Au  Au18  1  0.924276  0.575724  0.424276  1
  Au  Au19  1  0.075724  0.075724  0.075724  1
  N  N20  1  0.874829  0.125171  0.625171  1
  N  N21  1  0.625171  0.874829  0.125171  1
  N  N22  1  0.125171  0.625171  0.874829  1
  N  N23  1  0.374829  0.374829  0.374829  1
