# generated using pymatgen
data_Sc4Co7Ni(PRu)12
_symmetry_space_group_name_H-M   'P 1'
_cell_length_a   3.73358100
_cell_length_b   10.56603421
_cell_length_c   11.97458051
_cell_angle_alpha   89.84089899
_cell_angle_beta   90.00000000
_cell_angle_gamma   90.00000000
_symmetry_Int_Tables_number   1
_chemical_formula_structural   Sc4Co7Ni(PRu)12
_chemical_formula_sum   'Sc4 Co7 Ni1 P12 Ru12'
_cell_volume   472.38513658
_cell_formula_units_Z   1
loop_
 _symmetry_equiv_pos_site_id
 _symmetry_equiv_pos_as_xyz
  1  'x, y, z'
loop_
 _atom_site_type_symbol
 _atom_site_label
 _atom_site_symmetry_multiplicity
 _atom_site_fract_x
 _atom_site_fract_y
 _atom_site_fract_z
 _atom_site_occupancy
  Sc  Sc0  1  0.250000  0.582140  0.705631  1
  Sc  Sc1  1  0.250000  0.915787  0.206626  1
  Sc  Sc2  1  0.750000  0.415446  0.293898  1
  Sc  Sc3  1  0.750000  0.087831  0.795204  1
  Co  Co4  1  0.250000  0.611354  0.197342  1
  Co  Co5  1  0.750000  0.111070  0.302691  1
  Co  Co6  1  0.750000  0.389259  0.802699  1
  Co  Co7  1  0.250000  0.463582  0.933761  1
  Co  Co8  1  0.250000  0.036688  0.433577  1
  Co  Co9  1  0.750000  0.537058  0.066065  1
  Co  Co10  1  0.750000  0.961556  0.568075  1
  Ni  Ni11  1  0.250000  0.890125  0.698636  1
  P  P12  1  0.250000  0.426135  0.115347  1
  P  P13  1  0.250000  0.076833  0.613181  1
  P  P14  1  0.750000  0.574467  0.884396  1
  P  P15  1  0.750000  0.926022  0.385437  1
  P  P16  1  0.250000  0.270300  0.871179  1
  P  P17  1  0.250000  0.230734  0.370214  1
  P  P18  1  0.750000  0.730686  0.129338  1
  P  P19  1  0.750000  0.765593  0.627215  1
  P  P20  1  0.250000  0.598084  0.384614  1
  P  P21  1  0.250000  0.901126  0.888772  1
  P  P22  1  0.750000  0.400944  0.614699  1
  P  P23  1  0.750000  0.098721  0.115096  1
  Ru  Ru24  1  0.250000  0.706995  0.987428  1
  Ru  Ru25  1  0.250000  0.792489  0.487290  1
  Ru  Ru26  1  0.750000  0.292976  0.012375  1
  Ru  Ru27  1  0.750000  0.206291  0.513205  1
  Ru  Ru28  1  0.250000  0.405440  0.482612  1
  Ru  Ru29  1  0.250000  0.094334  0.982811  1
  Ru  Ru30  1  0.750000  0.592168  0.515438  1
  Ru  Ru31  1  0.750000  0.906154  0.016458  1
  Ru  Ru32  1  0.250000  0.225022  0.180624  1
  Ru  Ru33  1  0.250000  0.275469  0.681381  1
  Ru  Ru34  1  0.750000  0.775805  0.817729  1
  Ru  Ru35  1  0.750000  0.725317  0.318954  1
