# generated using pymatgen
data_Pr8Al(Si4Au)3
_symmetry_space_group_name_H-M   'P 1'
_cell_length_a   8.30678800
_cell_length_b   8.30678899
_cell_length_c   8.71796500
_cell_angle_alpha   90.00000000
_cell_angle_beta   90.00000000
_cell_angle_gamma   120.00000401
_symmetry_Int_Tables_number   1
_chemical_formula_structural   Pr8Al(Si4Au)3
_chemical_formula_sum   'Pr8 Al1 Si12 Au3'
_cell_volume   520.96919100
_cell_formula_units_Z   1
loop_
 _symmetry_equiv_pos_site_id
 _symmetry_equiv_pos_as_xyz
  1  'x, y, z'
loop_
 _atom_site_type_symbol
 _atom_site_label
 _atom_site_symmetry_multiplicity
 _atom_site_fract_x
 _atom_site_fract_y
 _atom_site_fract_z
 _atom_site_occupancy
  Pr  Pr0  1  0.501130  0.498870  0.746787  1
  Pr  Pr1  1  0.501471  0.498529  0.253142  1
  Pr  Pr2  1  0.997739  0.498870  0.746787  1
  Pr  Pr3  1  0.997057  0.498529  0.253142  1
  Pr  Pr4  1  0.501130  0.002261  0.746787  1
  Pr  Pr5  1  0.501471  0.002943  0.253142  1
  Pr  Pr6  1  0.000000  0.000000  0.749210  1
  Pr  Pr7  1  0.000000  0.000000  0.251033  1
  Al  Al8  1  0.666667  0.333333  0.500321  1
  Si  Si9  1  0.836465  0.163535  0.000899  1
  Si  Si10  1  0.163918  0.836082  0.999135  1
  Si  Si11  1  0.327069  0.163535  0.000899  1
  Si  Si12  1  0.164425  0.835575  0.499712  1
  Si  Si13  1  0.672163  0.836082  0.999135  1
  Si  Si14  1  0.835328  0.164672  0.500440  1
  Si  Si15  1  0.836465  0.672931  0.000899  1
  Si  Si16  1  0.671149  0.835575  0.499712  1
  Si  Si17  1  0.163918  0.327837  0.999135  1
  Si  Si18  1  0.329344  0.164672  0.500440  1
  Si  Si19  1  0.164425  0.328851  0.499712  1
  Si  Si20  1  0.835328  0.670656  0.500440  1
  Au  Au21  1  0.666667  0.333333  0.998718  1
  Au  Au22  1  0.333333  0.666667  0.000872  1
  Au  Au23  1  0.333333  0.666667  0.499499  1
