# generated using pymatgen
data_CeCo3P3Rh2
_symmetry_space_group_name_H-M   'P 1'
_cell_length_a   3.75955100
_cell_length_b   10.57194200
_cell_length_c   12.06102700
_cell_angle_alpha   90.00000000
_cell_angle_beta   90.00000000
_cell_angle_gamma   90.00000000
_symmetry_Int_Tables_number   1
_chemical_formula_structural   CeCo3P3Rh2
_chemical_formula_sum   'Ce4 Co12 P12 Rh8'
_cell_volume   479.37462561
_cell_formula_units_Z   4
loop_
 _symmetry_equiv_pos_site_id
 _symmetry_equiv_pos_as_xyz
  1  'x, y, z'
loop_
 _atom_site_type_symbol
 _atom_site_label
 _atom_site_symmetry_multiplicity
 _atom_site_fract_x
 _atom_site_fract_y
 _atom_site_fract_z
 _atom_site_occupancy
  Ce  Ce0  1  0.250000  0.585360  0.708993  1
  Ce  Ce1  1  0.250000  0.914640  0.208993  1
  Ce  Ce2  1  0.750000  0.414640  0.291007  1
  Ce  Ce3  1  0.750000  0.085360  0.791007  1
  Co  Co4  1  0.250000  0.220609  0.178541  1
  Co  Co5  1  0.250000  0.279391  0.678541  1
  Co  Co6  1  0.750000  0.779391  0.821459  1
  Co  Co7  1  0.750000  0.720609  0.321459  1
  Co  Co8  1  0.250000  0.883879  0.696328  1
  Co  Co9  1  0.250000  0.616121  0.196328  1
  Co  Co10  1  0.750000  0.116121  0.303672  1
  Co  Co11  1  0.750000  0.383879  0.803672  1
  Co  Co12  1  0.250000  0.466164  0.931425  1
  Co  Co13  1  0.250000  0.033836  0.431425  1
  Co  Co14  1  0.750000  0.533836  0.068575  1
  Co  Co15  1  0.750000  0.966164  0.568575  1
  P  P16  1  0.250000  0.420373  0.109839  1
  P  P17  1  0.250000  0.079627  0.609839  1
  P  P18  1  0.750000  0.579627  0.890161  1
  P  P19  1  0.750000  0.920373  0.390161  1
  P  P20  1  0.250000  0.279330  0.863393  1
  P  P21  1  0.250000  0.220670  0.363393  1
  P  P22  1  0.750000  0.720670  0.136607  1
  P  P23  1  0.750000  0.779330  0.636607  1
  P  P24  1  0.250000  0.607214  0.379705  1
  P  P25  1  0.250000  0.892786  0.879705  1
  P  P26  1  0.750000  0.392786  0.620295  1
  P  P27  1  0.750000  0.107214  0.120295  1
  Rh  Rh28  1  0.250000  0.711320  0.987000  1
  Rh  Rh29  1  0.250000  0.788680  0.487000  1
  Rh  Rh30  1  0.750000  0.288680  0.013000  1
  Rh  Rh31  1  0.750000  0.211320  0.513000  1
  Rh  Rh32  1  0.250000  0.406918  0.480608  1
  Rh  Rh33  1  0.250000  0.093082  0.980608  1
  Rh  Rh34  1  0.750000  0.593082  0.519392  1
  Rh  Rh35  1  0.750000  0.906918  0.019392  1
