# generated using pymatgen
data_La12PrThIr6
_symmetry_space_group_name_H-M   'P 1'
_cell_length_a   6.51279501
_cell_length_b   10.24574591
_cell_length_c   10.24572200
_cell_angle_alpha   119.99857102
_cell_angle_beta   89.99826317
_cell_angle_gamma   90.00084126
_symmetry_Int_Tables_number   1
_chemical_formula_structural   La12PrThIr6
_chemical_formula_sum   'La12 Pr1 Th1 Ir6'
_cell_volume   592.09370380
_cell_formula_units_Z   1
loop_
 _symmetry_equiv_pos_site_id
 _symmetry_equiv_pos_as_xyz
  1  'x, y, z'
loop_
 _atom_site_type_symbol
 _atom_site_label
 _atom_site_symmetry_multiplicity
 _atom_site_fract_x
 _atom_site_fract_y
 _atom_site_fract_z
 _atom_site_occupancy
  La  La0  1  0.249637  0.126475  0.873532  1
  La  La1  1  0.249726  0.747048  0.873536  1
  La  La2  1  0.249738  0.126468  0.252956  1
  La  La3  1  0.748877  0.873738  0.126257  1
  La  La4  1  0.748871  0.252556  0.126267  1
  La  La5  1  0.748875  0.873725  0.747440  1
  La  La6  1  0.435755  0.538578  0.461429  1
  La  La7  1  0.435658  0.922847  0.461446  1
  La  La8  1  0.435651  0.538555  0.077153  1
  La  La9  1  0.940591  0.460378  0.539621  1
  La  La10  1  0.940486  0.079224  0.539579  1
  La  La11  1  0.940485  0.460417  0.920775  1
  Pr  Pr12  1  0.971004  0.666671  0.333332  1
  Th  Th13  1  0.480157  0.333325  0.666673  1
  Ir  Ir14  1  0.190508  0.812193  0.187794  1
  Ir  Ir15  1  0.190515  0.375600  0.187818  1
  Ir  Ir16  1  0.190519  0.812174  0.624397  1
  Ir  Ir17  1  0.684981  0.191775  0.808246  1
  Ir  Ir18  1  0.684981  0.616490  0.808246  1
  Ir  Ir19  1  0.684982  0.191762  0.383504  1
