# generated using pymatgen
data_Li5Y4Co12(P4Rh)3
_symmetry_space_group_name_H-M   'P 1'
_cell_length_a   3.71262800
_cell_length_b   10.35707990
_cell_length_c   12.34939002
_cell_angle_alpha   90.04714548
_cell_angle_beta   90.00000000
_cell_angle_gamma   90.00000000
_symmetry_Int_Tables_number   1
_chemical_formula_structural   Li5Y4Co12(P4Rh)3
_chemical_formula_sum   'Li5 Y4 Co12 P12 Rh3'
_cell_volume   474.85839692
_cell_formula_units_Z   1
loop_
 _symmetry_equiv_pos_site_id
 _symmetry_equiv_pos_as_xyz
  1  'x, y, z'
loop_
 _atom_site_type_symbol
 _atom_site_label
 _atom_site_symmetry_multiplicity
 _atom_site_fract_x
 _atom_site_fract_y
 _atom_site_fract_z
 _atom_site_occupancy
  Li  Li0  1  0.250000  0.795528  0.492243  1
  Li  Li1  1  0.750000  0.204464  0.508230  1
  Li  Li2  1  0.750000  0.297120  0.010412  1
  Li  Li3  1  0.250000  0.705025  0.992403  1
  Li  Li4  1  0.250000  0.094139  0.994482  1
  Y  Y5  1  0.250000  0.917316  0.211381  1
  Y  Y6  1  0.750000  0.081483  0.790974  1
  Y  Y7  1  0.750000  0.419701  0.289208  1
  Y  Y8  1  0.250000  0.580855  0.709964  1
  Co  Co9  1  0.250000  0.280781  0.673460  1
  Co  Co10  1  0.750000  0.721055  0.321366  1
  Co  Co11  1  0.750000  0.777793  0.821554  1
  Co  Co12  1  0.250000  0.216844  0.178409  1
  Co  Co13  1  0.250000  0.617983  0.194570  1
  Co  Co14  1  0.750000  0.381481  0.802055  1
  Co  Co15  1  0.750000  0.118578  0.307392  1
  Co  Co16  1  0.250000  0.881905  0.695560  1
  Co  Co17  1  0.250000  0.032146  0.435452  1
  Co  Co18  1  0.750000  0.967909  0.566607  1
  Co  Co19  1  0.750000  0.532354  0.065272  1
  Co  Co20  1  0.250000  0.465205  0.934285  1
  P  P21  1  0.250000  0.077695  0.613075  1
  P  P22  1  0.750000  0.922099  0.387854  1
  P  P23  1  0.750000  0.576443  0.887304  1
  P  P24  1  0.250000  0.420076  0.112508  1
  P  P25  1  0.250000  0.224316  0.359559  1
  P  P26  1  0.750000  0.776175  0.641436  1
  P  P27  1  0.750000  0.724096  0.141175  1
  P  P28  1  0.250000  0.277509  0.851151  1
  P  P29  1  0.250000  0.890094  0.877528  1
  P  P30  1  0.750000  0.106155  0.126478  1
  P  P31  1  0.750000  0.394970  0.616847  1
  P  P32  1  0.250000  0.607068  0.378937  1
  Rh  Rh33  1  0.750000  0.911413  0.012844  1
  Rh  Rh34  1  0.750000  0.601013  0.517297  1
  Rh  Rh35  1  0.250000  0.401215  0.480728  1
