# generated using pymatgen
data_PrGd(P4N7)2
_symmetry_space_group_name_H-M   'P 1'
_cell_length_a   7.42444442
_cell_length_b   8.93430688
_cell_length_c   5.11023000
_cell_angle_alpha   70.70929521
_cell_angle_beta   77.64038544
_cell_angle_gamma   71.44553959
_symmetry_Int_Tables_number   1
_chemical_formula_structural   PrGd(P4N7)2
_chemical_formula_sum   'Pr1 Gd1 P8 N14'
_cell_volume   301.05562803
_cell_formula_units_Z   1
loop_
 _symmetry_equiv_pos_site_id
 _symmetry_equiv_pos_as_xyz
  1  'x, y, z'
loop_
 _atom_site_type_symbol
 _atom_site_label
 _atom_site_symmetry_multiplicity
 _atom_site_fract_x
 _atom_site_fract_y
 _atom_site_fract_z
 _atom_site_occupancy
  Pr  Pr0  1  0.185529  0.822542  0.795873  1
  Gd  Gd1  1  0.820304  0.179911  0.215496  1
  P  P2  1  0.295835  0.534599  0.288596  1
  P  P3  1  0.497893  0.757399  0.288188  1
  P  P4  1  0.120105  0.252257  0.660936  1
  P  P5  1  0.712361  0.893628  0.810530  1
  P  P6  1  0.877844  0.746692  0.342586  1
  P  P7  1  0.290648  0.107210  0.187843  1
  P  P8  1  0.503127  0.243186  0.707025  1
  P  P9  1  0.699820  0.464191  0.710218  1
  N  N10  1  0.298255  0.343542  0.557401  1
  N  N11  1  0.554785  0.787605  0.954198  1
  N  N12  1  0.699597  0.655898  0.443012  1
  N  N13  1  0.446167  0.214757  0.040662  1
  N  N14  1  0.925378  0.370243  0.767521  1
  N  N15  1  0.613889  0.074651  0.617811  1
  N  N16  1  0.067849  0.621804  0.245961  1
  N  N17  1  0.393545  0.927176  0.374678  1
  N  N18  1  0.894425  0.821855  0.588387  1
  N  N19  1  0.175641  0.095801  0.946251  1
  N  N20  1  0.344648  0.652245  0.448699  1
  N  N21  1  0.652842  0.351339  0.538139  1
  N  N22  1  0.823922  0.904742  0.057044  1
  N  N23  1  0.105592  0.176730  0.412945  1
