# generated using pymatgen
data_TbY3CdPt
_symmetry_space_group_name_H-M   'P 1'
_cell_length_a   9.72002648
_cell_length_b   9.72002687
_cell_length_c   9.72002700
_cell_angle_alpha   60.00000297
_cell_angle_beta   60.00000165
_cell_angle_gamma   60.00000243
_symmetry_Int_Tables_number   1
_chemical_formula_structural   TbY3CdPt
_chemical_formula_sum   'Tb4 Y12 Cd4 Pt4'
_cell_volume   649.36280730
_cell_formula_units_Z   4
loop_
 _symmetry_equiv_pos_site_id
 _symmetry_equiv_pos_as_xyz
  1  'x, y, z'
loop_
 _atom_site_type_symbol
 _atom_site_label
 _atom_site_symmetry_multiplicity
 _atom_site_fract_x
 _atom_site_fract_y
 _atom_site_fract_z
 _atom_site_occupancy
  Tb  Tb0  1  0.352410  0.352410  0.352410  1
  Tb  Tb1  1  0.352410  0.352410  0.942769  1
  Tb  Tb2  1  0.352410  0.942769  0.352410  1
  Tb  Tb3  1  0.942769  0.352410  0.352410  1
  Y  Y4  1  0.810303  0.189697  0.189697  1
  Y  Y5  1  0.189697  0.810303  0.810303  1
  Y  Y6  1  0.189697  0.810303  0.189697  1
  Y  Y7  1  0.810303  0.189697  0.810303  1
  Y  Y8  1  0.189697  0.189697  0.810303  1
  Y  Y9  1  0.810303  0.810303  0.189697  1
  Y  Y10  1  0.935510  0.564490  0.564490  1
  Y  Y11  1  0.564490  0.935510  0.935510  1
  Y  Y12  1  0.564490  0.935510  0.564490  1
  Y  Y13  1  0.935510  0.564490  0.935510  1
  Y  Y14  1  0.564490  0.564490  0.935510  1
  Y  Y15  1  0.935510  0.935510  0.564490  1
  Cd  Cd16  1  0.581927  0.581927  0.581927  1
  Cd  Cd17  1  0.581927  0.581927  0.254219  1
  Cd  Cd18  1  0.581927  0.254219  0.581927  1
  Cd  Cd19  1  0.254219  0.581927  0.581927  1
  Pt  Pt20  1  0.143752  0.143752  0.143752  1
  Pt  Pt21  1  0.143752  0.143752  0.568743  1
  Pt  Pt22  1  0.143752  0.568743  0.143752  1
  Pt  Pt23  1  0.568743  0.143752  0.143752  1
