# generated using pymatgen
data_Lu19ThSn16
_symmetry_space_group_name_H-M   'P 1'
_cell_length_a   7.92716870
_cell_length_b   8.02244545
_cell_length_c   15.18860100
_cell_angle_alpha   89.98048109
_cell_angle_beta   89.50931492
_cell_angle_gamma   90.19382246
_symmetry_Int_Tables_number   1
_chemical_formula_structural   Lu19ThSn16
_chemical_formula_sum   'Lu19 Th1 Sn16'
_cell_volume   965.88229593
_cell_formula_units_Z   1
loop_
 _symmetry_equiv_pos_site_id
 _symmetry_equiv_pos_as_xyz
  1  'x, y, z'
loop_
 _atom_site_type_symbol
 _atom_site_label
 _atom_site_symmetry_multiplicity
 _atom_site_fract_x
 _atom_site_fract_y
 _atom_site_fract_z
 _atom_site_occupancy
  Lu  Lu0  1  0.025149  0.177212  0.404009  1
  Lu  Lu1  1  0.370307  0.837909  0.121394  1
  Lu  Lu2  1  0.133058  0.337960  0.624484  1
  Lu  Lu3  1  0.473517  0.677332  0.902561  1
  Lu  Lu4  1  0.872311  0.661831  0.122956  1
  Lu  Lu5  1  0.128671  0.338750  0.876449  1
  Lu  Lu6  1  0.199122  0.505230  0.248480  1
  Lu  Lu7  1  0.699581  0.996793  0.248604  1
  Lu  Lu8  1  0.477648  0.679786  0.596745  1
  Lu  Lu9  1  0.300645  0.003876  0.750748  1
  Lu  Lu10  1  0.632876  0.160439  0.624394  1
  Lu  Lu11  1  0.801291  0.495511  0.750918  1
  Lu  Lu12  1  0.866492  0.662302  0.376005  1
  Lu  Lu13  1  0.025805  0.176912  0.095319  1
  Lu  Lu14  1  0.974005  0.821930  0.902533  1
  Lu  Lu15  1  0.629465  0.161296  0.877314  1
  Lu  Lu16  1  0.528561  0.321272  0.098084  1
  Lu  Lu17  1  0.368884  0.839241  0.376500  1
  Lu  Lu18  1  0.976197  0.821830  0.596842  1
  Th  Th19  1  0.517907  0.321513  0.405288  1
  Sn  Sn20  1  0.796128  0.464501  0.543277  1
  Sn  Sn21  1  0.709876  0.962005  0.458724  1
  Sn  Sn22  1  0.663679  0.848156  0.749956  1
  Sn  Sn23  1  0.199893  0.544146  0.460602  1
  Sn  Sn24  1  0.288565  0.036110  0.957745  1
  Sn  Sn25  1  0.838586  0.347535  0.249678  1
  Sn  Sn26  1  0.789961  0.464557  0.959053  1
  Sn  Sn27  1  0.565320  0.622522  0.249832  1
  Sn  Sn28  1  0.212293  0.532709  0.041602  1
  Sn  Sn29  1  0.435181  0.380904  0.750690  1
  Sn  Sn30  1  0.165006  0.652272  0.749309  1
  Sn  Sn31  1  0.934378  0.118502  0.750201  1
  Sn  Sn32  1  0.292859  0.037755  0.541306  1
  Sn  Sn33  1  0.710678  0.963144  0.041464  1
  Sn  Sn34  1  0.330820  0.147362  0.246917  1
  Sn  Sn35  1  0.065280  0.878896  0.250023  1
