# generated using pymatgen
data_Nd8Dy3Er9Pb16
_symmetry_space_group_name_H-M   'P 1'
_cell_length_a   8.27311338
_cell_length_b   8.37350639
_cell_length_c   15.77512102
_cell_angle_alpha   89.99484170
_cell_angle_beta   90.00046714
_cell_angle_gamma   89.96545714
_symmetry_Int_Tables_number   1
_chemical_formula_structural   Nd8Dy3Er9Pb16
_chemical_formula_sum   'Nd8 Dy3 Er9 Pb16'
_cell_volume   1092.82079594
_cell_formula_units_Z   1
loop_
 _symmetry_equiv_pos_site_id
 _symmetry_equiv_pos_as_xyz
  1  'x, y, z'
loop_
 _atom_site_type_symbol
 _atom_site_label
 _atom_site_symmetry_multiplicity
 _atom_site_fract_x
 _atom_site_fract_y
 _atom_site_fract_z
 _atom_site_occupancy
  Nd  Nd0  1  0.469772  0.678365  0.599427  1
  Nd  Nd1  1  0.969846  0.821685  0.900578  1
  Nd  Nd2  1  0.530215  0.321740  0.099445  1
  Nd  Nd3  1  0.030167  0.178390  0.400590  1
  Nd  Nd4  1  0.530186  0.321632  0.400447  1
  Nd  Nd5  1  0.030094  0.178468  0.099575  1
  Nd  Nd6  1  0.469912  0.678426  0.900471  1
  Nd  Nd7  1  0.969861  0.821488  0.599388  1
  Dy  Dy8  1  0.626599  0.160291  0.620916  1
  Dy  Dy9  1  0.126571  0.339731  0.879027  1
  Dy  Dy10  1  0.373367  0.839695  0.121014  1
  Er  Er11  1  0.873352  0.660222  0.378954  1
  Er  Er12  1  0.373240  0.839945  0.379081  1
  Er  Er13  1  0.873300  0.660110  0.121026  1
  Er  Er14  1  0.626662  0.160151  0.879010  1
  Er  Er15  1  0.126745  0.339839  0.620995  1
  Er  Er16  1  0.794228  0.494404  0.750010  1
  Er  Er17  1  0.294249  0.005633  0.749943  1
  Er  Er18  1  0.205617  0.505689  0.250125  1
  Er  Er19  1  0.705898  0.994194  0.250078  1
  Pb  Pb20  1  0.712612  0.963366  0.456253  1
  Pb  Pb21  1  0.212336  0.536098  0.043658  1
  Pb  Pb22  1  0.287701  0.036057  0.956362  1
  Pb  Pb23  1  0.787834  0.464220  0.543349  1
  Pb  Pb24  1  0.286975  0.036134  0.543336  1
  Pb  Pb25  1  0.786988  0.463854  0.956647  1
  Pb  Pb26  1  0.713032  0.963833  0.043356  1
  Pb  Pb27  1  0.212465  0.536310  0.456562  1
  Pb  Pb28  1  0.430870  0.371130  0.750029  1
  Pb  Pb29  1  0.930804  0.128851  0.749949  1
  Pb  Pb30  1  0.569471  0.628864  0.250158  1
  Pb  Pb31  1  0.068901  0.870877  0.250123  1
  Pb  Pb32  1  0.660057  0.851999  0.750100  1
  Pb  Pb33  1  0.160073  0.647978  0.749900  1
  Pb  Pb34  1  0.340014  0.148059  0.250105  1
  Pb  Pb35  1  0.839985  0.352272  0.250017  1
