# generated using pymatgen
data_HoThSc3Ga4
_symmetry_space_group_name_H-M   'P 1'
_cell_length_a   7.34030606
_cell_length_b   7.63714115
_cell_length_c   14.50659694
_cell_angle_alpha   89.99115073
_cell_angle_beta   90.08359721
_cell_angle_gamma   90.02085188
_symmetry_Int_Tables_number   1
_chemical_formula_structural   HoThSc3Ga4
_chemical_formula_sum   'Ho4 Th4 Sc12 Ga16'
_cell_volume   813.22371319
_cell_formula_units_Z   4
loop_
 _symmetry_equiv_pos_site_id
 _symmetry_equiv_pos_as_xyz
  1  'x, y, z'
loop_
 _atom_site_type_symbol
 _atom_site_label
 _atom_site_symmetry_multiplicity
 _atom_site_fract_x
 _atom_site_fract_y
 _atom_site_fract_z
 _atom_site_occupancy
  Ho  Ho0  1  0.510117  0.319822  0.095557  1
  Ho  Ho1  1  0.011191  0.181098  0.404752  1
  Ho  Ho2  1  0.510081  0.319477  0.405527  1
  Ho  Ho3  1  0.488200  0.678797  0.593837  1
  Th  Th4  1  0.010051  0.179123  0.095573  1
  Th  Th5  1  0.988698  0.821995  0.905827  1
  Th  Th6  1  0.489233  0.678153  0.906163  1
  Th  Th7  1  0.988785  0.822372  0.593540  1
  Sc  Sc8  1  0.164037  0.499907  0.748712  1
  Sc  Sc9  1  0.836245  0.496637  0.250987  1
  Sc  Sc10  1  0.338224  0.003563  0.251117  1
  Sc  Sc11  1  0.662505  0.999860  0.749075  1
  Sc  Sc12  1  0.330202  0.172091  0.623377  1
  Sc  Sc13  1  0.670986  0.828739  0.375599  1
  Sc  Sc14  1  0.171718  0.671511  0.375287  1
  Sc  Sc15  1  0.670609  0.828090  0.125545  1
  Sc  Sc16  1  0.828483  0.328000  0.623373  1
  Sc  Sc17  1  0.329827  0.172127  0.875610  1
  Sc  Sc18  1  0.829667  0.327695  0.875409  1
  Sc  Sc19  1  0.171616  0.671096  0.125858  1
  Ga  Ga20  1  0.030714  0.119004  0.750098  1
  Ga  Ga21  1  0.969633  0.883143  0.250502  1
  Ga  Ga22  1  0.469525  0.616540  0.249762  1
  Ga  Ga23  1  0.530294  0.381668  0.749699  1
  Ga  Ga24  1  0.286417  0.872838  0.749287  1
  Ga  Ga25  1  0.714711  0.128345  0.250443  1
  Ga  Ga26  1  0.218000  0.372005  0.250557  1
  Ga  Ga27  1  0.783657  0.626409  0.749260  1
  Ga  Ga28  1  0.163407  0.463154  0.540289  1
  Ga  Ga29  1  0.836945  0.532850  0.458391  1
  Ga  Ga30  1  0.338724  0.964633  0.458970  1
  Ga  Ga31  1  0.836230  0.535679  0.041187  1
  Ga  Ga32  1  0.659151  0.036298  0.540166  1
  Ga  Ga33  1  0.161769  0.462623  0.959697  1
  Ga  Ga34  1  0.659696  0.039412  0.959857  1
  Ga  Ga35  1  0.340653  0.965244  0.041110  1
