# generated using pymatgen
data_NaTbVH9
_symmetry_space_group_name_H-M   'P 1'
_cell_length_a   8.11745500
_cell_length_b   8.11745331
_cell_length_c   4.77178600
_cell_angle_alpha   90.00000000
_cell_angle_beta   90.00000000
_cell_angle_gamma   120.00001098
_symmetry_Int_Tables_number   1
_chemical_formula_structural   NaTbVH9
_chemical_formula_sum   'Na3 Tb3 V3 H27'
_cell_volume   272.30225084
_cell_formula_units_Z   3
loop_
 _symmetry_equiv_pos_site_id
 _symmetry_equiv_pos_as_xyz
  1  'x, y, z'
loop_
 _atom_site_type_symbol
 _atom_site_label
 _atom_site_symmetry_multiplicity
 _atom_site_fract_x
 _atom_site_fract_y
 _atom_site_fract_z
 _atom_site_occupancy
  Na  Na0  1  0.000000  0.602271  0.000000  1
  Na  Na1  1  0.397729  0.397729  0.000000  1
  Na  Na2  1  0.602271  0.000000  0.000000  1
  Tb  Tb3  1  0.000000  0.277140  0.500000  1
  Tb  Tb4  1  0.722860  0.722860  0.500000  1
  Tb  Tb5  1  0.277140  0.000000  0.500000  1
  V  V6  1  0.666667  0.333333  0.500000  1
  V  V7  1  0.333333  0.666667  0.500000  1
  V  V8  1  0.000000  0.000000  0.000000  1
  H  H9  1  0.813430  0.335520  0.758545  1
  H  H10  1  0.664480  0.477909  0.758545  1
  H  H11  1  0.522091  0.186570  0.758545  1
  H  H12  1  0.186570  0.522091  0.241455  1
  H  H13  1  0.522091  0.186570  0.241455  1
  H  H14  1  0.813430  0.335520  0.241455  1
  H  H15  1  0.664480  0.477909  0.241455  1
  H  H16  1  0.335520  0.813430  0.758545  1
  H  H17  1  0.477909  0.664480  0.758545  1
  H  H18  1  0.209535  0.000000  0.000000  1
  H  H19  1  0.790465  0.790465  0.000000  1
  H  H20  1  0.000000  0.209535  0.000000  1
  H  H21  1  0.849290  0.000000  0.248015  1
  H  H22  1  0.150710  0.150710  0.751985  1
  H  H23  1  0.000000  0.849290  0.751985  1
  H  H24  1  0.000000  0.849290  0.248015  1
  H  H25  1  0.150710  0.150710  0.248015  1
  H  H26  1  0.849290  0.000000  0.751985  1
  H  H27  1  0.134264  0.679011  0.500000  1
  H  H28  1  0.544747  0.865736  0.500000  1
  H  H29  1  0.320989  0.455253  0.500000  1
  H  H30  1  0.455253  0.320989  0.500000  1
  H  H31  1  0.865736  0.544747  0.500000  1
  H  H32  1  0.679011  0.134264  0.500000  1
  H  H33  1  0.186570  0.522091  0.758545  1
  H  H34  1  0.335520  0.813430  0.241455  1
  H  H35  1  0.477909  0.664480  0.241455  1
