# generated using pymatgen
data_Pa(Co2B)6
_symmetry_space_group_name_H-M   'P 1'
_cell_length_a   5.95841887
_cell_length_b   5.95841977
_cell_length_c   5.95841896
_cell_angle_alpha   104.31637041
_cell_angle_beta   104.31637695
_cell_angle_gamma   104.31638202
_symmetry_Int_Tables_number   1
_chemical_formula_structural   Pa(Co2B)6
_chemical_formula_sum   'Pa1 Co12 B6'
_cell_volume   187.58321923
_cell_formula_units_Z   1
loop_
 _symmetry_equiv_pos_site_id
 _symmetry_equiv_pos_as_xyz
  1  'x, y, z'
loop_
 _atom_site_type_symbol
 _atom_site_label
 _atom_site_symmetry_multiplicity
 _atom_site_fract_x
 _atom_site_fract_y
 _atom_site_fract_z
 _atom_site_occupancy
  Pa  Pa0  1  0.000000  0.000000  0.000000  1
  Co  Co1  1  0.132534  0.867466  0.500000  1
  Co  Co2  1  0.500000  0.132534  0.867466  1
  Co  Co3  1  0.867466  0.500000  0.132534  1
  Co  Co4  1  0.500000  0.867466  0.132534  1
  Co  Co5  1  0.132534  0.500000  0.867466  1
  Co  Co6  1  0.867466  0.132534  0.500000  1
  Co  Co7  1  0.549484  0.815807  0.549484  1
  Co  Co8  1  0.549484  0.549484  0.815807  1
  Co  Co9  1  0.815807  0.549484  0.549484  1
  Co  Co10  1  0.450516  0.184193  0.450516  1
  Co  Co11  1  0.450516  0.450516  0.184193  1
  Co  Co12  1  0.184193  0.450516  0.450516  1
  B  B13  1  0.766923  0.321310  0.766923  1
  B  B14  1  0.766923  0.766923  0.321310  1
  B  B15  1  0.321310  0.766923  0.766923  1
  B  B16  1  0.233077  0.678690  0.233077  1
  B  B17  1  0.233077  0.233077  0.678690  1
  B  B18  1  0.678690  0.233077  0.233077  1
