# generated using pymatgen
data_Sc6Ga6Pd5Au
_symmetry_space_group_name_H-M   'P 1'
_cell_length_a   7.31989000
_cell_length_b   7.31988890
_cell_length_c   6.95008600
_cell_angle_alpha   90.00000000
_cell_angle_beta   90.00000000
_cell_angle_gamma   119.99999593
_symmetry_Int_Tables_number   1
_chemical_formula_structural   Sc6Ga6Pd5Au
_chemical_formula_sum   'Sc6 Ga6 Pd5 Au1'
_cell_volume   322.50011381
_cell_formula_units_Z   1
loop_
 _symmetry_equiv_pos_site_id
 _symmetry_equiv_pos_as_xyz
  1  'x, y, z'
loop_
 _atom_site_type_symbol
 _atom_site_label
 _atom_site_symmetry_multiplicity
 _atom_site_fract_x
 _atom_site_fract_y
 _atom_site_fract_z
 _atom_site_occupancy
  Sc  Sc0  1  0.596781  0.998535  0.746470  1
  Sc  Sc1  1  0.001465  0.598248  0.746470  1
  Sc  Sc2  1  0.401752  0.403219  0.746470  1
  Sc  Sc3  1  0.987843  0.591196  0.253702  1
  Sc  Sc4  1  0.603353  0.012157  0.253702  1
  Sc  Sc5  1  0.408804  0.396647  0.253702  1
  Ga  Ga6  1  0.736453  0.729746  0.999692  1
  Ga  Ga7  1  0.270254  0.006707  0.999692  1
  Ga  Ga8  1  0.993293  0.263547  0.999692  1
  Ga  Ga9  1  0.728881  0.731963  0.499835  1
  Ga  Ga10  1  0.268037  0.996920  0.499835  1
  Ga  Ga11  1  0.003080  0.271119  0.499835  1
  Pd  Pd12  1  0.000000  0.000000  0.748690  1
  Pd  Pd13  1  0.000000  0.000000  0.250716  1
  Pd  Pd14  1  0.666667  0.333333  0.991923  1
  Pd  Pd15  1  0.666667  0.333333  0.508398  1
  Pd  Pd16  1  0.333333  0.666667  0.492218  1
  Au  Au17  1  0.333333  0.666667  0.008957  1
