# generated using pymatgen
data_Ho2Al4Au3
_symmetry_space_group_name_H-M   'P 1'
_cell_length_a   14.03760300
_cell_length_b   14.03760342
_cell_length_c   4.18098000
_cell_angle_alpha   90.00000000
_cell_angle_beta   90.00000000
_cell_angle_gamma   120.00000137
_symmetry_Int_Tables_number   1
_chemical_formula_structural   Ho2Al4Au3
_chemical_formula_sum   'Ho8 Al16 Au12'
_cell_volume   713.50108928
_cell_formula_units_Z   4
loop_
 _symmetry_equiv_pos_site_id
 _symmetry_equiv_pos_as_xyz
  1  'x, y, z'
loop_
 _atom_site_type_symbol
 _atom_site_label
 _atom_site_symmetry_multiplicity
 _atom_site_fract_x
 _atom_site_fract_y
 _atom_site_fract_z
 _atom_site_occupancy
  Ho  Ho0  1  0.448856  0.000000  0.000000  1
  Ho  Ho1  1  0.000000  0.448856  0.000000  1
  Ho  Ho2  1  0.551144  0.551144  0.000000  1
  Ho  Ho3  1  0.333333  0.666667  0.000000  1
  Ho  Ho4  1  0.666667  0.333333  0.000000  1
  Ho  Ho5  1  0.822488  0.000000  0.500000  1
  Ho  Ho6  1  0.000000  0.822488  0.500000  1
  Ho  Ho7  1  0.177512  0.177512  0.500000  1
  Al  Al8  1  0.180078  0.377026  0.000000  1
  Al  Al9  1  0.622974  0.803053  0.000000  1
  Al  Al10  1  0.377026  0.180078  0.000000  1
  Al  Al11  1  0.196947  0.819922  0.000000  1
  Al  Al12  1  0.803053  0.622974  0.000000  1
  Al  Al13  1  0.819922  0.196947  0.000000  1
  Al  Al14  1  0.282458  0.000000  0.500000  1
  Al  Al15  1  0.000000  0.282458  0.500000  1
  Al  Al16  1  0.717542  0.717542  0.500000  1
  Al  Al17  1  0.350922  0.471723  0.500000  1
  Al  Al18  1  0.528277  0.879200  0.500000  1
  Al  Al19  1  0.471723  0.350922  0.500000  1
  Al  Al20  1  0.120800  0.649078  0.500000  1
  Al  Al21  1  0.879200  0.528277  0.500000  1
  Al  Al22  1  0.649078  0.120800  0.500000  1
  Al  Al23  1  0.000000  0.000000  0.000000  1
  Au  Au24  1  0.174350  0.491388  0.500000  1
  Au  Au25  1  0.508612  0.682962  0.500000  1
  Au  Au26  1  0.491388  0.174350  0.500000  1
  Au  Au27  1  0.317038  0.825650  0.500000  1
  Au  Au28  1  0.682962  0.508612  0.500000  1
  Au  Au29  1  0.825650  0.317038  0.500000  1
  Au  Au30  1  0.179108  0.000000  0.000000  1
  Au  Au31  1  0.000000  0.179108  0.000000  1
  Au  Au32  1  0.820892  0.820892  0.000000  1
  Au  Au33  1  0.657726  0.000000  0.000000  1
  Au  Au34  1  0.000000  0.657726  0.000000  1
  Au  Au35  1  0.342274  0.342274  0.000000  1
