# generated using pymatgen
data_Pu3PaNiB14
_symmetry_space_group_name_H-M   'P 1'
_cell_length_a   7.21545361
_cell_length_b   7.21243101
_cell_length_c   7.46676800
_cell_angle_alpha   90.00000000
_cell_angle_beta   90.00000000
_cell_angle_gamma   90.13716945
_symmetry_Int_Tables_number   1
_chemical_formula_structural   Pu3PaNiB14
_chemical_formula_sum   'Pu6 Pa2 Ni2 B28'
_cell_volume   388.57667126
_cell_formula_units_Z   2
loop_
 _symmetry_equiv_pos_site_id
 _symmetry_equiv_pos_as_xyz
  1  'x, y, z'
loop_
 _atom_site_type_symbol
 _atom_site_label
 _atom_site_symmetry_multiplicity
 _atom_site_fract_x
 _atom_site_fract_y
 _atom_site_fract_z
 _atom_site_occupancy
  Pu  Pu0  1  0.333010  0.801396  0.000000  1
  Pu  Pu1  1  0.698124  0.167418  0.500000  1
  Pu  Pu2  1  0.299976  0.834458  0.500000  1
  Pu  Pu3  1  0.801014  0.667567  0.000000  1
  Pu  Pu4  1  0.833337  0.698570  0.500000  1
  Pu  Pu5  1  0.169611  0.298995  0.500000  1
  Pa  Pa6  1  0.194516  0.331507  0.000000  1
  Pa  Pa7  1  0.671126  0.197301  0.000000  1
  Ni  Ni8  1  0.999151  0.999889  0.000000  1
  Ni  Ni9  1  0.499123  0.503041  0.500000  1
  B  B10  1  0.175977  0.038009  0.232515  1
  B  B11  1  0.960246  0.174499  0.233328  1
  B  B12  1  0.040009  0.822513  0.228601  1
  B  B13  1  0.676010  0.461070  0.268642  1
  B  B14  1  0.324334  0.541837  0.270317  1
  B  B15  1  0.824663  0.957844  0.231382  1
  B  B16  1  0.539840  0.677700  0.271152  1
  B  B17  1  0.459675  0.325949  0.270982  1
  B  B18  1  0.824663  0.957844  0.768618  1
  B  B19  1  0.040009  0.822513  0.771399  1
  B  B20  1  0.960246  0.174499  0.766672  1
  B  B21  1  0.324334  0.541837  0.729683  1
  B  B22  1  0.676010  0.461070  0.731358  1
  B  B23  1  0.175977  0.038009  0.767485  1
  B  B24  1  0.459675  0.325949  0.729018  1
  B  B25  1  0.539840  0.677700  0.728848  1
  B  B26  1  0.089236  0.589860  0.248203  1
  B  B27  1  0.410356  0.089438  0.249882  1
  B  B28  1  0.588607  0.911211  0.248489  1
  B  B29  1  0.910056  0.410384  0.245578  1
  B  B30  1  0.910056  0.410384  0.754422  1
  B  B31  1  0.588607  0.911211  0.751511  1
  B  B32  1  0.410356  0.089438  0.750118  1
  B  B33  1  0.089236  0.589860  0.751797  1
  B  B34  1  0.000696  0.997923  0.390202  1
  B  B35  1  0.500802  0.501695  0.110481  1
  B  B36  1  0.000696  0.997923  0.609798  1
  B  B37  1  0.500802  0.501695  0.889519  1
