# generated using pymatgen
data_Ba9(Pd2Au)2
_symmetry_space_group_name_H-M   'P 1'
_cell_length_a   8.64764365
_cell_length_b   8.63781385
_cell_length_c   8.62485500
_cell_angle_alpha   71.52932608
_cell_angle_beta   71.79484748
_cell_angle_gamma   71.79569448
_symmetry_Int_Tables_number   1
_chemical_formula_structural   Ba9(Pd2Au)2
_chemical_formula_sum   'Ba9 Pd4 Au2'
_cell_volume   563.95332375
_cell_formula_units_Z   1
loop_
 _symmetry_equiv_pos_site_id
 _symmetry_equiv_pos_as_xyz
  1  'x, y, z'
loop_
 _atom_site_type_symbol
 _atom_site_label
 _atom_site_symmetry_multiplicity
 _atom_site_fract_x
 _atom_site_fract_y
 _atom_site_fract_z
 _atom_site_occupancy
  Ba  Ba0  1  0.994154  0.996541  0.001648  1
  Ba  Ba1  1  0.800447  0.804124  0.793137  1
  Ba  Ba2  1  0.201784  0.204689  0.209415  1
  Ba  Ba3  1  0.323792  0.613607  0.840748  1
  Ba  Ba4  1  0.839983  0.319540  0.609869  1
  Ba  Ba5  1  0.616735  0.842394  0.326854  1
  Ba  Ba6  1  0.675297  0.384466  0.161433  1
  Ba  Ba7  1  0.152542  0.677361  0.390918  1
  Ba  Ba8  1  0.392131  0.156406  0.670270  1
  Pd  Pd9  1  0.143025  0.960558  0.592863  1
  Pd  Pd10  1  0.591766  0.142963  0.959945  1
  Pd  Pd11  1  0.960960  0.592188  0.142862  1
  Pd  Pd12  1  0.858176  0.039160  0.406439  1
  Au  Au13  1  0.409356  0.856818  0.039417  1
  Au  Au14  1  0.039852  0.409185  0.854182  1
