# generated using pymatgen
data_Hf12Al4Ir5Os3
_symmetry_space_group_name_H-M   'P 1'
_cell_length_a   8.49581532
_cell_length_b   8.49581500
_cell_length_c   8.49581570
_cell_angle_alpha   59.96194854
_cell_angle_beta   59.96195139
_cell_angle_gamma   59.96195432
_symmetry_Int_Tables_number   1
_chemical_formula_structural   Hf12Al4Ir5Os3
_chemical_formula_sum   'Hf12 Al4 Ir5 Os3'
_cell_volume   433.23675778
_cell_formula_units_Z   1
loop_
 _symmetry_equiv_pos_site_id
 _symmetry_equiv_pos_as_xyz
  1  'x, y, z'
loop_
 _atom_site_type_symbol
 _atom_site_label
 _atom_site_symmetry_multiplicity
 _atom_site_fract_x
 _atom_site_fract_y
 _atom_site_fract_z
 _atom_site_occupancy
  Hf  Hf0  1  0.804329  0.804329  0.195500  1
  Hf  Hf1  1  0.195340  0.195340  0.805311  1
  Hf  Hf2  1  0.804329  0.195500  0.804329  1
  Hf  Hf3  1  0.195340  0.805311  0.195340  1
  Hf  Hf4  1  0.195500  0.804329  0.804329  1
  Hf  Hf5  1  0.805311  0.195340  0.195340  1
  Hf  Hf6  1  0.443802  0.443802  0.053749  1
  Hf  Hf7  1  0.056219  0.056219  0.443843  1
  Hf  Hf8  1  0.443802  0.053749  0.443802  1
  Hf  Hf9  1  0.056219  0.443843  0.056219  1
  Hf  Hf10  1  0.053749  0.443802  0.443802  1
  Hf  Hf11  1  0.443843  0.056219  0.056219  1
  Al  Al12  1  0.123287  0.625905  0.625905  1
  Al  Al13  1  0.625905  0.123287  0.625905  1
  Al  Al14  1  0.625905  0.625905  0.123287  1
  Al  Al15  1  0.626018  0.626018  0.626018  1
  Ir  Ir16  1  0.412256  0.412256  0.412256  1
  Ir  Ir17  1  0.483972  0.839061  0.839061  1
  Ir  Ir18  1  0.839061  0.483972  0.839061  1
  Ir  Ir19  1  0.839061  0.839061  0.483972  1
  Ir  Ir20  1  0.838519  0.838519  0.838519  1
  Os  Os21  1  0.762084  0.413074  0.413074  1
  Os  Os22  1  0.413074  0.762084  0.413074  1
  Os  Os23  1  0.413074  0.413074  0.762084  1
