# generated using pymatgen
data_CsSb(PS3)2
_symmetry_space_group_name_H-M   'P 1'
_cell_length_a   8.15992100
_cell_length_b   7.06511625
_cell_length_c   10.32480643
_cell_angle_alpha   87.67413110
_cell_angle_beta   90.00000000
_cell_angle_gamma   90.00000000
_symmetry_Int_Tables_number   1
_chemical_formula_structural   CsSb(PS3)2
_chemical_formula_sum   'Cs2 Sb2 P4 S12'
_cell_volume   594.74288345
_cell_formula_units_Z   2
loop_
 _symmetry_equiv_pos_site_id
 _symmetry_equiv_pos_as_xyz
  1  'x, y, z'
loop_
 _atom_site_type_symbol
 _atom_site_label
 _atom_site_symmetry_multiplicity
 _atom_site_fract_x
 _atom_site_fract_y
 _atom_site_fract_z
 _atom_site_occupancy
  Cs  Cs0  1  0.451424  0.704535  0.490815  1
  Cs  Cs1  1  0.951424  0.295465  0.509185  1
  Sb  Sb2  1  0.745794  0.819435  0.016699  1
  Sb  Sb3  1  0.245794  0.180565  0.983301  1
  P  P4  1  0.934463  0.787947  0.285854  1
  P  P5  1  0.645986  0.299371  0.842070  1
  P  P6  1  0.145986  0.700629  0.157930  1
  P  P7  1  0.434463  0.212053  0.714146  1
  S  S8  1  0.362141  0.962480  0.811136  1
  S  S9  1  0.035794  0.696097  0.974669  1
  S  S10  1  0.260141  0.407183  0.754010  1
  S  S11  1  0.535794  0.303903  0.025331  1
  S  S12  1  0.827671  0.096878  0.837471  1
  S  S13  1  0.327671  0.903122  0.162529  1
  S  S14  1  0.760141  0.592817  0.245990  1
  S  S15  1  0.862141  0.037520  0.188864  1
  S  S16  1  0.504154  0.194008  0.531963  1
  S  S17  1  0.725584  0.553321  0.776214  1
  S  S18  1  0.004154  0.805992  0.468037  1
  S  S19  1  0.225584  0.446679  0.223786  1
