# generated using pymatgen
data_Sm2Ga9TcPd2
_symmetry_space_group_name_H-M   'P 1'
_cell_length_a   7.69566294
_cell_length_b   7.69566353
_cell_length_c   9.69650814
_cell_angle_alpha   89.80255818
_cell_angle_beta   89.80256317
_cell_angle_gamma   120.24956900
_symmetry_Int_Tables_number   1
_chemical_formula_structural   Sm2Ga9TcPd2
_chemical_formula_sum   'Sm4 Ga18 Tc2 Pd4'
_cell_volume   496.05523644
_cell_formula_units_Z   2
loop_
 _symmetry_equiv_pos_site_id
 _symmetry_equiv_pos_as_xyz
  1  'x, y, z'
loop_
 _atom_site_type_symbol
 _atom_site_label
 _atom_site_symmetry_multiplicity
 _atom_site_fract_x
 _atom_site_fract_y
 _atom_site_fract_z
 _atom_site_occupancy
  Sm  Sm0  1  0.995827  0.666004  0.251801  1
  Sm  Sm1  1  0.004173  0.333996  0.748199  1
  Sm  Sm2  1  0.666004  0.995827  0.251801  1
  Sm  Sm3  1  0.333996  0.004173  0.748199  1
  Ga  Ga4  1  0.130811  0.130811  0.248785  1
  Ga  Ga5  1  0.869189  0.869189  0.751215  1
  Ga  Ga6  1  0.001703  0.332888  0.080841  1
  Ga  Ga7  1  0.998298  0.667112  0.919159  1
  Ga  Ga8  1  0.996103  0.663581  0.578130  1
  Ga  Ga9  1  0.336419  0.003898  0.421870  1
  Ga  Ga10  1  0.003898  0.336419  0.421870  1
  Ga  Ga11  1  0.663581  0.996102  0.578130  1
  Ga  Ga12  1  0.667112  0.998297  0.919159  1
  Ga  Ga13  1  0.332888  0.001703  0.080841  1
  Ga  Ga14  1  0.340521  0.340521  0.559548  1
  Ga  Ga15  1  0.659479  0.659479  0.440452  1
  Ga  Ga16  1  0.664079  0.664079  0.070536  1
  Ga  Ga17  1  0.335921  0.335921  0.929464  1
  Ga  Ga18  1  0.336338  0.544474  0.253883  1
  Ga  Ga19  1  0.663662  0.455526  0.746117  1
  Ga  Ga20  1  0.544474  0.336338  0.253883  1
  Ga  Ga21  1  0.455526  0.663662  0.746117  1
  Tc  Tc22  1  0.325396  0.674604  0.500000  1
  Tc  Tc23  1  0.674604  0.325396  0.500000  1
  Pd  Pd24  1  0.670074  0.329926  0.000000  1
  Pd  Pd25  1  0.329926  0.670074  0.000000  1
  Pd  Pd26  1  0.000000  0.000000  0.000000  1
  Pd  Pd27  1  0.000000  0.000000  0.500000  1
