# generated using pymatgen
data_Tb8HfSi16W11
_symmetry_space_group_name_H-M   'P 1'
_cell_length_a   6.91514442
_cell_length_b   6.91514442
_cell_length_c   12.89055524
_cell_angle_alpha   89.98512360
_cell_angle_beta   89.98512360
_cell_angle_gamma   89.96239930
_symmetry_Int_Tables_number   1
_chemical_formula_structural   Tb8HfSi16W11
_chemical_formula_sum   'Tb8 Hf1 Si16 W11'
_cell_volume   616.41615380
_cell_formula_units_Z   1
loop_
 _symmetry_equiv_pos_site_id
 _symmetry_equiv_pos_as_xyz
  1  'x, y, z'
loop_
 _atom_site_type_symbol
 _atom_site_label
 _atom_site_symmetry_multiplicity
 _atom_site_fract_x
 _atom_site_fract_y
 _atom_site_fract_z
 _atom_site_occupancy
  Tb  Tb0  1  0.001883  0.336388  0.219164  1
  Tb  Tb1  1  0.000919  0.665581  0.718978  1
  Tb  Tb2  1  0.163649  0.503203  0.467779  1
  Tb  Tb3  1  0.496797  0.836351  0.032221  1
  Tb  Tb4  1  0.838550  0.500813  0.970384  1
  Tb  Tb5  1  0.499187  0.161450  0.529616  1
  Tb  Tb6  1  0.334419  0.999081  0.781022  1
  Tb  Tb7  1  0.663612  0.998117  0.280836  1
  Hf  Hf8  1  0.668239  0.331761  0.750000  1
  Si  Si9  1  0.375784  0.299389  0.315751  1
  Si  Si10  1  0.626714  0.707518  0.817003  1
  Si  Si11  1  0.199508  0.875447  0.565567  1
  Si  Si12  1  0.124553  0.800492  0.934433  1
  Si  Si13  1  0.798576  0.124503  0.065651  1
  Si  Si14  1  0.875497  0.201424  0.434349  1
  Si  Si15  1  0.292482  0.373286  0.682997  1
  Si  Si16  1  0.700611  0.624216  0.184249  1
  Si  Si17  1  0.286830  0.034062  0.187413  1
  Si  Si18  1  0.709784  0.956686  0.682977  1
  Si  Si19  1  0.464726  0.787752  0.436363  1
  Si  Si20  1  0.212248  0.535274  0.063637  1
  Si  Si21  1  0.531225  0.209594  0.940421  1
  Si  Si22  1  0.790406  0.468775  0.559579  1
  Si  Si23  1  0.043314  0.290216  0.817023  1
  Si  Si24  1  0.965938  0.713170  0.312587  1
  W  W25  1  0.166180  0.164576  0.003163  1
  W  W26  1  0.835424  0.833820  0.496837  1
  W  W27  1  0.332325  0.667675  0.250000  1
  W  W28  1  0.166031  0.001330  0.376715  1
  W  W29  1  0.833997  0.002888  0.875193  1
  W  W30  1  0.499866  0.660305  0.626003  1
  W  W31  1  0.339695  0.500134  0.873997  1
  W  W32  1  0.498634  0.333382  0.127233  1
  W  W33  1  0.666618  0.501366  0.372767  1
  W  W34  1  0.997112  0.166003  0.624807  1
  W  W35  1  0.998670  0.833969  0.123285  1
