# generated using pymatgen
data_TbSm2Al7Cu2
_symmetry_space_group_name_H-M   'P 1'
_cell_length_a   9.14956540
_cell_length_b   9.14956625
_cell_length_c   9.14956523
_cell_angle_alpha   35.19588251
_cell_angle_beta   35.19587379
_cell_angle_gamma   35.19587743
_symmetry_Int_Tables_number   1
_chemical_formula_structural   TbSm2Al7Cu2
_chemical_formula_sum   'Tb1 Sm2 Al7 Cu2'
_cell_volume   227.27340571
_cell_formula_units_Z   1
loop_
 _symmetry_equiv_pos_site_id
 _symmetry_equiv_pos_as_xyz
  1  'x, y, z'
loop_
 _atom_site_type_symbol
 _atom_site_label
 _atom_site_symmetry_multiplicity
 _atom_site_fract_x
 _atom_site_fract_y
 _atom_site_fract_z
 _atom_site_occupancy
  Tb  Tb0  1  0.141817  0.141817  0.141817  1
  Sm  Sm1  1  0.999909  0.999909  0.999909  1
  Sm  Sm2  1  0.857772  0.857772  0.857772  1
  Al  Al3  1  0.418664  0.418664  0.927340  1
  Al  Al4  1  0.927340  0.418664  0.418664  1
  Al  Al5  1  0.418664  0.927340  0.418664  1
  Al  Al6  1  0.499820  0.499820  0.499820  1
  Al  Al7  1  0.581399  0.072930  0.581399  1
  Al  Al8  1  0.072930  0.581399  0.581399  1
  Al  Al9  1  0.581399  0.581399  0.072930  1
  Cu  Cu10  1  0.664796  0.664796  0.664796  1
  Cu  Cu11  1  0.335489  0.335489  0.335489  1
