# generated using pymatgen
data_Hf18CrRe7SiP
_symmetry_space_group_name_H-M   'P 1'
_cell_length_a   8.55439400
_cell_length_b   8.55439355
_cell_length_c   8.60388500
_cell_angle_alpha   90.00000000
_cell_angle_beta   90.00000000
_cell_angle_gamma   120.00000173
_symmetry_Int_Tables_number   1
_chemical_formula_structural   Hf18CrRe7SiP
_chemical_formula_sum   'Hf18 Cr1 Re7 Si1 P1'
_cell_volume   545.26007214
_cell_formula_units_Z   1
loop_
 _symmetry_equiv_pos_site_id
 _symmetry_equiv_pos_as_xyz
  1  'x, y, z'
loop_
 _atom_site_type_symbol
 _atom_site_label
 _atom_site_symmetry_multiplicity
 _atom_site_fract_x
 _atom_site_fract_y
 _atom_site_fract_z
 _atom_site_occupancy
  Hf  Hf0  1  0.193284  0.806716  0.452189  1
  Hf  Hf1  1  0.193284  0.386566  0.452189  1
  Hf  Hf2  1  0.613434  0.806716  0.452189  1
  Hf  Hf3  1  0.805297  0.194703  0.549247  1
  Hf  Hf4  1  0.805297  0.610596  0.549247  1
  Hf  Hf5  1  0.389404  0.194703  0.549247  1
  Hf  Hf6  1  0.804081  0.195919  0.951180  1
  Hf  Hf7  1  0.804081  0.608164  0.951180  1
  Hf  Hf8  1  0.391836  0.195919  0.951180  1
  Hf  Hf9  1  0.194602  0.805398  0.047270  1
  Hf  Hf10  1  0.194602  0.389202  0.047270  1
  Hf  Hf11  1  0.610798  0.805398  0.047270  1
  Hf  Hf12  1  0.539272  0.460728  0.250456  1
  Hf  Hf13  1  0.539272  0.078545  0.250456  1
  Hf  Hf14  1  0.921455  0.460728  0.250456  1
  Hf  Hf15  1  0.459807  0.540193  0.749572  1
  Hf  Hf16  1  0.459807  0.919614  0.749572  1
  Hf  Hf17  1  0.080386  0.540193  0.749572  1
  Cr  Cr18  1  0.000000  0.000000  0.500186  1
  Re  Re19  1  0.891731  0.108269  0.253750  1
  Re  Re20  1  0.891731  0.783462  0.253750  1
  Re  Re21  1  0.216538  0.108269  0.253750  1
  Re  Re22  1  0.108272  0.891728  0.746294  1
  Re  Re23  1  0.108272  0.216544  0.746294  1
  Re  Re24  1  0.783456  0.891728  0.746294  1
  Re  Re25  1  0.000000  0.000000  0.999823  1
  Si  Si26  1  0.333333  0.666667  0.250862  1
  P  P27  1  0.666667  0.333333  0.749256  1
