# generated using pymatgen
data_K2Pu(PO4)2
_symmetry_space_group_name_H-M   'P 1'
_cell_length_a   5.33489700
_cell_length_b   5.33489599
_cell_length_c   9.30528600
_cell_angle_alpha   90.00000000
_cell_angle_beta   90.00000000
_cell_angle_gamma   119.99998830
_symmetry_Int_Tables_number   1
_chemical_formula_structural   K2Pu(PO4)2
_chemical_formula_sum   'K2 Pu1 P2 O8'
_cell_volume   229.35721400
_cell_formula_units_Z   1
loop_
 _symmetry_equiv_pos_site_id
 _symmetry_equiv_pos_as_xyz
  1  'x, y, z'
loop_
 _atom_site_type_symbol
 _atom_site_label
 _atom_site_symmetry_multiplicity
 _atom_site_fract_x
 _atom_site_fract_y
 _atom_site_fract_z
 _atom_site_occupancy
  K  K0  1  0.333333  0.666667  0.649928  1
  K  K1  1  0.666667  0.333333  0.350072  1
  Pu  Pu2  1  0.000000  0.000000  0.000000  1
  P  P3  1  0.333333  0.666667  0.202140  1
  P  P4  1  0.666667  0.333333  0.797860  1
  O  O5  1  0.333333  0.666667  0.365903  1
  O  O6  1  0.666667  0.333333  0.634097  1
  O  O7  1  0.285350  0.914835  0.143745  1
  O  O8  1  0.085165  0.370514  0.143745  1
  O  O9  1  0.629486  0.714650  0.143745  1
  O  O10  1  0.714650  0.085165  0.856255  1
  O  O11  1  0.914835  0.629486  0.856255  1
  O  O12  1  0.370514  0.285350  0.856255  1
