# generated using pymatgen
data_K4Hf5ZrFeI18
_symmetry_space_group_name_H-M   'P 1'
_cell_length_a   11.22777664
_cell_length_b   11.36585225
_cell_length_c   11.48100808
_cell_angle_alpha   118.57936554
_cell_angle_beta   100.11781705
_cell_angle_gamma   103.68395925
_symmetry_Int_Tables_number   1
_chemical_formula_structural   K4Hf5ZrFeI18
_chemical_formula_sum   'K4 Hf5 Zr1 Fe1 I18'
_cell_volume   1176.28157223
_cell_formula_units_Z   1
loop_
 _symmetry_equiv_pos_site_id
 _symmetry_equiv_pos_as_xyz
  1  'x, y, z'
loop_
 _atom_site_type_symbol
 _atom_site_label
 _atom_site_symmetry_multiplicity
 _atom_site_fract_x
 _atom_site_fract_y
 _atom_site_fract_z
 _atom_site_occupancy
  K  K0  1  0.649000  0.537532  0.225831  1
  K  K1  1  0.350896  0.462353  0.773899  1
  K  K2  1  0.682527  0.223968  0.563096  1
  K  K3  1  0.317349  0.776050  0.436648  1
  Hf  Hf4  1  0.855972  0.946772  0.779444  1
  Hf  Hf5  1  0.866967  0.122825  0.128648  1
  Hf  Hf6  1  0.132876  0.877130  0.871046  1
  Hf  Hf7  1  0.140090  0.230276  0.043340  1
  Hf  Hf8  1  0.859655  0.769650  0.956239  1
  Zr  Zr9  1  0.146010  0.053965  0.223668  1
  Fe  Fe10  1  0.000761  0.000296  0.001151  1
  I  I11  1  0.008004  0.412273  0.198183  1
  I  I12  1  0.991745  0.587603  0.801450  1
  I  I13  1  0.331146  0.336711  0.312670  1
  I  I14  1  0.669650  0.665579  0.686980  1
  I  I15  1  0.320861  0.521175  0.098840  1
  I  I16  1  0.678651  0.478724  0.900204  1
  I  I17  1  0.002294  0.791848  0.209198  1
  I  I18  1  0.995453  0.205503  0.789448  1
  I  I19  1  0.703087  0.277121  0.288786  1
  I  I20  1  0.296220  0.722652  0.710104  1
  I  I21  1  0.317550  0.126746  0.901450  1
  I  I22  1  0.682219  0.873208  0.098207  1
  I  I23  1  0.013121  0.206874  0.411098  1
  I  I24  1  0.984779  0.794215  0.589462  1
  I  I25  1  0.322931  0.919916  0.107524  1
  I  I26  1  0.677778  0.078498  0.890154  1
  I  I27  1  0.334710  0.121153  0.504826  1
  I  I28  1  0.667697  0.879387  0.498408  1
