# generated using pymatgen
data_Tm12TlFe3Bi
_symmetry_space_group_name_H-M   'P 1'
_cell_length_a   8.27769596
_cell_length_b   8.27770647
_cell_length_c   8.27769500
_cell_angle_alpha   108.25747020
_cell_angle_beta   108.74812024
_cell_angle_gamma   111.42623447
_symmetry_Int_Tables_number   1
_chemical_formula_structural   Tm12TlFe3Bi
_chemical_formula_sum   'Tm12 Tl1 Fe3 Bi1'
_cell_volume   436.23327700
_cell_formula_units_Z   1
loop_
 _symmetry_equiv_pos_site_id
 _symmetry_equiv_pos_as_xyz
  1  'x, y, z'
loop_
 _atom_site_type_symbol
 _atom_site_label
 _atom_site_symmetry_multiplicity
 _atom_site_fract_x
 _atom_site_fract_y
 _atom_site_fract_z
 _atom_site_occupancy
  Tm  Tm0  1  0.190428  0.426185  0.235758  1
  Tm  Tm1  1  0.809572  0.573815  0.764242  1
  Tm  Tm2  1  0.190427  0.954669  0.764241  1
  Tm  Tm3  1  0.962516  0.194133  0.768381  1
  Tm  Tm4  1  0.809573  0.045331  0.235759  1
  Tm  Tm5  1  0.037484  0.805867  0.231619  1
  Tm  Tm6  1  0.425752  0.194133  0.231618  1
  Tm  Tm7  1  0.574248  0.805867  0.768382  1
  Tm  Tm8  1  0.304071  0.312297  0.616368  1
  Tm  Tm9  1  0.695929  0.687703  0.383632  1
  Tm  Tm10  1  0.695929  0.312297  0.008226  1
  Tm  Tm11  1  0.304071  0.687703  0.991774  1
  Tl  Tl12  1  0.000000  0.500000  0.500000  1
  Fe  Fe13  1  0.384947  0.384928  0.999981  1
  Fe  Fe14  1  0.615053  0.615072  0.000019  1
  Fe  Fe15  1  0.000000  0.000000  0.000000  1
  Bi  Bi16  1  0.500000  0.000000  0.500000  1
