# generated using pymatgen
data_La8Tm2AlSn5
_symmetry_space_group_name_H-M   'P 1'
_cell_length_a   9.40778177
_cell_length_b   9.40762747
_cell_length_c   9.40778223
_cell_angle_alpha   96.32377837
_cell_angle_beta   96.32615685
_cell_angle_gamma   141.23124288
_symmetry_Int_Tables_number   1
_chemical_formula_structural   La8Tm2AlSn5
_chemical_formula_sum   'La8 Tm2 Al1 Sn5'
_cell_volume   491.81901811
_cell_formula_units_Z   1
loop_
 _symmetry_equiv_pos_site_id
 _symmetry_equiv_pos_as_xyz
  1  'x, y, z'
loop_
 _atom_site_type_symbol
 _atom_site_label
 _atom_site_symmetry_multiplicity
 _atom_site_fract_x
 _atom_site_fract_y
 _atom_site_fract_z
 _atom_site_occupancy
  La  La0  1  0.906153  0.217095  0.132819  1
  La  La1  1  0.217099  0.084275  0.310949  1
  La  La2  1  0.773341  0.906169  0.689038  1
  La  La3  1  0.084270  0.773309  0.867161  1
  La  La4  1  0.726675  0.415725  0.132823  1
  La  La5  1  0.282870  0.593831  0.867173  1
  La  La6  1  0.593851  0.726691  0.310962  1
  La  La7  1  0.415724  0.282905  0.689057  1
  Tm  Tm8  1  0.750002  0.250000  0.500002  1
  Tm  Tm9  1  0.250000  0.750000  0.500000  1
  Al  Al10  1  0.749996  0.750000  0.999996  1
  Sn  Sn11  1  0.250001  0.250000  0.000001  1
  Sn  Sn12  1  0.846954  0.653068  0.500006  1
  Sn  Sn13  1  0.653066  0.153061  0.806121  1
  Sn  Sn14  1  0.346938  0.846932  0.193886  1
  Sn  Sn15  1  0.153060  0.346939  0.500005  1
