# generated using pymatgen
data_Er2FeCo16
_symmetry_space_group_name_H-M   'P 1'
_cell_length_a   6.25434727
_cell_length_b   6.25434711
_cell_length_c   6.25434698
_cell_angle_alpha   97.00970847
_cell_angle_beta   97.00970227
_cell_angle_gamma   82.99030142
_symmetry_Int_Tables_number   1
_chemical_formula_structural   Er2FeCo16
_chemical_formula_sum   'Er2 Fe1 Co16'
_cell_volume   239.57704343
_cell_formula_units_Z   1
loop_
 _symmetry_equiv_pos_site_id
 _symmetry_equiv_pos_as_xyz
  1  'x, y, z'
loop_
 _atom_site_type_symbol
 _atom_site_label
 _atom_site_symmetry_multiplicity
 _atom_site_fract_x
 _atom_site_fract_y
 _atom_site_fract_z
 _atom_site_occupancy
  Er  Er0  1  0.654684  0.654684  0.345317  1
  Er  Er1  1  0.344297  0.344297  0.655704  1
  Fe  Fe2  1  0.903642  0.903642  0.096359  1
  Co  Co3  1  0.498600  0.000613  0.999387  1
  Co  Co4  1  0.709686  0.290463  0.999263  1
  Co  Co5  1  0.000613  0.498600  0.999387  1
  Co  Co6  1  0.290463  0.709686  0.999263  1
  Co  Co7  1  0.346786  0.346786  0.150749  1
  Co  Co8  1  0.290463  0.000737  0.290314  1
  Co  Co9  1  0.000737  0.290463  0.290314  1
  Co  Co10  1  0.652276  0.150834  0.347726  1
  Co  Co11  1  0.150834  0.652276  0.347726  1
  Co  Co12  1  0.000613  0.000613  0.501402  1
  Co  Co13  1  0.849252  0.346787  0.653215  1
  Co  Co14  1  0.346787  0.849252  0.653215  1
  Co  Co15  1  0.709687  0.000737  0.709536  1
  Co  Co16  1  0.000737  0.709687  0.709536  1
  Co  Co17  1  0.652275  0.652275  0.849165  1
  Co  Co18  1  0.097568  0.097568  0.902432  1
