# generated using pymatgen
data_Lu10ZnBi2Au3
_symmetry_space_group_name_H-M   'P 1'
_cell_length_a   8.55624648
_cell_length_b   8.55624563
_cell_length_c   8.53622837
_cell_angle_alpha   124.17042422
_cell_angle_beta   124.17041846
_cell_angle_gamma   83.06839173
_symmetry_Int_Tables_number   1
_chemical_formula_structural   Lu10ZnBi2Au3
_chemical_formula_sum   'Lu10 Zn1 Bi2 Au3'
_cell_volume   410.11012844
_cell_formula_units_Z   1
loop_
 _symmetry_equiv_pos_site_id
 _symmetry_equiv_pos_as_xyz
  1  'x, y, z'
loop_
 _atom_site_type_symbol
 _atom_site_label
 _atom_site_symmetry_multiplicity
 _atom_site_fract_x
 _atom_site_fract_y
 _atom_site_fract_z
 _atom_site_occupancy
  Lu  Lu0  1  0.500288  0.499709  0.999996  1
  Lu  Lu1  1  0.999709  0.000288  0.999996  1
  Lu  Lu2  1  0.513506  0.013506  0.807794  1
  Lu  Lu3  1  0.206039  0.706039  0.192570  1
  Lu  Lu4  1  0.013679  0.205580  0.499771  1
  Lu  Lu5  1  0.705580  0.513679  0.499771  1
  Lu  Lu6  1  0.486531  0.986531  0.192570  1
  Lu  Lu7  1  0.794287  0.294287  0.807794  1
  Lu  Lu8  1  0.986092  0.794192  0.499771  1
  Lu  Lu9  1  0.294192  0.486092  0.499771  1
  Zn  Zn10  1  0.138672  0.638672  0.777342  1
  Bi  Bi11  1  0.249622  0.249622  0.999245  1
  Bi  Bi12  1  0.749622  0.749622  0.999245  1
  Au  Au13  1  0.862915  0.362915  0.225832  1
  Au  Au14  1  0.638293  0.860973  0.499265  1
  Au  Au15  1  0.360973  0.138293  0.499265  1
