# generated using pymatgen
data_Nd3SmSn12
_symmetry_space_group_name_H-M   'P 1'
_cell_length_a   12.23390124
_cell_length_b   12.23390137
_cell_length_c   12.23390132
_cell_angle_alpha   31.31351335
_cell_angle_beta   31.31351231
_cell_angle_gamma   31.31351946
_symmetry_Int_Tables_number   1
_chemical_formula_structural   Nd3SmSn12
_chemical_formula_sum   'Nd3 Sm1 Sn12'
_cell_volume   438.95967195
_cell_formula_units_Z   1
loop_
 _symmetry_equiv_pos_site_id
 _symmetry_equiv_pos_as_xyz
  1  'x, y, z'
loop_
 _atom_site_type_symbol
 _atom_site_label
 _atom_site_symmetry_multiplicity
 _atom_site_fract_x
 _atom_site_fract_y
 _atom_site_fract_z
 _atom_site_occupancy
  Nd  Nd0  1  0.878304  0.878304  0.878304  1
  Nd  Nd1  1  0.121654  0.121654  0.121654  1
  Nd  Nd2  1  0.705955  0.705955  0.705955  1
  Sm  Sm3  1  0.293871  0.293871  0.293871  1
  Sn  Sn4  1  0.293328  0.791644  0.791644  1
  Sn  Sn5  1  0.791644  0.791644  0.293328  1
  Sn  Sn6  1  0.865507  0.381702  0.381702  1
  Sn  Sn7  1  0.381702  0.381702  0.865507  1
  Sn  Sn8  1  0.381702  0.865507  0.381702  1
  Sn  Sn9  1  0.617967  0.136196  0.617967  1
  Sn  Sn10  1  0.136196  0.617967  0.617967  1
  Sn  Sn11  1  0.617967  0.617967  0.136196  1
  Sn  Sn12  1  0.791644  0.293328  0.791644  1
  Sn  Sn13  1  0.208788  0.704983  0.208788  1
  Sn  Sn14  1  0.208788  0.208788  0.704983  1
  Sn  Sn15  1  0.704983  0.208788  0.208788  1
