# generated using pymatgen
data_Pr5VMoO12
_symmetry_space_group_name_H-M   'P 1'
_cell_length_a   7.08329325
_cell_length_b   7.08329273
_cell_length_c   7.69217027
_cell_angle_alpha   74.40028961
_cell_angle_beta   74.40028927
_cell_angle_gamma   51.42862065
_symmetry_Int_Tables_number   1
_chemical_formula_structural   Pr5VMoO12
_chemical_formula_sum   'Pr5 V1 Mo1 O12'
_cell_volume   287.98600906
_cell_formula_units_Z   1
loop_
 _symmetry_equiv_pos_site_id
 _symmetry_equiv_pos_as_xyz
  1  'x, y, z'
loop_
 _atom_site_type_symbol
 _atom_site_label
 _atom_site_symmetry_multiplicity
 _atom_site_fract_x
 _atom_site_fract_y
 _atom_site_fract_z
 _atom_site_occupancy
  Pr  Pr0  1  0.314531  0.300627  0.358931  1
  Pr  Pr1  1  0.699373  0.685469  0.641069  1
  Pr  Pr2  1  0.310040  0.306085  0.831270  1
  Pr  Pr3  1  0.693915  0.689960  0.168730  1
  Pr  Pr4  1  0.001638  0.998362  0.500000  1
  V  V5  1  0.748047  0.251953  0.000000  1
  Mo  Mo6  1  0.232286  0.767714  0.000000  1
  O  O7  1  0.894110  0.415771  0.923903  1
  O  O8  1  0.421159  0.894997  0.922417  1
  O  O9  1  0.105003  0.578841  0.077583  1
  O  O10  1  0.584229  0.105890  0.076097  1
  O  O11  1  0.099156  0.591924  0.578417  1
  O  O12  1  0.597514  0.090480  0.579646  1
  O  O13  1  0.909520  0.402486  0.420354  1
  O  O14  1  0.408076  0.900844  0.421583  1
  O  O15  1  0.995294  0.007682  0.823980  1
  O  O16  1  0.992318  0.004706  0.176020  1
  O  O17  1  0.495900  0.502110  0.823677  1
  O  O18  1  0.497890  0.504100  0.176323  1
