# generated using pymatgen
data_Tb2Yb2TmRu2
_symmetry_space_group_name_H-M   'P 1'
_cell_length_a   6.42466489
_cell_length_b   7.22616580
_cell_length_c   8.51900160
_cell_angle_alpha   96.94956411
_cell_angle_beta   112.15284643
_cell_angle_gamma   90.00000279
_symmetry_Int_Tables_number   1
_chemical_formula_structural   Tb2Yb2TmRu2
_chemical_formula_sum   'Tb4 Yb4 Tm2 Ru4'
_cell_volume   363.16594804
_cell_formula_units_Z   2
loop_
 _symmetry_equiv_pos_site_id
 _symmetry_equiv_pos_as_xyz
  1  'x, y, z'
loop_
 _atom_site_type_symbol
 _atom_site_label
 _atom_site_symmetry_multiplicity
 _atom_site_fract_x
 _atom_site_fract_y
 _atom_site_fract_z
 _atom_site_occupancy
  Tb  Tb0  1  0.200273  0.184682  0.567892  1
  Tb  Tb1  1  0.632382  0.315318  0.432108  1
  Tb  Tb2  1  0.799727  0.815318  0.432108  1
  Tb  Tb3  1  0.367618  0.684682  0.567892  1
  Yb  Yb4  1  0.796437  0.080222  0.818021  1
  Yb  Yb5  1  0.978416  0.419778  0.181979  1
  Yb  Yb6  1  0.203563  0.919778  0.181979  1
  Yb  Yb7  1  0.021584  0.580222  0.818021  1
  Tm  Tm8  1  0.434074  0.250000  0.000000  1
  Tm  Tm9  1  0.565926  0.750000  0.000000  1
  Ru  Ru10  1  0.585146  0.427609  0.773124  1
  Ru  Ru11  1  0.812022  0.072391  0.226876  1
  Ru  Ru12  1  0.414854  0.572391  0.226876  1
  Ru  Ru13  1  0.187978  0.927609  0.773124  1
