# generated using pymatgen
data_Mg5P11HRu19
_symmetry_space_group_name_H-M   'P 1'
_cell_length_a   12.29157853
_cell_length_b   12.29157891
_cell_length_c   3.89642800
_cell_angle_alpha   90.00000000
_cell_angle_beta   90.00000000
_cell_angle_gamma   121.09436682
_symmetry_Int_Tables_number   1
_chemical_formula_structural   Mg5P11HRu19
_chemical_formula_sum   'Mg5 P11 H1 Ru19'
_cell_volume   504.10034392
_cell_formula_units_Z   1
loop_
 _symmetry_equiv_pos_site_id
 _symmetry_equiv_pos_as_xyz
  1  'x, y, z'
loop_
 _atom_site_type_symbol
 _atom_site_label
 _atom_site_symmetry_multiplicity
 _atom_site_fract_x
 _atom_site_fract_y
 _atom_site_fract_z
 _atom_site_occupancy
  Mg  Mg0  1  0.186294  0.186294  0.500000  1
  Mg  Mg1  1  0.813568  0.004065  0.500000  1
  Mg  Mg2  1  0.004065  0.813568  0.500000  1
  Mg  Mg3  1  0.334123  0.667501  0.000000  1
  Mg  Mg4  1  0.667501  0.334123  0.000000  1
  P  P5  1  0.147261  0.994129  0.000000  1
  P  P6  1  0.994129  0.147261  0.000000  1
  P  P7  1  0.173544  0.462460  0.500000  1
  P  P8  1  0.554331  0.717998  0.500000  1
  P  P9  1  0.294080  0.837477  0.500000  1
  P  P10  1  0.717998  0.554331  0.500000  1
  P  P11  1  0.837477  0.294080  0.500000  1
  P  P12  1  0.462460  0.173544  0.500000  1
  P  P13  1  0.404860  0.404860  0.000000  1
  P  P14  1  0.602779  0.001873  0.000000  1
  P  P15  1  0.001873  0.602779  0.000000  1
  H  H16  1  0.779702  0.779702  0.000000  1
  Ru  Ru17  1  0.591946  0.591946  0.000000  1
  Ru  Ru18  1  0.421780  0.005171  0.000000  1
  Ru  Ru19  1  0.005171  0.421780  0.000000  1
  Ru  Ru20  1  0.762345  0.762345  0.500000  1
  Ru  Ru21  1  0.256897  0.003815  0.500000  1
  Ru  Ru22  1  0.003815  0.256897  0.500000  1
  Ru  Ru23  1  0.196492  0.355437  0.000000  1
  Ru  Ru24  1  0.648933  0.843347  0.000000  1
  Ru  Ru25  1  0.166844  0.810049  0.000000  1
  Ru  Ru26  1  0.843347  0.648933  0.000000  1
  Ru  Ru27  1  0.810049  0.166844  0.000000  1
  Ru  Ru28  1  0.355437  0.196492  0.000000  1
  Ru  Ru29  1  0.384472  0.514619  0.500000  1
  Ru  Ru30  1  0.494492  0.871544  0.500000  1
  Ru  Ru31  1  0.134336  0.625654  0.500000  1
  Ru  Ru32  1  0.871544  0.494492  0.500000  1
  Ru  Ru33  1  0.625654  0.134336  0.500000  1
  Ru  Ru34  1  0.514619  0.384472  0.500000  1
  Ru  Ru35  1  0.935782  0.935782  0.000000  1
