# generated using pymatgen
data_Tb3Sm6Er11Pb16
_symmetry_space_group_name_H-M   'P 1'
_cell_length_a   8.20196067
_cell_length_b   8.31819350
_cell_length_c   15.65660651
_cell_angle_alpha   90.14004461
_cell_angle_beta   89.98096553
_cell_angle_gamma   90.15114445
_symmetry_Int_Tables_number   1
_chemical_formula_structural   Tb3Sm6Er11Pb16
_chemical_formula_sum   'Tb3 Sm6 Er11 Pb16'
_cell_volume   1068.17278015
_cell_formula_units_Z   1
loop_
 _symmetry_equiv_pos_site_id
 _symmetry_equiv_pos_as_xyz
  1  'x, y, z'
loop_
 _atom_site_type_symbol
 _atom_site_label
 _atom_site_symmetry_multiplicity
 _atom_site_fract_x
 _atom_site_fract_y
 _atom_site_fract_z
 _atom_site_occupancy
  Tb  Tb0  1  0.131822  0.341961  0.622004  1
  Tb  Tb1  1  0.471891  0.678642  0.598136  1
  Tb  Tb2  1  0.972600  0.822093  0.902057  1
  Sm  Sm3  1  0.525815  0.321400  0.096853  1
  Sm  Sm4  1  0.026677  0.177508  0.401958  1
  Sm  Sm5  1  0.525498  0.322814  0.402905  1
  Sm  Sm6  1  0.025678  0.177193  0.097146  1
  Sm  Sm7  1  0.475764  0.678805  0.903424  1
  Sm  Sm8  1  0.974491  0.821961  0.597334  1
  Er  Er9  1  0.634117  0.158086  0.622462  1
  Er  Er10  1  0.133928  0.342122  0.877473  1
  Er  Er11  1  0.366652  0.842115  0.122373  1
  Er  Er12  1  0.867614  0.657540  0.377645  1
  Er  Er13  1  0.367869  0.842074  0.377171  1
  Er  Er14  1  0.867564  0.658059  0.122575  1
  Er  Er15  1  0.632945  0.157059  0.877938  1
  Er  Er16  1  0.799180  0.495518  0.750280  1
  Er  Er17  1  0.300011  0.004581  0.750374  1
  Er  Er18  1  0.200677  0.505173  0.249780  1
  Er  Er19  1  0.700429  0.995001  0.249850  1
  Pb  Pb20  1  0.708562  0.960482  0.456782  1
  Pb  Pb21  1  0.207711  0.539761  0.043180  1
  Pb  Pb22  1  0.289401  0.037916  0.956699  1
  Pb  Pb23  1  0.786857  0.464150  0.543496  1
  Pb  Pb24  1  0.293821  0.037638  0.542756  1
  Pb  Pb25  1  0.793849  0.460608  0.956984  1
  Pb  Pb26  1  0.709406  0.957878  0.042342  1
  Pb  Pb27  1  0.209531  0.541823  0.456676  1
  Pb  Pb28  1  0.438430  0.374462  0.750227  1
  Pb  Pb29  1  0.936814  0.125246  0.750966  1
  Pb  Pb30  1  0.562637  0.627046  0.249994  1
  Pb  Pb31  1  0.062216  0.872813  0.250063  1
  Pb  Pb32  1  0.661851  0.846065  0.749355  1
  Pb  Pb33  1  0.162230  0.654207  0.751247  1
  Pb  Pb34  1  0.338016  0.153330  0.249789  1
  Pb  Pb35  1  0.837449  0.346869  0.249709  1
