# generated using pymatgen
data_TbDy2Cd3Ga2Ag
_symmetry_space_group_name_H-M   'P 1'
_cell_length_a   7.39721300
_cell_length_b   7.39721240
_cell_length_c   4.34890900
_cell_angle_alpha   90.00000000
_cell_angle_beta   90.00000000
_cell_angle_gamma   120.00334378
_symmetry_Int_Tables_number   1
_chemical_formula_structural   TbDy2Cd3Ga2Ag
_chemical_formula_sum   'Tb1 Dy2 Cd3 Ga2 Ag1'
_cell_volume   206.07842715
_cell_formula_units_Z   1
loop_
 _symmetry_equiv_pos_site_id
 _symmetry_equiv_pos_as_xyz
  1  'x, y, z'
loop_
 _atom_site_type_symbol
 _atom_site_label
 _atom_site_symmetry_multiplicity
 _atom_site_fract_x
 _atom_site_fract_y
 _atom_site_fract_z
 _atom_site_occupancy
  Tb  Tb0  1  0.420918  0.420918  0.500000  1
  Dy  Dy1  1  0.579151  0.000020  0.500000  1
  Dy  Dy2  1  0.000020  0.579151  0.500000  1
  Cd  Cd3  1  0.748573  0.748573  0.000000  1
  Cd  Cd4  1  0.251493  0.999953  0.000000  1
  Cd  Cd5  1  0.999953  0.251493  0.000000  1
  Ga  Ga6  1  0.666743  0.333282  0.000000  1
  Ga  Ga7  1  0.333282  0.666743  0.000000  1
  Ag  Ag8  1  0.999866  0.999866  0.500000  1
