# generated using pymatgen
data_Er12TcIr2Os
_symmetry_space_group_name_H-M   'P 1'
_cell_length_a   6.31102198
_cell_length_b   7.29968746
_cell_length_c   8.99603100
_cell_angle_alpha   90.00000000
_cell_angle_beta   90.00000000
_cell_angle_gamma   90.14196057
_symmetry_Int_Tables_number   1
_chemical_formula_structural   Er12TcIr2Os
_chemical_formula_sum   'Er12 Tc1 Ir2 Os1'
_cell_volume   414.43227400
_cell_formula_units_Z   1
loop_
 _symmetry_equiv_pos_site_id
 _symmetry_equiv_pos_as_xyz
  1  'x, y, z'
loop_
 _atom_site_type_symbol
 _atom_site_label
 _atom_site_symmetry_multiplicity
 _atom_site_fract_x
 _atom_site_fract_y
 _atom_site_fract_z
 _atom_site_occupancy
  Er  Er0  1  0.331503  0.676750  0.061235  1
  Er  Er1  1  0.169388  0.175118  0.436239  1
  Er  Er2  1  0.670209  0.324543  0.564278  1
  Er  Er3  1  0.831602  0.823394  0.937822  1
  Er  Er4  1  0.670209  0.324543  0.935722  1
  Er  Er5  1  0.831602  0.823394  0.562178  1
  Er  Er6  1  0.331503  0.676750  0.438765  1
  Er  Er7  1  0.169388  0.175118  0.063761  1
  Er  Er8  1  0.870115  0.538492  0.250000  1
  Er  Er9  1  0.627331  0.038273  0.250000  1
  Er  Er10  1  0.129731  0.462102  0.750000  1
  Er  Er11  1  0.370964  0.960665  0.750000  1
  Tc  Tc12  1  0.036863  0.885306  0.250000  1
  Ir  Ir13  1  0.460441  0.383353  0.250000  1
  Ir  Ir14  1  0.959907  0.117260  0.750000  1
  Os  Os15  1  0.539242  0.614938  0.750000  1
