# generated using pymatgen
data_Zr5CoAsP2
_symmetry_space_group_name_H-M   'P 1'
_cell_length_a   3.70858000
_cell_length_b   10.31198700
_cell_length_c   17.37216200
_cell_angle_alpha   90.00000000
_cell_angle_beta   90.00000000
_cell_angle_gamma   90.00000000
_symmetry_Int_Tables_number   1
_chemical_formula_structural   Zr5CoAsP2
_chemical_formula_sum   'Zr20 Co4 As4 P8'
_cell_volume   664.36061636
_cell_formula_units_Z   4
loop_
 _symmetry_equiv_pos_site_id
 _symmetry_equiv_pos_as_xyz
  1  'x, y, z'
loop_
 _atom_site_type_symbol
 _atom_site_label
 _atom_site_symmetry_multiplicity
 _atom_site_fract_x
 _atom_site_fract_y
 _atom_site_fract_z
 _atom_site_occupancy
  Zr  Zr0  1  0.250000  0.123053  0.475618  1
  Zr  Zr1  1  0.750000  0.876947  0.524382  1
  Zr  Zr2  1  0.750000  0.623053  0.024382  1
  Zr  Zr3  1  0.250000  0.376947  0.975618  1
  Zr  Zr4  1  0.250000  0.060035  0.074759  1
  Zr  Zr5  1  0.750000  0.939965  0.925241  1
  Zr  Zr6  1  0.750000  0.560035  0.425241  1
  Zr  Zr7  1  0.250000  0.439965  0.574759  1
  Zr  Zr8  1  0.250000  0.483444  0.269140  1
  Zr  Zr9  1  0.750000  0.516556  0.730860  1
  Zr  Zr10  1  0.750000  0.983444  0.230860  1
  Zr  Zr11  1  0.250000  0.016556  0.769140  1
  Zr  Zr12  1  0.250000  0.818520  0.371258  1
  Zr  Zr13  1  0.750000  0.181480  0.628742  1
  Zr  Zr14  1  0.750000  0.318520  0.128742  1
  Zr  Zr15  1  0.250000  0.681480  0.871258  1
  Zr  Zr16  1  0.250000  0.755447  0.163888  1
  Zr  Zr17  1  0.750000  0.244553  0.836112  1
  Zr  Zr18  1  0.750000  0.255447  0.336112  1
  Zr  Zr19  1  0.250000  0.744553  0.663888  1
  Co  Co20  1  0.250000  0.368580  0.414327  1
  Co  Co21  1  0.750000  0.631420  0.585673  1
  Co  Co22  1  0.750000  0.868580  0.085673  1
  Co  Co23  1  0.250000  0.131420  0.914327  1
  As  As24  1  0.250000  0.188506  0.219852  1
  As  As25  1  0.750000  0.811494  0.780148  1
  As  As26  1  0.750000  0.688506  0.280148  1
  As  As27  1  0.250000  0.311494  0.719852  1
  P  P28  1  0.250000  0.812714  0.009611  1
  P  P29  1  0.750000  0.187286  0.990389  1
  P  P30  1  0.750000  0.312714  0.490389  1
  P  P31  1  0.250000  0.687286  0.509611  1
  P  P32  1  0.250000  0.504799  0.114214  1
  P  P33  1  0.750000  0.495201  0.885786  1
  P  P34  1  0.750000  0.004799  0.385786  1
  P  P35  1  0.250000  0.995201  0.614214  1
