# generated using pymatgen
data_Ho6NbCo17P12
_symmetry_space_group_name_H-M   'P 1'
_cell_length_a   3.69561300
_cell_length_b   10.55121000
_cell_length_c   12.24820300
_cell_angle_alpha   90.00000000
_cell_angle_beta   90.00000000
_cell_angle_gamma   90.00000000
_symmetry_Int_Tables_number   1
_chemical_formula_structural   Ho6NbCo17P12
_chemical_formula_sum   'Ho6 Nb1 Co17 P12'
_cell_volume   477.59649255
_cell_formula_units_Z   1
loop_
 _symmetry_equiv_pos_site_id
 _symmetry_equiv_pos_as_xyz
  1  'x, y, z'
loop_
 _atom_site_type_symbol
 _atom_site_label
 _atom_site_symmetry_multiplicity
 _atom_site_fract_x
 _atom_site_fract_y
 _atom_site_fract_z
 _atom_site_occupancy
  Ho  Ho0  1  0.750000  0.250000  0.473029  1
  Ho  Ho1  1  0.250000  0.750000  0.522435  1
  Ho  Ho2  1  0.250000  0.930313  0.792791  1
  Ho  Ho3  1  0.250000  0.569687  0.792791  1
  Ho  Ho4  1  0.750000  0.067102  0.204179  1
  Ho  Ho5  1  0.750000  0.432898  0.204179  1
  Nb  Nb6  1  0.250000  0.250000  0.845071  1
  Co  Co7  1  0.750000  0.750000  0.161706  1
  Co  Co8  1  0.250000  0.250000  0.298128  1
  Co  Co9  1  0.750000  0.750000  0.703287  1
  Co  Co10  1  0.750000  0.250000  0.015837  1
  Co  Co11  1  0.250000  0.750000  0.985623  1
  Co  Co12  1  0.250000  0.420368  0.010771  1
  Co  Co13  1  0.250000  0.079632  0.010771  1
  Co  Co14  1  0.750000  0.586416  0.996097  1
  Co  Co15  1  0.750000  0.913584  0.996097  1
  Co  Co16  1  0.250000  0.454829  0.566788  1
  Co  Co17  1  0.250000  0.045171  0.566788  1
  Co  Co18  1  0.750000  0.547761  0.430237  1
  Co  Co19  1  0.750000  0.952239  0.430237  1
  Co  Co20  1  0.250000  0.870432  0.291939  1
  Co  Co21  1  0.250000  0.629568  0.291939  1
  Co  Co22  1  0.750000  0.126862  0.705200  1
  Co  Co23  1  0.750000  0.373138  0.705200  1
  P  P24  1  0.250000  0.250000  0.119431  1
  P  P25  1  0.750000  0.750000  0.882641  1
  P  P26  1  0.250000  0.250000  0.643611  1
  P  P27  1  0.750000  0.750000  0.344775  1
  P  P28  1  0.250000  0.440007  0.382590  1
  P  P29  1  0.250000  0.059993  0.382590  1
  P  P30  1  0.750000  0.562063  0.614280  1
  P  P31  1  0.750000  0.937937  0.614280  1
  P  P32  1  0.250000  0.898708  0.110157  1
  P  P33  1  0.250000  0.601292  0.110157  1
  P  P34  1  0.750000  0.088820  0.897185  1
  P  P35  1  0.750000  0.411180  0.897185  1
