# generated using pymatgen
data_Th6Cu3Sb8Rh3
_symmetry_space_group_name_H-M   'P 1'
_cell_length_a   8.51059954
_cell_length_b   8.51059951
_cell_length_c   8.51317892
_cell_angle_alpha   108.77494257
_cell_angle_beta   110.18322571
_cell_angle_gamma   109.44628064
_symmetry_Int_Tables_number   1
_chemical_formula_structural   Th6Cu3Sb8Rh3
_chemical_formula_sum   'Th6 Cu3 Sb8 Rh3'
_cell_volume   474.66837850
_cell_formula_units_Z   1
loop_
 _symmetry_equiv_pos_site_id
 _symmetry_equiv_pos_as_xyz
  1  'x, y, z'
loop_
 _atom_site_type_symbol
 _atom_site_label
 _atom_site_symmetry_multiplicity
 _atom_site_fract_x
 _atom_site_fract_y
 _atom_site_fract_z
 _atom_site_occupancy
  Th  Th0  1  0.377106  0.257016  0.630487  1
  Th  Th1  1  0.742576  0.869519  0.116427  1
  Th  Th2  1  0.253092  0.626149  0.383573  1
  Th  Th3  1  0.622306  0.372306  0.250000  1
  Th  Th4  1  0.878733  0.128733  0.750000  1
  Th  Th5  1  0.126529  0.746619  0.869513  1
  Cu  Cu6  1  0.125309  0.875309  0.250000  1
  Cu  Cu7  1  0.624275  0.748198  0.374768  1
  Cu  Cu8  1  0.873429  0.249508  0.125232  1
  Sb  Sb9  1  0.996108  0.329524  0.495674  1
  Sb  Sb10  1  0.838205  0.502285  0.001905  1
  Sb  Sb11  1  0.503112  0.003008  0.834498  1
  Sb  Sb12  1  0.668510  0.668615  0.665502  1
  Sb  Sb13  1  0.162021  0.163498  0.164583  1
  Sb  Sb14  1  0.333850  0.500434  0.004326  1
  Sb  Sb15  1  0.498915  0.997438  0.335417  1
  Sb  Sb16  1  0.000380  0.836300  0.498095  1
  Rh  Rh17  1  0.250339  0.125746  0.876522  1
  Rh  Rh18  1  0.749224  0.373816  0.623478  1
  Rh  Rh19  1  0.375982  0.625982  0.750000  1
