# generated using pymatgen
data_SnF10
_symmetry_space_group_name_H-M   'P 1'
_cell_length_a   4.18120352
_cell_length_b   4.18302272
_cell_length_c   11.09283397
_cell_angle_alpha   91.70994862
_cell_angle_beta   81.21856637
_cell_angle_gamma   90.06980141
_symmetry_Int_Tables_number   1
_chemical_formula_structural   SnF10
_chemical_formula_sum   'Sn1 F10'
_cell_volume   191.65370236
_cell_formula_units_Z   1
loop_
 _symmetry_equiv_pos_site_id
 _symmetry_equiv_pos_as_xyz
  1  'x, y, z'
loop_
 _atom_site_type_symbol
 _atom_site_label
 _atom_site_symmetry_multiplicity
 _atom_site_fract_x
 _atom_site_fract_y
 _atom_site_fract_z
 _atom_site_occupancy
  Sn  Sn0  1  0.645403  0.693665  0.283093  1
  F  F1  1  0.322618  0.126527  0.992157  1
  F  F2  1  0.075022  0.169160  0.918791  1
  F  F3  1  0.698921  0.616333  0.822171  1
  F  F4  1  0.065146  0.198139  0.619970  1
  F  F5  1  0.536263  0.690889  0.722560  1
  F  F6  1  0.056961  0.210840  0.492520  1
  F  F7  1  0.574794  0.707157  0.456186  1
  F  F8  1  0.649861  0.193530  0.281574  1
  F  F9  1  0.146075  0.691213  0.281863  1
  F  F10  1  0.715507  0.681446  0.109641  1
