# generated using pymatgen
data_YbHo4Tm(CoSn6)2
_symmetry_space_group_name_H-M   'P 1'
_cell_length_a   8.42620883
_cell_length_b   8.42620983
_cell_length_c   13.11326800
_cell_angle_alpha   90.04749927
_cell_angle_beta   89.95250654
_cell_angle_gamma   148.44499005
_symmetry_Int_Tables_number   1
_chemical_formula_structural   YbHo4Tm(CoSn6)2
_chemical_formula_sum   'Yb1 Ho4 Tm1 Co2 Sn12'
_cell_volume   487.23677917
_cell_formula_units_Z   1
loop_
 _symmetry_equiv_pos_site_id
 _symmetry_equiv_pos_as_xyz
  1  'x, y, z'
loop_
 _atom_site_type_symbol
 _atom_site_label
 _atom_site_symmetry_multiplicity
 _atom_site_fract_x
 _atom_site_fract_y
 _atom_site_fract_z
 _atom_site_occupancy
  Yb  Yb0  1  0.899932  0.100068  0.403292  1
  Ho  Ho1  1  0.898715  0.101285  0.094634  1
  Ho  Ho2  1  0.101234  0.898766  0.595856  1
  Ho  Ho3  1  0.901292  0.098708  0.752060  1
  Ho  Ho4  1  0.100880  0.899120  0.905315  1
  Tm  Tm5  1  0.099206  0.900794  0.248865  1
  Co  Co6  1  0.298419  0.701581  0.249954  1
  Co  Co7  1  0.700231  0.299769  0.750083  1
  Sn  Sn8  1  0.757498  0.242502  0.572077  1
  Sn  Sn9  1  0.427986  0.572014  0.576769  1
  Sn  Sn10  1  0.573655  0.426345  0.424039  1
  Sn  Sn11  1  0.732594  0.267406  0.248863  1
  Sn  Sn12  1  0.266385  0.733615  0.750339  1
  Sn  Sn13  1  0.242808  0.757192  0.071224  1
  Sn  Sn14  1  0.243032  0.756968  0.428796  1
  Sn  Sn15  1  0.572901  0.427099  0.074605  1
  Sn  Sn16  1  0.454810  0.545190  0.247838  1
  Sn  Sn17  1  0.545586  0.454414  0.751044  1
  Sn  Sn18  1  0.756773  0.243227  0.928368  1
  Sn  Sn19  1  0.426061  0.573939  0.925980  1
