# generated using pymatgen
data_Sc2Mn3Co
_symmetry_space_group_name_H-M   'P 1'
_cell_length_a   4.76147200
_cell_length_b   4.76147225
_cell_length_c   8.41070900
_cell_angle_alpha   90.00000000
_cell_angle_beta   90.00000000
_cell_angle_gamma   119.99999826
_symmetry_Int_Tables_number   1
_chemical_formula_structural   Sc2Mn3Co
_chemical_formula_sum   'Sc4 Mn6 Co2'
_cell_volume   165.13751266
_cell_formula_units_Z   2
loop_
 _symmetry_equiv_pos_site_id
 _symmetry_equiv_pos_as_xyz
  1  'x, y, z'
loop_
 _atom_site_type_symbol
 _atom_site_label
 _atom_site_symmetry_multiplicity
 _atom_site_fract_x
 _atom_site_fract_y
 _atom_site_fract_z
 _atom_site_occupancy
  Sc  Sc0  1  0.333333  0.666667  0.564322  1
  Sc  Sc1  1  0.666667  0.333333  0.435678  1
  Sc  Sc2  1  0.666667  0.333333  0.064322  1
  Sc  Sc3  1  0.333333  0.666667  0.935678  1
  Mn  Mn4  1  0.169438  0.338876  0.250000  1
  Mn  Mn5  1  0.830562  0.661124  0.750000  1
  Mn  Mn6  1  0.661124  0.830562  0.250000  1
  Mn  Mn7  1  0.338876  0.169438  0.750000  1
  Mn  Mn8  1  0.169438  0.830562  0.250000  1
  Mn  Mn9  1  0.830562  0.169438  0.750000  1
  Co  Co10  1  0.000000  0.000000  0.000000  1
  Co  Co11  1  0.000000  0.000000  0.500000  1
