# generated using pymatgen
data_Ho10Er2Co4BiRh
_symmetry_space_group_name_H-M   'P 1'
_cell_length_a   8.26482259
_cell_length_b   8.29715136
_cell_length_c   8.26482361
_cell_angle_alpha   110.57768109
_cell_angle_beta   111.04628854
_cell_angle_gamma   106.67268230
_symmetry_Int_Tables_number   1
_chemical_formula_structural   Ho10Er2Co4BiRh
_chemical_formula_sum   'Ho10 Er2 Co4 Bi1 Rh1'
_cell_volume   436.34827544
_cell_formula_units_Z   1
loop_
 _symmetry_equiv_pos_site_id
 _symmetry_equiv_pos_as_xyz
  1  'x, y, z'
loop_
 _atom_site_type_symbol
 _atom_site_label
 _atom_site_symmetry_multiplicity
 _atom_site_fract_x
 _atom_site_fract_y
 _atom_site_fract_z
 _atom_site_occupancy
  Ho  Ho0  1  0.288454  0.184173  0.473101  1
  Ho  Ho1  1  0.711546  0.815827  0.526899  1
  Ho  Ho2  1  0.288927  0.815827  0.104281  1
  Ho  Ho3  1  0.711073  0.184173  0.895719  1
  Ho  Ho4  1  0.619862  0.310833  0.307999  1
  Ho  Ho5  1  0.380138  0.689167  0.692001  1
  Ho  Ho6  1  0.002835  0.310833  0.690971  1
  Ho  Ho7  1  0.997165  0.689167  0.309029  1
  Ho  Ho8  1  0.209587  0.406953  0.197366  1
  Ho  Ho9  1  0.790413  0.593047  0.802634  1
  Er  Er10  1  0.209873  0.012232  0.802358  1
  Er  Er11  1  0.790127  0.987768  0.197642  1
  Co  Co12  1  0.999225  0.375957  0.376731  1
  Co  Co13  1  0.000775  0.624043  0.623269  1
  Co  Co14  1  0.388931  0.889603  0.500672  1
  Co  Co15  1  0.611069  0.110397  0.499328  1
  Bi  Bi16  1  0.500000  0.500000  0.000000  1
  Rh  Rh17  1  0.000000  0.000000  0.000000  1
