# generated using pymatgen
data_La2Co2RuN3
_symmetry_space_group_name_H-M   'P 1'
_cell_length_a   6.36128891
_cell_length_b   6.36128983
_cell_length_c   6.30953600
_cell_angle_alpha   88.84524965
_cell_angle_beta   88.84524949
_cell_angle_gamma   116.39913675
_symmetry_Int_Tables_number   1
_chemical_formula_structural   La2Co2RuN3
_chemical_formula_sum   'La4 Co4 Ru2 N6'
_cell_volume   228.52905684
_cell_formula_units_Z   2
loop_
 _symmetry_equiv_pos_site_id
 _symmetry_equiv_pos_as_xyz
  1  'x, y, z'
loop_
 _atom_site_type_symbol
 _atom_site_label
 _atom_site_symmetry_multiplicity
 _atom_site_fract_x
 _atom_site_fract_y
 _atom_site_fract_z
 _atom_site_occupancy
  La  La0  1  0.830427  0.668606  0.897808  1
  La  La1  1  0.331394  0.169573  0.602192  1
  La  La2  1  0.169573  0.331394  0.102192  1
  La  La3  1  0.668606  0.830427  0.397808  1
  Co  Co4  1  0.567710  0.168892  0.105412  1
  Co  Co5  1  0.432290  0.831108  0.894588  1
  Co  Co6  1  0.831108  0.432290  0.394588  1
  Co  Co7  1  0.168892  0.567710  0.605412  1
  Ru  Ru8  1  0.813877  0.186123  0.750000  1
  Ru  Ru9  1  0.186123  0.813877  0.250000  1
  N  N10  1  0.423887  0.576113  0.750000  1
  N  N11  1  0.576113  0.423887  0.250000  1
  N  N12  1  0.998149  0.731462  0.518017  1
  N  N13  1  0.731462  0.998149  0.018017  1
  N  N14  1  0.001851  0.268538  0.481983  1
  N  N15  1  0.268538  0.001851  0.981983  1
