# generated using pymatgen
data_Ho3Er9IrOs3
_symmetry_space_group_name_H-M   'P 1'
_cell_length_a   6.32656000
_cell_length_b   7.32723831
_cell_length_c   8.96929800
_cell_angle_alpha   90.00000000
_cell_angle_beta   90.00000000
_cell_angle_gamma   90.09384492
_symmetry_Int_Tables_number   1
_chemical_formula_structural   Ho3Er9IrOs3
_chemical_formula_sum   'Ho3 Er9 Ir1 Os3'
_cell_volume   415.78212941
_cell_formula_units_Z   1
loop_
 _symmetry_equiv_pos_site_id
 _symmetry_equiv_pos_as_xyz
  1  'x, y, z'
loop_
 _atom_site_type_symbol
 _atom_site_label
 _atom_site_symmetry_multiplicity
 _atom_site_fract_x
 _atom_site_fract_y
 _atom_site_fract_z
 _atom_site_occupancy
  Ho  Ho0  1  0.872807  0.537868  0.250000  1
  Ho  Ho1  1  0.628426  0.038973  0.250000  1
  Ho  Ho2  1  0.127717  0.462013  0.750000  1
  Er  Er3  1  0.332170  0.673601  0.061669  1
  Er  Er4  1  0.170223  0.176504  0.438586  1
  Er  Er5  1  0.669603  0.324978  0.562544  1
  Er  Er6  1  0.827714  0.824486  0.935636  1
  Er  Er7  1  0.669603  0.324978  0.937456  1
  Er  Er8  1  0.827714  0.824486  0.564364  1
  Er  Er9  1  0.332170  0.673601  0.438331  1
  Er  Er10  1  0.170223  0.176504  0.061414  1
  Er  Er11  1  0.370426  0.961805  0.750000  1
  Ir  Ir12  1  0.039569  0.884140  0.250000  1
  Os  Os13  1  0.462352  0.383756  0.250000  1
  Os  Os14  1  0.962826  0.115654  0.750000  1
  Os  Os15  1  0.536459  0.616656  0.750000  1
