# generated using pymatgen
data_Ca6NpReO12
_symmetry_space_group_name_H-M   'P 1'
_cell_length_a   6.66761974
_cell_length_b   6.66761927
_cell_length_c   6.66762065
_cell_angle_alpha   92.22478124
_cell_angle_beta   92.22478155
_cell_angle_gamma   92.22477693
_symmetry_Int_Tables_number   1
_chemical_formula_structural   Ca6NpReO12
_chemical_formula_sum   'Ca6 Np1 Re1 O12'
_cell_volume   295.73520967
_cell_formula_units_Z   1
loop_
 _symmetry_equiv_pos_site_id
 _symmetry_equiv_pos_as_xyz
  1  'x, y, z'
loop_
 _atom_site_type_symbol
 _atom_site_label
 _atom_site_symmetry_multiplicity
 _atom_site_fract_x
 _atom_site_fract_y
 _atom_site_fract_z
 _atom_site_occupancy
  Ca  Ca0  1  0.930773  0.437279  0.740708  1
  Ca  Ca1  1  0.740708  0.930773  0.437279  1
  Ca  Ca2  1  0.562721  0.259292  0.069227  1
  Ca  Ca3  1  0.437279  0.740708  0.930773  1
  Ca  Ca4  1  0.259292  0.069227  0.562721  1
  Ca  Ca5  1  0.069227  0.562721  0.259292  1
  Np  Np6  1  0.000000  0.000000  0.000000  1
  Re  Re7  1  0.500000  0.500000  0.500000  1
  O  O8  1  0.928325  0.295861  0.065999  1
  O  O9  1  0.934001  0.071675  0.704139  1
  O  O10  1  0.779160  0.578588  0.454118  1
  O  O11  1  0.704139  0.934001  0.071675  1
  O  O12  1  0.578588  0.454118  0.779160  1
  O  O13  1  0.545882  0.220840  0.421412  1
  O  O14  1  0.454118  0.779160  0.578588  1
  O  O15  1  0.421412  0.545882  0.220840  1
  O  O16  1  0.295861  0.065999  0.928325  1
  O  O17  1  0.220840  0.421412  0.545882  1
  O  O18  1  0.065999  0.928325  0.295861  1
  O  O19  1  0.071675  0.704139  0.934001  1
