# generated using pymatgen
data_Tm3HgRh4
_symmetry_space_group_name_H-M   'P 1'
_cell_length_a   5.66151200
_cell_length_b   5.66151142
_cell_length_c   9.20162100
_cell_angle_alpha   90.00000000
_cell_angle_beta   90.00000000
_cell_angle_gamma   105.08368777
_symmetry_Int_Tables_number   1
_chemical_formula_structural   Tm3HgRh4
_chemical_formula_sum   'Tm6 Hg2 Rh8'
_cell_volume   284.77540060
_cell_formula_units_Z   2
loop_
 _symmetry_equiv_pos_site_id
 _symmetry_equiv_pos_as_xyz
  1  'x, y, z'
loop_
 _atom_site_type_symbol
 _atom_site_label
 _atom_site_symmetry_multiplicity
 _atom_site_fract_x
 _atom_site_fract_y
 _atom_site_fract_z
 _atom_site_occupancy
  Tm  Tm0  1  0.770349  0.229651  0.000000  1
  Tm  Tm1  1  0.229651  0.770349  0.000000  1
  Tm  Tm2  1  0.229651  0.770349  0.500000  1
  Tm  Tm3  1  0.770349  0.229651  0.500000  1
  Tm  Tm4  1  0.509318  0.509318  0.250000  1
  Tm  Tm5  1  0.490682  0.490682  0.750000  1
  Hg  Hg6  1  0.995590  0.995590  0.250000  1
  Hg  Hg7  1  0.004410  0.004410  0.750000  1
  Rh  Rh8  1  0.004773  0.497893  0.250000  1
  Rh  Rh9  1  0.995227  0.502107  0.750000  1
  Rh  Rh10  1  0.497893  0.004773  0.250000  1
  Rh  Rh11  1  0.502107  0.995227  0.750000  1
  Rh  Rh12  1  0.269468  0.269468  0.003819  1
  Rh  Rh13  1  0.730532  0.730532  0.996181  1
  Rh  Rh14  1  0.730532  0.730532  0.503819  1
  Rh  Rh15  1  0.269468  0.269468  0.496181  1
