# generated using pymatgen
data_Ho3Ni6B2Ru
_symmetry_space_group_name_H-M   'P 1'
_cell_length_a   5.01670300
_cell_length_b   5.16815137
_cell_length_c   14.39215200
_cell_angle_alpha   90.00000000
_cell_angle_beta   90.00000000
_cell_angle_gamma   119.03528849
_symmetry_Int_Tables_number   1
_chemical_formula_structural   Ho3Ni6B2Ru
_chemical_formula_sum   'Ho6 Ni12 B4 Ru2'
_cell_volume   326.24978657
_cell_formula_units_Z   2
loop_
 _symmetry_equiv_pos_site_id
 _symmetry_equiv_pos_as_xyz
  1  'x, y, z'
loop_
 _atom_site_type_symbol
 _atom_site_label
 _atom_site_symmetry_multiplicity
 _atom_site_fract_x
 _atom_site_fract_y
 _atom_site_fract_z
 _atom_site_occupancy
  Ho  Ho0  1  0.332252  0.664506  0.533881  1
  Ho  Ho1  1  0.667748  0.335494  0.033881  1
  Ho  Ho2  1  0.661880  0.323759  0.467017  1
  Ho  Ho3  1  0.338120  0.676241  0.967017  1
  Ho  Ho4  1  0.332345  0.664689  0.750744  1
  Ho  Ho5  1  0.667655  0.335311  0.250744  1
  Ni  Ni6  1  0.996228  0.992456  0.997956  1
  Ni  Ni7  1  0.003772  0.007544  0.497956  1
  Ni  Ni8  1  0.667810  0.833883  0.148855  1
  Ni  Ni9  1  0.166073  0.833883  0.148855  1
  Ni  Ni10  1  0.833927  0.166117  0.648855  1
  Ni  Ni11  1  0.332190  0.166117  0.648855  1
  Ni  Ni12  1  0.833570  0.667138  0.850016  1
  Ni  Ni13  1  0.833169  0.164101  0.851574  1
  Ni  Ni14  1  0.330932  0.164101  0.851574  1
  Ni  Ni15  1  0.669068  0.835899  0.351574  1
  Ni  Ni16  1  0.166831  0.835899  0.351574  1
  Ni  Ni17  1  0.166430  0.332862  0.350016  1
  B  B18  1  0.336156  0.672315  0.251258  1
  B  B19  1  0.663844  0.327685  0.751258  1
  B  B20  1  0.999912  0.999823  0.251092  1
  B  B21  1  0.000088  0.000177  0.751092  1
  Ru  Ru22  1  0.164819  0.329637  0.147178  1
  Ru  Ru23  1  0.835181  0.670363  0.647178  1
