# generated using pymatgen
data_TbY5TcIr
_symmetry_space_group_name_H-M   'P 1'
_cell_length_a   6.38100933
_cell_length_b   7.38714340
_cell_length_c   9.22966400
_cell_angle_alpha   90.00000000
_cell_angle_beta   90.00000000
_cell_angle_gamma   89.63250527
_symmetry_Int_Tables_number   1
_chemical_formula_structural   TbY5TcIr
_chemical_formula_sum   'Tb2 Y10 Tc2 Ir2'
_cell_volume   435.05370051
_cell_formula_units_Z   2
loop_
 _symmetry_equiv_pos_site_id
 _symmetry_equiv_pos_as_xyz
  1  'x, y, z'
loop_
 _atom_site_type_symbol
 _atom_site_label
 _atom_site_symmetry_multiplicity
 _atom_site_fract_x
 _atom_site_fract_y
 _atom_site_fract_z
 _atom_site_occupancy
  Tb  Tb0  1  0.634310  0.040703  0.250000  1
  Tb  Tb1  1  0.365690  0.959297  0.750000  1
  Y  Y2  1  0.128877  0.461871  0.750000  1
  Y  Y3  1  0.871123  0.538129  0.250000  1
  Y  Y4  1  0.172958  0.177306  0.064145  1
  Y  Y5  1  0.827042  0.822694  0.935855  1
  Y  Y6  1  0.668174  0.325379  0.936732  1
  Y  Y7  1  0.827042  0.822694  0.564145  1
  Y  Y8  1  0.331826  0.674621  0.063268  1
  Y  Y9  1  0.172958  0.177306  0.435855  1
  Y  Y10  1  0.331826  0.674621  0.436732  1
  Y  Y11  1  0.668174  0.325379  0.563268  1
  Tc  Tc12  1  0.463052  0.382516  0.250000  1
  Tc  Tc13  1  0.536948  0.617484  0.750000  1
  Ir  Ir14  1  0.960026  0.114828  0.750000  1
  Ir  Ir15  1  0.039974  0.885172  0.250000  1
