# generated using pymatgen
data_Lu4Si4RuRh3
_symmetry_space_group_name_H-M   'P 1'
_cell_length_a   4.24018100
_cell_length_b   6.80167600
_cell_length_c   7.23105300
_cell_angle_alpha   89.99673837
_cell_angle_beta   90.00000000
_cell_angle_gamma   90.00000000
_symmetry_Int_Tables_number   1
_chemical_formula_structural   Lu4Si4RuRh3
_chemical_formula_sum   'Lu4 Si4 Ru1 Rh3'
_cell_volume   208.54600770
_cell_formula_units_Z   1
loop_
 _symmetry_equiv_pos_site_id
 _symmetry_equiv_pos_as_xyz
  1  'x, y, z'
loop_
 _atom_site_type_symbol
 _atom_site_label
 _atom_site_symmetry_multiplicity
 _atom_site_fract_x
 _atom_site_fract_y
 _atom_site_fract_z
 _atom_site_occupancy
  Lu  Lu0  1  0.750000  0.003262  0.811814  1
  Lu  Lu1  1  0.250000  0.495477  0.309868  1
  Lu  Lu2  1  0.750000  0.507202  0.688939  1
  Lu  Lu3  1  0.250000  0.995990  0.188665  1
  Si  Si4  1  0.750000  0.202385  0.393289  1
  Si  Si5  1  0.250000  0.295300  0.891066  1
  Si  Si6  1  0.750000  0.705491  0.113048  1
  Si  Si7  1  0.250000  0.795954  0.602594  1
  Ru  Ru8  1  0.750000  0.843884  0.435124  1
  Rh  Rh9  1  0.250000  0.156703  0.566539  1
  Rh  Rh10  1  0.750000  0.342257  0.066854  1
  Rh  Rh11  1  0.250000  0.656096  0.932199  1
