# generated using pymatgen
data_YErTm3(In2Pt)2
_symmetry_space_group_name_H-M   'P 1'
_cell_length_a   3.62548700
_cell_length_b   8.08435563
_cell_length_c   18.13564560
_cell_angle_alpha   89.92752629
_cell_angle_beta   90.00000000
_cell_angle_gamma   90.00000000
_symmetry_Int_Tables_number   1
_chemical_formula_structural   YErTm3(In2Pt)2
_chemical_formula_sum   'Y2 Er2 Tm6 In8 Pt4'
_cell_volume   531.55038242
_cell_formula_units_Z   2
loop_
 _symmetry_equiv_pos_site_id
 _symmetry_equiv_pos_as_xyz
  1  'x, y, z'
loop_
 _atom_site_type_symbol
 _atom_site_label
 _atom_site_symmetry_multiplicity
 _atom_site_fract_x
 _atom_site_fract_y
 _atom_site_fract_z
 _atom_site_occupancy
  Y  Y0  1  0.000000  0.000000  0.000000  1
  Y  Y1  1  0.000000  0.500000  0.500000  1
  Er  Er2  1  0.000000  0.256669  0.720660  1
  Er  Er3  1  0.000000  0.743331  0.279340  1
  Tm  Tm4  1  0.000000  0.116670  0.413964  1
  Tm  Tm5  1  0.000000  0.883330  0.586036  1
  Tm  Tm6  1  0.000000  0.383538  0.913976  1
  Tm  Tm7  1  0.000000  0.616462  0.086024  1
  Tm  Tm8  1  0.000000  0.243470  0.220824  1
  Tm  Tm9  1  0.000000  0.756530  0.779176  1
  In  In10  1  0.500000  0.422491  0.351085  1
  In  In11  1  0.500000  0.577509  0.648915  1
  In  In12  1  0.500000  0.076874  0.851088  1
  In  In13  1  0.500000  0.923126  0.148912  1
  In  In14  1  0.500000  0.294123  0.066786  1
  In  In15  1  0.500000  0.705877  0.933214  1
  In  In16  1  0.500000  0.205599  0.566655  1
  In  In17  1  0.500000  0.794401  0.433345  1
  Pt  Pt18  1  0.500000  0.026059  0.304096  1
  Pt  Pt19  1  0.500000  0.973941  0.695904  1
  Pt  Pt20  1  0.500000  0.475986  0.804345  1
  Pt  Pt21  1  0.500000  0.524014  0.195655  1
