# generated using pymatgen
data_Dy13Ho7Bi12
_symmetry_space_group_name_H-M   'P 1'
_cell_length_a   8.26323606
_cell_length_b   9.51338500
_cell_length_c   12.04933909
_cell_angle_alpha   89.99873525
_cell_angle_beta   90.01374252
_cell_angle_gamma   89.99902085
_symmetry_Int_Tables_number   1
_chemical_formula_structural   Dy13Ho7Bi12
_chemical_formula_sum   'Dy13 Ho7 Bi12'
_cell_volume   947.21473633
_cell_formula_units_Z   1
loop_
 _symmetry_equiv_pos_site_id
 _symmetry_equiv_pos_as_xyz
  1  'x, y, z'
loop_
 _atom_site_type_symbol
 _atom_site_label
 _atom_site_symmetry_multiplicity
 _atom_site_fract_x
 _atom_site_fract_y
 _atom_site_fract_z
 _atom_site_occupancy
  Dy  Dy0  1  0.352665  0.750091  0.215281  1
  Dy  Dy1  1  0.852468  0.750087  0.284624  1
  Dy  Dy2  1  0.647502  0.250002  0.784686  1
  Dy  Dy3  1  0.147524  0.250062  0.715310  1
  Dy  Dy4  1  0.192623  0.563994  0.441502  1
  Dy  Dy5  1  0.475445  0.250040  0.488139  1
  Dy  Dy6  1  0.975371  0.250067  0.011809  1
  Dy  Dy7  1  0.524800  0.750010  0.511893  1
  Dy  Dy8  1  0.024674  0.749976  0.988161  1
  Dy  Dy9  1  0.312570  0.250021  0.218541  1
  Dy  Dy10  1  0.812590  0.250018  0.281470  1
  Dy  Dy11  1  0.687414  0.749999  0.781474  1
  Dy  Dy12  1  0.187430  0.750043  0.718574  1
  Ho  Ho13  1  0.692678  0.564290  0.058531  1
  Ho  Ho14  1  0.192624  0.935765  0.441451  1
  Ho  Ho15  1  0.307320  0.064311  0.941457  1
  Ho  Ho16  1  0.807354  0.435655  0.558536  1
  Ho  Ho17  1  0.307322  0.435673  0.941453  1
  Ho  Ho18  1  0.807298  0.064305  0.558548  1
  Ho  Ho19  1  0.692691  0.935708  0.058516  1
  Bi  Bi20  1  0.407392  0.749991  0.956812  1
  Bi  Bi21  1  0.907245  0.750102  0.543218  1
  Bi  Bi22  1  0.592579  0.250002  0.043148  1
  Bi  Bi23  1  0.092458  0.249629  0.456922  1
  Bi  Bi24  1  0.564851  0.995553  0.325190  1
  Bi  Bi25  1  0.064803  0.504479  0.174730  1
  Bi  Bi26  1  0.435139  0.495529  0.674844  1
  Bi  Bi27  1  0.935120  0.004524  0.825216  1
  Bi  Bi28  1  0.435162  0.004532  0.674799  1
  Bi  Bi29  1  0.935108  0.495515  0.825236  1
  Bi  Bi30  1  0.564931  0.504476  0.325163  1
  Bi  Bi31  1  0.064846  0.995549  0.174767  1
