# generated using pymatgen
data_Y3Er7Cd4(InPd)4
_symmetry_space_group_name_H-M   'P 1'
_cell_length_a   3.60201800
_cell_length_b   8.04991040
_cell_length_c   18.33673358
_cell_angle_alpha   89.85552910
_cell_angle_beta   90.00000000
_cell_angle_gamma   90.00000000
_symmetry_Int_Tables_number   1
_chemical_formula_structural   Y3Er7Cd4(InPd)4
_chemical_formula_sum   'Y3 Er7 Cd4 In4 Pd4'
_cell_volume   531.68880895
_cell_formula_units_Z   1
loop_
 _symmetry_equiv_pos_site_id
 _symmetry_equiv_pos_as_xyz
  1  'x, y, z'
loop_
 _atom_site_type_symbol
 _atom_site_label
 _atom_site_symmetry_multiplicity
 _atom_site_fract_x
 _atom_site_fract_y
 _atom_site_fract_z
 _atom_site_occupancy
  Y  Y0  1  0.000000  0.500667  0.500050  1
  Y  Y1  1  0.000000  0.999180  0.999967  1
  Y  Y2  1  0.000000  0.748072  0.282199  1
  Er  Er3  1  0.000000  0.251786  0.718414  1
  Er  Er4  1  0.000000  0.750825  0.781385  1
  Er  Er5  1  0.000000  0.248315  0.218145  1
  Er  Er6  1  0.000000  0.614841  0.083950  1
  Er  Er7  1  0.000000  0.383720  0.915440  1
  Er  Er8  1  0.000000  0.884953  0.584703  1
  Er  Er9  1  0.000000  0.116709  0.416120  1
  Cd  Cd10  1  0.500000  0.706487  0.931921  1
  Cd  Cd11  1  0.500000  0.292279  0.067384  1
  Cd  Cd12  1  0.500000  0.794966  0.432960  1
  Cd  Cd13  1  0.500000  0.206902  0.568008  1
  In  In14  1  0.500000  0.571309  0.647905  1
  In  In15  1  0.500000  0.428339  0.352090  1
  In  In16  1  0.500000  0.928481  0.147982  1
  In  In17  1  0.500000  0.070474  0.852086  1
  Pd  Pd18  1  0.500000  0.528687  0.195976  1
  Pd  Pd19  1  0.500000  0.468046  0.802536  1
  Pd  Pd20  1  0.500000  0.969483  0.697054  1
  Pd  Pd21  1  0.500000  0.035479  0.303726  1
