# generated using pymatgen
data_CsNd6Dy4(C2Br9)2
_symmetry_space_group_name_H-M   'P 1'
_cell_length_a   10.90418858
_cell_length_b   10.98161852
_cell_length_c   11.14147445
_cell_angle_alpha   113.10954604
_cell_angle_beta   87.73706189
_cell_angle_gamma   118.64696327
_symmetry_Int_Tables_number   1
_chemical_formula_structural   CsNd6Dy4(C2Br9)2
_chemical_formula_sum   'Cs1 Nd6 Dy4 C4 Br18'
_cell_volume   1058.45264152
_cell_formula_units_Z   1
loop_
 _symmetry_equiv_pos_site_id
 _symmetry_equiv_pos_as_xyz
  1  'x, y, z'
loop_
 _atom_site_type_symbol
 _atom_site_label
 _atom_site_symmetry_multiplicity
 _atom_site_fract_x
 _atom_site_fract_y
 _atom_site_fract_z
 _atom_site_occupancy
  Cs  Cs0  1  0.499510  0.997171  0.498906  1
  Nd  Nd1  1  0.909307  0.585694  0.694087  1
  Nd  Nd2  1  0.115291  0.942309  0.001635  1
  Nd  Nd3  1  0.038608  0.962036  0.662322  1
  Nd  Nd4  1  0.344083  0.285918  0.302443  1
  Nd  Nd5  1  0.714882  0.630179  0.986783  1
  Nd  Nd6  1  0.884611  0.060202  0.999815  1
  Dy  Dy7  1  0.661046  0.715952  0.702047  1
  Dy  Dy8  1  0.278009  0.362980  0.016104  1
  Dy  Dy9  1  0.095465  0.407888  0.301701  1
  Dy  Dy10  1  0.963256  0.040064  0.330256  1
  C  C11  1  0.156440  0.232412  0.128452  1
  C  C12  1  0.839620  0.768054  0.870199  1
  C  C13  1  0.915490  0.845136  0.792231  1
  C  C14  1  0.079978  0.154818  0.206718  1
  Br  Br15  1  0.449073  0.531267  0.829637  1
  Br  Br16  1  0.388469  0.036348  0.162835  1
  Br  Br17  1  0.771025  0.856504  0.500611  1
  Br  Br18  1  0.843442  0.321256  0.163006  1
  Br  Br19  1  0.543160  0.468258  0.164647  1
  Br  Br20  1  0.218709  0.141670  0.495694  1
  Br  Br21  1  0.315807  0.107805  0.835889  1
  Br  Br22  1  0.690604  0.904895  0.175081  1
  Br  Br23  1  0.977532  0.768782  0.179083  1
  Br  Br24  1  0.935382  0.298092  0.494723  1
  Br  Br25  1  0.029949  0.244666  0.832094  1
  Br  Br26  1  0.072411  0.695919  0.495332  1
  Br  Br27  1  0.259237  0.617895  0.187689  1
  Br  Br28  1  0.737081  0.367965  0.808642  1
  Br  Br29  1  0.635447  0.437654  0.502157  1
  Br  Br30  1  0.167863  0.686711  0.845985  1
  Br  Br31  1  0.611332  0.952861  0.831983  1
  Br  Br32  1  0.357882  0.570642  0.501213  1
