# generated using pymatgen
data_Ho4Tm8Co4BiRu
_symmetry_space_group_name_H-M   'P 1'
_cell_length_a   8.23078897
_cell_length_b   8.23078778
_cell_length_c   8.23078784
_cell_angle_alpha   110.70421308
_cell_angle_beta   110.96293098
_cell_angle_gamma   106.77969542
_symmetry_Int_Tables_number   1
_chemical_formula_structural   Ho4Tm8Co4BiRu
_chemical_formula_sum   'Ho4 Tm8 Co4 Bi1 Ru1'
_cell_volume   428.53366087
_cell_formula_units_Z   1
loop_
 _symmetry_equiv_pos_site_id
 _symmetry_equiv_pos_as_xyz
  1  'x, y, z'
loop_
 _atom_site_type_symbol
 _atom_site_label
 _atom_site_symmetry_multiplicity
 _atom_site_fract_x
 _atom_site_fract_y
 _atom_site_fract_z
 _atom_site_occupancy
  Ho  Ho0  1  0.284053  0.183588  0.467643  1
  Ho  Ho1  1  0.715947  0.816412  0.532357  1
  Ho  Ho2  1  0.284053  0.816412  0.100464  1
  Ho  Ho3  1  0.715947  0.183588  0.899536  1
  Tm  Tm4  1  0.620722  0.311544  0.309177  1
  Tm  Tm5  1  0.379278  0.688456  0.690823  1
  Tm  Tm6  1  0.002367  0.311544  0.690823  1
  Tm  Tm7  1  0.997633  0.688456  0.309177  1
  Tm  Tm8  1  0.212325  0.408646  0.196322  1
  Tm  Tm9  1  0.787675  0.591354  0.803678  1
  Tm  Tm10  1  0.212325  0.016004  0.803678  1
  Tm  Tm11  1  0.787675  0.983996  0.196322  1
  Co  Co12  1  0.000000  0.375110  0.375110  1
  Co  Co13  1  0.000000  0.624890  0.624890  1
  Co  Co14  1  0.388431  0.888431  0.500000  1
  Co  Co15  1  0.611569  0.111569  0.500000  1
  Bi  Bi16  1  0.500000  0.500000  0.000000  1
  Ru  Ru17  1  0.000000  0.000000  0.000000  1
