# generated using pymatgen
data_YbHo5Sc4(In2Pt)4
_symmetry_space_group_name_H-M   'P 1'
_cell_length_a   3.59647800
_cell_length_b   7.95626256
_cell_length_c   17.84367525
_cell_angle_alpha   89.95708672
_cell_angle_beta   90.00000000
_cell_angle_gamma   90.00000000
_symmetry_Int_Tables_number   1
_chemical_formula_structural   YbHo5Sc4(In2Pt)4
_chemical_formula_sum   'Yb1 Ho5 Sc4 In8 Pt4'
_cell_volume   510.58811716
_cell_formula_units_Z   1
loop_
 _symmetry_equiv_pos_site_id
 _symmetry_equiv_pos_as_xyz
  1  'x, y, z'
loop_
 _atom_site_type_symbol
 _atom_site_label
 _atom_site_symmetry_multiplicity
 _atom_site_fract_x
 _atom_site_fract_y
 _atom_site_fract_z
 _atom_site_occupancy
  Yb  Yb0  1  0.000000  0.000000  0.000000  1
  Ho  Ho1  1  0.000000  0.242126  0.217014  1
  Ho  Ho2  1  0.000000  0.757874  0.782986  1
  Ho  Ho3  1  0.000000  0.258101  0.717461  1
  Ho  Ho4  1  0.000000  0.741899  0.282539  1
  Ho  Ho5  1  0.000000  0.500000  0.500000  1
  Sc  Sc6  1  0.000000  0.118319  0.413304  1
  Sc  Sc7  1  0.000000  0.881681  0.586696  1
  Sc  Sc8  1  0.000000  0.381278  0.913621  1
  Sc  Sc9  1  0.000000  0.618722  0.086379  1
  In  In10  1  0.500000  0.414752  0.351279  1
  In  In11  1  0.500000  0.585248  0.648721  1
  In  In12  1  0.500000  0.084362  0.851254  1
  In  In13  1  0.500000  0.915638  0.148746  1
  In  In14  1  0.500000  0.305898  0.060567  1
  In  In15  1  0.500000  0.694102  0.939433  1
  In  In16  1  0.500000  0.194957  0.560473  1
  In  In17  1  0.500000  0.805043  0.439527  1
  Pt  Pt18  1  0.500000  0.030570  0.307790  1
  Pt  Pt19  1  0.500000  0.969430  0.692210  1
  Pt  Pt20  1  0.500000  0.470242  0.807413  1
  Pt  Pt21  1  0.500000  0.529758  0.192587  1
