# generated using pymatgen
data_LaTb3PtSe7
_symmetry_space_group_name_H-M   'P 1'
_cell_length_a   4.01442923
_cell_length_b   8.21410605
_cell_length_c   8.59525206
_cell_angle_alpha   90.01243489
_cell_angle_beta   89.97630599
_cell_angle_gamma   89.99827194
_symmetry_Int_Tables_number   1
_chemical_formula_structural   LaTb3PtSe7
_chemical_formula_sum   'La1 Tb3 Pt1 Se7'
_cell_volume   283.42795365
_cell_formula_units_Z   1
loop_
 _symmetry_equiv_pos_site_id
 _symmetry_equiv_pos_as_xyz
  1  'x, y, z'
loop_
 _atom_site_type_symbol
 _atom_site_label
 _atom_site_symmetry_multiplicity
 _atom_site_fract_x
 _atom_site_fract_y
 _atom_site_fract_z
 _atom_site_occupancy
  La  La0  1  0.250502  0.625349  0.747951  1
  Tb  Tb1  1  0.250375  0.125298  0.703085  1
  Tb  Tb2  1  0.750068  0.868818  0.273138  1
  Tb  Tb3  1  0.749835  0.380498  0.273724  1
  Pt  Pt4  1  0.749471  0.125096  0.001347  1
  Se  Se5  1  0.249224  0.321621  0.998779  1
  Se  Se6  1  0.750091  0.624620  0.014695  1
  Se  Se7  1  0.750549  0.880744  0.627665  1
  Se  Se8  1  0.250028  0.624926  0.370569  1
  Se  Se9  1  0.249258  0.928444  0.998321  1
  Se  Se10  1  0.750462  0.369876  0.627970  1
  Se  Se11  1  0.250136  0.124709  0.362756  1
