# generated using pymatgen
data_Pr3Nd3Cd23Si
_symmetry_space_group_name_H-M   'P 1'
_cell_length_a   10.10430987
_cell_length_b   10.10430952
_cell_length_c   10.10471500
_cell_angle_alpha   60.00132090
_cell_angle_beta   60.00132074
_cell_angle_gamma   59.99999858
_symmetry_Int_Tables_number   1
_chemical_formula_structural   Pr3Nd3Cd23Si
_chemical_formula_sum   'Pr3 Nd3 Cd23 Si1'
_cell_volume   729.50963866
_cell_formula_units_Z   1
loop_
 _symmetry_equiv_pos_site_id
 _symmetry_equiv_pos_as_xyz
  1  'x, y, z'
loop_
 _atom_site_type_symbol
 _atom_site_label
 _atom_site_symmetry_multiplicity
 _atom_site_fract_x
 _atom_site_fract_y
 _atom_site_fract_z
 _atom_site_occupancy
  Pr  Pr0  1  0.793408  0.793408  0.206399  1
  Pr  Pr1  1  0.206784  0.793408  0.206399  1
  Pr  Pr2  1  0.793408  0.206784  0.206399  1
  Nd  Nd3  1  0.206533  0.206533  0.793293  1
  Nd  Nd4  1  0.793641  0.206533  0.793293  1
  Nd  Nd5  1  0.206533  0.793641  0.793293  1
  Cd  Cd6  1  0.834375  0.834375  0.496873  1
  Cd  Cd7  1  0.835010  0.495515  0.834465  1
  Cd  Cd8  1  0.495515  0.835010  0.834465  1
  Cd  Cd9  1  0.835010  0.835010  0.834465  1
  Cd  Cd10  1  0.164944  0.164944  0.505169  1
  Cd  Cd11  1  0.165588  0.503795  0.165030  1
  Cd  Cd12  1  0.503795  0.165588  0.165030  1
  Cd  Cd13  1  0.165588  0.165588  0.165030  1
  Cd  Cd14  1  0.622374  0.622374  0.132877  1
  Cd  Cd15  1  0.621759  0.133598  0.622884  1
  Cd  Cd16  1  0.133598  0.621759  0.622884  1
  Cd  Cd17  1  0.621759  0.621759  0.622884  1
  Cd  Cd18  1  0.377985  0.377985  0.866045  1
  Cd  Cd19  1  0.377372  0.866749  0.378507  1
  Cd  Cd20  1  0.866749  0.377372  0.378507  1
  Cd  Cd21  1  0.377372  0.377372  0.378507  1
  Cd  Cd22  1  0.000112  0.000112  0.500137  1
  Cd  Cd23  1  0.499640  0.000112  0.500137  1
  Cd  Cd24  1  0.000112  0.499640  0.500137  1
  Cd  Cd25  1  0.500112  0.500112  0.999585  1
  Cd  Cd26  1  0.000191  0.500112  0.999585  1
  Cd  Cd27  1  0.500112  0.000191  0.999585  1
  Cd  Cd28  1  0.500078  0.500078  0.499766  1
  Si  Si29  1  0.000543  0.000543  0.998370  1
