# generated using pymatgen
data_Er9LuSi5Bi
_symmetry_space_group_name_H-M   'P 1'
_cell_length_a   8.43654716
_cell_length_b   8.47903432
_cell_length_c   6.28925404
_cell_angle_alpha   89.98721297
_cell_angle_beta   90.00426989
_cell_angle_gamma   119.85598420
_symmetry_Int_Tables_number   1
_chemical_formula_structural   Er9LuSi5Bi
_chemical_formula_sum   'Er9 Lu1 Si5 Bi1'
_cell_volume   390.18386782
_cell_formula_units_Z   1
loop_
 _symmetry_equiv_pos_site_id
 _symmetry_equiv_pos_as_xyz
  1  'x, y, z'
loop_
 _atom_site_type_symbol
 _atom_site_label
 _atom_site_symmetry_multiplicity
 _atom_site_fract_x
 _atom_site_fract_y
 _atom_site_fract_z
 _atom_site_occupancy
  Er  Er0  1  0.676737  0.346040  0.004665  1
  Er  Er1  1  0.330887  0.654265  0.495233  1
  Er  Er2  1  0.330585  0.653800  0.004757  1
  Er  Er3  1  0.768144  0.000140  0.749797  1
  Er  Er4  1  0.755668  0.757272  0.250286  1
  Er  Er5  1  0.997930  0.242482  0.250398  1
  Er  Er6  1  0.985059  0.745967  0.749703  1
  Er  Er7  1  0.239090  0.253777  0.749739  1
  Er  Er8  1  0.239574  0.000114  0.250140  1
  Lu  Lu9  1  0.677246  0.346595  0.495191  1
  Si  Si10  1  0.394039  0.390234  0.250977  1
  Si  Si11  1  0.002029  0.608848  0.251111  1
  Si  Si12  1  0.997811  0.394556  0.748984  1
  Si  Si13  1  0.603992  0.604437  0.749059  1
  Si  Si14  1  0.606906  0.000687  0.250584  1
  Bi  Bi15  1  0.394303  0.000785  0.749376  1
