# generated using pymatgen
data_Rb8Li4YLu3As8
_symmetry_space_group_name_H-M   'P 1'
_cell_length_a   10.58034543
_cell_length_b   10.58034547
_cell_length_c   6.80497936
_cell_angle_alpha   90.02826953
_cell_angle_beta   89.97172859
_cell_angle_gamma   100.07528947
_symmetry_Int_Tables_number   1
_chemical_formula_structural   Rb8Li4YLu3As8
_chemical_formula_sum   'Rb8 Li4 Y1 Lu3 As8'
_cell_volume   750.02693987
_cell_formula_units_Z   1
loop_
 _symmetry_equiv_pos_site_id
 _symmetry_equiv_pos_as_xyz
  1  'x, y, z'
loop_
 _atom_site_type_symbol
 _atom_site_label
 _atom_site_symmetry_multiplicity
 _atom_site_fract_x
 _atom_site_fract_y
 _atom_site_fract_z
 _atom_site_occupancy
  Rb  Rb0  1  0.568650  0.931701  0.750352  1
  Rb  Rb1  1  0.931701  0.568650  0.249648  1
  Rb  Rb2  1  0.431908  0.067024  0.249532  1
  Rb  Rb3  1  0.067024  0.431908  0.750468  1
  Rb  Rb4  1  0.678773  0.322269  0.788739  1
  Rb  Rb5  1  0.822075  0.177565  0.288423  1
  Rb  Rb6  1  0.322269  0.678773  0.211261  1
  Rb  Rb7  1  0.177565  0.822075  0.711577  1
  Li  Li8  1  0.619481  0.619481  0.000000  1
  Li  Li9  1  0.881154  0.881154  0.500000  1
  Li  Li10  1  0.381331  0.381331  0.000000  1
  Li  Li11  1  0.117251  0.117251  0.500000  1
  Y  Y12  1  0.367760  0.367760  0.500000  1
  Lu  Lu13  1  0.868535  0.868535  0.000000  1
  Lu  Lu14  1  0.632680  0.632680  0.500000  1
  Lu  Lu15  1  0.130522  0.130522  0.000000  1
  As  As16  1  0.340826  0.155576  0.753995  1
  As  As17  1  0.155576  0.340826  0.246005  1
  As  As18  1  0.659742  0.840982  0.250067  1
  As  As19  1  0.840982  0.659742  0.749933  1
  As  As20  1  0.910661  0.088736  0.768588  1
  As  As21  1  0.592380  0.412417  0.266745  1
  As  As22  1  0.088736  0.910661  0.231412  1
  As  As23  1  0.412417  0.592380  0.733255  1
