# generated using pymatgen
data_Tm8Nb3Tc9Ge16
_symmetry_space_group_name_H-M   'P 1'
_cell_length_a   6.92005896
_cell_length_b   6.92005842
_cell_length_c   13.17220700
_cell_angle_alpha   90.04312051
_cell_angle_beta   89.95687949
_cell_angle_gamma   89.52238962
_symmetry_Int_Tables_number   1
_chemical_formula_structural   Tm8Nb3Tc9Ge16
_chemical_formula_sum   'Tm8 Nb3 Tc9 Ge16'
_cell_volume   630.75799688
_cell_formula_units_Z   1
loop_
 _symmetry_equiv_pos_site_id
 _symmetry_equiv_pos_as_xyz
  1  'x, y, z'
loop_
 _atom_site_type_symbol
 _atom_site_label
 _atom_site_symmetry_multiplicity
 _atom_site_fract_x
 _atom_site_fract_y
 _atom_site_fract_z
 _atom_site_occupancy
  Tm  Tm0  1  0.339749  0.990781  0.471936  1
  Tm  Tm1  1  0.511232  0.838890  0.721211  1
  Tm  Tm2  1  0.485997  0.162053  0.219681  1
  Tm  Tm3  1  0.838890  0.511232  0.278789  1
  Tm  Tm4  1  0.162053  0.485997  0.780319  1
  Tm  Tm5  1  0.655520  0.012096  0.972504  1
  Tm  Tm6  1  0.990781  0.339749  0.528064  1
  Tm  Tm7  1  0.012096  0.655520  0.027496  1
  Nb  Nb8  1  0.157908  0.842368  0.249391  1
  Nb  Nb9  1  0.842368  0.157908  0.750609  1
  Nb  Nb10  1  0.658338  0.658338  0.500000  1
  Tc  Tc11  1  0.338995  0.338995  0.000000  1
  Tc  Tc12  1  0.188964  0.984698  0.865572  1
  Tc  Tc13  1  0.502853  0.696053  0.115303  1
  Tc  Tc14  1  0.498946  0.313830  0.620050  1
  Tc  Tc15  1  0.696053  0.502853  0.884697  1
  Tc  Tc16  1  0.313830  0.498946  0.379950  1
  Tc  Tc17  1  0.811670  0.006930  0.365273  1
  Tc  Tc18  1  0.984698  0.188964  0.134428  1
  Tc  Tc19  1  0.006930  0.811670  0.634727  1
  Ge  Ge20  1  0.200279  0.117466  0.675215  1
  Ge  Ge21  1  0.389092  0.688809  0.926286  1
  Ge  Ge22  1  0.616682  0.302227  0.425230  1
  Ge  Ge23  1  0.688809  0.389092  0.073714  1
  Ge  Ge24  1  0.302227  0.616682  0.574770  1
  Ge  Ge25  1  0.800057  0.882022  0.175093  1
  Ge  Ge26  1  0.117466  0.200279  0.324785  1
  Ge  Ge27  1  0.882022  0.800057  0.824907  1
  Ge  Ge28  1  0.267432  0.987646  0.057965  1
  Ge  Ge29  1  0.520783  0.782336  0.311452  1
  Ge  Ge30  1  0.479614  0.222091  0.814522  1
  Ge  Ge31  1  0.782336  0.520783  0.688548  1
  Ge  Ge32  1  0.222091  0.479614  0.185478  1
  Ge  Ge33  1  0.725866  0.019725  0.560589  1
  Ge  Ge34  1  0.987646  0.267432  0.942035  1
  Ge  Ge35  1  0.019725  0.725866  0.439411  1
