# generated using pymatgen
data_Pr3CdIr3RhO14
_symmetry_space_group_name_H-M   'P 1'
_cell_length_a   7.31262402
_cell_length_b   7.45799537
_cell_length_c   7.45799700
_cell_angle_alpha   59.99999722
_cell_angle_beta   59.34018032
_cell_angle_gamma   59.34017474
_symmetry_Int_Tables_number   1
_chemical_formula_structural   Pr3CdIr3RhO14
_chemical_formula_sum   'Pr3 Cd1 Ir3 Rh1 O14'
_cell_volume   284.70721023
_cell_formula_units_Z   1
loop_
 _symmetry_equiv_pos_site_id
 _symmetry_equiv_pos_as_xyz
  1  'x, y, z'
loop_
 _atom_site_type_symbol
 _atom_site_label
 _atom_site_symmetry_multiplicity
 _atom_site_fract_x
 _atom_site_fract_y
 _atom_site_fract_z
 _atom_site_occupancy
  Pr  Pr0  1  0.125000  0.125000  0.625000  1
  Pr  Pr1  1  0.125000  0.125000  0.125000  1
  Pr  Pr2  1  0.125000  0.625000  0.125000  1
  Cd  Cd3  1  0.625000  0.125000  0.125000  1
  Ir  Ir4  1  0.625000  0.625000  0.625000  1
  Ir  Ir5  1  0.625000  0.125000  0.625000  1
  Ir  Ir6  1  0.625000  0.625000  0.125000  1
  Rh  Rh7  1  0.125000  0.625000  0.625000  1
  O  O8  1  0.957956  0.540517  0.540517  1
  O  O9  1  0.292044  0.288990  0.709483  1
  O  O10  1  0.957956  0.540517  0.961010  1
  O  O11  1  0.694204  0.302417  0.302417  1
  O  O12  1  0.555796  0.549039  0.947583  1
  O  O13  1  0.555796  0.947583  0.549039  1
  O  O14  1  0.555796  0.947583  0.947583  1
  O  O15  1  0.264312  0.245229  0.245229  1
  O  O16  1  0.292044  0.709483  0.709483  1
  O  O17  1  0.694204  0.302417  0.700961  1
  O  O18  1  0.985688  0.004771  0.004771  1
  O  O19  1  0.957956  0.961010  0.540517  1
  O  O20  1  0.292044  0.709483  0.288990  1
  O  O21  1  0.694204  0.700961  0.302417  1
