# generated using pymatgen
data_DyAlCo3C
_symmetry_space_group_name_H-M   'P 1'
_cell_length_a   5.13166400
_cell_length_b   5.13113626
_cell_length_c   6.57564700
_cell_angle_alpha   90.00000000
_cell_angle_beta   90.00000000
_cell_angle_gamma   120.00340230
_symmetry_Int_Tables_number   1
_chemical_formula_structural   DyAlCo3C
_chemical_formula_sum   'Dy2 Al2 Co6 C2'
_cell_volume   149.94293007
_cell_formula_units_Z   2
loop_
 _symmetry_equiv_pos_site_id
 _symmetry_equiv_pos_as_xyz
  1  'x, y, z'
loop_
 _atom_site_type_symbol
 _atom_site_label
 _atom_site_symmetry_multiplicity
 _atom_site_fract_x
 _atom_site_fract_y
 _atom_site_fract_z
 _atom_site_occupancy
  Dy  Dy0  1  0.999979  0.000000  0.000000  1
  Dy  Dy1  1  0.999993  0.000000  0.500000  1
  Al  Al2  1  0.333332  0.666699  0.000000  1
  Al  Al3  1  0.666633  0.333301  0.000000  1
  Co  Co4  1  0.499987  0.000000  0.305291  1
  Co  Co5  1  0.499984  0.500002  0.305295  1
  Co  Co6  1  0.999982  0.499998  0.305295  1
  Co  Co7  1  0.499987  0.000000  0.694709  1
  Co  Co8  1  0.499984  0.500002  0.694705  1
  Co  Co9  1  0.999982  0.499998  0.694705  1
  C  C10  1  0.333382  0.666805  0.500000  1
  C  C11  1  0.666577  0.333195  0.500000  1
