# generated using pymatgen
data_LiSc4Ru3
_symmetry_space_group_name_H-M   'P 1'
_cell_length_a   6.52716500
_cell_length_b   9.24775000
_cell_length_c   4.59712000
_cell_angle_alpha   90.00000000
_cell_angle_beta   90.00000000
_cell_angle_gamma   90.00000000
_symmetry_Int_Tables_number   1
_chemical_formula_structural   LiSc4Ru3
_chemical_formula_sum   'Li2 Sc8 Ru6'
_cell_volume   277.48947321
_cell_formula_units_Z   2
loop_
 _symmetry_equiv_pos_site_id
 _symmetry_equiv_pos_as_xyz
  1  'x, y, z'
loop_
 _atom_site_type_symbol
 _atom_site_label
 _atom_site_symmetry_multiplicity
 _atom_site_fract_x
 _atom_site_fract_y
 _atom_site_fract_z
 _atom_site_occupancy
  Li  Li0  1  0.500001  0.635767  0.252297  1
  Li  Li1  1  0.500001  0.364234  0.752297  1
  Sc  Sc2  1  0.229491  0.364537  0.252865  1
  Sc  Sc3  1  0.770509  0.364537  0.252865  1
  Sc  Sc4  1  0.246393  0.883396  0.253698  1
  Sc  Sc5  1  0.753607  0.883396  0.253698  1
  Sc  Sc6  1  0.229491  0.635464  0.752865  1
  Sc  Sc7  1  0.770509  0.635464  0.752865  1
  Sc  Sc8  1  0.246393  0.116605  0.753697  1
  Sc  Sc9  1  0.753607  0.116605  0.753697  1
  Ru  Ru10  1  0.000000  0.624962  0.253003  1
  Ru  Ru11  1  0.000000  0.124158  0.253718  1
  Ru  Ru12  1  0.500001  0.132281  0.253854  1
  Ru  Ru13  1  0.000000  0.375039  0.753003  1
  Ru  Ru14  1  0.000000  0.875843  0.753718  1
  Ru  Ru15  1  0.500001  0.867720  0.753853  1
