# generated using pymatgen
data_Ir3Ru3W2
_symmetry_space_group_name_H-M   'P 1'
_cell_length_a   5.53004200
_cell_length_b   5.53004126
_cell_length_c   4.40884600
_cell_angle_alpha   90.00000000
_cell_angle_beta   90.00000000
_cell_angle_gamma   120.00000443
_symmetry_Int_Tables_number   1
_chemical_formula_structural   Ir3Ru3W2
_chemical_formula_sum   'Ir3 Ru3 W2'
_cell_volume   116.76490836
_cell_formula_units_Z   1
loop_
 _symmetry_equiv_pos_site_id
 _symmetry_equiv_pos_as_xyz
  1  'x, y, z'
loop_
 _atom_site_type_symbol
 _atom_site_label
 _atom_site_symmetry_multiplicity
 _atom_site_fract_x
 _atom_site_fract_y
 _atom_site_fract_z
 _atom_site_occupancy
  Ir  Ir0  1  0.165347  0.330694  0.250000  1
  Ir  Ir1  1  0.669306  0.834653  0.250000  1
  Ir  Ir2  1  0.165347  0.834653  0.250000  1
  Ru  Ru3  1  0.834921  0.669843  0.750000  1
  Ru  Ru4  1  0.330157  0.165079  0.750000  1
  Ru  Ru5  1  0.834921  0.165079  0.750000  1
  W  W6  1  0.333333  0.666667  0.750000  1
  W  W7  1  0.666667  0.333333  0.250000  1
