# generated using pymatgen
data_Ba2SnS5
_symmetry_space_group_name_H-M   'P 1'
_cell_length_a   9.15773893
_cell_length_b   8.70313400
_cell_length_c   12.35613884
_cell_angle_alpha   90.00000000
_cell_angle_beta   113.25567247
_cell_angle_gamma   90.00000000
_symmetry_Int_Tables_number   1
_chemical_formula_structural   Ba2SnS5
_chemical_formula_sum   'Ba8 Sn4 S20'
_cell_volume   904.78431810
_cell_formula_units_Z   4
loop_
 _symmetry_equiv_pos_site_id
 _symmetry_equiv_pos_as_xyz
  1  'x, y, z'
loop_
 _atom_site_type_symbol
 _atom_site_label
 _atom_site_symmetry_multiplicity
 _atom_site_fract_x
 _atom_site_fract_y
 _atom_site_fract_z
 _atom_site_occupancy
  Ba  Ba0  1  0.465008  0.627964  0.154309  1
  Ba  Ba1  1  0.916070  0.135654  0.175535  1
  Ba  Ba2  1  0.083929  0.635653  0.324465  1
  Ba  Ba3  1  0.534992  0.127964  0.345691  1
  Ba  Ba4  1  0.465007  0.872035  0.654309  1
  Ba  Ba5  1  0.916070  0.364347  0.675535  1
  Ba  Ba6  1  0.083930  0.864346  0.824465  1
  Ba  Ba7  1  0.534992  0.372036  0.845691  1
  Sn  Sn8  1  0.162216  0.294560  0.015509  1
  Sn  Sn9  1  0.837784  0.794560  0.484491  1
  Sn  Sn10  1  0.162215  0.205440  0.515509  1
  Sn  Sn11  1  0.837784  0.705440  0.984491  1
  S  S12  1  0.367436  0.087454  0.057389  1
  S  S13  1  0.092198  0.820183  0.092990  1
  S  S14  1  0.551167  0.251187  0.097915  1
  S  S15  1  0.783474  0.510575  0.100577  1
  S  S16  1  0.233102  0.371151  0.217075  1
  S  S17  1  0.766898  0.871150  0.282925  1
  S  S18  1  0.216526  0.010575  0.399424  1
  S  S19  1  0.448833  0.751187  0.402085  1
  S  S20  1  0.907802  0.320184  0.407011  1
  S  S21  1  0.632565  0.587453  0.442611  1
  S  S22  1  0.367435  0.412547  0.557389  1
  S  S23  1  0.092198  0.679816  0.592990  1
  S  S24  1  0.551166  0.248813  0.597915  1
  S  S25  1  0.783473  0.989425  0.600577  1
  S  S26  1  0.233102  0.128850  0.717075  1
  S  S27  1  0.766898  0.628849  0.782925  1
  S  S28  1  0.216527  0.489424  0.899424  1
  S  S29  1  0.448834  0.748813  0.902086  1
  S  S30  1  0.907801  0.179817  0.907011  1
  S  S31  1  0.632564  0.912546  0.942611  1
