# generated using pymatgen
data_Pr20GaSi9Ag2
_symmetry_space_group_name_H-M   'P 1'
_cell_length_a   7.81124400
_cell_length_b   7.81124400
_cell_length_c   14.74908600
_cell_angle_alpha   90.00000000
_cell_angle_beta   90.00000000
_cell_angle_gamma   90.00000000
_symmetry_Int_Tables_number   1
_chemical_formula_structural   Pr20GaSi9Ag2
_chemical_formula_sum   'Pr20 Ga1 Si9 Ag2'
_cell_volume   899.92334101
_cell_formula_units_Z   1
loop_
 _symmetry_equiv_pos_site_id
 _symmetry_equiv_pos_as_xyz
  1  'x, y, z'
loop_
 _atom_site_type_symbol
 _atom_site_label
 _atom_site_symmetry_multiplicity
 _atom_site_fract_x
 _atom_site_fract_y
 _atom_site_fract_z
 _atom_site_occupancy
  Pr  Pr0  1  0.820525  0.822551  0.606585  1
  Pr  Pr1  1  0.182147  0.828015  0.109177  1
  Pr  Pr2  1  0.161951  0.808711  0.392066  1
  Pr  Pr3  1  0.000000  0.500000  0.734295  1
  Pr  Pr4  1  0.838049  0.191289  0.392066  1
  Pr  Pr5  1  0.691289  0.661951  0.392066  1
  Pr  Pr6  1  0.677449  0.320525  0.606585  1
  Pr  Pr7  1  0.322551  0.679475  0.606585  1
  Pr  Pr8  1  0.000000  0.500000  0.231318  1
  Pr  Pr9  1  0.671985  0.682147  0.109177  1
  Pr  Pr10  1  0.687416  0.335502  0.889937  1
  Pr  Pr11  1  0.835502  0.812584  0.889937  1
  Pr  Pr12  1  0.308711  0.338049  0.392066  1
  Pr  Pr13  1  0.179475  0.177449  0.606585  1
  Pr  Pr14  1  0.817853  0.171985  0.109177  1
  Pr  Pr15  1  0.312584  0.664498  0.889937  1
  Pr  Pr16  1  0.328015  0.317853  0.109177  1
  Pr  Pr17  1  0.500000  0.000000  0.276222  1
  Pr  Pr18  1  0.164498  0.187416  0.889937  1
  Pr  Pr19  1  0.500000  0.000000  0.771412  1
  Ga  Ga20  1  0.000000  0.500000  0.004654  1
  Si  Si21  1  0.612533  0.384592  0.250605  1
  Si  Si22  1  0.115486  0.888290  0.746988  1
  Si  Si23  1  0.388290  0.384514  0.746988  1
  Si  Si24  1  0.387467  0.615408  0.250605  1
  Si  Si25  1  0.884592  0.887467  0.250605  1
  Si  Si26  1  0.611710  0.615486  0.746988  1
  Si  Si27  1  0.000000  0.500000  0.508334  1
  Si  Si28  1  0.884514  0.111710  0.746988  1
  Si  Si29  1  0.115408  0.112533  0.250605  1
  Ag  Ag30  1  0.500000  0.000000  0.496516  1
  Ag  Ag31  1  0.500000  0.000000  0.995813  1
