# generated using pymatgen
data_Dy4Y3LuC10
_symmetry_space_group_name_H-M   'P 1'
_cell_length_a   3.67923800
_cell_length_b   6.57407371
_cell_length_c   11.88020093
_cell_angle_alpha   89.74831156
_cell_angle_beta   90.00000000
_cell_angle_gamma   90.00000000
_symmetry_Int_Tables_number   1
_chemical_formula_structural   Dy4Y3LuC10
_chemical_formula_sum   'Dy4 Y3 Lu1 C10'
_cell_volume   287.35055932
_cell_formula_units_Z   1
loop_
 _symmetry_equiv_pos_site_id
 _symmetry_equiv_pos_as_xyz
  1  'x, y, z'
loop_
 _atom_site_type_symbol
 _atom_site_label
 _atom_site_symmetry_multiplicity
 _atom_site_fract_x
 _atom_site_fract_y
 _atom_site_fract_z
 _atom_site_occupancy
  Dy  Dy0  1  0.500000  0.107782  0.802067  1
  Dy  Dy1  1  0.500000  0.893406  0.196400  1
  Dy  Dy2  1  0.500000  0.604108  0.697270  1
  Dy  Dy3  1  0.500000  0.391663  0.304634  1
  Y  Y4  1  0.000000  0.752697  0.456378  1
  Y  Y5  1  0.000000  0.746371  0.954367  1
  Y  Y6  1  0.000000  0.235980  0.042116  1
  Lu  Lu7  1  0.000000  0.268730  0.542366  1
  C  C8  1  0.500000  0.509485  0.502292  1
  C  C9  1  0.500000  0.984656  0.000724  1
  C  C10  1  0.000000  0.363212  0.733027  1
  C  C11  1  0.000000  0.645090  0.261383  1
  C  C12  1  0.000000  0.856807  0.758227  1
  C  C13  1  0.000000  0.133364  0.239731  1
  C  C14  1  0.000000  0.381472  0.845215  1
  C  C15  1  0.000000  0.570669  0.157461  1
  C  C16  1  0.000000  0.120979  0.352070  1
  C  C17  1  0.000000  0.933531  0.654272  1
