# generated using pymatgen
data_Sc4Al17GeIr6
_symmetry_space_group_name_H-M   'P 1'
_cell_length_a   7.47187736
_cell_length_b   7.47187677
_cell_length_c   9.32558700
_cell_angle_alpha   90.00000000
_cell_angle_beta   90.00000000
_cell_angle_gamma   119.71098429
_symmetry_Int_Tables_number   1
_chemical_formula_structural   Sc4Al17GeIr6
_chemical_formula_sum   'Sc4 Al17 Ge1 Ir6'
_cell_volume   452.19285370
_cell_formula_units_Z   1
loop_
 _symmetry_equiv_pos_site_id
 _symmetry_equiv_pos_as_xyz
  1  'x, y, z'
loop_
 _atom_site_type_symbol
 _atom_site_label
 _atom_site_symmetry_multiplicity
 _atom_site_fract_x
 _atom_site_fract_y
 _atom_site_fract_z
 _atom_site_occupancy
  Sc  Sc0  1  0.995242  0.677486  0.750000  1
  Sc  Sc1  1  0.003010  0.328420  0.250000  1
  Sc  Sc2  1  0.677486  0.995242  0.750000  1
  Sc  Sc3  1  0.328420  0.003010  0.250000  1
  Al  Al4  1  0.876388  0.876388  0.250000  1
  Al  Al5  1  0.997247  0.337130  0.576573  1
  Al  Al6  1  0.000894  0.664898  0.422160  1
  Al  Al7  1  0.000894  0.664898  0.077840  1
  Al  Al8  1  0.337130  0.997247  0.923427  1
  Al  Al9  1  0.997247  0.337130  0.923427  1
  Al  Al10  1  0.664898  0.000894  0.077840  1
  Al  Al11  1  0.664898  0.000894  0.422160  1
  Al  Al12  1  0.337130  0.997247  0.576573  1
  Al  Al13  1  0.329941  0.329941  0.063898  1
  Al  Al14  1  0.666073  0.666073  0.943335  1
  Al  Al15  1  0.666073  0.666073  0.556665  1
  Al  Al16  1  0.329941  0.329941  0.436102  1
  Al  Al17  1  0.338281  0.558685  0.750000  1
  Al  Al18  1  0.660933  0.447380  0.250000  1
  Al  Al19  1  0.558685  0.338281  0.750000  1
  Al  Al20  1  0.447380  0.660933  0.250000  1
  Ge  Ge21  1  0.133455  0.133455  0.750000  1
  Ir  Ir22  1  0.669223  0.325858  0.499783  1
  Ir  Ir23  1  0.325858  0.669223  0.499783  1
  Ir  Ir24  1  0.325858  0.669223  0.000217  1
  Ir  Ir25  1  0.669223  0.325858  0.000217  1
  Ir  Ir26  1  0.999098  0.999098  0.501615  1
  Ir  Ir27  1  0.999098  0.999098  0.998385  1
