# generated using pymatgen
data_DyTm3(Si2Rh)2
_symmetry_space_group_name_H-M   'P 1'
_cell_length_a   5.63929965
_cell_length_b   5.63929929
_cell_length_c   9.97376353
_cell_angle_alpha   63.78581986
_cell_angle_beta   63.78582311
_cell_angle_gamma   43.46997553
_symmetry_Int_Tables_number   1
_chemical_formula_structural   DyTm3(Si2Rh)2
_chemical_formula_sum   'Dy1 Tm3 Si4 Rh2'
_cell_volume   191.96169492
_cell_formula_units_Z   1
loop_
 _symmetry_equiv_pos_site_id
 _symmetry_equiv_pos_as_xyz
  1  'x, y, z'
loop_
 _atom_site_type_symbol
 _atom_site_label
 _atom_site_symmetry_multiplicity
 _atom_site_fract_x
 _atom_site_fract_y
 _atom_site_fract_z
 _atom_site_occupancy
  Dy  Dy0  1  0.814427  0.814427  0.108550  1
  Tm  Tm1  1  0.000193  0.000193  0.326306  1
  Tm  Tm2  1  0.185272  0.185272  0.889412  1
  Tm  Tm3  1  0.998753  0.998753  0.674537  1
  Si  Si4  1  0.361949  0.361949  0.565739  1
  Si  Si5  1  0.488825  0.488825  0.878192  1
  Si  Si6  1  0.637593  0.637593  0.435742  1
  Si  Si7  1  0.512978  0.512978  0.120151  1
  Rh  Rh8  1  0.726221  0.726221  0.628891  1
  Rh  Rh9  1  0.273789  0.273789  0.372479  1
