# generated using pymatgen
data_Dy6C3Cl5
_symmetry_space_group_name_H-M   'P 1'
_cell_length_a   3.66125874
_cell_length_b   8.34342219
_cell_length_c   10.29408274
_cell_angle_alpha   85.53010534
_cell_angle_beta   79.68395692
_cell_angle_gamma   77.33688298
_symmetry_Int_Tables_number   1
_chemical_formula_structural   Dy6C3Cl5
_chemical_formula_sum   'Dy6 C3 Cl5'
_cell_volume   301.60410754
_cell_formula_units_Z   1
loop_
 _symmetry_equiv_pos_site_id
 _symmetry_equiv_pos_as_xyz
  1  'x, y, z'
loop_
 _atom_site_type_symbol
 _atom_site_label
 _atom_site_symmetry_multiplicity
 _atom_site_fract_x
 _atom_site_fract_y
 _atom_site_fract_z
 _atom_site_occupancy
  Dy  Dy0  1  0.572964  0.074648  0.779521  1
  Dy  Dy1  1  0.958144  0.429084  0.656606  1
  Dy  Dy2  1  0.684337  0.178856  0.455437  1
  Dy  Dy3  1  0.046376  0.568829  0.341702  1
  Dy  Dy4  1  0.321414  0.818429  0.543120  1
  Dy  Dy5  1  0.431683  0.923190  0.218964  1
  C  C6  1  0.127152  0.123338  0.625261  1
  C  C7  1  0.877678  0.875143  0.373367  1
  C  C8  1  0.501864  0.499382  0.499164  1
  Cl  Cl9  1  0.753695  0.746307  0.753254  1
  Cl  Cl10  1  0.379688  0.378675  0.866321  1
  Cl  Cl11  1  0.252781  0.251361  0.245428  1
  Cl  Cl12  1  0.625751  0.618817  0.132259  1
  Cl  Cl13  1  0.003695  0.997532  0.998912  1
