# generated using pymatgen
data_Dy2B4Ir2Ru3
_symmetry_space_group_name_H-M   'P 1'
_cell_length_a   7.51408874
_cell_length_b   6.40317819
_cell_length_c   5.53511039
_cell_angle_alpha   77.63708798
_cell_angle_beta   56.34563162
_cell_angle_gamma   46.01728470
_symmetry_Int_Tables_number   1
_chemical_formula_structural   Dy2B4Ir2Ru3
_chemical_formula_sum   'Dy2 B4 Ir2 Ru3'
_cell_volume   152.89157621
_cell_formula_units_Z   1
loop_
 _symmetry_equiv_pos_site_id
 _symmetry_equiv_pos_as_xyz
  1  'x, y, z'
loop_
 _atom_site_type_symbol
 _atom_site_label
 _atom_site_symmetry_multiplicity
 _atom_site_fract_x
 _atom_site_fract_y
 _atom_site_fract_z
 _atom_site_occupancy
  Dy  Dy0  1  0.860935  0.860936  0.139065  1
  Dy  Dy1  1  0.139063  0.139064  0.860937  1
  B  B2  1  0.465252  0.797785  0.210028  1
  B  B3  1  0.210026  0.526936  0.465253  1
  B  B4  1  0.797784  0.465253  0.526936  1
  B  B5  1  0.526935  0.210027  0.797786  1
  Ir  Ir6  1  0.499999  0.500000  0.500001  1
  Ir  Ir7  1  0.749999  0.750001  0.750001  1
  Ru  Ru8  1  0.500085  0.500086  0.999914  1
  Ru  Ru9  1  0.250000  0.250001  0.250000  1
  Ru  Ru10  1  0.999914  0.999914  0.500086  1
