# generated using pymatgen
data_Sc8Si(Pd3Pt5)3
_symmetry_space_group_name_H-M   'P 1'
_cell_length_a   8.14692014
_cell_length_b   8.17749900
_cell_length_c   8.18671300
_cell_angle_alpha   90.00000000
_cell_angle_beta   89.98942968
_cell_angle_gamma   90.00000000
_symmetry_Int_Tables_number   1
_chemical_formula_structural   Sc8Si(Pd3Pt5)3
_chemical_formula_sum   'Sc8 Si1 Pd9 Pt15'
_cell_volume   545.41052831
_cell_formula_units_Z   1
loop_
 _symmetry_equiv_pos_site_id
 _symmetry_equiv_pos_as_xyz
  1  'x, y, z'
loop_
 _atom_site_type_symbol
 _atom_site_label
 _atom_site_symmetry_multiplicity
 _atom_site_fract_x
 _atom_site_fract_y
 _atom_site_fract_z
 _atom_site_occupancy
  Sc  Sc0  1  0.254726  0.253365  0.254955  1
  Sc  Sc1  1  0.745779  0.744688  0.745669  1
  Sc  Sc2  1  0.745239  0.745640  0.254460  1
  Sc  Sc3  1  0.745779  0.255312  0.745669  1
  Sc  Sc4  1  0.254254  0.253865  0.745072  1
  Sc  Sc5  1  0.254726  0.746635  0.254955  1
  Sc  Sc6  1  0.254254  0.746135  0.745072  1
  Sc  Sc7  1  0.745239  0.254360  0.254460  1
  Si  Si8  1  0.000287  0.000000  0.000735  1
  Pd  Pd9  1  0.500499  0.000000  0.741329  1
  Pd  Pd10  1  0.743406  0.000000  0.500473  1
  Pd  Pd11  1  0.000001  0.500000  0.256176  1
  Pd  Pd12  1  0.000014  0.500000  0.743829  1
  Pd  Pd13  1  0.499929  0.500000  0.747691  1
  Pd  Pd14  1  0.000203  0.279651  0.999817  1
  Pd  Pd15  1  0.000203  0.720349  0.999817  1
  Pd  Pd16  1  0.999019  0.000000  0.280382  1
  Pd  Pd17  1  0.999080  0.000000  0.720700  1
  Pt  Pt18  1  0.256099  0.500000  0.000143  1
  Pt  Pt19  1  0.744074  0.500000  0.000089  1
  Pt  Pt20  1  0.000286  0.257520  0.500184  1
  Pt  Pt21  1  0.499994  0.257909  0.000141  1
  Pt  Pt22  1  0.000286  0.742480  0.500184  1
  Pt  Pt23  1  0.499994  0.742091  0.000141  1
  Pt  Pt24  1  0.500386  0.000000  0.258071  1
  Pt  Pt25  1  0.256177  0.000000  0.500327  1
  Pt  Pt26  1  0.251330  0.500000  0.499969  1
  Pt  Pt27  1  0.748734  0.500000  0.499885  1
  Pt  Pt28  1  0.499932  0.252125  0.499616  1
  Pt  Pt29  1  0.499932  0.747875  0.499616  1
  Pt  Pt30  1  0.500052  0.500000  0.252169  1
  Pt  Pt31  1  0.280102  0.000000  0.999072  1
  Pt  Pt32  1  0.719988  0.000000  0.999127  1
