# generated using pymatgen
data_Y5CoSb2
_symmetry_space_group_name_H-M   'P 1'
_cell_length_a   7.91675000
_cell_length_b   8.80722400
_cell_length_c   12.20267100
_cell_angle_alpha   90.00000000
_cell_angle_beta   90.00000000
_cell_angle_gamma   90.00000000
_symmetry_Int_Tables_number   1
_chemical_formula_structural   Y5CoSb2
_chemical_formula_sum   'Y20 Co4 Sb8'
_cell_volume   850.82623973
_cell_formula_units_Z   4
loop_
 _symmetry_equiv_pos_site_id
 _symmetry_equiv_pos_as_xyz
  1  'x, y, z'
loop_
 _atom_site_type_symbol
 _atom_site_label
 _atom_site_symmetry_multiplicity
 _atom_site_fract_x
 _atom_site_fract_y
 _atom_site_fract_z
 _atom_site_occupancy
  Y  Y0  1  0.155434  0.750000  0.204350  1
  Y  Y1  1  0.344566  0.750000  0.704350  1
  Y  Y2  1  0.844566  0.250000  0.795650  1
  Y  Y3  1  0.655434  0.250000  0.295650  1
  Y  Y4  1  0.455952  0.750000  0.998369  1
  Y  Y5  1  0.044048  0.750000  0.498369  1
  Y  Y6  1  0.544048  0.250000  0.001631  1
  Y  Y7  1  0.955952  0.250000  0.501631  1
  Y  Y8  1  0.622372  0.750000  0.305685  1
  Y  Y9  1  0.877628  0.750000  0.805685  1
  Y  Y10  1  0.377628  0.250000  0.694315  1
  Y  Y11  1  0.122372  0.250000  0.194315  1
  Y  Y12  1  0.820975  0.535174  0.065956  1
  Y  Y13  1  0.679025  0.964826  0.565956  1
  Y  Y14  1  0.179025  0.035174  0.934044  1
  Y  Y15  1  0.320975  0.464826  0.434044  1
  Y  Y16  1  0.179025  0.464826  0.934044  1
  Y  Y17  1  0.320975  0.035174  0.434044  1
  Y  Y18  1  0.820975  0.964826  0.065956  1
  Y  Y19  1  0.679025  0.535174  0.565956  1
  Co  Co20  1  0.434042  0.750000  0.490387  1
  Co  Co21  1  0.065958  0.750000  0.990387  1
  Co  Co22  1  0.565958  0.250000  0.509613  1
  Co  Co23  1  0.934042  0.250000  0.009613  1
  Sb  Sb24  1  0.928532  0.508574  0.327193  1
  Sb  Sb25  1  0.571468  0.991426  0.827193  1
  Sb  Sb26  1  0.071468  0.008574  0.672807  1
  Sb  Sb27  1  0.428532  0.491426  0.172807  1
  Sb  Sb28  1  0.071468  0.491426  0.672807  1
  Sb  Sb29  1  0.428532  0.008574  0.172807  1
  Sb  Sb30  1  0.928532  0.991426  0.327193  1
  Sb  Sb31  1  0.571468  0.508574  0.827193  1
