# generated using pymatgen
data_TbDyMn4(SiC)2
_symmetry_space_group_name_H-M   'P 1'
_cell_length_a   5.61525316
_cell_length_b   5.61525325
_cell_length_c   7.01352700
_cell_angle_alpha   90.00000000
_cell_angle_beta   90.00000000
_cell_angle_gamma   141.42582611
_symmetry_Int_Tables_number   1
_chemical_formula_structural   TbDyMn4(SiC)2
_chemical_formula_sum   'Tb1 Dy1 Mn4 Si2 C2'
_cell_volume   137.88931343
_cell_formula_units_Z   1
loop_
 _symmetry_equiv_pos_site_id
 _symmetry_equiv_pos_as_xyz
  1  'x, y, z'
loop_
 _atom_site_type_symbol
 _atom_site_label
 _atom_site_symmetry_multiplicity
 _atom_site_fract_x
 _atom_site_fract_y
 _atom_site_fract_z
 _atom_site_occupancy
  Tb  Tb0  1  0.455988  0.544012  0.750000  1
  Dy  Dy1  1  0.543991  0.456009  0.250000  1
  Mn  Mn2  1  0.832163  0.167837  0.061978  1
  Mn  Mn3  1  0.167809  0.832191  0.938894  1
  Mn  Mn4  1  0.167809  0.832191  0.561106  1
  Mn  Mn5  1  0.832163  0.167837  0.438022  1
  Si  Si6  1  0.264916  0.735084  0.250000  1
  Si  Si7  1  0.734935  0.265065  0.750000  1
  C  C8  1  0.000113  0.999887  0.001017  1
  C  C9  1  0.000113  0.999887  0.498983  1
