# generated using pymatgen
data_IrRu3(PbO4)4
_symmetry_space_group_name_H-M   'P 1'
_cell_length_a   5.15937693
_cell_length_b   5.29335638
_cell_length_c   13.68256078
_cell_angle_alpha   68.24147347
_cell_angle_beta   90.17760873
_cell_angle_gamma   90.41187031
_symmetry_Int_Tables_number   1
_chemical_formula_structural   IrRu3(PbO4)4
_chemical_formula_sum   'Ir1 Ru3 Pb4 O16'
_cell_volume   347.04468075
_cell_formula_units_Z   1
loop_
 _symmetry_equiv_pos_site_id
 _symmetry_equiv_pos_as_xyz
  1  'x, y, z'
loop_
 _atom_site_type_symbol
 _atom_site_label
 _atom_site_symmetry_multiplicity
 _atom_site_fract_x
 _atom_site_fract_y
 _atom_site_fract_z
 _atom_site_occupancy
  Ir  Ir0  1  0.250332  0.574454  0.929887  1
  Ru  Ru1  1  0.249859  0.574836  0.426874  1
  Ru  Ru2  1  0.750446  0.425140  0.072878  1
  Ru  Ru3  1  0.749503  0.422573  0.573178  1
  Pb  Pb4  1  0.741230  0.155918  0.339786  1
  Pb  Pb5  1  0.241087  0.841918  0.162062  1
  Pb  Pb6  1  0.257860  0.839139  0.662374  1
  Pb  Pb7  1  0.758686  0.159886  0.837524  1
  O  O8  1  0.551498  0.742035  0.461320  1
  O  O9  1  0.056301  0.260800  0.039145  1
  O  O10  1  0.448365  0.255894  0.539152  1
  O  O11  1  0.944396  0.744963  0.959440  1
  O  O12  1  0.944316  0.346634  0.454176  1
  O  O13  1  0.441627  0.650362  0.046251  1
  O  O14  1  0.054263  0.649910  0.546080  1
  O  O15  1  0.560147  0.353578  0.952000  1
  O  O16  1  0.131025  0.899739  0.326398  1
  O  O17  1  0.635377  0.097083  0.173035  1
  O  O18  1  0.870335  0.099930  0.674312  1
  O  O19  1  0.373753  0.902454  0.825001  1
  O  O20  1  0.371528  0.467934  0.320345  1
  O  O21  1  0.867657  0.535374  0.179509  1
  O  O22  1  0.626911  0.529387  0.679588  1
  O  O23  1  0.123500  0.470060  0.819685  1
