# generated using pymatgen
data_Sc8V12Si15Ge
_symmetry_space_group_name_H-M   'P 1'
_cell_length_a   6.48841204
_cell_length_b   6.64039304
_cell_length_c   12.60376519
_cell_angle_alpha   90.04705327
_cell_angle_beta   90.04893077
_cell_angle_gamma   89.95701346
_symmetry_Int_Tables_number   1
_chemical_formula_structural   Sc8V12Si15Ge
_chemical_formula_sum   'Sc8 V12 Si15 Ge1'
_cell_volume   543.04032974
_cell_formula_units_Z   1
loop_
 _symmetry_equiv_pos_site_id
 _symmetry_equiv_pos_as_xyz
  1  'x, y, z'
loop_
 _atom_site_type_symbol
 _atom_site_label
 _atom_site_symmetry_multiplicity
 _atom_site_fract_x
 _atom_site_fract_y
 _atom_site_fract_z
 _atom_site_occupancy
  Sc  Sc0  1  0.003344  0.171358  0.094092  1
  Sc  Sc1  1  0.502027  0.327323  0.404085  1
  Sc  Sc2  1  0.496607  0.670777  0.905881  1
  Sc  Sc3  1  0.997238  0.830029  0.594835  1
  Sc  Sc4  1  0.996938  0.828773  0.906007  1
  Sc  Sc5  1  0.492926  0.673441  0.595469  1
  Sc  Sc6  1  0.503536  0.329170  0.094467  1
  Sc  Sc7  1  0.004350  0.170317  0.404780  1
  V  V8  1  0.665156  0.989109  0.249859  1
  V  V9  1  0.164541  0.511557  0.249800  1
  V  V10  1  0.835597  0.487680  0.752656  1
  V  V11  1  0.335871  0.011078  0.749852  1
  V  V12  1  0.838152  0.671266  0.126219  1
  V  V13  1  0.338334  0.829377  0.372989  1
  V  V14  1  0.662035  0.171517  0.873886  1
  V  V15  1  0.164402  0.328705  0.626907  1
  V  V16  1  0.161647  0.328848  0.873756  1
  V  V17  1  0.658214  0.166286  0.628078  1
  V  V18  1  0.339049  0.828262  0.126043  1
  V  V19  1  0.840092  0.674039  0.371542  1
  Si  Si20  1  0.802444  0.365261  0.249634  1
  Si  Si21  1  0.302269  0.134340  0.249223  1
  Si  Si22  1  0.698698  0.864010  0.750855  1
  Si  Si23  1  0.197048  0.634610  0.750347  1
  Si  Si24  1  0.040517  0.876674  0.248844  1
  Si  Si25  1  0.539744  0.624420  0.249839  1
  Si  Si26  1  0.460423  0.376068  0.750617  1
  Si  Si27  1  0.960757  0.124061  0.750115  1
  Si  Si28  1  0.833273  0.460324  0.958997  1
  Si  Si29  1  0.332477  0.040305  0.540711  1
  Si  Si30  1  0.667091  0.960717  0.041392  1
  Si  Si31  1  0.170685  0.540557  0.457838  1
  Si  Si32  1  0.166904  0.539572  0.041589  1
  Si  Si33  1  0.667084  0.960040  0.458733  1
  Si  Si34  1  0.333352  0.039715  0.958588  1
  Ge  Ge35  1  0.827173  0.460411  0.541477  1
