# generated using pymatgen
data_Dy10Bi5PbS2
_symmetry_space_group_name_H-M   'P 1'
_cell_length_a   9.15071125
_cell_length_b   9.17198660
_cell_length_c   6.60663800
_cell_angle_alpha   90.00000000
_cell_angle_beta   90.00000000
_cell_angle_gamma   120.07695075
_symmetry_Int_Tables_number   1
_chemical_formula_structural   Dy10Bi5PbS2
_chemical_formula_sum   'Dy10 Bi5 Pb1 S2'
_cell_volume   479.83522718
_cell_formula_units_Z   1
loop_
 _symmetry_equiv_pos_site_id
 _symmetry_equiv_pos_as_xyz
  1  'x, y, z'
loop_
 _atom_site_type_symbol
 _atom_site_label
 _atom_site_symmetry_multiplicity
 _atom_site_fract_x
 _atom_site_fract_y
 _atom_site_fract_z
 _atom_site_occupancy
  Dy  Dy0  1  0.753880  0.754061  0.750000  1
  Dy  Dy1  1  0.246120  0.000181  0.750000  1
  Dy  Dy2  1  0.000000  0.245643  0.750000  1
  Dy  Dy3  1  0.244692  0.246758  0.250000  1
  Dy  Dy4  1  0.755308  0.002066  0.250000  1
  Dy  Dy5  1  0.000000  0.753452  0.250000  1
  Dy  Dy6  1  0.667912  0.333726  0.000600  1
  Dy  Dy7  1  0.332088  0.665815  0.000600  1
  Dy  Dy8  1  0.332088  0.665815  0.499400  1
  Dy  Dy9  1  0.667912  0.333726  0.499400  1
  Bi  Bi10  1  0.395752  0.395671  0.750000  1
  Bi  Bi11  1  0.604248  0.999919  0.750000  1
  Bi  Bi12  1  0.000000  0.603189  0.750000  1
  Bi  Bi13  1  0.604639  0.604884  0.250000  1
  Bi  Bi14  1  0.395361  0.000245  0.250000  1
  Pb  Pb15  1  0.000000  0.396581  0.250000  1
  S  S16  1  0.000000  0.999134  0.999807  1
  S  S17  1  0.000000  0.999134  0.500193  1
