# generated using pymatgen
data_La3Er7Pt8
_symmetry_space_group_name_H-M   'P 1'
_cell_length_a   7.62745700
_cell_length_b   7.67532421
_cell_length_c   14.66765600
_cell_angle_alpha   90.01334730
_cell_angle_beta   90.00000000
_cell_angle_gamma   90.00000000
_symmetry_Int_Tables_number   1
_chemical_formula_structural   La3Er7Pt8
_chemical_formula_sum   'La6 Er14 Pt16'
_cell_volume   858.69157405
_cell_formula_units_Z   2
loop_
 _symmetry_equiv_pos_site_id
 _symmetry_equiv_pos_as_xyz
  1  'x, y, z'
loop_
 _atom_site_type_symbol
 _atom_site_label
 _atom_site_symmetry_multiplicity
 _atom_site_fract_x
 _atom_site_fract_y
 _atom_site_fract_z
 _atom_site_occupancy
  La  La0  1  0.503734  0.679138  0.594946  1
  La  La1  1  0.003734  0.820862  0.905054  1
  La  La2  1  0.496603  0.326807  0.093355  1
  La  La3  1  0.996603  0.173193  0.406645  1
  La  La4  1  0.496374  0.323750  0.404070  1
  La  La5  1  0.996374  0.176250  0.095930  1
  Er  Er6  1  0.504475  0.677724  0.899270  1
  Er  Er7  1  0.004475  0.822276  0.600730  1
  Er  Er8  1  0.660438  0.165652  0.623135  1
  Er  Er9  1  0.160438  0.334348  0.876865  1
  Er  Er10  1  0.345351  0.829945  0.120193  1
  Er  Er11  1  0.845351  0.670055  0.379807  1
  Er  Er12  1  0.339890  0.835420  0.376754  1
  Er  Er13  1  0.839890  0.664580  0.123246  1
  Er  Er14  1  0.659587  0.166394  0.875568  1
  Er  Er15  1  0.159587  0.333606  0.624432  1
  Er  Er16  1  0.822123  0.506257  0.750033  1
  Er  Er17  1  0.322123  0.993743  0.749967  1
  Er  Er18  1  0.176399  0.495390  0.250384  1
  Er  Er19  1  0.676399  0.004610  0.249616  1
  Pt  Pt20  1  0.676185  0.962603  0.457163  1
  Pt  Pt21  1  0.176185  0.537397  0.042837  1
  Pt  Pt22  1  0.329707  0.029355  0.952247  1
  Pt  Pt23  1  0.829707  0.470645  0.547753  1
  Pt  Pt24  1  0.313587  0.030773  0.546286  1
  Pt  Pt25  1  0.813587  0.469227  0.953714  1
  Pt  Pt26  1  0.676194  0.958561  0.042099  1
  Pt  Pt27  1  0.176194  0.541439  0.457901  1
  Pt  Pt28  1  0.455827  0.377151  0.751245  1
  Pt  Pt29  1  0.955827  0.122849  0.748755  1
  Pt  Pt30  1  0.545687  0.629591  0.251118  1
  Pt  Pt31  1  0.045687  0.870409  0.248882  1
  Pt  Pt32  1  0.688137  0.860251  0.750825  1
  Pt  Pt33  1  0.188137  0.639749  0.749175  1
  Pt  Pt34  1  0.309704  0.136331  0.249127  1
  Pt  Pt35  1  0.809704  0.363669  0.250873  1
