# generated using pymatgen
data_Zr3ScNb2(SiTc)6
_symmetry_space_group_name_H-M   'P 1'
_cell_length_a   3.38973600
_cell_length_b   6.95766989
_cell_length_c   12.04729030
_cell_angle_alpha   89.78089008
_cell_angle_beta   90.00000000
_cell_angle_gamma   90.00000000
_symmetry_Int_Tables_number   1
_chemical_formula_structural   Zr3ScNb2(SiTc)6
_chemical_formula_sum   'Zr3 Sc1 Nb2 Si6 Tc6'
_cell_volume   284.12921756
_cell_formula_units_Z   1
loop_
 _symmetry_equiv_pos_site_id
 _symmetry_equiv_pos_as_xyz
  1  'x, y, z'
loop_
 _atom_site_type_symbol
 _atom_site_label
 _atom_site_symmetry_multiplicity
 _atom_site_fract_x
 _atom_site_fract_y
 _atom_site_fract_z
 _atom_site_occupancy
  Zr  Zr0  1  0.500000  0.295271  0.298324  1
  Zr  Zr1  1  0.500000  0.295333  0.701786  1
  Zr  Zr2  1  0.500000  0.801658  0.202624  1
  Sc  Sc3  1  0.500000  0.403989  0.998570  1
  Nb  Nb4  1  0.500000  0.902833  0.501923  1
  Nb  Nb5  1  0.500000  0.800239  0.798470  1
  Si  Si6  1  0.000000  0.993095  0.665724  1
  Si  Si7  1  0.000000  0.500200  0.164640  1
  Si  Si8  1  0.000000  0.506014  0.832658  1
  Si  Si9  1  0.000000  0.997569  0.339374  1
  Si  Si10  1  0.500000  0.001533  0.999132  1
  Si  Si11  1  0.500000  0.501414  0.499666  1
  Tc  Tc12  1  0.000000  0.748324  0.995438  1
  Tc  Tc13  1  0.000000  0.244081  0.501950  1
  Tc  Tc14  1  0.000000  0.631161  0.625941  1
  Tc  Tc15  1  0.000000  0.125536  0.128220  1
  Tc  Tc16  1  0.000000  0.120649  0.868901  1
  Tc  Tc17  1  0.000000  0.631296  0.376660  1
