# generated using pymatgen
data_K2Pb4O7
_symmetry_space_group_name_H-M   'P 1'
_cell_length_a   6.74721356
_cell_length_b   7.25456218
_cell_length_c   10.55970661
_cell_angle_alpha   102.26607458
_cell_angle_beta   99.20547804
_cell_angle_gamma   90.00608860
_symmetry_Int_Tables_number   1
_chemical_formula_structural   K2Pb4O7
_chemical_formula_sum   'K4 Pb8 O14'
_cell_volume   498.26141824
_cell_formula_units_Z   2
loop_
 _symmetry_equiv_pos_site_id
 _symmetry_equiv_pos_as_xyz
  1  'x, y, z'
loop_
 _atom_site_type_symbol
 _atom_site_label
 _atom_site_symmetry_multiplicity
 _atom_site_fract_x
 _atom_site_fract_y
 _atom_site_fract_z
 _atom_site_occupancy
  K  K0  1  0.913031  0.173085  0.684151  1
  K  K1  1  0.086969  0.826915  0.315849  1
  K  K2  1  0.428769  0.173567  0.681976  1
  K  K3  1  0.571231  0.826433  0.318024  1
  Pb  Pb4  1  0.905049  0.655073  0.624353  1
  Pb  Pb5  1  0.094951  0.344927  0.375647  1
  Pb  Pb6  1  0.407803  0.654118  0.625514  1
  Pb  Pb7  1  0.592197  0.345882  0.374486  1
  Pb  Pb8  1  0.742452  0.605838  0.965959  1
  Pb  Pb9  1  0.257548  0.394162  0.034041  1
  Pb  Pb10  1  0.235153  0.847792  0.939742  1
  Pb  Pb11  1  0.764847  0.152208  0.060258  1
  O  O12  1  0.650553  0.432648  0.595946  1
  O  O13  1  0.349447  0.567352  0.404054  1
  O  O14  1  0.147463  0.431740  0.596190  1
  O  O15  1  0.852537  0.568260  0.403810  1
  O  O16  1  0.654667  0.848964  0.621311  1
  O  O17  1  0.345333  0.151036  0.378689  1
  O  O18  1  0.160591  0.853969  0.638622  1
  O  O19  1  0.839409  0.146031  0.361378  1
  O  O20  1  0.962987  0.658644  0.833675  1
  O  O21  1  0.037013  0.341356  0.166325  1
  O  O22  1  0.453598  0.655474  0.834099  1
  O  O23  1  0.546402  0.344526  0.165901  1
  O  O24  1  0.726456  0.298350  0.896700  1
  O  O25  1  0.273544  0.701650  0.103300  1
