# generated using pymatgen
data_Tm8Hf11Si16Ru
_symmetry_space_group_name_H-M   'P 1'
_cell_length_a   6.97634120
_cell_length_b   7.18178600
_cell_length_c   13.68078200
_cell_angle_alpha   90.00000000
_cell_angle_beta   90.00000000
_cell_angle_gamma   89.88378948
_symmetry_Int_Tables_number   1
_chemical_formula_structural   Tm8Hf11Si16Ru
_chemical_formula_sum   'Tm8 Hf11 Si16 Ru1'
_cell_volume   685.44119541
_cell_formula_units_Z   1
loop_
 _symmetry_equiv_pos_site_id
 _symmetry_equiv_pos_as_xyz
  1  'x, y, z'
loop_
 _atom_site_type_symbol
 _atom_site_label
 _atom_site_symmetry_multiplicity
 _atom_site_fract_x
 _atom_site_fract_y
 _atom_site_fract_z
 _atom_site_occupancy
  Tm  Tm0  1  0.010944  0.176799  0.094508  1
  Tm  Tm1  1  0.990450  0.823406  0.902320  1
  Tm  Tm2  1  0.489555  0.673145  0.903088  1
  Tm  Tm3  1  0.990450  0.823406  0.597680  1
  Tm  Tm4  1  0.511743  0.324161  0.095184  1
  Tm  Tm5  1  0.010944  0.176799  0.405492  1
  Tm  Tm6  1  0.511743  0.324161  0.404816  1
  Tm  Tm7  1  0.489555  0.673145  0.596912  1
  Hf  Hf8  1  0.844224  0.501712  0.250000  1
  Hf  Hf9  1  0.343342  0.998551  0.250000  1
  Hf  Hf10  1  0.654926  0.002004  0.750000  1
  Hf  Hf11  1  0.324566  0.176053  0.625884  1
  Hf  Hf12  1  0.670745  0.823844  0.375633  1
  Hf  Hf13  1  0.171212  0.675894  0.376488  1
  Hf  Hf14  1  0.670745  0.823844  0.124367  1
  Hf  Hf15  1  0.830787  0.327274  0.626844  1
  Hf  Hf16  1  0.324566  0.176053  0.874116  1
  Hf  Hf17  1  0.830787  0.327274  0.873156  1
  Hf  Hf18  1  0.171212  0.675894  0.123512  1
  Si  Si19  1  0.030814  0.110852  0.750000  1
  Si  Si20  1  0.967914  0.881300  0.250000  1
  Si  Si21  1  0.468261  0.616211  0.250000  1
  Si  Si22  1  0.522755  0.386879  0.750000  1
  Si  Si23  1  0.285195  0.862644  0.750000  1
  Si  Si24  1  0.716469  0.131161  0.250000  1
  Si  Si25  1  0.215005  0.368444  0.250000  1
  Si  Si26  1  0.793380  0.630446  0.750000  1
  Si  Si27  1  0.158943  0.468979  0.544621  1
  Si  Si28  1  0.840499  0.533760  0.461099  1
  Si  Si29  1  0.342344  0.969296  0.459557  1
  Si  Si30  1  0.840499  0.533760  0.038901  1
  Si  Si31  1  0.659290  0.033868  0.541849  1
  Si  Si32  1  0.158943  0.468979  0.955379  1
  Si  Si33  1  0.659290  0.033868  0.958151  1
  Si  Si34  1  0.342344  0.969296  0.040443  1
  Ru  Ru35  1  0.155555  0.496836  0.750000  1
