# generated using pymatgen
data_TbEr4(SiHg)2
_symmetry_space_group_name_H-M   'P 1'
_cell_length_a   8.68910690
_cell_length_b   8.76450362
_cell_length_c   7.51861630
_cell_angle_alpha   89.97138197
_cell_angle_beta   89.85672466
_cell_angle_gamma   129.09867863
_symmetry_Int_Tables_number   1
_chemical_formula_structural   TbEr4(SiHg)2
_chemical_formula_sum   'Tb2 Er8 Si4 Hg4'
_cell_volume   444.35831006
_cell_formula_units_Z   2
loop_
 _symmetry_equiv_pos_site_id
 _symmetry_equiv_pos_as_xyz
  1  'x, y, z'
loop_
 _atom_site_type_symbol
 _atom_site_label
 _atom_site_symmetry_multiplicity
 _atom_site_fract_x
 _atom_site_fract_y
 _atom_site_fract_z
 _atom_site_occupancy
  Tb  Tb0  1  0.686853  0.945508  0.675938  1
  Tb  Tb1  1  0.313147  0.054492  0.324062  1
  Er  Er2  1  0.051287  0.303264  0.324876  1
  Er  Er3  1  0.948713  0.696736  0.675124  1
  Er  Er4  1  0.449550  0.195602  0.825861  1
  Er  Er5  1  0.809865  0.554662  0.173934  1
  Er  Er6  1  0.550450  0.804398  0.174139  1
  Er  Er7  1  0.190135  0.445338  0.826066  1
  Er  Er8  1  0.000000  0.000000  0.000000  1
  Er  Er9  1  0.500000  0.500000  0.500000  1
  Si  Si10  1  0.380293  0.380229  0.122519  1
  Si  Si11  1  0.619707  0.619771  0.877481  1
  Si  Si12  1  0.121182  0.121140  0.624061  1
  Si  Si13  1  0.878818  0.878860  0.375939  1
  Hg  Hg14  1  0.781592  0.214992  0.004645  1
  Hg  Hg15  1  0.218408  0.785008  0.995355  1
  Hg  Hg16  1  0.724274  0.293074  0.502255  1
  Hg  Hg17  1  0.275726  0.706926  0.497745  1
