# generated using pymatgen
data_Ho4Tm2TiAl23Ru8
_symmetry_space_group_name_H-M   'P 1'
_cell_length_a   8.80127771
_cell_length_b   8.81079638
_cell_length_c   9.55770739
_cell_angle_alpha   89.94892341
_cell_angle_beta   90.05561424
_cell_angle_gamma   120.03506659
_symmetry_Int_Tables_number   1
_chemical_formula_structural   Ho4Tm2TiAl23Ru8
_chemical_formula_sum   'Ho4 Tm2 Ti1 Al23 Ru8'
_cell_volume   641.64000163
_cell_formula_units_Z   1
loop_
 _symmetry_equiv_pos_site_id
 _symmetry_equiv_pos_as_xyz
  1  'x, y, z'
loop_
 _atom_site_type_symbol
 _atom_site_label
 _atom_site_symmetry_multiplicity
 _atom_site_fract_x
 _atom_site_fract_y
 _atom_site_fract_z
 _atom_site_occupancy
  Ho  Ho0  1  0.614125  0.808304  0.249629  1
  Ho  Ho1  1  0.385261  0.192449  0.749586  1
  Ho  Ho2  1  0.192493  0.807838  0.250870  1
  Ho  Ho3  1  0.806850  0.192855  0.749744  1
  Tm  Tm4  1  0.193434  0.389024  0.249386  1
  Tm  Tm5  1  0.805804  0.611840  0.749486  1
  Ti  Ti6  1  0.333585  0.666217  0.996459  1
  Al  Al7  1  0.666679  0.332983  0.982693  1
  Al  Al8  1  0.666523  0.333458  0.520386  1
  Al  Al9  1  0.333739  0.666544  0.478908  1
  Al  Al10  1  0.162432  0.324473  0.575884  1
  Al  Al11  1  0.836564  0.673724  0.423838  1
  Al  Al12  1  0.675573  0.837335  0.576390  1
  Al  Al13  1  0.836910  0.674761  0.078897  1
  Al  Al14  1  0.326133  0.163719  0.423211  1
  Al  Al15  1  0.159505  0.318351  0.922958  1
  Al  Al16  1  0.162628  0.836746  0.575808  1
  Al  Al17  1  0.325293  0.163440  0.079483  1
  Al  Al18  1  0.837950  0.162759  0.423777  1
  Al  Al19  1  0.681773  0.840136  0.922453  1
  Al  Al20  1  0.837862  0.162658  0.079174  1
  Al  Al21  1  0.158530  0.840487  0.923698  1
  Al  Al22  1  0.561401  0.123794  0.252154  1
  Al  Al23  1  0.439477  0.879407  0.749682  1
  Al  Al24  1  0.876651  0.438771  0.252278  1
  Al  Al25  1  0.119998  0.560190  0.749817  1
  Al  Al26  1  0.560643  0.439423  0.251680  1
  Al  Al27  1  0.440366  0.559631  0.749786  1
  Al  Al28  1  0.999994  0.003694  0.249910  1
  Al  Al29  1  0.998390  0.998273  0.749677  1
  Ru  Ru30  1  0.497431  0.994356  0.002747  1
  Ru  Ru31  1  0.005149  0.502108  0.002850  1
  Ru  Ru32  1  0.500510  0.999370  0.501825  1
  Ru  Ru33  1  0.498805  0.501440  0.000315  1
  Ru  Ru34  1  0.001010  0.499485  0.501788  1
  Ru  Ru35  1  0.499772  0.500522  0.503142  1
  Ru  Ru36  1  0.000200  0.000191  0.001246  1
  Ru  Ru37  1  0.000558  0.999244  0.498381  1
