# generated using pymatgen
data_Y3Tm9Os3Rh
_symmetry_space_group_name_H-M   'P 1'
_cell_length_a   6.25226600
_cell_length_b   7.37022559
_cell_length_c   9.01043600
_cell_angle_alpha   90.00000000
_cell_angle_beta   90.00000000
_cell_angle_gamma   89.91252746
_symmetry_Int_Tables_number   1
_chemical_formula_structural   Y3Tm9Os3Rh
_chemical_formula_sum   'Y3 Tm9 Os3 Rh1'
_cell_volume   415.20591115
_cell_formula_units_Z   1
loop_
 _symmetry_equiv_pos_site_id
 _symmetry_equiv_pos_as_xyz
  1  'x, y, z'
loop_
 _atom_site_type_symbol
 _atom_site_label
 _atom_site_symmetry_multiplicity
 _atom_site_fract_x
 _atom_site_fract_y
 _atom_site_fract_z
 _atom_site_occupancy
  Y  Y0  1  0.629114  0.039738  0.250000  1
  Y  Y1  1  0.124682  0.463557  0.750000  1
  Y  Y2  1  0.873487  0.538031  0.250000  1
  Tm  Tm3  1  0.370303  0.961070  0.750000  1
  Tm  Tm4  1  0.166486  0.177233  0.060852  1
  Tm  Tm5  1  0.829173  0.824150  0.932566  1
  Tm  Tm6  1  0.664647  0.322931  0.935940  1
  Tm  Tm7  1  0.829173  0.824150  0.567434  1
  Tm  Tm8  1  0.338284  0.673667  0.060630  1
  Tm  Tm9  1  0.166486  0.177233  0.439148  1
  Tm  Tm10  1  0.338284  0.673667  0.439370  1
  Tm  Tm11  1  0.664647  0.322931  0.564060  1
  Os  Os12  1  0.453562  0.383519  0.250000  1
  Os  Os13  1  0.540669  0.617975  0.750000  1
  Os  Os14  1  0.959529  0.114428  0.750000  1
  Rh  Rh15  1  0.051472  0.885719  0.250000  1
