# generated using pymatgen
data_HoTmCdNi7B2
_symmetry_space_group_name_H-M   'P 1'
_cell_length_a   4.99356940
_cell_length_b   4.99279045
_cell_length_c   14.18291700
_cell_angle_alpha   90.00000000
_cell_angle_beta   90.00000000
_cell_angle_gamma   120.04464962
_symmetry_Int_Tables_number   1
_chemical_formula_structural   HoTmCdNi7B2
_chemical_formula_sum   'Ho2 Tm2 Cd2 Ni14 B4'
_cell_volume   306.09416348
_cell_formula_units_Z   2
loop_
 _symmetry_equiv_pos_site_id
 _symmetry_equiv_pos_as_xyz
  1  'x, y, z'
loop_
 _atom_site_type_symbol
 _atom_site_label
 _atom_site_symmetry_multiplicity
 _atom_site_fract_x
 _atom_site_fract_y
 _atom_site_fract_z
 _atom_site_occupancy
  Ho  Ho0  1  0.666460  0.333014  0.470850  1
  Ho  Ho1  1  0.333540  0.666986  0.970850  1
  Tm  Tm2  1  0.333335  0.665835  0.744066  1
  Tm  Tm3  1  0.666665  0.334165  0.244066  1
  Cd  Cd4  1  0.332959  0.666384  0.532909  1
  Cd  Cd5  1  0.667041  0.333616  0.032909  1
  Ni  Ni6  1  0.000325  0.000677  0.999808  1
  Ni  Ni7  1  0.999675  0.999323  0.499808  1
  Ni  Ni8  1  0.165580  0.331577  0.148237  1
  Ni  Ni9  1  0.834420  0.668423  0.648237  1
  Ni  Ni10  1  0.669498  0.835645  0.148460  1
  Ni  Ni11  1  0.165316  0.835437  0.148479  1
  Ni  Ni12  1  0.834684  0.164563  0.648479  1
  Ni  Ni13  1  0.330502  0.164355  0.648460  1
  Ni  Ni14  1  0.834340  0.667770  0.851808  1
  Ni  Ni15  1  0.834287  0.165402  0.851529  1
  Ni  Ni16  1  0.331881  0.165510  0.851552  1
  Ni  Ni17  1  0.668119  0.834490  0.351552  1
  Ni  Ni18  1  0.165713  0.834598  0.351529  1
  Ni  Ni19  1  0.165660  0.332230  0.351808  1
  B  B20  1  0.333252  0.666902  0.249642  1
  B  B21  1  0.666748  0.333098  0.749642  1
  B  B22  1  0.000049  0.001173  0.252663  1
  B  B23  1  0.999951  0.998827  0.752663  1
