# generated using pymatgen
data_La8EuIr6
_symmetry_space_group_name_H-M   'P 1'
_cell_length_a   7.78149158
_cell_length_b   7.78149272
_cell_length_c   7.78149300
_cell_angle_alpha   70.14617065
_cell_angle_beta   70.14616763
_cell_angle_gamma   70.14616709
_symmetry_Int_Tables_number   1
_chemical_formula_structural   La8EuIr6
_chemical_formula_sum   'La8 Eu1 Ir6'
_cell_volume   403.21649678
_cell_formula_units_Z   1
loop_
 _symmetry_equiv_pos_site_id
 _symmetry_equiv_pos_as_xyz
  1  'x, y, z'
loop_
 _atom_site_type_symbol
 _atom_site_label
 _atom_site_symmetry_multiplicity
 _atom_site_fract_x
 _atom_site_fract_y
 _atom_site_fract_z
 _atom_site_occupancy
  La  La0  1  0.803731  0.803731  0.803731  1
  La  La1  1  0.196269  0.196269  0.196269  1
  La  La2  1  0.149394  0.388416  0.675845  1
  La  La3  1  0.675845  0.149394  0.388416  1
  La  La4  1  0.388416  0.675845  0.149394  1
  La  La5  1  0.850606  0.611584  0.324155  1
  La  La6  1  0.324155  0.850606  0.611584  1
  La  La7  1  0.611584  0.324155  0.850606  1
  Eu  Eu8  1  0.000000  0.000000  0.000000  1
  Ir  Ir9  1  0.952434  0.176873  0.581697  1
  Ir  Ir10  1  0.581697  0.952434  0.176873  1
  Ir  Ir11  1  0.176873  0.581697  0.952434  1
  Ir  Ir12  1  0.047566  0.823127  0.418303  1
  Ir  Ir13  1  0.418303  0.047566  0.823127  1
  Ir  Ir14  1  0.823127  0.418303  0.047566  1
