# generated using pymatgen
data_Nb12AlZn5(GaN2)2
_symmetry_space_group_name_H-M   'P 1'
_cell_length_a   7.04717904
_cell_length_b   7.04720407
_cell_length_c   7.04795048
_cell_angle_alpha   89.88992987
_cell_angle_beta   89.99199815
_cell_angle_gamma   89.99249027
_symmetry_Int_Tables_number   1
_chemical_formula_structural   Nb12AlZn5(GaN2)2
_chemical_formula_sum   'Nb12 Al1 Zn5 Ga2 N4'
_cell_volume   350.02106971
_cell_formula_units_Z   1
loop_
 _symmetry_equiv_pos_site_id
 _symmetry_equiv_pos_as_xyz
  1  'x, y, z'
loop_
 _atom_site_type_symbol
 _atom_site_label
 _atom_site_symmetry_multiplicity
 _atom_site_fract_x
 _atom_site_fract_y
 _atom_site_fract_z
 _atom_site_occupancy
  Nb  Nb0  1  0.793355  0.956636  0.373708  1
  Nb  Nb1  1  0.706790  0.043535  0.874704  1
  Nb  Nb2  1  0.206445  0.456031  0.126530  1
  Nb  Nb3  1  0.293217  0.544158  0.624128  1
  Nb  Nb4  1  0.956356  0.373918  0.793477  1
  Nb  Nb5  1  0.043204  0.874483  0.706923  1
  Nb  Nb6  1  0.455781  0.124630  0.207061  1
  Nb  Nb7  1  0.543857  0.626051  0.293820  1
  Nb  Nb8  1  0.373210  0.793686  0.956364  1
  Nb  Nb9  1  0.875933  0.707193  0.043785  1
  Nb  Nb10  1  0.126067  0.206805  0.456355  1
  Nb  Nb11  1  0.625344  0.293575  0.543837  1
  Al  Al12  1  0.072492  0.073010  0.072333  1
  Zn  Zn13  1  0.179953  0.820322  0.319525  1
  Zn  Zn14  1  0.322179  0.182299  0.821300  1
  Zn  Zn15  1  0.817978  0.320510  0.177289  1
  Zn  Zn16  1  0.679102  0.677417  0.682433  1
  Zn  Zn17  1  0.570671  0.429380  0.929344  1
  Ga  Ga18  1  0.428271  0.928072  0.572483  1
  Ga  Ga19  1  0.927527  0.571739  0.428060  1
  N  N20  1  0.875653  0.124126  0.623631  1
  N  N21  1  0.623943  0.874508  0.122707  1
  N  N22  1  0.125286  0.622216  0.875350  1
  N  N23  1  0.377387  0.375698  0.374852  1
