# generated using pymatgen
data_SrLa6Y3Si8O3
_symmetry_space_group_name_H-M   'P 1'
_cell_length_a   10.78929441
_cell_length_b   10.78929506
_cell_length_c   4.57651900
_cell_angle_alpha   90.00000000
_cell_angle_beta   90.00000000
_cell_angle_gamma   120.09109148
_symmetry_Int_Tables_number   1
_chemical_formula_structural   SrLa6Y3Si8O3
_chemical_formula_sum   'Sr1 La6 Y3 Si8 O3'
_cell_volume   460.94875371
_cell_formula_units_Z   1
loop_
 _symmetry_equiv_pos_site_id
 _symmetry_equiv_pos_as_xyz
  1  'x, y, z'
loop_
 _atom_site_type_symbol
 _atom_site_label
 _atom_site_symmetry_multiplicity
 _atom_site_fract_x
 _atom_site_fract_y
 _atom_site_fract_z
 _atom_site_occupancy
  Sr  Sr0  1  0.211871  0.788129  0.000000  1
  La  La1  1  0.576384  0.788576  0.000000  1
  La  La2  1  0.787212  0.575573  0.000000  1
  La  La3  1  0.000571  0.999429  0.000000  1
  La  La4  1  0.211424  0.423616  0.000000  1
  La  La5  1  0.424427  0.212788  0.000000  1
  La  La6  1  0.787256  0.212744  0.000000  1
  Y  Y7  1  0.001539  0.501178  0.500000  1
  Y  Y8  1  0.500656  0.499344  0.500000  1
  Y  Y9  1  0.498822  0.998461  0.500000  1
  Si  Si10  1  0.996674  0.779438  0.500000  1
  Si  Si11  1  0.999574  0.222908  0.500000  1
  Si  Si12  1  0.222659  0.224552  0.500000  1
  Si  Si13  1  0.777092  0.000426  0.500000  1
  Si  Si14  1  0.336913  0.663087  0.500000  1
  Si  Si15  1  0.220562  0.003326  0.500000  1
  Si  Si16  1  0.667399  0.332601  0.500000  1
  Si  Si17  1  0.775448  0.777341  0.500000  1
  O  O18  1  0.992952  0.492336  0.000000  1
  O  O19  1  0.502902  0.497098  0.000000  1
  O  O20  1  0.507664  0.007048  0.000000  1
