# generated using pymatgen
data_Ho9TmSn5Sb
_symmetry_space_group_name_H-M   'P 1'
_cell_length_a   8.92911201
_cell_length_b   8.92030711
_cell_length_c   6.46412401
_cell_angle_alpha   89.99252913
_cell_angle_beta   90.00448196
_cell_angle_gamma   120.03325558
_symmetry_Int_Tables_number   1
_chemical_formula_structural   Ho9TmSn5Sb
_chemical_formula_sum   'Ho9 Tm1 Sn5 Sb1'
_cell_volume   445.74117486
_cell_formula_units_Z   1
loop_
 _symmetry_equiv_pos_site_id
 _symmetry_equiv_pos_as_xyz
  1  'x, y, z'
loop_
 _atom_site_type_symbol
 _atom_site_label
 _atom_site_symmetry_multiplicity
 _atom_site_fract_x
 _atom_site_fract_y
 _atom_site_fract_z
 _atom_site_occupancy
  Ho  Ho0  1  0.997984  0.759982  0.749933  1
  Ho  Ho1  1  0.000775  0.239074  0.250057  1
  Ho  Ho2  1  0.761639  0.760979  0.250082  1
  Ho  Ho3  1  0.761803  0.999969  0.749948  1
  Ho  Ho4  1  0.237966  0.240038  0.749943  1
  Ho  Ho5  1  0.239109  0.999980  0.250043  1
  Ho  Ho6  1  0.667452  0.334304  0.000181  1
  Ho  Ho7  1  0.667443  0.334289  0.499814  1
  Ho  Ho8  1  0.333160  0.665701  0.000205  1
  Tm  Tm9  1  0.333146  0.665603  0.499722  1
  Sn  Sn10  1  0.395566  0.395021  0.250258  1
  Sn  Sn11  1  0.001127  0.605266  0.250266  1
  Sn  Sn12  1  0.000098  0.395785  0.749749  1
  Sn  Sn13  1  0.604023  0.604532  0.749749  1
  Sn  Sn14  1  0.605202  0.999715  0.250247  1
  Sb  Sb15  1  0.393505  0.999760  0.749803  1
