# generated using pymatgen
data_Mn3Fe(SiTc)6
_symmetry_space_group_name_H-M   'P 1'
_cell_length_a   6.95901500
_cell_length_b   6.95901458
_cell_length_c   4.81490600
_cell_angle_alpha   90.00000000
_cell_angle_beta   90.00000000
_cell_angle_gamma   120.00000676
_symmetry_Int_Tables_number   1
_chemical_formula_structural   Mn3Fe(SiTc)6
_chemical_formula_sum   'Mn3 Fe1 Si6 Tc6'
_cell_volume   201.93608583
_cell_formula_units_Z   1
loop_
 _symmetry_equiv_pos_site_id
 _symmetry_equiv_pos_as_xyz
  1  'x, y, z'
loop_
 _atom_site_type_symbol
 _atom_site_label
 _atom_site_symmetry_multiplicity
 _atom_site_fract_x
 _atom_site_fract_y
 _atom_site_fract_z
 _atom_site_occupancy
  Mn  Mn0  1  0.333333  0.666667  0.500000  1
  Mn  Mn1  1  0.666667  0.333333  0.000000  1
  Mn  Mn2  1  0.666667  0.333333  0.500000  1
  Fe  Fe3  1  0.333333  0.666667  0.000000  1
  Si  Si4  1  0.401797  0.999088  0.752673  1
  Si  Si5  1  0.401797  0.402710  0.247327  1
  Si  Si6  1  0.000912  0.598203  0.247327  1
  Si  Si7  1  0.000912  0.402710  0.752673  1
  Si  Si8  1  0.597290  0.598203  0.752673  1
  Si  Si9  1  0.597290  0.999088  0.247327  1
  Tc  Tc10  1  0.999144  0.757799  0.749732  1
  Tc  Tc11  1  0.999144  0.241345  0.250268  1
  Tc  Tc12  1  0.758655  0.757799  0.250268  1
  Tc  Tc13  1  0.758655  0.000856  0.749732  1
  Tc  Tc14  1  0.242201  0.241345  0.749732  1
  Tc  Tc15  1  0.242201  0.000856  0.250268  1
