# generated using pymatgen
data_Ce4Sn2RuRh
_symmetry_space_group_name_H-M   'P 1'
_cell_length_a   8.00016600
_cell_length_b   8.00016601
_cell_length_c   10.04958600
_cell_angle_alpha   90.00000000
_cell_angle_beta   90.00000000
_cell_angle_gamma   119.99999997
_symmetry_Int_Tables_number   1
_chemical_formula_structural   Ce4Sn2RuRh
_chemical_formula_sum   'Ce12 Sn6 Ru3 Rh3'
_cell_volume   557.02771020
_cell_formula_units_Z   3
loop_
 _symmetry_equiv_pos_site_id
 _symmetry_equiv_pos_as_xyz
  1  'x, y, z'
loop_
 _atom_site_type_symbol
 _atom_site_label
 _atom_site_symmetry_multiplicity
 _atom_site_fract_x
 _atom_site_fract_y
 _atom_site_fract_z
 _atom_site_occupancy
  Ce  Ce0  1  0.000000  0.590897  0.509538  1
  Ce  Ce1  1  0.590897  0.000000  0.509538  1
  Ce  Ce2  1  0.409103  0.409103  0.509538  1
  Ce  Ce3  1  0.000000  0.420596  0.001381  1
  Ce  Ce4  1  0.420596  0.000000  0.001381  1
  Ce  Ce5  1  0.579404  0.579404  0.001381  1
  Ce  Ce6  1  0.000000  0.741273  0.168076  1
  Ce  Ce7  1  0.741273  0.000000  0.168076  1
  Ce  Ce8  1  0.258727  0.258727  0.168076  1
  Ce  Ce9  1  0.000000  0.252031  0.672594  1
  Ce  Ce10  1  0.252031  0.000000  0.672594  1
  Ce  Ce11  1  0.747969  0.747969  0.672594  1
  Sn  Sn12  1  0.666667  0.333333  0.266096  1
  Sn  Sn13  1  0.333333  0.666667  0.266096  1
  Sn  Sn14  1  0.333333  0.666667  0.759380  1
  Sn  Sn15  1  0.666667  0.333333  0.759380  1
  Sn  Sn16  1  0.000000  0.000000  0.420909  1
  Sn  Sn17  1  0.000000  0.000000  0.925345  1
  Ru  Ru18  1  0.000000  0.657495  0.847234  1
  Ru  Ru19  1  0.657495  0.000000  0.847234  1
  Ru  Ru20  1  0.342505  0.342505  0.847234  1
  Rh  Rh21  1  0.000000  0.337806  0.345189  1
  Rh  Rh22  1  0.337806  0.000000  0.345189  1
  Rh  Rh23  1  0.662194  0.662194  0.345189  1
