# generated using pymatgen
data_La3CeErP12Ru19
_symmetry_space_group_name_H-M   'P 1'
_cell_length_a   12.64697200
_cell_length_b   12.64697197
_cell_length_c   4.02790000
_cell_angle_alpha   90.00000000
_cell_angle_beta   90.00000000
_cell_angle_gamma   120.00000007
_symmetry_Int_Tables_number   1
_chemical_formula_structural   La3CeErP12Ru19
_chemical_formula_sum   'La3 Ce1 Er1 P12 Ru19'
_cell_volume   557.93348176
_cell_formula_units_Z   1
loop_
 _symmetry_equiv_pos_site_id
 _symmetry_equiv_pos_as_xyz
  1  'x, y, z'
loop_
 _atom_site_type_symbol
 _atom_site_label
 _atom_site_symmetry_multiplicity
 _atom_site_fract_x
 _atom_site_fract_y
 _atom_site_fract_z
 _atom_site_occupancy
  La  La0  1  0.184020  0.184100  0.500000  1
  La  La1  1  0.815900  0.999920  0.500000  1
  La  La2  1  0.000080  0.815980  0.500000  1
  Ce  Ce3  1  0.666667  0.333333  0.000000  1
  Er  Er4  1  0.333333  0.666667  0.000000  1
  P  P5  1  0.809779  0.810518  0.000000  1
  P  P6  1  0.189482  0.999261  0.000000  1
  P  P7  1  0.000739  0.190221  0.000000  1
  P  P8  1  0.174875  0.478959  0.500000  1
  P  P9  1  0.521041  0.695916  0.500000  1
  P  P10  1  0.304084  0.825125  0.500000  1
  P  P11  1  0.696372  0.523141  0.500000  1
  P  P12  1  0.826768  0.303628  0.500000  1
  P  P13  1  0.476859  0.173232  0.500000  1
  P  P14  1  0.375100  0.375441  0.000000  1
  P  P15  1  0.624559  0.999660  0.000000  1
  P  P16  1  0.000340  0.624900  0.000000  1
  Ru  Ru17  1  0.554059  0.554072  0.000000  1
  Ru  Ru18  1  0.445928  0.999987  0.000000  1
  Ru  Ru19  1  0.000013  0.445941  0.000000  1
  Ru  Ru20  1  0.711812  0.712349  0.500000  1
  Ru  Ru21  1  0.287651  0.999463  0.500000  1
  Ru  Ru22  1  0.000537  0.288188  0.500000  1
  Ru  Ru23  1  0.186062  0.382058  0.000000  1
  Ru  Ru24  1  0.617942  0.804004  0.000000  1
  Ru  Ru25  1  0.195996  0.813938  0.000000  1
  Ru  Ru26  1  0.803956  0.618500  0.000000  1
  Ru  Ru27  1  0.814544  0.196044  0.000000  1
  Ru  Ru28  1  0.381500  0.185456  0.000000  1
  Ru  Ru29  1  0.368357  0.494983  0.500000  1
  Ru  Ru30  1  0.505017  0.873374  0.500000  1
  Ru  Ru31  1  0.126626  0.631643  0.500000  1
  Ru  Ru32  1  0.874254  0.505610  0.500000  1
  Ru  Ru33  1  0.631356  0.125746  0.500000  1
  Ru  Ru34  1  0.494390  0.368644  0.500000  1
  Ru  Ru35  1  0.000000  0.000000  0.000000  1
