# generated using pymatgen
data_Hf4Zr6ZnPb7
_symmetry_space_group_name_H-M   'P 1'
_cell_length_a   8.88629700
_cell_length_b   8.88629680
_cell_length_c   6.02305600
_cell_angle_alpha   90.00000000
_cell_angle_beta   90.00000000
_cell_angle_gamma   119.99999704
_symmetry_Int_Tables_number   1
_chemical_formula_structural   Hf4Zr6ZnPb7
_chemical_formula_sum   'Hf4 Zr6 Zn1 Pb7'
_cell_volume   411.89752675
_cell_formula_units_Z   1
loop_
 _symmetry_equiv_pos_site_id
 _symmetry_equiv_pos_as_xyz
  1  'x, y, z'
loop_
 _atom_site_type_symbol
 _atom_site_label
 _atom_site_symmetry_multiplicity
 _atom_site_fract_x
 _atom_site_fract_y
 _atom_site_fract_z
 _atom_site_occupancy
  Hf  Hf0  1  0.333333  0.666667  0.000000  1
  Hf  Hf1  1  0.666667  0.333333  0.500000  1
  Hf  Hf2  1  0.666667  0.333333  0.000000  1
  Hf  Hf3  1  0.333333  0.666667  0.500000  1
  Zr  Zr4  1  0.273865  0.000000  0.264831  1
  Zr  Zr5  1  0.273865  0.273865  0.735169  1
  Zr  Zr6  1  0.000000  0.726135  0.735169  1
  Zr  Zr7  1  0.000000  0.273865  0.264831  1
  Zr  Zr8  1  0.726135  0.726135  0.264831  1
  Zr  Zr9  1  0.726135  0.000000  0.735169  1
  Zn  Zn10  1  0.000000  0.000000  0.500000  1
  Pb  Pb11  1  0.000000  0.000000  0.000000  1
  Pb  Pb12  1  0.614925  0.000000  0.246035  1
  Pb  Pb13  1  0.614925  0.614925  0.753965  1
  Pb  Pb14  1  0.000000  0.385075  0.753965  1
  Pb  Pb15  1  0.000000  0.614925  0.246035  1
  Pb  Pb16  1  0.385075  0.385075  0.246035  1
  Pb  Pb17  1  0.385075  0.000000  0.753965  1
