# generated using pymatgen
data_HfScCo3Sn2
_symmetry_space_group_name_H-M   'P 1'
_cell_length_a   7.52273586
_cell_length_b   7.52273588
_cell_length_c   7.52273791
_cell_angle_alpha   33.75804496
_cell_angle_beta   33.75804349
_cell_angle_gamma   33.75804316
_symmetry_Int_Tables_number   1
_chemical_formula_structural   HfScCo3Sn2
_chemical_formula_sum   'Hf1 Sc1 Co3 Sn2'
_cell_volume   117.13175606
_cell_formula_units_Z   1
loop_
 _symmetry_equiv_pos_site_id
 _symmetry_equiv_pos_as_xyz
  1  'x, y, z'
loop_
 _atom_site_type_symbol
 _atom_site_label
 _atom_site_symmetry_multiplicity
 _atom_site_fract_x
 _atom_site_fract_y
 _atom_site_fract_z
 _atom_site_occupancy
  Hf  Hf0  1  0.753688  0.753688  0.753688  1
  Sc  Sc1  1  0.246400  0.246400  0.246400  1
  Co  Co2  1  0.120060  0.120060  0.120060  1
  Co  Co3  1  0.630563  0.630563  0.630563  1
  Co  Co4  1  0.375453  0.375453  0.375453  1
  Sn  Sn5  1  0.995370  0.995370  0.995370  1
  Sn  Sn6  1  0.503467  0.503467  0.503467  1
