# generated using pymatgen
data_Tb19Ho(Bi2Os)4
_symmetry_space_group_name_H-M   'P 1'
_cell_length_a   8.00350828
_cell_length_b   9.05321030
_cell_length_c   12.55693931
_cell_angle_alpha   90.01696346
_cell_angle_beta   89.98093496
_cell_angle_gamma   89.97617700
_symmetry_Int_Tables_number   1
_chemical_formula_structural   Tb19Ho(Bi2Os)4
_chemical_formula_sum   'Tb19 Ho1 Bi8 Os4'
_cell_volume   909.84355289
_cell_formula_units_Z   1
loop_
 _symmetry_equiv_pos_site_id
 _symmetry_equiv_pos_as_xyz
  1  'x, y, z'
loop_
 _atom_site_type_symbol
 _atom_site_label
 _atom_site_symmetry_multiplicity
 _atom_site_fract_x
 _atom_site_fract_y
 _atom_site_fract_z
 _atom_site_occupancy
  Tb  Tb0  1  0.839745  0.749854  0.792117  1
  Tb  Tb1  1  0.160475  0.250052  0.207897  1
  Tb  Tb2  1  0.339446  0.250065  0.708080  1
  Tb  Tb3  1  0.660513  0.749958  0.292016  1
  Tb  Tb4  1  0.374505  0.749952  0.691252  1
  Tb  Tb5  1  0.625446  0.250043  0.308782  1
  Tb  Tb6  1  0.874854  0.250179  0.808892  1
  Tb  Tb7  1  0.125502  0.749751  0.191007  1
  Tb  Tb8  1  0.943763  0.749987  0.504213  1
  Tb  Tb9  1  0.056352  0.250005  0.495829  1
  Tb  Tb10  1  0.443411  0.250245  0.995716  1
  Tb  Tb11  1  0.556118  0.749862  0.004212  1
  Tb  Tb12  1  0.674417  0.041463  0.564834  1
  Tb  Tb13  1  0.325524  0.958570  0.435216  1
  Tb  Tb14  1  0.174375  0.958434  0.935198  1
  Tb  Tb15  1  0.325564  0.541434  0.435192  1
  Tb  Tb16  1  0.825445  0.041404  0.064853  1
  Tb  Tb17  1  0.674424  0.458535  0.564840  1
  Tb  Tb18  1  0.826027  0.458714  0.064639  1
  Ho  Ho19  1  0.173174  0.541396  0.935277  1
  Bi  Bi20  1  0.566423  0.493345  0.827575  1
  Bi  Bi21  1  0.433227  0.506737  0.172546  1
  Bi  Bi22  1  0.066921  0.506755  0.672704  1
  Bi  Bi23  1  0.433155  0.993248  0.172565  1
  Bi  Bi24  1  0.933156  0.493278  0.327422  1
  Bi  Bi25  1  0.566871  0.006719  0.827425  1
  Bi  Bi26  1  0.933172  0.006725  0.327409  1
  Bi  Bi27  1  0.066807  0.993260  0.672582  1
  Os  Os28  1  0.575790  0.750040  0.509929  1
  Os  Os29  1  0.424197  0.249990  0.490005  1
  Os  Os30  1  0.076107  0.250447  0.989995  1
  Os  Os31  1  0.925093  0.749550  0.009783  1
