# generated using pymatgen
data_Ho7Lu3(RuRh)2
_symmetry_space_group_name_H-M   'P 1'
_cell_length_a   6.33163090
_cell_length_b   7.19915904
_cell_length_c   8.44127922
_cell_angle_alpha   96.75889414
_cell_angle_beta   112.28466816
_cell_angle_gamma   89.96582984
_symmetry_Int_Tables_number   1
_chemical_formula_structural   Ho7Lu3(RuRh)2
_chemical_formula_sum   'Ho7 Lu3 Ru2 Rh2'
_cell_volume   353.15505849
_cell_formula_units_Z   1
loop_
 _symmetry_equiv_pos_site_id
 _symmetry_equiv_pos_as_xyz
  1  'x, y, z'
loop_
 _atom_site_type_symbol
 _atom_site_label
 _atom_site_symmetry_multiplicity
 _atom_site_fract_x
 _atom_site_fract_y
 _atom_site_fract_z
 _atom_site_occupancy
  Ho  Ho0  1  0.523718  0.080605  0.815911  1
  Ho  Ho1  1  0.475577  0.917819  0.184147  1
  Ho  Ho2  1  0.711157  0.416520  0.187239  1
  Ho  Ho3  1  0.290295  0.584950  0.812109  1
  Ho  Ho4  1  0.287664  0.310669  0.434386  1
  Ho  Ho5  1  0.711547  0.688848  0.566106  1
  Ho  Ho6  1  0.856939  0.183778  0.562995  1
  Lu  Lu7  1  0.141108  0.816541  0.435082  1
  Lu  Lu8  1  0.076304  0.248310  0.998998  1
  Lu  Lu9  1  0.925002  0.752103  0.001805  1
  Ru  Ru10  1  0.105146  0.924965  0.782349  1
  Ru  Ru11  1  0.895975  0.074065  0.215498  1
  Rh  Rh12  1  0.319834  0.574032  0.223071  1
  Rh  Rh13  1  0.679733  0.426796  0.780304  1
