# generated using pymatgen
data_Ce4YIr3
_symmetry_space_group_name_H-M   'P 1'
_cell_length_a   11.08724300
_cell_length_b   11.23613200
_cell_length_c   6.21751200
_cell_angle_alpha   90.00000000
_cell_angle_beta   90.00000000
_cell_angle_gamma   90.00000000
_symmetry_Int_Tables_number   1
_chemical_formula_structural   Ce4YIr3
_chemical_formula_sum   'Ce16 Y4 Ir12'
_cell_volume   774.56350549
_cell_formula_units_Z   4
loop_
 _symmetry_equiv_pos_site_id
 _symmetry_equiv_pos_as_xyz
  1  'x, y, z'
loop_
 _atom_site_type_symbol
 _atom_site_label
 _atom_site_symmetry_multiplicity
 _atom_site_fract_x
 _atom_site_fract_y
 _atom_site_fract_z
 _atom_site_occupancy
  Ce  Ce0  1  0.290682  0.090822  0.373897  1
  Ce  Ce1  1  0.290682  0.909178  0.873897  1
  Ce  Ce2  1  0.709318  0.090822  0.873897  1
  Ce  Ce3  1  0.709318  0.909178  0.373897  1
  Ce  Ce4  1  0.593189  0.786873  0.876474  1
  Ce  Ce5  1  0.593189  0.213127  0.376474  1
  Ce  Ce6  1  0.406811  0.786873  0.376474  1
  Ce  Ce7  1  0.406811  0.213127  0.876474  1
  Ce  Ce8  1  0.205636  0.410279  0.624845  1
  Ce  Ce9  1  0.205636  0.589721  0.124845  1
  Ce  Ce10  1  0.794364  0.410279  0.124845  1
  Ce  Ce11  1  0.794364  0.589721  0.624845  1
  Ce  Ce12  1  0.000000  0.000000  0.493020  1
  Ce  Ce13  1  0.000000  0.000000  0.993020  1
  Ce  Ce14  1  0.500000  0.500000  0.006402  1
  Ce  Ce15  1  0.500000  0.500000  0.506402  1
  Y  Y16  1  0.913803  0.711659  0.125156  1
  Y  Y17  1  0.913803  0.288341  0.625156  1
  Y  Y18  1  0.086197  0.711659  0.625156  1
  Y  Y19  1  0.086197  0.288341  0.125156  1
  Ir  Ir20  1  0.842475  0.152187  0.242820  1
  Ir  Ir21  1  0.842475  0.847813  0.742820  1
  Ir  Ir22  1  0.157525  0.152187  0.742820  1
  Ir  Ir23  1  0.157525  0.847813  0.242820  1
  Ir  Ir24  1  0.655180  0.340924  0.755972  1
  Ir  Ir25  1  0.655180  0.659076  0.255972  1
  Ir  Ir26  1  0.344820  0.340924  0.255972  1
  Ir  Ir27  1  0.344820  0.659076  0.755972  1
  Ir  Ir28  1  0.500000  0.000000  0.117833  1
  Ir  Ir29  1  0.500000  0.000000  0.617833  1
  Ir  Ir30  1  0.000000  0.500000  0.884417  1
  Ir  Ir31  1  0.000000  0.500000  0.384417  1
