# generated using pymatgen
data_Nd3ScIn2Sn2Pt
_symmetry_space_group_name_H-M   'P 1'
_cell_length_a   7.79669623
_cell_length_b   7.62327334
_cell_length_c   4.57068800
_cell_angle_alpha   90.00000000
_cell_angle_beta   90.00000000
_cell_angle_gamma   119.26688575
_symmetry_Int_Tables_number   1
_chemical_formula_structural   Nd3ScIn2Sn2Pt
_chemical_formula_sum   'Nd3 Sc1 In2 Sn2 Pt1'
_cell_volume   236.98749321
_cell_formula_units_Z   1
loop_
 _symmetry_equiv_pos_site_id
 _symmetry_equiv_pos_as_xyz
  1  'x, y, z'
loop_
 _atom_site_type_symbol
 _atom_site_label
 _atom_site_symmetry_multiplicity
 _atom_site_fract_x
 _atom_site_fract_y
 _atom_site_fract_z
 _atom_site_occupancy
  Nd  Nd0  1  0.000000  0.615446  0.500000  1
  Nd  Nd1  1  0.593109  0.988222  0.500000  1
  Nd  Nd2  1  0.406891  0.395113  0.500000  1
  Sc  Sc3  1  0.000000  0.220055  0.000000  1
  In  In4  1  0.242689  0.008463  0.000000  1
  In  In5  1  0.757311  0.765774  0.000000  1
  Sn  Sn6  1  0.685136  0.334675  0.000000  1
  Sn  Sn7  1  0.314864  0.649540  0.000000  1
  Pt  Pt8  1  0.000000  0.022709  0.500000  1
