# generated using pymatgen
data_DyTm11Co5Bi
_symmetry_space_group_name_H-M   'P 1'
_cell_length_a   8.20035758
_cell_length_b   8.20035734
_cell_length_c   8.19392253
_cell_angle_alpha   110.98652200
_cell_angle_beta   110.85337039
_cell_angle_gamma   106.64460659
_symmetry_Int_Tables_number   1
_chemical_formula_structural   DyTm11Co5Bi
_chemical_formula_sum   'Dy1 Tm11 Co5 Bi1'
_cell_volume   423.21114476
_cell_formula_units_Z   1
loop_
 _symmetry_equiv_pos_site_id
 _symmetry_equiv_pos_as_xyz
  1  'x, y, z'
loop_
 _atom_site_type_symbol
 _atom_site_label
 _atom_site_symmetry_multiplicity
 _atom_site_fract_x
 _atom_site_fract_y
 _atom_site_fract_z
 _atom_site_occupancy
  Dy  Dy0  1  0.286098  0.183868  0.469966  1
  Tm  Tm1  1  0.714399  0.817180  0.531579  1
  Tm  Tm2  1  0.286043  0.816030  0.102072  1
  Tm  Tm3  1  0.714582  0.183008  0.897591  1
  Tm  Tm4  1  0.621076  0.311816  0.308740  1
  Tm  Tm5  1  0.379641  0.689447  0.691219  1
  Tm  Tm6  1  0.001772  0.311578  0.691219  1
  Tm  Tm7  1  0.996925  0.687665  0.308740  1
  Tm  Tm8  1  0.209585  0.405961  0.194850  1
  Tm  Tm9  1  0.791099  0.595572  0.805280  1
  Tm  Tm10  1  0.209709  0.014181  0.805280  1
  Tm  Tm11  1  0.788888  0.985265  0.194850  1
  Co  Co12  1  0.999082  0.374522  0.373604  1
  Co  Co13  1  0.000120  0.625717  0.625837  1
  Co  Co14  1  0.388804  0.887015  0.500006  1
  Co  Co15  1  0.612990  0.111202  0.500006  1
  Co  Co16  1  0.999194  0.000019  0.999213  1
  Bi  Bi17  1  0.499994  0.499955  0.999949  1
