# generated using pymatgen
data_Yb10HfMoN10
_symmetry_space_group_name_H-M   'P 1'
_cell_length_a   6.81749082
_cell_length_b   6.81749072
_cell_length_c   8.65163200
_cell_angle_alpha   80.83641581
_cell_angle_beta   80.83642446
_cell_angle_gamma   59.99439128
_symmetry_Int_Tables_number   1
_chemical_formula_structural   Yb10HfMoN10
_chemical_formula_sum   'Yb10 Hf1 Mo1 N10'
_cell_volume   342.28169098
_cell_formula_units_Z   1
loop_
 _symmetry_equiv_pos_site_id
 _symmetry_equiv_pos_as_xyz
  1  'x, y, z'
loop_
 _atom_site_type_symbol
 _atom_site_label
 _atom_site_symmetry_multiplicity
 _atom_site_fract_x
 _atom_site_fract_y
 _atom_site_fract_z
 _atom_site_occupancy
  Yb  Yb0  1  0.879275  0.356732  0.835562  1
  Yb  Yb1  1  0.872632  0.872632  0.822495  1
  Yb  Yb2  1  0.734261  0.734261  0.536240  1
  Yb  Yb3  1  0.746854  0.254912  0.507454  1
  Yb  Yb4  1  0.620019  0.138600  0.150729  1
  Yb  Yb5  1  0.356732  0.879275  0.835562  1
  Yb  Yb6  1  0.254912  0.746854  0.507454  1
  Yb  Yb7  1  0.241904  0.241904  0.492166  1
  Yb  Yb8  1  0.141532  0.141532  0.169170  1
  Yb  Yb9  1  0.138600  0.620019  0.150729  1
  Hf  Hf10  1  0.370666  0.370666  0.775572  1
  Mo  Mo11  1  0.633524  0.633524  0.221811  1
  N  N12  1  0.910393  0.471267  0.320563  1
  N  N13  1  0.994304  0.994304  0.026008  1
  N  N14  1  0.681757  0.681757  0.006019  1
  N  N15  1  0.546727  0.546727  0.685005  1
  N  N16  1  0.471267  0.910393  0.320563  1
  N  N17  1  0.546953  0.075085  0.667085  1
  N  N18  1  0.471107  0.471107  0.295925  1
  N  N19  1  0.312594  0.312594  0.008662  1
  N  N20  1  0.061189  0.061189  0.643944  1
  N  N21  1  0.075085  0.546953  0.667085  1
