# generated using pymatgen
data_DyHo3Si6IrRh
_symmetry_space_group_name_H-M   'P 1'
_cell_length_a   8.16071600
_cell_length_b   8.16071618
_cell_length_c   7.88726200
_cell_angle_alpha   90.00000000
_cell_angle_beta   90.00000000
_cell_angle_gamma   120.00000738
_symmetry_Int_Tables_number   1
_chemical_formula_structural   DyHo3Si6IrRh
_chemical_formula_sum   'Dy2 Ho6 Si12 Ir2 Rh2'
_cell_volume   454.89734817
_cell_formula_units_Z   2
loop_
 _symmetry_equiv_pos_site_id
 _symmetry_equiv_pos_as_xyz
  1  'x, y, z'
loop_
 _atom_site_type_symbol
 _atom_site_label
 _atom_site_symmetry_multiplicity
 _atom_site_fract_x
 _atom_site_fract_y
 _atom_site_fract_z
 _atom_site_occupancy
  Dy  Dy0  1  0.000000  0.000000  0.248679  1
  Dy  Dy1  1  0.000000  0.000000  0.751321  1
  Ho  Ho2  1  0.509370  0.490630  0.250296  1
  Ho  Ho3  1  0.509370  0.018741  0.250296  1
  Ho  Ho4  1  0.981259  0.490630  0.250296  1
  Ho  Ho5  1  0.490630  0.509370  0.749704  1
  Ho  Ho6  1  0.490630  0.981259  0.749704  1
  Ho  Ho7  1  0.018741  0.509370  0.749704  1
  Si  Si8  1  0.166796  0.833204  0.499083  1
  Si  Si9  1  0.166796  0.333590  0.499083  1
  Si  Si10  1  0.666410  0.833204  0.499083  1
  Si  Si11  1  0.833204  0.166796  0.500917  1
  Si  Si12  1  0.833204  0.666410  0.500917  1
  Si  Si13  1  0.333590  0.166796  0.500917  1
  Si  Si14  1  0.832950  0.167050  0.000056  1
  Si  Si15  1  0.832950  0.665901  0.000056  1
  Si  Si16  1  0.334099  0.167050  0.000056  1
  Si  Si17  1  0.167050  0.832950  0.999944  1
  Si  Si18  1  0.167050  0.334099  0.999944  1
  Si  Si19  1  0.665901  0.832950  0.999944  1
  Ir  Ir20  1  0.333333  0.666667  0.468365  1
  Ir  Ir21  1  0.666667  0.333333  0.531635  1
  Rh  Rh22  1  0.666667  0.333333  0.963292  1
  Rh  Rh23  1  0.333333  0.666667  0.036708  1
