# generated using pymatgen
data_TbLu7Ti10(NbSi8)2
_symmetry_space_group_name_H-M   'P 1'
_cell_length_a   6.99535510
_cell_length_b   6.99636090
_cell_length_c   12.85874812
_cell_angle_alpha   89.96432553
_cell_angle_beta   90.09927457
_cell_angle_gamma   89.96567623
_symmetry_Int_Tables_number   1
_chemical_formula_structural   TbLu7Ti10(NbSi8)2
_chemical_formula_sum   'Tb1 Lu7 Ti10 Nb2 Si16'
_cell_volume   629.33204207
_cell_formula_units_Z   1
loop_
 _symmetry_equiv_pos_site_id
 _symmetry_equiv_pos_as_xyz
  1  'x, y, z'
loop_
 _atom_site_type_symbol
 _atom_site_label
 _atom_site_symmetry_multiplicity
 _atom_site_fract_x
 _atom_site_fract_y
 _atom_site_fract_z
 _atom_site_occupancy
  Tb  Tb0  1  0.996879  0.658976  0.033230  1
  Lu  Lu1  1  0.341173  0.001667  0.467029  1
  Lu  Lu2  1  0.498207  0.840645  0.716655  1
  Lu  Lu3  1  0.500582  0.158379  0.217405  1
  Lu  Lu4  1  0.841209  0.498778  0.283411  1
  Lu  Lu5  1  0.159122  0.501263  0.782779  1
  Lu  Lu6  1  0.658293  0.998938  0.966591  1
  Lu  Lu7  1  0.001937  0.340778  0.532867  1
  Ti  Ti8  1  0.827021  0.173090  0.749290  1
  Ti  Ti9  1  0.672835  0.673301  0.500086  1
  Ti  Ti10  1  0.152564  0.007075  0.874763  1
  Ti  Ti11  1  0.492142  0.651380  0.125435  1
  Ti  Ti12  1  0.506883  0.349629  0.625193  1
  Ti  Ti13  1  0.650528  0.491276  0.874192  1
  Ti  Ti14  1  0.348971  0.507595  0.375077  1
  Ti  Ti15  1  0.849468  0.993101  0.375613  1
  Ti  Ti16  1  0.007942  0.152258  0.125430  1
  Ti  Ti17  1  0.993093  0.849744  0.624195  1
  Nb  Nb18  1  0.327415  0.326669  0.999790  1
  Nb  Nb19  1  0.173128  0.827635  0.250700  1
  Si  Si20  1  0.203286  0.132085  0.682264  1
  Si  Si21  1  0.370421  0.704630  0.931865  1
  Si  Si22  1  0.632314  0.296698  0.433095  1
  Si  Si23  1  0.702382  0.366176  0.066910  1
  Si  Si24  1  0.296803  0.632115  0.567453  1
  Si  Si25  1  0.794304  0.870250  0.184661  1
  Si  Si26  1  0.131924  0.204351  0.318098  1
  Si  Si27  1  0.867788  0.797247  0.815677  1
  Si  Si28  1  0.295215  0.954220  0.063866  1
  Si  Si29  1  0.547123  0.793226  0.315584  1
  Si  Si30  1  0.454080  0.205542  0.813130  1
  Si  Si31  1  0.793359  0.546416  0.684733  1
  Si  Si32  1  0.207152  0.452014  0.187362  1
  Si  Si33  1  0.706653  0.046591  0.564778  1
  Si  Si34  1  0.951999  0.290372  0.934259  1
  Si  Si35  1  0.045807  0.705889  0.436531  1
