# generated using pymatgen
data_Tm5(CoO6)2
_symmetry_space_group_name_H-M   'P 1'
_cell_length_a   6.65187127
_cell_length_b   6.65187141
_cell_length_c   7.06171957
_cell_angle_alpha   74.60390551
_cell_angle_beta   74.60389713
_cell_angle_gamma   50.63990952
_symmetry_Int_Tables_number   1
_chemical_formula_structural   Tm5(CoO6)2
_chemical_formula_sum   'Tm5 Co2 O12'
_cell_volume   230.93344465
_cell_formula_units_Z   1
loop_
 _symmetry_equiv_pos_site_id
 _symmetry_equiv_pos_as_xyz
  1  'x, y, z'
loop_
 _atom_site_type_symbol
 _atom_site_label
 _atom_site_symmetry_multiplicity
 _atom_site_fract_x
 _atom_site_fract_y
 _atom_site_fract_z
 _atom_site_occupancy
  Tm  Tm0  1  0.691928  0.691928  0.665024  1
  Tm  Tm1  1  0.694650  0.694650  0.143488  1
  Tm  Tm2  1  0.000000  0.000000  0.000000  1
  Tm  Tm3  1  0.305350  0.305350  0.856512  1
  Tm  Tm4  1  0.308072  0.308072  0.334976  1
  Co  Co5  1  0.244451  0.755549  0.500000  1
  Co  Co6  1  0.755549  0.244451  0.500000  1
  O  O7  1  0.401443  0.903117  0.924081  1
  O  O8  1  0.580325  0.098109  0.580001  1
  O  O9  1  0.901891  0.419675  0.419999  1
  O  O10  1  0.096883  0.598557  0.075919  1
  O  O11  1  0.000317  0.000317  0.325413  1
  O  O12  1  0.499893  0.499893  0.678359  1
  O  O13  1  0.903117  0.401443  0.924081  1
  O  O14  1  0.098109  0.580325  0.580001  1
  O  O15  1  0.419675  0.901891  0.419999  1
  O  O16  1  0.598557  0.096883  0.075919  1
  O  O17  1  0.500107  0.500107  0.321641  1
  O  O18  1  0.999683  0.999683  0.674587  1
