# generated using pymatgen
data_Ho8Hf11Si16Pt
_symmetry_space_group_name_H-M   'P 1'
_cell_length_a   7.26553358
_cell_length_b   7.26553360
_cell_length_c   13.19131937
_cell_angle_alpha   90.28763416
_cell_angle_beta   89.71236742
_cell_angle_gamma   89.86585320
_symmetry_Int_Tables_number   1
_chemical_formula_structural   Ho8Hf11Si16Pt
_chemical_formula_sum   'Ho8 Hf11 Si16 Pt1'
_cell_volume   696.32358209
_cell_formula_units_Z   1
loop_
 _symmetry_equiv_pos_site_id
 _symmetry_equiv_pos_as_xyz
  1  'x, y, z'
loop_
 _atom_site_type_symbol
 _atom_site_label
 _atom_site_symmetry_multiplicity
 _atom_site_fract_x
 _atom_site_fract_y
 _atom_site_fract_z
 _atom_site_occupancy
  Ho  Ho0  1  0.344778  0.005056  0.464766  1
  Ho  Ho1  1  0.494132  0.847442  0.717144  1
  Ho  Ho2  1  0.502683  0.153301  0.210507  1
  Ho  Ho3  1  0.847442  0.494132  0.282856  1
  Ho  Ho4  1  0.153301  0.502683  0.789493  1
  Ho  Ho5  1  0.651069  0.000510  0.967541  1
  Ho  Ho6  1  0.005056  0.344778  0.535234  1
  Ho  Ho7  1  0.000510  0.651069  0.032459  1
  Hf  Hf8  1  0.178068  0.822126  0.248187  1
  Hf  Hf9  1  0.822126  0.178068  0.751813  1
  Hf  Hf10  1  0.675161  0.675161  0.500000  1
  Hf  Hf11  1  0.144188  0.005696  0.877666  1
  Hf  Hf12  1  0.497336  0.643819  0.120423  1
  Hf  Hf13  1  0.502244  0.354918  0.627519  1
  Hf  Hf14  1  0.643819  0.497336  0.879577  1
  Hf  Hf15  1  0.354918  0.502244  0.372481  1
  Hf  Hf16  1  0.853917  0.996741  0.373465  1
  Hf  Hf17  1  0.005696  0.144188  0.122334  1
  Hf  Hf18  1  0.996741  0.853917  0.626535  1
  Si  Si19  1  0.203174  0.142394  0.684598  1
  Si  Si20  1  0.365515  0.720225  0.927875  1
  Si  Si21  1  0.639666  0.292753  0.431504  1
  Si  Si22  1  0.720225  0.365515  0.072125  1
  Si  Si23  1  0.292753  0.639666  0.568496  1
  Si  Si24  1  0.795665  0.858211  0.180056  1
  Si  Si25  1  0.142394  0.203174  0.315402  1
  Si  Si26  1  0.858211  0.795665  0.819944  1
  Si  Si27  1  0.291712  0.939511  0.063490  1
  Si  Si28  1  0.550477  0.795312  0.313123  1
  Si  Si29  1  0.442670  0.208246  0.817057  1
  Si  Si30  1  0.795312  0.550477  0.686877  1
  Si  Si31  1  0.208246  0.442670  0.182943  1
  Si  Si32  1  0.702948  0.050136  0.565131  1
  Si  Si33  1  0.939511  0.291712  0.936510  1
  Si  Si34  1  0.050136  0.702948  0.434869  1
  Pt  Pt35  1  0.328200  0.328200  0.000000  1
