# generated using pymatgen
data_Y2HoTm(Sn5Rh3)2
_symmetry_space_group_name_H-M   'P 1'
_cell_length_a   13.46028728
_cell_length_b   13.46028618
_cell_length_c   7.26559611
_cell_angle_alpha   90.01930098
_cell_angle_beta   89.98069926
_cell_angle_gamma   161.10113829
_symmetry_Int_Tables_number   1
_chemical_formula_structural   Y2HoTm(Sn5Rh3)2
_chemical_formula_sum   'Y2 Ho1 Tm1 Sn10 Rh6'
_cell_volume   426.37226817
_cell_formula_units_Z   1
loop_
 _symmetry_equiv_pos_site_id
 _symmetry_equiv_pos_as_xyz
  1  'x, y, z'
loop_
 _atom_site_type_symbol
 _atom_site_label
 _atom_site_symmetry_multiplicity
 _atom_site_fract_x
 _atom_site_fract_y
 _atom_site_fract_z
 _atom_site_occupancy
  Y  Y0  1  0.172500  0.827500  0.744997  1
  Y  Y1  1  0.827488  0.172512  0.245037  1
  Ho  Ho2  1  0.523952  0.476048  0.262527  1
  Tm  Tm3  1  0.475851  0.524149  0.762480  1
  Sn  Sn4  1  0.880984  0.119016  0.769917  1
  Sn  Sn5  1  0.119095  0.880905  0.269921  1
  Sn  Sn6  1  0.704576  0.295424  0.450443  1
  Sn  Sn7  1  0.295457  0.704543  0.950439  1
  Sn  Sn8  1  0.596246  0.403754  0.885572  1
  Sn  Sn9  1  0.403699  0.596301  0.385709  1
  Sn  Sn10  1  0.952586  0.047414  0.101844  1
  Sn  Sn11  1  0.047249  0.952751  0.602317  1
  Sn  Sn12  1  0.290789  0.709211  0.522369  1
  Sn  Sn13  1  0.709203  0.290797  0.022371  1
  Rh  Rh14  1  0.049962  0.950038  0.982048  1
  Rh  Rh15  1  0.949979  0.050021  0.483299  1
  Rh  Rh16  1  0.777196  0.222804  0.735495  1
  Rh  Rh17  1  0.222866  0.777134  0.235503  1
  Rh  Rh18  1  0.394476  0.605524  0.015418  1
  Rh  Rh19  1  0.605844  0.394156  0.516295  1
