# generated using pymatgen
data_CsEu(Fe2S3)2
_symmetry_space_group_name_H-M   'P 1'
_cell_length_a   6.81538495
_cell_length_b   6.77425202
_cell_length_c   4.99538066
_cell_angle_alpha   89.94088683
_cell_angle_beta   90.01017223
_cell_angle_gamma   101.77507691
_symmetry_Int_Tables_number   1
_chemical_formula_structural   CsEu(Fe2S3)2
_chemical_formula_sum   'Cs1 Eu1 Fe4 S6'
_cell_volume   225.77891448
_cell_formula_units_Z   1
loop_
 _symmetry_equiv_pos_site_id
 _symmetry_equiv_pos_as_xyz
  1  'x, y, z'
loop_
 _atom_site_type_symbol
 _atom_site_label
 _atom_site_symmetry_multiplicity
 _atom_site_fract_x
 _atom_site_fract_y
 _atom_site_fract_z
 _atom_site_occupancy
  Cs  Cs0  1  0.672961  0.327171  0.249938  1
  Eu  Eu1  1  0.309447  0.689923  0.750381  1
  Fe  Fe2  1  0.142344  0.146550  0.998630  1
  Fe  Fe3  1  0.853522  0.857442  0.501324  1
  Fe  Fe4  1  0.853542  0.857531  0.998652  1
  Fe  Fe5  1  0.142380  0.146605  0.501276  1
  S  S6  1  0.886328  0.113868  0.749980  1
  S  S7  1  0.107250  0.892814  0.249922  1
  S  S8  1  0.385963  0.143206  0.749929  1
  S  S9  1  0.601182  0.812092  0.249932  1
  S  S10  1  0.188040  0.398511  0.250032  1
  S  S11  1  0.857042  0.614290  0.750004  1
