# generated using pymatgen
data_Tm4Al(GeB4)2
_symmetry_space_group_name_H-M   'P 1'
_cell_length_a   7.11520800
_cell_length_b   7.11520800
_cell_length_c   7.61451800
_cell_angle_alpha   90.00000000
_cell_angle_beta   90.00000000
_cell_angle_gamma   90.00000000
_symmetry_Int_Tables_number   1
_chemical_formula_structural   Tm4Al(GeB4)2
_chemical_formula_sum   'Tm8 Al2 Ge4 B16'
_cell_volume   385.49399606
_cell_formula_units_Z   2
loop_
 _symmetry_equiv_pos_site_id
 _symmetry_equiv_pos_as_xyz
  1  'x, y, z'
loop_
 _atom_site_type_symbol
 _atom_site_label
 _atom_site_symmetry_multiplicity
 _atom_site_fract_x
 _atom_site_fract_y
 _atom_site_fract_z
 _atom_site_occupancy
  Tm  Tm0  1  0.680503  0.180503  0.229085  1
  Tm  Tm1  1  0.319497  0.819497  0.770915  1
  Tm  Tm2  1  0.319497  0.819497  0.229085  1
  Tm  Tm3  1  0.819497  0.680503  0.229085  1
  Tm  Tm4  1  0.819497  0.680503  0.770915  1
  Tm  Tm5  1  0.680503  0.180503  0.770915  1
  Tm  Tm6  1  0.180503  0.319497  0.770915  1
  Tm  Tm7  1  0.180503  0.319497  0.229085  1
  Al  Al8  1  0.000000  0.000000  0.500000  1
  Al  Al9  1  0.500000  0.500000  0.500000  1
  Ge  Ge10  1  0.123627  0.623627  0.500000  1
  Ge  Ge11  1  0.876373  0.376373  0.500000  1
  Ge  Ge12  1  0.376373  0.123627  0.500000  1
  Ge  Ge13  1  0.623627  0.876373  0.500000  1
  B  B14  1  0.173473  0.040248  0.000000  1
  B  B15  1  0.826527  0.959752  0.000000  1
  B  B16  1  0.959752  0.173473  0.000000  1
  B  B17  1  0.326527  0.540248  0.000000  1
  B  B18  1  0.040248  0.826527  0.000000  1
  B  B19  1  0.673473  0.459752  0.000000  1
  B  B20  1  0.540248  0.673473  0.000000  1
  B  B21  1  0.459752  0.326527  0.000000  1
  B  B22  1  0.089209  0.589209  0.000000  1
  B  B23  1  0.910791  0.410791  0.000000  1
  B  B24  1  0.410791  0.089209  0.000000  1
  B  B25  1  0.589209  0.910791  0.000000  1
  B  B26  1  0.000000  0.000000  0.171500  1
  B  B27  1  0.000000  0.000000  0.828500  1
  B  B28  1  0.500000  0.500000  0.828500  1
  B  B29  1  0.500000  0.500000  0.171500  1
