# generated using pymatgen
data_Tc2SnP
_symmetry_space_group_name_H-M   'P 1'
_cell_length_a   3.17877000
_cell_length_b   6.27724400
_cell_length_c   6.67533800
_cell_angle_alpha   90.00000000
_cell_angle_beta   90.00000000
_cell_angle_gamma   90.00000000
_symmetry_Int_Tables_number   1
_chemical_formula_structural   Tc2SnP
_chemical_formula_sum   'Tc4 Sn2 P2'
_cell_volume   133.19912645
_cell_formula_units_Z   2
loop_
 _symmetry_equiv_pos_site_id
 _symmetry_equiv_pos_as_xyz
  1  'x, y, z'
loop_
 _atom_site_type_symbol
 _atom_site_label
 _atom_site_symmetry_multiplicity
 _atom_site_fract_x
 _atom_site_fract_y
 _atom_site_fract_z
 _atom_site_occupancy
  Tc  Tc0  1  0.500000  0.248235  0.185070  1
  Tc  Tc1  1  0.500000  0.751765  0.185070  1
  Tc  Tc2  1  0.000000  0.251766  0.814930  1
  Tc  Tc3  1  0.000000  0.748236  0.814930  1
  Sn  Sn4  1  0.000000  0.500001  0.451786  1
  Sn  Sn5  1  0.500000  0.000000  0.548215  1
  P  P6  1  0.000000  0.000000  0.076615  1
  P  P7  1  0.500000  0.500001  0.923386  1
