# generated using pymatgen
data_Hf3Zr7Ga2(BiPb2)2
_symmetry_space_group_name_H-M   'P 1'
_cell_length_a   8.83834544
_cell_length_b   8.84314169
_cell_length_c   5.94057703
_cell_angle_alpha   89.99260484
_cell_angle_beta   89.99601806
_cell_angle_gamma   120.01816837
_symmetry_Int_Tables_number   1
_chemical_formula_structural   Hf3Zr7Ga2(BiPb2)2
_chemical_formula_sum   'Hf3 Zr7 Ga2 Bi2 Pb4'
_cell_volume   402.02889803
_cell_formula_units_Z   1
loop_
 _symmetry_equiv_pos_site_id
 _symmetry_equiv_pos_as_xyz
  1  'x, y, z'
loop_
 _atom_site_type_symbol
 _atom_site_label
 _atom_site_symmetry_multiplicity
 _atom_site_fract_x
 _atom_site_fract_y
 _atom_site_fract_z
 _atom_site_occupancy
  Hf  Hf0  1  0.667004  0.334124  0.001952  1
  Hf  Hf1  1  0.333355  0.666550  0.001313  1
  Hf  Hf2  1  0.333264  0.666504  0.498456  1
  Zr  Zr3  1  0.666436  0.333675  0.498941  1
  Zr  Zr4  1  0.736465  0.735684  0.749971  1
  Zr  Zr5  1  0.263386  0.998927  0.750048  1
  Zr  Zr6  1  0.001221  0.265033  0.749823  1
  Zr  Zr7  1  0.264542  0.265014  0.249911  1
  Zr  Zr8  1  0.734709  0.998772  0.250072  1
  Zr  Zr9  1  0.999359  0.734885  0.249690  1
  Ga  Ga10  1  0.000057  0.999652  0.000805  1
  Ga  Ga11  1  0.000040  0.999674  0.499133  1
  Bi  Bi12  1  0.389797  0.389730  0.750660  1
  Bi  Bi13  1  0.610110  0.000110  0.750496  1
  Pb  Pb14  1  0.000687  0.611188  0.750545  1
  Pb  Pb15  1  0.612137  0.612170  0.249438  1
  Pb  Pb16  1  0.387513  0.999111  0.249316  1
  Pb  Pb17  1  0.999917  0.389197  0.249430  1
