# generated using pymatgen
data_Tb3ErRu4F28
_symmetry_space_group_name_H-M   'P 1'
_cell_length_a   5.57950728
_cell_length_b   8.96448412
_cell_length_c   11.97242658
_cell_angle_alpha   63.08352543
_cell_angle_beta   90.07393729
_cell_angle_gamma   89.97031586
_symmetry_Int_Tables_number   1
_chemical_formula_structural   Tb3ErRu4F28
_chemical_formula_sum   'Tb3 Er1 Ru4 F28'
_cell_volume   533.95607187
_cell_formula_units_Z   1
loop_
 _symmetry_equiv_pos_site_id
 _symmetry_equiv_pos_as_xyz
  1  'x, y, z'
loop_
 _atom_site_type_symbol
 _atom_site_label
 _atom_site_symmetry_multiplicity
 _atom_site_fract_x
 _atom_site_fract_y
 _atom_site_fract_z
 _atom_site_occupancy
  Tb  Tb0  1  0.742042  0.189854  0.730492  1
  Tb  Tb1  1  0.757432  0.187596  0.230753  1
  Tb  Tb2  1  0.242177  0.809581  0.769740  1
  Er  Er3  1  0.258106  0.809163  0.270181  1
  Ru  Ru4  1  0.754675  0.727309  0.046950  1
  Ru  Ru5  1  0.246508  0.272598  0.955126  1
  Ru  Ru6  1  0.253909  0.274131  0.454088  1
  Ru  Ru7  1  0.746095  0.726975  0.543831  1
  F  F8  1  0.954112  0.705255  0.419347  1
  F  F9  1  0.048781  0.296136  0.579299  1
  F  F10  1  0.451819  0.295357  0.080067  1
  F  F11  1  0.547219  0.704928  0.922279  1
  F  F12  1  0.472123  0.733248  0.144081  1
  F  F13  1  0.530966  0.268328  0.859367  1
  F  F14  1  0.970479  0.267247  0.358632  1
  F  F15  1  0.029432  0.732094  0.640141  1
  F  F16  1  0.960528  0.751338  0.172691  1
  F  F17  1  0.045016  0.250691  0.827584  1
  F  F18  1  0.455452  0.251016  0.327382  1
  F  F19  1  0.542944  0.748793  0.671045  1
  F  F20  1  0.764960  0.489287  0.142655  1
  F  F21  1  0.235516  0.511086  0.859062  1
  F  F22  1  0.262412  0.512819  0.358334  1
  F  F23  1  0.734938  0.489030  0.640582  1
  F  F24  1  0.955827  0.284261  0.045724  1
  F  F25  1  0.042864  0.715229  0.954990  1
  F  F26  1  0.455268  0.715984  0.452315  1
  F  F27  1  0.544361  0.285532  0.544953  1
  F  F28  1  0.745685  0.964267  0.450541  1
  F  F29  1  0.255773  0.036883  0.547258  1
  F  F30  1  0.246126  0.035954  0.047824  1
  F  F31  1  0.755038  0.964363  0.952895  1
  F  F32  1  0.567705  0.972455  0.234161  1
  F  F33  1  0.425209  0.026261  0.766536  1
  F  F34  1  0.073462  0.021872  0.265575  1
  F  F35  1  0.925038  0.973082  0.733521  1
