# generated using pymatgen
data_Pr6Al24Os6PtRh
_symmetry_space_group_name_H-M   'P 1'
_cell_length_a   8.93049602
_cell_length_b   8.93049666
_cell_length_c   9.68465715
_cell_angle_alpha   89.98249450
_cell_angle_beta   90.01750464
_cell_angle_gamma   119.34854747
_symmetry_Int_Tables_number   1
_chemical_formula_structural   Pr6Al24Os6PtRh
_chemical_formula_sum   'Pr6 Al24 Os6 Pt1 Rh1'
_cell_volume   673.25516474
_cell_formula_units_Z   1
loop_
 _symmetry_equiv_pos_site_id
 _symmetry_equiv_pos_as_xyz
  1  'x, y, z'
loop_
 _atom_site_type_symbol
 _atom_site_label
 _atom_site_symmetry_multiplicity
 _atom_site_fract_x
 _atom_site_fract_y
 _atom_site_fract_z
 _atom_site_occupancy
  Pr  Pr0  1  0.185712  0.382490  0.250136  1
  Pr  Pr1  1  0.814288  0.617510  0.749864  1
  Pr  Pr2  1  0.617510  0.814288  0.250136  1
  Pr  Pr3  1  0.382490  0.185712  0.749864  1
  Pr  Pr4  1  0.191836  0.808164  0.250235  1
  Pr  Pr5  1  0.808164  0.191836  0.749765  1
  Al  Al6  1  0.331916  0.668084  0.012642  1
  Al  Al7  1  0.668084  0.331916  0.987358  1
  Al  Al8  1  0.669156  0.330844  0.513342  1
  Al  Al9  1  0.330844  0.669156  0.486658  1
  Al  Al10  1  0.158160  0.323969  0.575169  1
  Al  Al11  1  0.841840  0.676031  0.424831  1
  Al  Al12  1  0.676031  0.841840  0.575169  1
  Al  Al13  1  0.839421  0.675508  0.075301  1
  Al  Al14  1  0.323969  0.158160  0.424831  1
  Al  Al15  1  0.160579  0.324492  0.924699  1
  Al  Al16  1  0.163905  0.836095  0.573406  1
  Al  Al17  1  0.324492  0.160579  0.075301  1
  Al  Al18  1  0.836095  0.163905  0.426594  1
  Al  Al19  1  0.675508  0.839421  0.924699  1
  Al  Al20  1  0.836029  0.163971  0.072967  1
  Al  Al21  1  0.163971  0.836029  0.927033  1
  Al  Al22  1  0.561239  0.125749  0.250155  1
  Al  Al23  1  0.438761  0.874251  0.749845  1
  Al  Al24  1  0.874251  0.438761  0.250155  1
  Al  Al25  1  0.125749  0.561239  0.749845  1
  Al  Al26  1  0.562341  0.437659  0.248059  1
  Al  Al27  1  0.437659  0.562341  0.751941  1
  Al  Al28  1  0.998167  0.001833  0.249901  1
  Al  Al29  1  0.001833  0.998167  0.750099  1
  Os  Os30  1  0.500000  0.000000  0.000000  1
  Os  Os31  1  0.000000  0.500000  0.000000  1
  Os  Os32  1  0.500000  0.000000  0.500000  1
  Os  Os33  1  0.000000  0.500000  0.500000  1
  Os  Os34  1  0.000000  0.000000  0.000000  1
  Os  Os35  1  0.000000  0.000000  0.500000  1
  Pt  Pt36  1  0.500000  0.500000  0.500000  1
  Rh  Rh37  1  0.500000  0.500000  0.000000  1
