# generated using pymatgen
data_Hf5(NpH10)3
_symmetry_space_group_name_H-M   'P 1'
_cell_length_a   7.16367302
_cell_length_b   7.08928800
_cell_length_c   7.13878179
_cell_angle_alpha   109.72632826
_cell_angle_beta   109.36613849
_cell_angle_gamma   109.15935763
_symmetry_Int_Tables_number   1
_chemical_formula_structural   Hf5(NpH10)3
_chemical_formula_sum   'Hf5 Np3 H30'
_cell_volume   279.63839646
_cell_formula_units_Z   1
loop_
 _symmetry_equiv_pos_site_id
 _symmetry_equiv_pos_as_xyz
  1  'x, y, z'
loop_
 _atom_site_type_symbol
 _atom_site_label
 _atom_site_symmetry_multiplicity
 _atom_site_fract_x
 _atom_site_fract_y
 _atom_site_fract_z
 _atom_site_occupancy
  Hf  Hf0  1  0.911333  0.905934  0.905956  1
  Hf  Hf1  1  0.499872  0.994109  0.090757  1
  Hf  Hf2  1  0.994318  0.101291  0.498146  1
  Hf  Hf3  1  0.089951  0.500739  0.992373  1
  Hf  Hf4  1  0.000248  0.605321  0.504878  1
  Np  Np5  1  0.596146  0.505859  0.007529  1
  Np  Np6  1  0.501050  0.993907  0.590472  1
  Np  Np7  1  0.405877  0.409294  0.407217  1
  H  H8  1  0.659435  0.960833  0.369622  1
  H  H9  1  0.207642  0.308150  0.834823  1
  H  H10  1  0.170520  0.406907  0.530724  1
  H  H11  1  0.077288  0.269963  0.103764  1
  H  H12  1  0.271764  0.105407  0.075774  1
  H  H13  1  0.105885  0.080441  0.271726  1
  H  H14  1  0.469282  0.143359  0.892172  1
  H  H15  1  0.743784  0.354328  0.820388  1
  H  H16  1  0.635483  0.377036  0.257672  1
  H  H17  1  0.236346  0.620585  0.370800  1
  H  H18  1  0.756015  0.879116  0.128112  1
  H  H19  1  0.123913  0.747972  0.871124  1
  H  H20  1  0.362637  0.243931  0.624865  1
  H  H21  1  0.875129  0.122050  0.746995  1
  H  H22  1  0.788994  0.592951  0.628325  1
  H  H23  1  0.304582  0.837634  0.207838  1
  H  H24  1  0.368528  0.656338  0.957969  1
  H  H25  1  0.963233  0.380470  0.654066  1
  H  H26  1  0.536094  0.176684  0.394038  1
  H  H27  1  0.392118  0.540497  0.179278  1
  H  H28  1  0.838106  0.220001  0.311072  1
  H  H29  1  0.927800  0.696132  0.034050  1
  H  H30  1  0.825249  0.737376  0.364210  1
  H  H31  1  0.144910  0.878197  0.474287  1
  H  H32  1  0.695275  0.028272  0.924476  1
  H  H33  1  0.335201  0.803393  0.728710  1
  H  H34  1  0.895284  0.476755  0.167482  1
  H  H35  1  0.648502  0.782241  0.601012  1
  H  H36  1  0.608498  0.640860  0.784647  1
  H  H37  1  0.033706  0.915666  0.692651  1
