# generated using pymatgen
data_Pr3Ho2P12Ru19
_symmetry_space_group_name_H-M   'P 1'
_cell_length_a   12.60742400
_cell_length_b   12.60742397
_cell_length_c   4.01175000
_cell_angle_alpha   90.00000000
_cell_angle_beta   90.00000000
_cell_angle_gamma   119.99999484
_symmetry_Int_Tables_number   1
_chemical_formula_structural   Pr3Ho2P12Ru19
_chemical_formula_sum   'Pr3 Ho2 P12 Ru19'
_cell_volume   552.22648547
_cell_formula_units_Z   1
loop_
 _symmetry_equiv_pos_site_id
 _symmetry_equiv_pos_as_xyz
  1  'x, y, z'
loop_
 _atom_site_type_symbol
 _atom_site_label
 _atom_site_symmetry_multiplicity
 _atom_site_fract_x
 _atom_site_fract_y
 _atom_site_fract_z
 _atom_site_occupancy
  Pr  Pr0  1  0.000000  0.184010  0.500000  1
  Pr  Pr1  1  0.815990  0.815990  0.500000  1
  Pr  Pr2  1  0.184010  0.000000  0.500000  1
  Ho  Ho3  1  0.666667  0.333333  0.000000  1
  Ho  Ho4  1  0.333333  0.666667  0.000000  1
  P  P5  1  0.000000  0.811324  0.000000  1
  P  P6  1  0.188676  0.188676  0.000000  1
  P  P7  1  0.811324  0.000000  0.000000  1
  P  P8  1  0.694956  0.173752  0.500000  1
  P  P9  1  0.826248  0.521204  0.500000  1
  P  P10  1  0.478796  0.305044  0.500000  1
  P  P11  1  0.173752  0.694956  0.500000  1
  P  P12  1  0.521204  0.826248  0.500000  1
  P  P13  1  0.305044  0.478796  0.500000  1
  P  P14  1  0.000000  0.374304  0.000000  1
  P  P15  1  0.625696  0.625696  0.000000  1
  P  P16  1  0.374304  0.000000  0.000000  1
  Ru  Ru17  1  0.000000  0.553806  0.000000  1
  Ru  Ru18  1  0.446194  0.446194  0.000000  1
  Ru  Ru19  1  0.553806  0.000000  0.000000  1
  Ru  Ru20  1  0.000000  0.712811  0.500000  1
  Ru  Ru21  1  0.287189  0.287189  0.500000  1
  Ru  Ru22  1  0.712811  0.000000  0.500000  1
  Ru  Ru23  1  0.804034  0.185398  0.000000  1
  Ru  Ru24  1  0.814602  0.618636  0.000000  1
  Ru  Ru25  1  0.381364  0.195966  0.000000  1
  Ru  Ru26  1  0.185398  0.804034  0.000000  1
  Ru  Ru27  1  0.618636  0.814602  0.000000  1
  Ru  Ru28  1  0.195966  0.381364  0.000000  1
  Ru  Ru29  1  0.874051  0.367644  0.500000  1
  Ru  Ru30  1  0.632356  0.506407  0.500000  1
  Ru  Ru31  1  0.493593  0.125949  0.500000  1
  Ru  Ru32  1  0.367644  0.874051  0.500000  1
  Ru  Ru33  1  0.506407  0.632356  0.500000  1
  Ru  Ru34  1  0.125949  0.493593  0.500000  1
  Ru  Ru35  1  0.000000  0.000000  0.000000  1
