# generated using pymatgen
data_La7Nd9MgCd3Os4
_symmetry_space_group_name_H-M   'P 1'
_cell_length_a   10.00290033
_cell_length_b   10.02768508
_cell_length_c   10.06025257
_cell_angle_alpha   59.71476500
_cell_angle_beta   60.07207074
_cell_angle_gamma   60.31297019
_symmetry_Int_Tables_number   1
_chemical_formula_structural   La7Nd9MgCd3Os4
_chemical_formula_sum   'La7 Nd9 Mg1 Cd3 Os4'
_cell_volume   714.04237207
_cell_formula_units_Z   1
loop_
 _symmetry_equiv_pos_site_id
 _symmetry_equiv_pos_as_xyz
  1  'x, y, z'
loop_
 _atom_site_type_symbol
 _atom_site_label
 _atom_site_symmetry_multiplicity
 _atom_site_fract_x
 _atom_site_fract_y
 _atom_site_fract_z
 _atom_site_occupancy
  La  La0  1  0.345037  0.345188  0.347677  1
  La  La1  1  0.345166  0.341224  0.967154  1
  La  La2  1  0.347279  0.964035  0.342569  1
  La  La3  1  0.966497  0.345318  0.344878  1
  La  La4  1  0.810423  0.190428  0.188409  1
  La  La5  1  0.188002  0.813939  0.811465  1
  La  La6  1  0.189652  0.810674  0.189167  1
  Nd  Nd7  1  0.810399  0.191493  0.811100  1
  Nd  Nd8  1  0.190887  0.193159  0.806754  1
  Nd  Nd9  1  0.808143  0.811299  0.190909  1
  Nd  Nd10  1  0.932216  0.565658  0.565951  1
  Nd  Nd11  1  0.563977  0.937871  0.935863  1
  Nd  Nd12  1  0.562123  0.937154  0.562948  1
  Nd  Nd13  1  0.938984  0.562222  0.939072  1
  Nd  Nd14  1  0.561282  0.561380  0.938150  1
  Nd  Nd15  1  0.940103  0.941963  0.560514  1
  Mg  Mg16  1  0.576618  0.572939  0.573948  1
  Cd  Cd17  1  0.582200  0.581162  0.257965  1
  Cd  Cd18  1  0.580308  0.257770  0.582726  1
  Cd  Cd19  1  0.258220  0.578436  0.582174  1
  Os  Os20  1  0.135102  0.135356  0.142580  1
  Os  Os21  1  0.140092  0.130299  0.585425  1
  Os  Os22  1  0.142130  0.588947  0.132080  1
  Os  Os23  1  0.585156  0.142085  0.140519  1
