# generated using pymatgen
data_SmEr15(C2Br3)4
_symmetry_space_group_name_H-M   'P 1'
_cell_length_a   3.66397100
_cell_length_b   10.64358015
_cell_length_c   20.42343251
_cell_angle_alpha   90.20508672
_cell_angle_beta   90.00000000
_cell_angle_gamma   90.00000000
_symmetry_Int_Tables_number   1
_chemical_formula_structural   SmEr15(C2Br3)4
_chemical_formula_sum   'Sm1 Er15 C8 Br12'
_cell_volume   796.46320103
_cell_formula_units_Z   1
loop_
 _symmetry_equiv_pos_site_id
 _symmetry_equiv_pos_as_xyz
  1  'x, y, z'
loop_
 _atom_site_type_symbol
 _atom_site_label
 _atom_site_symmetry_multiplicity
 _atom_site_fract_x
 _atom_site_fract_y
 _atom_site_fract_z
 _atom_site_occupancy
  Sm  Sm0  1  0.250000  0.867732  0.579240  1
  Er  Er1  1  0.750000  0.133133  0.417498  1
  Er  Er2  1  0.750000  0.631276  0.081882  1
  Er  Er3  1  0.250000  0.368974  0.918886  1
  Er  Er4  1  0.250000  0.868573  0.744863  1
  Er  Er5  1  0.750000  0.130557  0.255419  1
  Er  Er6  1  0.750000  0.631608  0.243440  1
  Er  Er7  1  0.250000  0.369370  0.756981  1
  Er  Er8  1  0.250000  0.864318  0.169519  1
  Er  Er9  1  0.750000  0.136034  0.830561  1
  Er  Er10  1  0.750000  0.634508  0.671209  1
  Er  Er11  1  0.250000  0.364788  0.328963  1
  Er  Er12  1  0.250000  0.898094  0.327068  1
  Er  Er13  1  0.750000  0.101778  0.673195  1
  Er  Er14  1  0.750000  0.602998  0.828738  1
  Er  Er15  1  0.250000  0.397750  0.171759  1
  C  C16  1  0.250000  0.616097  0.751895  1
  C  C17  1  0.750000  0.381463  0.248747  1
  C  C18  1  0.750000  0.882806  0.249857  1
  C  C19  1  0.250000  0.119181  0.750308  1
  C  C20  1  0.250000  0.629754  0.156510  1
  C  C21  1  0.750000  0.370192  0.844180  1
  C  C22  1  0.750000  0.869004  0.659953  1
  C  C23  1  0.250000  0.131087  0.342634  1
  Br  Br24  1  0.250000  0.605731  0.558384  1
  Br  Br25  1  0.750000  0.387336  0.442023  1
  Br  Br26  1  0.750000  0.884379  0.056750  1
  Br  Br27  1  0.250000  0.115626  0.943803  1
  Br  Br28  1  0.250000  0.629678  0.954062  1
  Br  Br29  1  0.750000  0.370358  0.046746  1
  Br  Br30  1  0.750000  0.871856  0.448469  1
  Br  Br31  1  0.250000  0.135400  0.545190  1
  Br  Br32  1  0.250000  0.633439  0.354937  1
  Br  Br33  1  0.750000  0.365236  0.645860  1
  Br  Br34  1  0.750000  0.867267  0.856879  1
  Br  Br35  1  0.250000  0.132617  0.143593  1
