# generated using pymatgen
data_NaSr2TcH6
_symmetry_space_group_name_H-M   'P 1'
_cell_length_a   5.57700600
_cell_length_b   5.57700446
_cell_length_c   5.57700600
_cell_angle_alpha   119.99999726
_cell_angle_beta   90.00000000
_cell_angle_gamma   119.99999726
_symmetry_Int_Tables_number   1
_chemical_formula_structural   NaSr2TcH6
_chemical_formula_sum   'Na1 Sr2 Tc1 H6'
_cell_volume   122.65584634
_cell_formula_units_Z   1
loop_
 _symmetry_equiv_pos_site_id
 _symmetry_equiv_pos_as_xyz
  1  'x, y, z'
loop_
 _atom_site_type_symbol
 _atom_site_label
 _atom_site_symmetry_multiplicity
 _atom_site_fract_x
 _atom_site_fract_y
 _atom_site_fract_z
 _atom_site_occupancy
  Na  Na0  1  0.500001  0.000000  0.500001  1
  Sr  Sr1  1  0.749998  0.499998  0.250000  1
  Sr  Sr2  1  0.249999  0.499998  0.750001  1
  Tc  Tc3  1  0.000000  0.000000  0.000000  1
  H  H4  1  0.227534  0.000000  0.227534  1
  H  H5  1  0.227534  0.455068  0.227534  1
  H  H6  1  0.772466  0.000000  0.227535  1
  H  H7  1  0.772466  0.544932  0.772466  1
  H  H8  1  0.227535  0.000000  0.772466  1
  H  H9  1  0.772467  0.000000  0.772467  1
