# generated using pymatgen
data_La7(NpSe4)5
_symmetry_space_group_name_H-M   'P 1'
_cell_length_a   7.93429376
_cell_length_b   8.53989658
_cell_length_c   12.50658747
_cell_angle_alpha   89.99183264
_cell_angle_beta   89.96859483
_cell_angle_gamma   90.19558149
_symmetry_Int_Tables_number   1
_chemical_formula_structural   La7(NpSe4)5
_chemical_formula_sum   'La7 Np5 Se20'
_cell_volume   847.41688323
_cell_formula_units_Z   1
loop_
 _symmetry_equiv_pos_site_id
 _symmetry_equiv_pos_as_xyz
  1  'x, y, z'
loop_
 _atom_site_type_symbol
 _atom_site_label
 _atom_site_symmetry_multiplicity
 _atom_site_fract_x
 _atom_site_fract_y
 _atom_site_fract_z
 _atom_site_occupancy
  La  La0  1  0.973115  0.499474  0.322831  1
  La  La1  1  0.529813  0.000438  0.823685  1
  La  La2  1  0.026502  0.999039  0.677422  1
  La  La3  1  0.472640  0.500356  0.176469  1
  La  La4  1  0.026246  0.500558  0.677224  1
  La  La5  1  0.471947  0.999626  0.175790  1
  La  La6  1  0.971968  0.000187  0.323069  1
  Np  Np7  1  0.519946  0.499587  0.822081  1
  Np  Np8  1  0.936838  0.749437  0.004072  1
  Np  Np9  1  0.562902  0.749181  0.505617  1
  Np  Np10  1  0.063518  0.251322  0.993533  1
  Np  Np11  1  0.437315  0.250077  0.496284  1
  Se  Se12  1  0.833066  0.038927  0.091596  1
  Se  Se13  1  0.661621  0.461569  0.598404  1
  Se  Se14  1  0.171938  0.541510  0.906805  1
  Se  Se15  1  0.334426  0.960502  0.407248  1
  Se  Se16  1  0.165631  0.961227  0.906189  1
  Se  Se17  1  0.334505  0.538561  0.407051  1
  Se  Se18  1  0.835992  0.460429  0.093135  1
  Se  Se19  1  0.665759  0.039408  0.593981  1
  Se  Se20  1  0.546884  0.744620  0.998169  1
  Se  Se21  1  0.953138  0.748841  0.501933  1
  Se  Se22  1  0.455851  0.255235  0.995321  1
  Se  Se23  1  0.046546  0.249140  0.499183  1
  Se  Se24  1  0.166421  0.750907  0.185907  1
  Se  Se25  1  0.337926  0.745765  0.689024  1
  Se  Se26  1  0.831603  0.254530  0.813958  1
  Se  Se27  1  0.666159  0.250184  0.313746  1
  Se  Se28  1  0.691421  0.750473  0.286364  1
  Se  Se29  1  0.805937  0.746034  0.787781  1
  Se  Se30  1  0.310498  0.253522  0.714584  1
  Se  Se31  1  0.191925  0.249337  0.211547  1
