# generated using pymatgen
data_Dy11Y5(In3Fe)2
_symmetry_space_group_name_H-M   'P 1'
_cell_length_a   10.36987901
_cell_length_b   10.36987834
_cell_length_c   7.05201959
_cell_angle_alpha   89.94036183
_cell_angle_beta   90.05963147
_cell_angle_gamma   119.98600345
_symmetry_Int_Tables_number   1
_chemical_formula_structural   Dy11Y5(In3Fe)2
_chemical_formula_sum   'Dy11 Y5 In6 Fe2'
_cell_volume   656.82914207
_cell_formula_units_Z   1
loop_
 _symmetry_equiv_pos_site_id
 _symmetry_equiv_pos_as_xyz
  1  'x, y, z'
loop_
 _atom_site_type_symbol
 _atom_site_label
 _atom_site_symmetry_multiplicity
 _atom_site_fract_x
 _atom_site_fract_y
 _atom_site_fract_z
 _atom_site_occupancy
  Dy  Dy0  1  0.464082  0.535918  0.013209  1
  Dy  Dy1  1  0.178233  0.355867  0.719835  1
  Dy  Dy2  1  0.644133  0.821767  0.719835  1
  Dy  Dy3  1  0.178188  0.821812  0.719406  1
  Dy  Dy4  1  0.821623  0.643950  0.219127  1
  Dy  Dy5  1  0.356050  0.178377  0.219127  1
  Dy  Dy6  1  0.821993  0.178007  0.219363  1
  Dy  Dy7  1  0.666516  0.333484  0.903501  1
  Dy  Dy8  1  0.333431  0.666569  0.402981  1
  Dy  Dy9  1  0.000004  0.999996  0.501697  1
  Dy  Dy10  1  0.000035  0.999965  0.001648  1
  Y  Y11  1  0.535405  0.070960  0.513520  1
  Y  Y12  1  0.929040  0.464595  0.513520  1
  Y  Y13  1  0.535254  0.464746  0.513466  1
  Y  Y14  1  0.464502  0.929156  0.013575  1
  Y  Y15  1  0.070844  0.535498  0.013575  1
  In  In16  1  0.837016  0.673543  0.761257  1
  In  In17  1  0.326457  0.162984  0.761257  1
  In  In18  1  0.836667  0.163333  0.761145  1
  In  In19  1  0.163285  0.326617  0.261140  1
  In  In20  1  0.673383  0.836715  0.261140  1
  In  In21  1  0.163235  0.836765  0.261467  1
  Fe  Fe22  1  0.666548  0.333452  0.284119  1
  Fe  Fe23  1  0.334079  0.665921  0.785293  1
