# generated using pymatgen
data_Th6Al24Ru5Rh3
_symmetry_space_group_name_H-M   'P 1'
_cell_length_a   8.97827600
_cell_length_b   8.97829116
_cell_length_c   9.56463710
_cell_angle_alpha   89.89730351
_cell_angle_beta   90.00000000
_cell_angle_gamma   119.99993679
_symmetry_Int_Tables_number   1
_chemical_formula_structural   Th6Al24Ru5Rh3
_chemical_formula_sum   'Th6 Al24 Ru5 Rh3'
_cell_volume   667.70574351
_cell_formula_units_Z   1
loop_
 _symmetry_equiv_pos_site_id
 _symmetry_equiv_pos_as_xyz
  1  'x, y, z'
loop_
 _atom_site_type_symbol
 _atom_site_label
 _atom_site_symmetry_multiplicity
 _atom_site_fract_x
 _atom_site_fract_y
 _atom_site_fract_z
 _atom_site_occupancy
  Th  Th0  1  0.806246  0.612493  0.748866  1
  Th  Th1  1  0.193717  0.806147  0.250934  1
  Th  Th2  1  0.612430  0.806147  0.250934  1
  Th  Th3  1  0.387570  0.193853  0.749066  1
  Th  Th4  1  0.806283  0.193853  0.749066  1
  Th  Th5  1  0.193754  0.387507  0.251134  1
  Al  Al6  1  0.332555  0.665110  0.487805  1
  Al  Al7  1  0.665907  0.331813  0.986686  1
  Al  Al8  1  0.667445  0.334890  0.512195  1
  Al  Al9  1  0.334093  0.668187  0.013314  1
  Al  Al10  1  0.162416  0.324832  0.578185  1
  Al  Al11  1  0.675448  0.836381  0.577733  1
  Al  Al12  1  0.160933  0.836381  0.577733  1
  Al  Al13  1  0.836315  0.160773  0.078142  1
  Al  Al14  1  0.839067  0.163619  0.422267  1
  Al  Al15  1  0.837974  0.675947  0.078037  1
  Al  Al16  1  0.324460  0.160773  0.078142  1
  Al  Al17  1  0.675540  0.839227  0.921858  1
  Al  Al18  1  0.162026  0.324053  0.921963  1
  Al  Al19  1  0.837584  0.675168  0.421815  1
  Al  Al20  1  0.999903  0.999806  0.250096  1
  Al  Al21  1  0.000097  0.000194  0.749904  1
  Al  Al22  1  0.563533  0.127066  0.248789  1
  Al  Al23  1  0.436345  0.563532  0.749321  1
  Al  Al24  1  0.127187  0.563532  0.749321  1
  Al  Al25  1  0.872813  0.436468  0.250679  1
  Al  Al26  1  0.563655  0.436468  0.250679  1
  Al  Al27  1  0.436467  0.872934  0.751211  1
  Al  Al28  1  0.163685  0.839227  0.921858  1
  Al  Al29  1  0.324552  0.163619  0.422267  1
  Ru  Ru30  1  0.000000  0.000000  0.500000  1
  Ru  Ru31  1  0.000000  0.000000  0.000000  1
  Ru  Ru32  1  0.000000  0.500000  0.500000  1
  Ru  Ru33  1  0.500000  0.500000  0.500000  1
  Ru  Ru34  1  0.500000  0.000000  0.000000  1
  Rh  Rh35  1  0.500000  0.000000  0.500000  1
  Rh  Rh36  1  0.500000  0.500000  0.000000  1
  Rh  Rh37  1  0.000000  0.500000  0.000000  1
