# generated using pymatgen
data_NdU5S12
_symmetry_space_group_name_H-M   'P 1'
_cell_length_a   7.93602708
_cell_length_b   7.95146261
_cell_length_c   7.97425007
_cell_angle_alpha   80.41136586
_cell_angle_beta   80.45440270
_cell_angle_gamma   120.01426912
_symmetry_Int_Tables_number   1
_chemical_formula_structural   NdU5S12
_chemical_formula_sum   'Nd1 U5 S12'
_cell_volume   410.93304166
_cell_formula_units_Z   1
loop_
 _symmetry_equiv_pos_site_id
 _symmetry_equiv_pos_as_xyz
  1  'x, y, z'
loop_
 _atom_site_type_symbol
 _atom_site_label
 _atom_site_symmetry_multiplicity
 _atom_site_fract_x
 _atom_site_fract_y
 _atom_site_fract_z
 _atom_site_occupancy
  Nd  Nd0  1  0.500000  0.500000  0.500000  1
  U  U1  1  0.833259  0.167185  0.500116  1
  U  U2  1  0.166741  0.832815  0.499884  1
  U  U3  1  0.667256  0.333155  0.999866  1
  U  U4  1  0.000000  0.000000  0.000000  1
  U  U5  1  0.332744  0.666845  0.000134  1
  S  S6  1  0.112787  0.112654  0.631694  1
  S  S7  1  0.707407  0.042144  0.877720  1
  S  S8  1  0.958073  0.293371  0.122443  1
  S  S9  1  0.369239  0.369469  0.887411  1
  S  S10  1  0.041927  0.706629  0.877557  1
  S  S11  1  0.543558  0.200916  0.367904  1
  S  S12  1  0.887213  0.887346  0.368306  1
  S  S13  1  0.456442  0.799084  0.632096  1
  S  S14  1  0.630761  0.630531  0.112589  1
  S  S15  1  0.292593  0.957856  0.122280  1
  S  S16  1  0.799197  0.456588  0.632092  1
  S  S17  1  0.200803  0.543412  0.367908  1
