# generated using pymatgen
data_Ho4MnB4Ir9
_symmetry_space_group_name_H-M   'P 1'
_cell_length_a   10.80044181
_cell_length_b   10.80044198
_cell_length_c   10.80044318
_cell_angle_alpha   29.53201581
_cell_angle_beta   29.53201556
_cell_angle_gamma   29.53202191
_symmetry_Int_Tables_number   1
_chemical_formula_structural   Ho4MnB4Ir9
_chemical_formula_sum   'Ho4 Mn1 B4 Ir9'
_cell_volume   270.94888595
_cell_formula_units_Z   1
loop_
 _symmetry_equiv_pos_site_id
 _symmetry_equiv_pos_as_xyz
  1  'x, y, z'
loop_
 _atom_site_type_symbol
 _atom_site_label
 _atom_site_symmetry_multiplicity
 _atom_site_fract_x
 _atom_site_fract_y
 _atom_site_fract_z
 _atom_site_occupancy
  Ho  Ho0  1  0.151307  0.151307  0.151307  1
  Ho  Ho1  1  0.949924  0.949924  0.949924  1
  Ho  Ho2  1  0.848693  0.848693  0.848693  1
  Ho  Ho3  1  0.050076  0.050076  0.050076  1
  Mn  Mn4  1  0.500000  0.500000  0.500000  1
  B  B5  1  0.616053  0.616053  0.616053  1
  B  B6  1  0.717360  0.717360  0.717360  1
  B  B7  1  0.383947  0.383947  0.383947  1
  B  B8  1  0.282640  0.282640  0.282640  1
  Ir  Ir9  1  0.402825  0.900485  0.402825  1
  Ir  Ir10  1  0.900485  0.402825  0.402825  1
  Ir  Ir11  1  0.500000  0.500000  0.000000  1
  Ir  Ir12  1  0.500000  0.000000  0.500000  1
  Ir  Ir13  1  0.000000  0.500000  0.500000  1
  Ir  Ir14  1  0.597175  0.099515  0.597175  1
  Ir  Ir15  1  0.597175  0.597175  0.099515  1
  Ir  Ir16  1  0.099515  0.597175  0.597175  1
  Ir  Ir17  1  0.402825  0.402825  0.900485  1
