# generated using pymatgen
data_Y2Pa3O10
_symmetry_space_group_name_H-M   'P 1'
_cell_length_a   6.65100403
_cell_length_b   6.65100332
_cell_length_c   8.55303612
_cell_angle_alpha   49.72813645
_cell_angle_beta   49.72814071
_cell_angle_gamma   48.07595815
_symmetry_Int_Tables_number   1
_chemical_formula_structural   Y2Pa3O10
_chemical_formula_sum   'Y2 Pa3 O10'
_cell_volume   198.85906107
_cell_formula_units_Z   1
loop_
 _symmetry_equiv_pos_site_id
 _symmetry_equiv_pos_as_xyz
  1  'x, y, z'
loop_
 _atom_site_type_symbol
 _atom_site_label
 _atom_site_symmetry_multiplicity
 _atom_site_fract_x
 _atom_site_fract_y
 _atom_site_fract_z
 _atom_site_occupancy
  Y  Y0  1  0.301494  0.301494  0.096443  1
  Y  Y1  1  0.698506  0.698506  0.903557  1
  Pa  Pa2  1  0.096271  0.096271  0.704238  1
  Pa  Pa3  1  0.500000  0.500000  0.500000  1
  Pa  Pa4  1  0.903729  0.903729  0.295762  1
  O  O5  1  0.656493  0.156220  0.789236  1
  O  O6  1  0.156220  0.656493  0.789236  1
  O  O7  1  0.454775  0.945883  0.403758  1
  O  O8  1  0.945883  0.454775  0.403758  1
  O  O9  1  0.843780  0.343507  0.210764  1
  O  O10  1  0.240744  0.759256  0.000000  1
  O  O11  1  0.343507  0.843780  0.210764  1
  O  O12  1  0.759256  0.240744  0.000000  1
  O  O13  1  0.054117  0.545225  0.596242  1
  O  O14  1  0.545225  0.054117  0.596242  1
