# generated using pymatgen
data_Gd3Dy2ThH18
_symmetry_space_group_name_H-M   'P 1'
_cell_length_a   6.48075900
_cell_length_b   6.48005248
_cell_length_c   6.69297177
_cell_angle_alpha   90.14482391
_cell_angle_beta   90.00000000
_cell_angle_gamma   120.00360165
_symmetry_Int_Tables_number   1
_chemical_formula_structural   Gd3Dy2ThH18
_chemical_formula_sum   'Gd3 Dy2 Th1 H18'
_cell_volume   243.40887351
_cell_formula_units_Z   1
loop_
 _symmetry_equiv_pos_site_id
 _symmetry_equiv_pos_as_xyz
  1  'x, y, z'
loop_
 _atom_site_type_symbol
 _atom_site_label
 _atom_site_symmetry_multiplicity
 _atom_site_fract_x
 _atom_site_fract_y
 _atom_site_fract_z
 _atom_site_occupancy
  Gd  Gd0  1  0.669585  0.000000  0.750000  1
  Gd  Gd1  1  0.995704  0.661339  0.750243  1
  Gd  Gd2  1  0.334366  0.338661  0.749757  1
  Dy  Dy3  1  0.999775  0.333981  0.250024  1
  Dy  Dy4  1  0.665795  0.666019  0.249976  1
  Th  Th5  1  0.333149  0.000000  0.250000  1
  H  H6  1  0.990133  0.000000  0.250000  1
  H  H7  1  0.003598  0.000000  0.750000  1
  H  H8  1  0.333068  0.657534  0.209558  1
  H  H9  1  0.675534  0.342466  0.290442  1
  H  H10  1  0.663128  0.330001  0.799733  1
  H  H11  1  0.333124  0.669999  0.700267  1
  H  H12  1  0.342880  0.327706  0.093193  1
  H  H13  1  0.673104  0.018258  0.096149  1
  H  H14  1  0.989584  0.665135  0.098749  1
  H  H15  1  0.015175  0.672294  0.406807  1
  H  H16  1  0.654846  0.981742  0.403851  1
  H  H17  1  0.324450  0.334865  0.401251  1
  H  H18  1  0.656838  0.674986  0.911354  1
  H  H19  1  0.324850  0.976973  0.904965  1
  H  H20  1  0.017899  0.344211  0.911378  1
  H  H21  1  0.981852  0.325014  0.588646  1
  H  H22  1  0.347877  0.023027  0.595035  1
  H  H23  1  0.673688  0.655789  0.588622  1
