# generated using pymatgen
data_TbYb2Al9Si3Os4
_symmetry_space_group_name_H-M   'P 1'
_cell_length_a   8.69781648
_cell_length_b   8.67231901
_cell_length_c   9.64157700
_cell_angle_alpha   90.00000000
_cell_angle_beta   90.00000000
_cell_angle_gamma   120.16408656
_symmetry_Int_Tables_number   1
_chemical_formula_structural   TbYb2Al9Si3Os4
_chemical_formula_sum   'Tb2 Yb4 Al18 Si6 Os8'
_cell_volume   628.78725642
_cell_formula_units_Z   2
loop_
 _symmetry_equiv_pos_site_id
 _symmetry_equiv_pos_as_xyz
  1  'x, y, z'
loop_
 _atom_site_type_symbol
 _atom_site_label
 _atom_site_symmetry_multiplicity
 _atom_site_fract_x
 _atom_site_fract_y
 _atom_site_fract_z
 _atom_site_occupancy
  Tb  Tb0  1  0.197913  0.809052  0.250000  1
  Tb  Tb1  1  0.802087  0.190948  0.750000  1
  Yb  Yb2  1  0.194353  0.387700  0.250000  1
  Yb  Yb3  1  0.805647  0.612300  0.750000  1
  Yb  Yb4  1  0.608689  0.806633  0.250000  1
  Yb  Yb5  1  0.391311  0.193367  0.750000  1
  Al  Al6  1  0.165952  0.331618  0.576537  1
  Al  Al7  1  0.834048  0.668382  0.423463  1
  Al  Al8  1  0.668645  0.833454  0.575238  1
  Al  Al9  1  0.834048  0.668382  0.076537  1
  Al  Al10  1  0.331355  0.166546  0.424762  1
  Al  Al11  1  0.165952  0.331618  0.923463  1
  Al  Al12  1  0.165355  0.833894  0.576139  1
  Al  Al13  1  0.331355  0.166546  0.075238  1
  Al  Al14  1  0.834645  0.166106  0.423861  1
  Al  Al15  1  0.668645  0.833454  0.924762  1
  Al  Al16  1  0.834645  0.166106  0.076139  1
  Al  Al17  1  0.165355  0.833894  0.923861  1
  Al  Al18  1  0.871863  0.431572  0.250000  1
  Al  Al19  1  0.128137  0.568428  0.750000  1
  Al  Al20  1  0.559281  0.432601  0.250000  1
  Al  Al21  1  0.440719  0.567399  0.750000  1
  Al  Al22  1  0.998786  0.999078  0.250000  1
  Al  Al23  1  0.001214  0.000922  0.750000  1
  Si  Si24  1  0.331968  0.663847  0.036815  1
  Si  Si25  1  0.668032  0.336153  0.963185  1
  Si  Si26  1  0.668032  0.336153  0.536815  1
  Si  Si27  1  0.331968  0.663847  0.463185  1
  Si  Si28  1  0.564446  0.127804  0.250000  1
  Si  Si29  1  0.435554  0.872196  0.750000  1
  Os  Os30  1  0.500000  0.000000  0.000000  1
  Os  Os31  1  0.000000  0.500000  0.000000  1
  Os  Os32  1  0.500000  0.000000  0.500000  1
  Os  Os33  1  0.500000  0.500000  0.000000  1
  Os  Os34  1  0.000000  0.500000  0.500000  1
  Os  Os35  1  0.500000  0.500000  0.500000  1
  Os  Os36  1  0.000000  0.000000  0.000000  1
  Os  Os37  1  0.000000  0.000000  0.500000  1
