# generated using pymatgen
data_Er5SiSe4
_symmetry_space_group_name_H-M   'P 1'
_cell_length_a   7.02875865
_cell_length_b   7.02875919
_cell_length_c   7.02875965
_cell_angle_alpha   99.55633840
_cell_angle_beta   99.55633954
_cell_angle_gamma   131.91022313
_symmetry_Int_Tables_number   1
_chemical_formula_structural   Er5SiSe4
_chemical_formula_sum   'Er5 Si1 Se4'
_cell_volume   235.99331998
_cell_formula_units_Z   1
loop_
 _symmetry_equiv_pos_site_id
 _symmetry_equiv_pos_as_xyz
  1  'x, y, z'
loop_
 _atom_site_type_symbol
 _atom_site_label
 _atom_site_symmetry_multiplicity
 _atom_site_fract_x
 _atom_site_fract_y
 _atom_site_fract_z
 _atom_site_occupancy
  Er  Er0  1  0.404522  0.789111  0.193633  1
  Er  Er1  1  0.000000  0.000000  0.000000  1
  Er  Er2  1  0.595478  0.210889  0.806367  1
  Er  Er3  1  0.210889  0.404522  0.615412  1
  Er  Er4  1  0.789111  0.595478  0.384588  1
  Si  Si5  1  0.500000  0.500000  0.000000  1
  Se  Se6  1  0.097459  0.698159  0.795617  1
  Se  Se7  1  0.698159  0.902541  0.600700  1
  Se  Se8  1  0.301841  0.097459  0.399300  1
  Se  Se9  1  0.902541  0.301841  0.204383  1
