# generated using pymatgen
data_Tm4Mn(Ga4Tc)5
_symmetry_space_group_name_H-M   'P 1'
_cell_length_a   9.05372000
_cell_length_b   9.05372000
_cell_length_c   6.27850200
_cell_angle_alpha   90.00000000
_cell_angle_beta   90.00000000
_cell_angle_gamma   90.00000000
_symmetry_Int_Tables_number   1
_chemical_formula_structural   Tm4Mn(Ga4Tc)5
_chemical_formula_sum   'Tm4 Mn1 Ga20 Tc5'
_cell_volume   514.64784104
_cell_formula_units_Z   1
loop_
 _symmetry_equiv_pos_site_id
 _symmetry_equiv_pos_as_xyz
  1  'x, y, z'
loop_
 _atom_site_type_symbol
 _atom_site_label
 _atom_site_symmetry_multiplicity
 _atom_site_fract_x
 _atom_site_fract_y
 _atom_site_fract_z
 _atom_site_occupancy
  Tm  Tm0  1  0.185419  0.319914  0.000000  1
  Tm  Tm1  1  0.680086  0.185419  0.000000  1
  Tm  Tm2  1  0.814581  0.680086  0.000000  1
  Tm  Tm3  1  0.319914  0.814581  0.000000  1
  Mn  Mn4  1  0.000000  0.000000  0.000000  1
  Ga  Ga5  1  0.500000  0.000000  0.285928  1
  Ga  Ga6  1  0.500000  0.000000  0.714072  1
  Ga  Ga7  1  0.294525  0.559564  0.707547  1
  Ga  Ga8  1  0.000000  0.500000  0.285928  1
  Ga  Ga9  1  0.000000  0.500000  0.714072  1
  Ga  Ga10  1  0.060318  0.793510  0.709965  1
  Ga  Ga11  1  0.206490  0.060318  0.290035  1
  Ga  Ga12  1  0.060318  0.793510  0.290035  1
  Ga  Ga13  1  0.705475  0.440436  0.707547  1
  Ga  Ga14  1  0.206490  0.060318  0.709965  1
  Ga  Ga15  1  0.939682  0.206490  0.709965  1
  Ga  Ga16  1  0.705475  0.440436  0.292453  1
  Ga  Ga17  1  0.559564  0.705475  0.292453  1
  Ga  Ga18  1  0.939682  0.206490  0.290035  1
  Ga  Ga19  1  0.559564  0.705475  0.707547  1
  Ga  Ga20  1  0.793510  0.939682  0.290035  1
  Ga  Ga21  1  0.440436  0.294525  0.707547  1
  Ga  Ga22  1  0.793510  0.939682  0.709965  1
  Ga  Ga23  1  0.440436  0.294525  0.292453  1
  Ga  Ga24  1  0.294525  0.559564  0.292453  1
  Tc  Tc25  1  0.177847  0.320044  0.500000  1
  Tc  Tc26  1  0.320044  0.822153  0.500000  1
  Tc  Tc27  1  0.822153  0.679956  0.500000  1
  Tc  Tc28  1  0.679956  0.177847  0.500000  1
  Tc  Tc29  1  0.500000  0.500000  0.000000  1
