# generated using pymatgen
data_La4Pr12Cd4CoPt3
_symmetry_space_group_name_H-M   'P 1'
_cell_length_a   10.07509999
_cell_length_b   10.07510036
_cell_length_c   10.07509860
_cell_angle_alpha   60.12617461
_cell_angle_beta   60.12617424
_cell_angle_gamma   60.12617275
_symmetry_Int_Tables_number   1
_chemical_formula_structural   La4Pr12Cd4CoPt3
_chemical_formula_sum   'La4 Pr12 Cd4 Co1 Pt3'
_cell_volume   725.22483258
_cell_formula_units_Z   1
loop_
 _symmetry_equiv_pos_site_id
 _symmetry_equiv_pos_as_xyz
  1  'x, y, z'
loop_
 _atom_site_type_symbol
 _atom_site_label
 _atom_site_symmetry_multiplicity
 _atom_site_fract_x
 _atom_site_fract_y
 _atom_site_fract_z
 _atom_site_occupancy
  La  La0  1  0.350279  0.350279  0.350279  1
  La  La1  1  0.344396  0.344396  0.954504  1
  La  La2  1  0.344396  0.954504  0.344396  1
  La  La3  1  0.954504  0.344396  0.344396  1
  Pr  Pr4  1  0.819786  0.189130  0.189130  1
  Pr  Pr5  1  0.190941  0.808784  0.808784  1
  Pr  Pr6  1  0.189130  0.819786  0.189130  1
  Pr  Pr7  1  0.808784  0.190941  0.808784  1
  Pr  Pr8  1  0.189130  0.189130  0.819786  1
  Pr  Pr9  1  0.808784  0.808784  0.190941  1
  Pr  Pr10  1  0.937710  0.562793  0.562793  1
  Pr  Pr11  1  0.563031  0.935080  0.935080  1
  Pr  Pr12  1  0.562793  0.937710  0.562793  1
  Pr  Pr13  1  0.935080  0.563031  0.935080  1
  Pr  Pr14  1  0.562793  0.562793  0.937710  1
  Pr  Pr15  1  0.935080  0.935080  0.563031  1
  Cd  Cd16  1  0.579743  0.579743  0.579743  1
  Cd  Cd17  1  0.580812  0.580812  0.259093  1
  Cd  Cd18  1  0.580812  0.259093  0.580812  1
  Cd  Cd19  1  0.259093  0.580812  0.580812  1
  Co  Co20  1  0.143108  0.143108  0.143108  1
  Pt  Pt21  1  0.143967  0.143967  0.571879  1
  Pt  Pt22  1  0.143967  0.571879  0.143967  1
  Pt  Pt23  1  0.571879  0.143967  0.143967  1
