# generated using pymatgen
data_Ce4Tl2CuIr3
_symmetry_space_group_name_H-M   'P 1'
_cell_length_a   7.83932900
_cell_length_b   7.83932823
_cell_length_c   3.71538200
_cell_angle_alpha   90.00000000
_cell_angle_beta   90.00000000
_cell_angle_gamma   89.68532701
_symmetry_Int_Tables_number   1
_chemical_formula_structural   Ce4Tl2CuIr3
_chemical_formula_sum   'Ce4 Tl2 Cu1 Ir3'
_cell_volume   228.32562895
_cell_formula_units_Z   1
loop_
 _symmetry_equiv_pos_site_id
 _symmetry_equiv_pos_as_xyz
  1  'x, y, z'
loop_
 _atom_site_type_symbol
 _atom_site_label
 _atom_site_symmetry_multiplicity
 _atom_site_fract_x
 _atom_site_fract_y
 _atom_site_fract_z
 _atom_site_occupancy
  Ce  Ce0  1  0.313193  0.165282  0.500001  1
  Ce  Ce1  1  0.841547  0.341547  0.500001  1
  Ce  Ce2  1  0.174944  0.674945  0.500001  1
  Ce  Ce3  1  0.665283  0.813193  0.500001  1
  Tl  Tl4  1  0.987695  0.000224  0.000000  1
  Tl  Tl5  1  0.500223  0.487694  0.000000  1
  Cu  Cu6  1  0.627383  0.127382  0.000000  1
  Ir  Ir7  1  0.133430  0.369788  0.000000  1
  Ir  Ir8  1  0.869789  0.633431  0.000000  1
  Ir  Ir9  1  0.386513  0.886514  0.000000  1
