# generated using pymatgen
data_CeZn9Au2
_symmetry_space_group_name_H-M   'P 1'
_cell_length_a   8.41207604
_cell_length_b   8.41207590
_cell_length_c   8.41207644
_cell_angle_alpha   99.87813048
_cell_angle_beta   99.87812872
_cell_angle_gamma   131.06341239
_symmetry_Int_Tables_number   1
_chemical_formula_structural   CeZn9Au2
_chemical_formula_sum   'Ce2 Zn18 Au4'
_cell_volume   408.51075456
_cell_formula_units_Z   2
loop_
 _symmetry_equiv_pos_site_id
 _symmetry_equiv_pos_as_xyz
  1  'x, y, z'
loop_
 _atom_site_type_symbol
 _atom_site_label
 _atom_site_symmetry_multiplicity
 _atom_site_fract_x
 _atom_site_fract_y
 _atom_site_fract_z
 _atom_site_occupancy
  Ce  Ce0  1  0.000000  0.000000  0.000000  1
  Ce  Ce1  1  0.250000  0.750000  0.500000  1
  Zn  Zn2  1  0.754535  0.168452  0.827854  1
  Zn  Zn3  1  0.073319  0.245465  0.413917  1
  Zn  Zn4  1  0.340598  0.168452  0.413917  1
  Zn  Zn5  1  0.073319  0.659402  0.827854  1
  Zn  Zn6  1  0.909402  0.581548  0.086083  1
  Zn  Zn7  1  0.340598  0.926681  0.172146  1
  Zn  Zn8  1  0.750000  0.250000  0.500000  1
  Zn  Zn9  1  0.909402  0.823319  0.327854  1
  Zn  Zn10  1  0.500000  0.500000  0.000000  1
  Zn  Zn11  1  0.418452  0.090598  0.913917  1
  Zn  Zn12  1  0.495465  0.581548  0.672146  1
  Zn  Zn13  1  0.176681  0.090598  0.672146  1
  Zn  Zn14  1  0.754535  0.926681  0.586083  1
  Zn  Zn15  1  0.831548  0.659402  0.586083  1
  Zn  Zn16  1  0.418452  0.504535  0.327854  1
  Zn  Zn17  1  0.495465  0.823319  0.913917  1
  Zn  Zn18  1  0.176681  0.504535  0.086083  1
  Zn  Zn19  1  0.831548  0.245465  0.172146  1
  Au  Au20  1  0.625000  0.875000  0.250000  1
  Au  Au21  1  0.625000  0.375000  0.250000  1
  Au  Au22  1  0.125000  0.375000  0.750000  1
  Au  Au23  1  0.625000  0.375000  0.750000  1
