# generated using pymatgen
data_Dy2Tm4Al24Ru7Rh
_symmetry_space_group_name_H-M   'P 1'
_cell_length_a   8.76908741
_cell_length_b   8.78953542
_cell_length_c   9.56101359
_cell_angle_alpha   89.99852368
_cell_angle_beta   89.86924817
_cell_angle_gamma   120.11247641
_symmetry_Int_Tables_number   1
_chemical_formula_structural   Dy2Tm4Al24Ru7Rh
_chemical_formula_sum   'Dy2 Tm4 Al24 Ru7 Rh1'
_cell_volume   637.47039207
_cell_formula_units_Z   1
loop_
 _symmetry_equiv_pos_site_id
 _symmetry_equiv_pos_as_xyz
  1  'x, y, z'
loop_
 _atom_site_type_symbol
 _atom_site_label
 _atom_site_symmetry_multiplicity
 _atom_site_fract_x
 _atom_site_fract_y
 _atom_site_fract_z
 _atom_site_occupancy
  Dy  Dy0  1  0.805271  0.190973  0.748953  1
  Dy  Dy1  1  0.194729  0.809027  0.251047  1
  Tm  Tm2  1  0.388581  0.194348  0.749580  1
  Tm  Tm3  1  0.611419  0.805652  0.250420  1
  Tm  Tm4  1  0.804082  0.612627  0.748811  1
  Tm  Tm5  1  0.195918  0.387373  0.251189  1
  Al  Al6  1  0.665120  0.332856  0.980183  1
  Al  Al7  1  0.334880  0.667144  0.019817  1
  Al  Al8  1  0.333394  0.666332  0.480953  1
  Al  Al9  1  0.666606  0.333668  0.519047  1
  Al  Al10  1  0.837972  0.163038  0.421756  1
  Al  Al11  1  0.162028  0.836962  0.578244  1
  Al  Al12  1  0.326011  0.163227  0.422786  1
  Al  Al13  1  0.163418  0.838920  0.921803  1
  Al  Al14  1  0.673989  0.836773  0.577214  1
  Al  Al15  1  0.836582  0.161080  0.078197  1
  Al  Al16  1  0.837546  0.674412  0.422202  1
  Al  Al17  1  0.674530  0.837074  0.922410  1
  Al  Al18  1  0.162454  0.325588  0.577798  1
  Al  Al19  1  0.325470  0.162926  0.077590  1
  Al  Al20  1  0.163707  0.324977  0.922187  1
  Al  Al21  1  0.836293  0.675023  0.077813  1
  Al  Al22  1  0.437721  0.560751  0.750339  1
  Al  Al23  1  0.562279  0.439249  0.249661  1
  Al  Al24  1  0.122839  0.561678  0.749339  1
  Al  Al25  1  0.877161  0.438322  0.250661  1
  Al  Al26  1  0.436943  0.876238  0.750339  1
  Al  Al27  1  0.563057  0.123762  0.249661  1
  Al  Al28  1  0.000014  0.999103  0.749955  1
  Al  Al29  1  0.999986  0.000897  0.250045  1
  Ru  Ru30  1  0.500000  0.500000  0.000000  1
  Ru  Ru31  1  0.500000  0.500000  0.500000  1
  Ru  Ru32  1  0.500000  0.000000  0.000000  1
  Ru  Ru33  1  0.000000  0.500000  0.500000  1
  Ru  Ru34  1  0.500000  0.000000  0.500000  1
  Ru  Ru35  1  0.000000  0.000000  0.000000  1
  Ru  Ru36  1  0.000000  0.000000  0.500000  1
  Rh  Rh37  1  0.000000  0.500000  0.000000  1
