# generated using pymatgen
data_Ba3ReBr2O5
_symmetry_space_group_name_H-M   'P 1'
_cell_length_a   7.93096699
_cell_length_b   7.93096677
_cell_length_c   11.75515000
_cell_angle_alpha   90.00000000
_cell_angle_beta   90.00000000
_cell_angle_gamma   135.87061094
_symmetry_Int_Tables_number   1
_chemical_formula_structural   Ba3ReBr2O5
_chemical_formula_sum   'Ba6 Re2 Br4 O10'
_cell_volume   514.83140094
_cell_formula_units_Z   2
loop_
 _symmetry_equiv_pos_site_id
 _symmetry_equiv_pos_as_xyz
  1  'x, y, z'
loop_
 _atom_site_type_symbol
 _atom_site_label
 _atom_site_symmetry_multiplicity
 _atom_site_fract_x
 _atom_site_fract_y
 _atom_site_fract_z
 _atom_site_occupancy
  Ba  Ba0  1  0.341720  0.658280  0.958481  1
  Ba  Ba1  1  0.658280  0.341720  0.458481  1
  Ba  Ba2  1  0.341720  0.658280  0.541519  1
  Ba  Ba3  1  0.106308  0.893692  0.750000  1
  Ba  Ba4  1  0.658280  0.341720  0.041519  1
  Ba  Ba5  1  0.893692  0.106308  0.250000  1
  Re  Re6  1  0.239215  0.760785  0.250000  1
  Re  Re7  1  0.760785  0.239215  0.750000  1
  Br  Br8  1  0.502262  0.497738  0.750000  1
  Br  Br9  1  0.000000  0.000000  0.000000  1
  Br  Br10  1  0.000000  0.000000  0.500000  1
  Br  Br11  1  0.497738  0.502262  0.250000  1
  O  O12  1  0.497507  0.942992  0.138147  1
  O  O13  1  0.878505  0.121495  0.750000  1
  O  O14  1  0.942992  0.497507  0.638147  1
  O  O15  1  0.502493  0.057008  0.861853  1
  O  O16  1  0.121495  0.878505  0.250000  1
  O  O17  1  0.502493  0.057008  0.638147  1
  O  O18  1  0.942992  0.497507  0.861853  1
  O  O19  1  0.057008  0.502493  0.138147  1
  O  O20  1  0.497507  0.942992  0.361853  1
  O  O21  1  0.057008  0.502493  0.361853  1
