# generated using pymatgen
data_Tb14Dy2InAg3Rh4
_symmetry_space_group_name_H-M   'P 1'
_cell_length_a   9.58653775
_cell_length_b   9.59048236
_cell_length_c   9.58809010
_cell_angle_alpha   60.27979878
_cell_angle_beta   60.29753859
_cell_angle_gamma   60.28341083
_symmetry_Int_Tables_number   1
_chemical_formula_structural   Tb14Dy2InAg3Rh4
_chemical_formula_sum   'Tb14 Dy2 In1 Ag3 Rh4'
_cell_volume   627.37929597
_cell_formula_units_Z   1
loop_
 _symmetry_equiv_pos_site_id
 _symmetry_equiv_pos_as_xyz
  1  'x, y, z'
loop_
 _atom_site_type_symbol
 _atom_site_label
 _atom_site_symmetry_multiplicity
 _atom_site_fract_x
 _atom_site_fract_y
 _atom_site_fract_z
 _atom_site_occupancy
  Tb  Tb0  1  0.688546  0.312463  0.312561  1
  Tb  Tb1  1  0.689890  0.689910  0.310238  1
  Tb  Tb2  1  0.312417  0.688597  0.312527  1
  Tb  Tb3  1  0.935347  0.935489  0.560495  1
  Tb  Tb4  1  0.148269  0.148452  0.554651  1
  Tb  Tb5  1  0.563110  0.935953  0.563087  1
  Tb  Tb6  1  0.147934  0.147769  0.147860  1
  Tb  Tb7  1  0.312524  0.312563  0.688557  1
  Tb  Tb8  1  0.935909  0.563089  0.563189  1
  Tb  Tb9  1  0.563156  0.563015  0.935867  1
  Tb  Tb10  1  0.560483  0.935526  0.935342  1
  Tb  Tb11  1  0.935458  0.560483  0.935412  1
  Tb  Tb12  1  0.148423  0.554564  0.148471  1
  Tb  Tb13  1  0.310255  0.689814  0.689933  1
  Dy  Dy14  1  0.689810  0.310122  0.689969  1
  Dy  Dy15  1  0.554631  0.148478  0.148287  1
  In  In16  1  0.920831  0.921185  0.921081  1
  Ag  Ag17  1  0.916963  0.917131  0.248820  1
  Ag  Ag18  1  0.248847  0.917059  0.917074  1
  Ag  Ag19  1  0.916926  0.248840  0.917096  1
  Rh  Rh20  1  0.357534  0.357172  0.357166  1
  Rh  Rh21  1  0.929467  0.356348  0.356554  1
  Rh  Rh22  1  0.356757  0.356205  0.929566  1
  Rh  Rh23  1  0.356516  0.929774  0.356196  1
