# generated using pymatgen
data_Pr3Sn3IrRhAu
_symmetry_space_group_name_H-M   'P 1'
_cell_length_a   7.68526000
_cell_length_b   7.68526052
_cell_length_c   4.16730400
_cell_angle_alpha   90.00000000
_cell_angle_beta   90.00000000
_cell_angle_gamma   119.99999774
_symmetry_Int_Tables_number   1
_chemical_formula_structural   Pr3Sn3IrRhAu
_chemical_formula_sum   'Pr3 Sn3 Ir1 Rh1 Au1'
_cell_volume   213.15866101
_cell_formula_units_Z   1
loop_
 _symmetry_equiv_pos_site_id
 _symmetry_equiv_pos_as_xyz
  1  'x, y, z'
loop_
 _atom_site_type_symbol
 _atom_site_label
 _atom_site_symmetry_multiplicity
 _atom_site_fract_x
 _atom_site_fract_y
 _atom_site_fract_z
 _atom_site_occupancy
  Pr  Pr0  1  0.595847  0.013062  0.000000  1
  Pr  Pr1  1  0.986938  0.582784  0.000000  1
  Pr  Pr2  1  0.417216  0.404153  0.000000  1
  Sn  Sn3  1  0.250155  0.006317  0.500000  1
  Sn  Sn4  1  0.993683  0.243838  0.500000  1
  Sn  Sn5  1  0.756162  0.749845  0.500000  1
  Ir  Ir6  1  0.666667  0.333333  0.500000  1
  Rh  Rh7  1  0.000000  0.000000  0.000000  1
  Au  Au8  1  0.333333  0.666667  0.500000  1
