# generated using pymatgen
data_Yb3ScGa15(SiIr2)3
_symmetry_space_group_name_H-M   'P 1'
_cell_length_a   7.51803043
_cell_length_b   7.45257557
_cell_length_c   9.50342631
_cell_angle_alpha   89.99551472
_cell_angle_beta   89.95477072
_cell_angle_gamma   119.90986661
_symmetry_Int_Tables_number   1
_chemical_formula_structural   Yb3ScGa15(SiIr2)3
_chemical_formula_sum   'Yb3 Sc1 Ga15 Si3 Ir6'
_cell_volume   461.54583987
_cell_formula_units_Z   1
loop_
 _symmetry_equiv_pos_site_id
 _symmetry_equiv_pos_as_xyz
  1  'x, y, z'
loop_
 _atom_site_type_symbol
 _atom_site_label
 _atom_site_symmetry_multiplicity
 _atom_site_fract_x
 _atom_site_fract_y
 _atom_site_fract_z
 _atom_site_occupancy
  Yb  Yb0  1  0.004039  0.338178  0.749447  1
  Yb  Yb1  1  0.672330  0.003299  0.248382  1
  Yb  Yb2  1  0.325295  0.993691  0.749645  1
  Sc  Sc3  1  0.997198  0.663933  0.247225  1
  Ga  Ga4  1  0.127274  0.124657  0.250967  1
  Ga  Ga5  1  0.871552  0.868822  0.751204  1
  Ga  Ga6  1  0.339863  0.002770  0.417348  1
  Ga  Ga7  1  0.999519  0.328548  0.419625  1
  Ga  Ga8  1  0.666488  0.003056  0.580062  1
  Ga  Ga9  1  0.662657  0.000075  0.917701  1
  Ga  Ga10  1  0.338141  0.001604  0.083706  1
  Ga  Ga11  1  0.331713  0.328373  0.568062  1
  Ga  Ga12  1  0.661532  0.669905  0.429720  1
  Ga  Ga13  1  0.661638  0.669979  0.072089  1
  Ga  Ga14  1  0.336581  0.329078  0.930525  1
  Ga  Ga15  1  0.332664  0.547009  0.251154  1
  Ga  Ga16  1  0.665475  0.455610  0.752296  1
  Ga  Ga17  1  0.552875  0.343329  0.251112  1
  Ga  Ga18  1  0.451328  0.660825  0.750830  1
  Si  Si19  1  0.002162  0.331407  0.072687  1
  Si  Si20  1  0.998009  0.670829  0.934041  1
  Si  Si21  1  0.999926  0.666208  0.562457  1
  Ir  Ir22  1  0.696970  0.344665  0.005446  1
  Ir  Ir23  1  0.303555  0.657411  0.999571  1
  Ir  Ir24  1  0.315567  0.668980  0.502555  1
  Ir  Ir25  1  0.686082  0.344697  0.500140  1
  Ir  Ir26  1  0.999284  0.997853  0.002305  1
  Ir  Ir27  1  0.000283  0.985208  0.499700  1
