# generated using pymatgen
data_Nb8GaNiTe8
_symmetry_space_group_name_H-M   'P 1'
_cell_length_a   4.89370900
_cell_length_b   11.31373000
_cell_length_c   20.01133700
_cell_angle_alpha   90.00000000
_cell_angle_beta   90.00000000
_cell_angle_gamma   90.00000000
_symmetry_Int_Tables_number   1
_chemical_formula_structural   Nb8GaNiTe8
_chemical_formula_sum   'Nb16 Ga2 Ni2 Te16'
_cell_volume   1107.94973199
_cell_formula_units_Z   2
loop_
 _symmetry_equiv_pos_site_id
 _symmetry_equiv_pos_as_xyz
  1  'x, y, z'
loop_
 _atom_site_type_symbol
 _atom_site_label
 _atom_site_symmetry_multiplicity
 _atom_site_fract_x
 _atom_site_fract_y
 _atom_site_fract_z
 _atom_site_occupancy
  Nb  Nb0  1  0.500819  0.563395  0.386782  1
  Nb  Nb1  1  0.500819  0.436605  0.613218  1
  Nb  Nb2  1  0.499181  0.063395  0.113218  1
  Nb  Nb3  1  0.499181  0.936605  0.886782  1
  Nb  Nb4  1  0.502394  0.700751  0.535786  1
  Nb  Nb5  1  0.502394  0.299249  0.464214  1
  Nb  Nb6  1  0.497606  0.200751  0.964214  1
  Nb  Nb7  1  0.497606  0.799249  0.035786  1
  Nb  Nb8  1  0.998949  0.686737  0.445150  1
  Nb  Nb9  1  0.998949  0.313263  0.554850  1
  Nb  Nb10  1  0.001051  0.186737  0.054850  1
  Nb  Nb11  1  0.001051  0.813263  0.945150  1
  Nb  Nb12  1  0.999683  0.403077  0.394642  1
  Nb  Nb13  1  0.999683  0.596923  0.605358  1
  Nb  Nb14  1  0.000317  0.903077  0.105358  1
  Nb  Nb15  1  0.000317  0.096923  0.894642  1
  Ga  Ga16  1  0.750519  0.500000  0.500000  1
  Ga  Ga17  1  0.249481  0.000000  0.000000  1
  Ni  Ni18  1  0.250825  0.500000  0.500000  1
  Ni  Ni19  1  0.749175  0.000000  0.000000  1
  Te  Te20  1  0.008185  0.835499  0.559819  1
  Te  Te21  1  0.008185  0.164501  0.440181  1
  Te  Te22  1  0.991815  0.335499  0.940181  1
  Te  Te23  1  0.991815  0.664501  0.059819  1
  Te  Te24  1  0.493324  0.338014  0.323742  1
  Te  Te25  1  0.493324  0.661986  0.676258  1
  Te  Te26  1  0.506676  0.838014  0.176258  1
  Te  Te27  1  0.506676  0.161986  0.823742  1
  Te  Te28  1  0.492921  0.812134  0.408246  1
  Te  Te29  1  0.492921  0.187866  0.591754  1
  Te  Te30  1  0.507079  0.312134  0.091754  1
  Te  Te31  1  0.507079  0.687866  0.908246  1
  Te  Te32  1  0.007268  0.606055  0.310551  1
  Te  Te33  1  0.007268  0.393945  0.689449  1
  Te  Te34  1  0.992732  0.106055  0.189449  1
  Te  Te35  1  0.992732  0.893945  0.810551  1
