# generated using pymatgen
data_BeInPO4
_symmetry_space_group_name_H-M   'P 1'
_cell_length_a   4.85246100
_cell_length_b   8.08100500
_cell_length_c   9.60746400
_cell_angle_alpha   90.00000000
_cell_angle_beta   90.00000000
_cell_angle_gamma   90.00000000
_symmetry_Int_Tables_number   1
_chemical_formula_structural   BeInPO4
_chemical_formula_sum   'Be4 In4 P4 O16'
_cell_volume   376.73519544
_cell_formula_units_Z   4
loop_
 _symmetry_equiv_pos_site_id
 _symmetry_equiv_pos_as_xyz
  1  'x, y, z'
loop_
 _atom_site_type_symbol
 _atom_site_label
 _atom_site_symmetry_multiplicity
 _atom_site_fract_x
 _atom_site_fract_y
 _atom_site_fract_z
 _atom_site_occupancy
  Be  Be0  1  0.120635  0.610760  0.853754  1
  Be  Be1  1  0.620635  0.389240  0.146246  1
  Be  Be2  1  0.620635  0.110760  0.646246  1
  Be  Be3  1  0.120635  0.889240  0.353754  1
  In  In4  1  0.599135  0.638108  0.438879  1
  In  In5  1  0.099135  0.361892  0.561121  1
  In  In6  1  0.099135  0.138108  0.061121  1
  In  In7  1  0.599135  0.861892  0.938879  1
  P  P8  1  0.123624  0.588925  0.163853  1
  P  P9  1  0.623624  0.411075  0.836147  1
  P  P10  1  0.623624  0.088925  0.336147  1
  P  P11  1  0.123624  0.911075  0.663853  1
  O  O12  1  0.816695  0.545624  0.190040  1
  O  O13  1  0.316695  0.454376  0.809960  1
  O  O14  1  0.316695  0.045624  0.309960  1
  O  O15  1  0.816695  0.954376  0.690040  1
  O  O16  1  0.300915  0.430178  0.182431  1
  O  O17  1  0.800915  0.569822  0.817569  1
  O  O18  1  0.800915  0.930178  0.317569  1
  O  O19  1  0.300915  0.069822  0.682431  1
  O  O20  1  0.218104  0.719059  0.272536  1
  O  O21  1  0.718104  0.280941  0.727464  1
  O  O22  1  0.718104  0.219059  0.227464  1
  O  O23  1  0.218104  0.780941  0.772536  1
  O  O24  1  0.164794  0.662395  0.016547  1
  O  O25  1  0.664794  0.337605  0.983453  1
  O  O26  1  0.664794  0.162395  0.483453  1
  O  O27  1  0.164794  0.837605  0.516547  1
