# generated using pymatgen
data_TbLu7In3Ru
_symmetry_space_group_name_H-M   'P 1'
_cell_length_a   10.22498010
_cell_length_b   10.22498103
_cell_length_c   6.95942064
_cell_angle_alpha   89.92592413
_cell_angle_beta   90.07407725
_cell_angle_gamma   120.12520433
_symmetry_Int_Tables_number   1
_chemical_formula_structural   TbLu7In3Ru
_chemical_formula_sum   'Tb2 Lu14 In6 Ru2'
_cell_volume   629.33068844
_cell_formula_units_Z   2
loop_
 _symmetry_equiv_pos_site_id
 _symmetry_equiv_pos_as_xyz
  1  'x, y, z'
loop_
 _atom_site_type_symbol
 _atom_site_label
 _atom_site_symmetry_multiplicity
 _atom_site_fract_x
 _atom_site_fract_y
 _atom_site_fract_z
 _atom_site_occupancy
  Tb  Tb0  1  0.530807  0.062154  0.522607  1
  Tb  Tb1  1  0.937846  0.469193  0.522607  1
  Lu  Lu2  1  0.531498  0.468502  0.523803  1
  Lu  Lu3  1  0.466492  0.933275  0.024125  1
  Lu  Lu4  1  0.066725  0.533508  0.024125  1
  Lu  Lu5  1  0.467716  0.532284  0.025189  1
  Lu  Lu6  1  0.178717  0.355898  0.729875  1
  Lu  Lu7  1  0.644102  0.821283  0.729875  1
  Lu  Lu8  1  0.176986  0.823014  0.730502  1
  Lu  Lu9  1  0.821913  0.645066  0.226214  1
  Lu  Lu10  1  0.354934  0.178087  0.226214  1
  Lu  Lu11  1  0.822963  0.177037  0.224972  1
  Lu  Lu12  1  0.666114  0.333886  0.903107  1
  Lu  Lu13  1  0.334207  0.665793  0.402432  1
  Lu  Lu14  1  0.999950  0.000050  0.507478  1
  Lu  Lu15  1  0.000342  0.999658  0.008098  1
  In  In16  1  0.835743  0.674200  0.770561  1
  In  In17  1  0.325800  0.164257  0.770561  1
  In  In18  1  0.837811  0.162189  0.771719  1
  In  In19  1  0.163769  0.326509  0.271949  1
  In  In20  1  0.673491  0.836231  0.271949  1
  In  In21  1  0.162980  0.837020  0.272968  1
  Ru  Ru22  1  0.665682  0.334318  0.295704  1
  Ru  Ru23  1  0.333410  0.666590  0.799049  1
