# generated using pymatgen
data_PrNd9In3Bi3Br2
_symmetry_space_group_name_H-M   'P 1'
_cell_length_a   9.65206800
_cell_length_b   9.62670190
_cell_length_c   6.81555100
_cell_angle_alpha   90.00000000
_cell_angle_beta   90.00000000
_cell_angle_gamma   120.33734162
_symmetry_Int_Tables_number   1
_chemical_formula_structural   PrNd9In3Bi3Br2
_chemical_formula_sum   'Pr1 Nd9 In3 Bi3 Br2'
_cell_volume   546.56668112
_cell_formula_units_Z   1
loop_
 _symmetry_equiv_pos_site_id
 _symmetry_equiv_pos_as_xyz
  1  'x, y, z'
loop_
 _atom_site_type_symbol
 _atom_site_label
 _atom_site_symmetry_multiplicity
 _atom_site_fract_x
 _atom_site_fract_y
 _atom_site_fract_z
 _atom_site_occupancy
  Pr  Pr0  1  0.736187  0.734648  0.750000  1
  Nd  Nd1  1  0.266980  0.994911  0.750000  1
  Nd  Nd2  1  0.730521  0.999426  0.250000  1
  Nd  Nd3  1  0.996632  0.266432  0.750000  1
  Nd  Nd4  1  0.003548  0.736325  0.250000  1
  Nd  Nd5  1  0.266404  0.263746  0.250000  1
  Nd  Nd6  1  0.332076  0.673002  0.499747  1
  Nd  Nd7  1  0.667055  0.328787  0.499891  1
  Nd  Nd8  1  0.667055  0.328787  0.000109  1
  Nd  Nd9  1  0.332076  0.673002  0.000253  1
  In  In10  1  0.610664  0.999413  0.750000  1
  In  In11  1  0.390588  0.001073  0.250000  1
  In  In12  1  0.999255  0.612768  0.750000  1
  Bi  Bi13  1  0.000328  0.386383  0.250000  1
  Bi  Bi14  1  0.384813  0.384434  0.750000  1
  Bi  Bi15  1  0.615360  0.613673  0.250000  1
  Br  Br16  1  0.000229  0.001595  0.499522  1
  Br  Br17  1  0.000229  0.001595  0.000478  1
