# generated using pymatgen
data_Ti6GaPSe
_symmetry_space_group_name_H-M   'P 1'
_cell_length_a   6.88575100
_cell_length_b   6.88575223
_cell_length_c   3.44622900
_cell_angle_alpha   90.00000000
_cell_angle_beta   90.00000000
_cell_angle_gamma   119.99998928
_symmetry_Int_Tables_number   1
_chemical_formula_structural   Ti6GaPSe
_chemical_formula_sum   'Ti6 Ga1 P1 Se1'
_cell_volume   141.50686731
_cell_formula_units_Z   1
loop_
 _symmetry_equiv_pos_site_id
 _symmetry_equiv_pos_as_xyz
  1  'x, y, z'
loop_
 _atom_site_type_symbol
 _atom_site_label
 _atom_site_symmetry_multiplicity
 _atom_site_fract_x
 _atom_site_fract_y
 _atom_site_fract_z
 _atom_site_occupancy
  Ti  Ti0  1  0.994932  0.248237  0.500000  1
  Ti  Ti1  1  0.253305  0.005068  0.500000  1
  Ti  Ti2  1  0.751763  0.746695  0.500000  1
  Ti  Ti3  1  0.603548  0.988073  0.000000  1
  Ti  Ti4  1  0.384525  0.396452  0.000000  1
  Ti  Ti5  1  0.011927  0.615475  0.000000  1
  Ga  Ga6  1  0.666667  0.333333  0.500000  1
  P  P7  1  0.000000  0.000000  0.000000  1
  Se  Se8  1  0.333333  0.666667  0.500000  1
