# generated using pymatgen
data_Ac3In4Te
_symmetry_space_group_name_H-M   'P 1'
_cell_length_a   9.06457937
_cell_length_b   9.06457789
_cell_length_c   9.06457891
_cell_angle_alpha   119.73539215
_cell_angle_beta   119.73539109
_cell_angle_gamma   90.45892928
_symmetry_Int_Tables_number   1
_chemical_formula_structural   Ac3In4Te
_chemical_formula_sum   'Ac6 In8 Te2'
_cell_volume   528.74504659
_cell_formula_units_Z   2
loop_
 _symmetry_equiv_pos_site_id
 _symmetry_equiv_pos_as_xyz
  1  'x, y, z'
loop_
 _atom_site_type_symbol
 _atom_site_label
 _atom_site_symmetry_multiplicity
 _atom_site_fract_x
 _atom_site_fract_y
 _atom_site_fract_z
 _atom_site_occupancy
  Ac  Ac0  1  0.750000  0.750000  0.000000  1
  Ac  Ac1  1  0.250000  0.250000  0.000000  1
  Ac  Ac2  1  0.337476  0.837476  0.174951  1
  Ac  Ac3  1  0.662524  0.162524  0.825049  1
  Ac  Ac4  1  0.837476  0.662524  0.500000  1
  Ac  Ac5  1  0.162524  0.337476  0.500000  1
  In  In6  1  0.951241  0.451241  0.786225  1
  In  In7  1  0.665017  0.165017  0.213775  1
  In  In8  1  0.451241  0.665017  0.500000  1
  In  In9  1  0.165017  0.951241  0.500000  1
  In  In10  1  0.048759  0.548759  0.213775  1
  In  In11  1  0.334983  0.834983  0.786225  1
  In  In12  1  0.548759  0.334983  0.500000  1
  In  In13  1  0.834983  0.048759  0.500000  1
  Te  Te14  1  0.000000  0.000000  0.000000  1
  Te  Te15  1  0.500000  0.500000  0.000000  1
