# generated using pymatgen
data_Nd6Cr(SiS7)2
_symmetry_space_group_name_H-M   'P 1'
_cell_length_a   5.75193350
_cell_length_b   10.09139014
_cell_length_c   10.21063014
_cell_angle_alpha   60.69428983
_cell_angle_beta   89.59540510
_cell_angle_gamma   90.03414079
_symmetry_Int_Tables_number   1
_chemical_formula_structural   Nd6Cr(SiS7)2
_chemical_formula_sum   'Nd6 Cr1 Si2 S14'
_cell_volume   516.80722079
_cell_formula_units_Z   1
loop_
 _symmetry_equiv_pos_site_id
 _symmetry_equiv_pos_as_xyz
  1  'x, y, z'
loop_
 _atom_site_type_symbol
 _atom_site_label
 _atom_site_symmetry_multiplicity
 _atom_site_fract_x
 _atom_site_fract_y
 _atom_site_fract_z
 _atom_site_occupancy
  Nd  Nd0  1  0.749960  0.233458  0.637364  1
  Nd  Nd1  1  0.754284  0.642965  0.129110  1
  Nd  Nd2  1  0.752562  0.124676  0.229923  1
  Nd  Nd3  1  0.249970  0.768937  0.362137  1
  Nd  Nd4  1  0.249429  0.354531  0.872404  1
  Nd  Nd5  1  0.246912  0.875072  0.771854  1
  Cr  Cr6  1  0.524553  0.999315  0.998694  1
  Si  Si7  1  0.168631  0.331451  0.332709  1
  Si  Si8  1  0.660924  0.667876  0.667445  1
  S  S9  1  0.271469  0.165364  0.742482  1
  S  S10  1  0.290808  0.763420  0.087297  1
  S  S11  1  0.290021  0.084395  0.150952  1
  S  S12  1  0.768451  0.833167  0.258171  1
  S  S13  1  0.750206  0.238383  0.915643  1
  S  S14  1  0.751156  0.917777  0.844567  1
  S  S15  1  0.535639  0.334316  0.330773  1
  S  S16  1  0.028158  0.665414  0.670057  1
  S  S17  1  0.024858  0.108697  0.473664  1
  S  S18  1  0.024518  0.479295  0.407443  1
  S  S19  1  0.028079  0.409833  0.111974  1
  S  S20  1  0.519509  0.890636  0.527424  1
  S  S21  1  0.518764  0.522428  0.589528  1
  S  S22  1  0.518138  0.588598  0.888386  1
