# generated using pymatgen
data_Sr4Si10NiPt5
_symmetry_space_group_name_H-M   'P 1'
_cell_length_a   8.40072403
_cell_length_b   8.40072477
_cell_length_c   8.40072545
_cell_angle_alpha   138.34559899
_cell_angle_beta   105.38520140
_cell_angle_gamma   89.28525070
_symmetry_Int_Tables_number   1
_chemical_formula_structural   Sr4Si10NiPt5
_chemical_formula_sum   'Sr4 Si10 Ni1 Pt5'
_cell_volume   363.60242594
_cell_formula_units_Z   1
loop_
 _symmetry_equiv_pos_site_id
 _symmetry_equiv_pos_as_xyz
  1  'x, y, z'
loop_
 _atom_site_type_symbol
 _atom_site_label
 _atom_site_symmetry_multiplicity
 _atom_site_fract_x
 _atom_site_fract_y
 _atom_site_fract_z
 _atom_site_occupancy
  Sr  Sr0  1  0.634415  0.867670  0.761212  1
  Sr  Sr1  1  0.365585  0.126797  0.233255  1
  Sr  Sr2  1  0.106458  0.373203  0.738788  1
  Sr  Sr3  1  0.893542  0.632330  0.266745  1
  Si  Si4  1  0.271518  0.021518  0.750000  1
  Si  Si5  1  0.727573  0.977573  0.250000  1
  Si  Si6  1  0.728482  0.478482  0.750000  1
  Si  Si7  1  0.272427  0.522427  0.250000  1
  Si  Si8  1  0.465085  0.597423  0.844202  1
  Si  Si9  1  0.534915  0.379117  0.132338  1
  Si  Si10  1  0.753221  0.120883  0.655798  1
  Si  Si11  1  0.246779  0.902577  0.367662  1
  Si  Si12  1  0.000000  0.750000  0.750000  1
  Si  Si13  1  0.000000  0.250000  0.250000  1
  Ni  Ni14  1  0.500000  0.250000  0.750000  1
  Pt  Pt15  1  0.247645  0.633493  0.610254  1
  Pt  Pt16  1  0.752355  0.362609  0.385849  1
  Pt  Pt17  1  0.023240  0.137391  0.889746  1
  Pt  Pt18  1  0.976760  0.866507  0.114151  1
  Pt  Pt19  1  0.500000  0.750000  0.250000  1
