# generated using pymatgen
data_YZrSi7Rh12
_symmetry_space_group_name_H-M   'P 1'
_cell_length_a   9.73161100
_cell_length_b   9.73161058
_cell_length_c   3.83727700
_cell_angle_alpha   90.00000000
_cell_angle_beta   90.00000000
_cell_angle_gamma   120.00001161
_symmetry_Int_Tables_number   1
_chemical_formula_structural   YZrSi7Rh12
_chemical_formula_sum   'Y1 Zr1 Si7 Rh12'
_cell_volume   314.71916779
_cell_formula_units_Z   1
loop_
 _symmetry_equiv_pos_site_id
 _symmetry_equiv_pos_as_xyz
  1  'x, y, z'
loop_
 _atom_site_type_symbol
 _atom_site_label
 _atom_site_symmetry_multiplicity
 _atom_site_fract_x
 _atom_site_fract_y
 _atom_site_fract_z
 _atom_site_occupancy
  Y  Y0  1  0.333333  0.666667  0.750737  1
  Zr  Zr1  1  0.666667  0.333333  0.247044  1
  Si  Si2  1  0.000000  0.000000  0.487804  1
  Si  Si3  1  0.404406  0.291967  0.751934  1
  Si  Si4  1  0.708033  0.112438  0.751934  1
  Si  Si5  1  0.887562  0.595594  0.751934  1
  Si  Si6  1  0.598499  0.711506  0.249370  1
  Si  Si7  1  0.288494  0.886994  0.249370  1
  Si  Si8  1  0.113006  0.401501  0.249370  1
  Rh  Rh9  1  0.446406  0.069225  0.752204  1
  Rh  Rh10  1  0.930775  0.377180  0.752204  1
  Rh  Rh11  1  0.622820  0.553594  0.752204  1
  Rh  Rh12  1  0.555960  0.939325  0.249515  1
  Rh  Rh13  1  0.060675  0.616635  0.249515  1
  Rh  Rh14  1  0.383365  0.444040  0.249515  1
  Rh  Rh15  1  0.143322  0.262584  0.746951  1
  Rh  Rh16  1  0.737416  0.880739  0.746951  1
  Rh  Rh17  1  0.119261  0.856678  0.746951  1
  Rh  Rh18  1  0.855539  0.735962  0.254831  1
  Rh  Rh19  1  0.264038  0.119576  0.254831  1
  Rh  Rh20  1  0.880424  0.144461  0.254831  1
