# generated using pymatgen
data_PaTe2H
_symmetry_space_group_name_H-M   'P 1'
_cell_length_a   4.02461200
_cell_length_b   4.02461180
_cell_length_c   14.95074100
_cell_angle_alpha   90.00000000
_cell_angle_beta   90.00000000
_cell_angle_gamma   120.00000165
_symmetry_Int_Tables_number   1
_chemical_formula_structural   PaTe2H
_chemical_formula_sum   'Pa2 Te4 H2'
_cell_volume   209.72072786
_cell_formula_units_Z   2
loop_
 _symmetry_equiv_pos_site_id
 _symmetry_equiv_pos_as_xyz
  1  'x, y, z'
loop_
 _atom_site_type_symbol
 _atom_site_label
 _atom_site_symmetry_multiplicity
 _atom_site_fract_x
 _atom_site_fract_y
 _atom_site_fract_z
 _atom_site_occupancy
  Pa  Pa0  1  0.000000  0.000000  0.250000  1
  Pa  Pa1  1  0.000000  0.000000  0.750000  1
  Te  Te2  1  0.333333  0.666667  0.115278  1
  Te  Te3  1  0.666667  0.333333  0.884722  1
  Te  Te4  1  0.666667  0.333333  0.615278  1
  Te  Te5  1  0.333333  0.666667  0.384722  1
  H  H6  1  0.333333  0.666667  0.750000  1
  H  H7  1  0.666667  0.333333  0.250000  1
