# generated using pymatgen
data_Zr2NiSe3S
_symmetry_space_group_name_H-M   'P 1'
_cell_length_a   7.14971496
_cell_length_b   7.14971621
_cell_length_c   6.50748405
_cell_angle_alpha   63.72909997
_cell_angle_beta   63.72909424
_cell_angle_gamma   30.69159683
_symmetry_Int_Tables_number   1
_chemical_formula_structural   Zr2NiSe3S
_chemical_formula_sum   'Zr2 Ni1 Se3 S1'
_cell_volume   150.85054102
_cell_formula_units_Z   1
loop_
 _symmetry_equiv_pos_site_id
 _symmetry_equiv_pos_as_xyz
  1  'x, y, z'
loop_
 _atom_site_type_symbol
 _atom_site_label
 _atom_site_symmetry_multiplicity
 _atom_site_fract_x
 _atom_site_fract_y
 _atom_site_fract_z
 _atom_site_occupancy
  Zr  Zr0  1  0.500734  0.500734  0.509606  1
  Zr  Zr1  1  0.008934  0.008934  0.980828  1
  Ni  Ni2  1  0.668929  0.668929  0.651793  1
  Se  Se3  1  0.369960  0.369960  0.965130  1
  Se  Se4  1  0.871232  0.871232  0.459172  1
  Se  Se5  1  0.635681  0.635681  0.045307  1
  S  S6  1  0.126988  0.126988  0.539014  1
