# generated using pymatgen
data_Dy4Ho12In4OsRh3
_symmetry_space_group_name_H-M   'P 1'
_cell_length_a   9.62875990
_cell_length_b   9.67055107
_cell_length_c   9.62290977
_cell_angle_alpha   59.97910169
_cell_angle_beta   59.81673786
_cell_angle_gamma   60.03376936
_symmetry_Int_Tables_number   1
_chemical_formula_structural   Dy4Ho12In4OsRh3
_chemical_formula_sum   'Dy4 Ho12 In4 Os1 Rh3'
_cell_volume   632.77572167
_cell_formula_units_Z   1
loop_
 _symmetry_equiv_pos_site_id
 _symmetry_equiv_pos_as_xyz
  1  'x, y, z'
loop_
 _atom_site_type_symbol
 _atom_site_label
 _atom_site_symmetry_multiplicity
 _atom_site_fract_x
 _atom_site_fract_y
 _atom_site_fract_z
 _atom_site_occupancy
  Dy  Dy0  1  0.188280  0.189689  0.811229  1
  Dy  Dy1  1  0.600207  0.600395  0.201982  1
  Dy  Dy2  1  0.441172  0.056536  0.440690  1
  Dy  Dy3  1  0.439668  0.441251  0.057996  1
  Ho  Ho4  1  0.811893  0.188812  0.812346  1
  Ho  Ho5  1  0.191536  0.812736  0.192054  1
  Ho  Ho6  1  0.439987  0.057005  0.060395  1
  Ho  Ho7  1  0.190424  0.813027  0.806012  1
  Ho  Ho8  1  0.058576  0.440653  0.058785  1
  Ho  Ho9  1  0.805880  0.813484  0.190452  1
  Ho  Ho10  1  0.201677  0.601156  0.600178  1
  Ho  Ho11  1  0.057578  0.442192  0.439975  1
  Ho  Ho12  1  0.060734  0.057315  0.439679  1
  Ho  Ho13  1  0.811923  0.189070  0.188245  1
  Ho  Ho14  1  0.601383  0.200183  0.600699  1
  Ho  Ho15  1  0.598302  0.598841  0.598483  1
  In  In16  1  0.833380  0.833818  0.832217  1
  In  In17  1  0.832837  0.833264  0.500918  1
  In  In18  1  0.500874  0.833238  0.832681  1
  In  In19  1  0.832379  0.502052  0.832187  1
  Os  Os20  1  0.391766  0.825012  0.392261  1
  Rh  Rh21  1  0.390998  0.389580  0.392821  1
  Rh  Rh22  1  0.826422  0.390124  0.392368  1
  Rh  Rh23  1  0.392123  0.390569  0.825348  1
