# generated using pymatgen
data_HoTh2Sn3Ir2Ru
_symmetry_space_group_name_H-M   'P 1'
_cell_length_a   7.54927068
_cell_length_b   7.50875557
_cell_length_c   4.09144900
_cell_angle_alpha   90.00000000
_cell_angle_beta   90.00000000
_cell_angle_gamma   119.82262606
_symmetry_Int_Tables_number   1
_chemical_formula_structural   HoTh2Sn3Ir2Ru
_chemical_formula_sum   'Ho1 Th2 Sn3 Ir2 Ru1'
_cell_volume   201.21214802
_cell_formula_units_Z   1
loop_
 _symmetry_equiv_pos_site_id
 _symmetry_equiv_pos_as_xyz
  1  'x, y, z'
loop_
 _atom_site_type_symbol
 _atom_site_label
 _atom_site_symmetry_multiplicity
 _atom_site_fract_x
 _atom_site_fract_y
 _atom_site_fract_z
 _atom_site_occupancy
  Ho  Ho0  1  0.000000  0.593780  0.500000  1
  Th  Th1  1  0.411444  0.411270  0.500000  1
  Th  Th2  1  0.588556  0.999825  0.500000  1
  Sn  Sn3  1  0.758769  0.747855  0.000000  1
  Sn  Sn4  1  0.241231  0.989086  0.000000  1
  Sn  Sn5  1  0.000000  0.260273  0.000000  1
  Ir  Ir6  1  0.656129  0.324329  0.000000  1
  Ir  Ir7  1  0.343871  0.668200  0.000000  1
  Ru  Ru8  1  0.000000  0.005382  0.500000  1
