# generated using pymatgen
data_Ho20N19
_symmetry_space_group_name_H-M   'P 1'
_cell_length_a   9.13969960
_cell_length_b   9.13969890
_cell_length_c   9.13969901
_cell_angle_alpha   106.58758783
_cell_angle_beta   106.58758006
_cell_angle_gamma   115.40656623
_symmetry_Int_Tables_number   1
_chemical_formula_structural   Ho20N19
_chemical_formula_sum   'Ho20 N19'
_cell_volume   582.94559428
_cell_formula_units_Z   1
loop_
 _symmetry_equiv_pos_site_id
 _symmetry_equiv_pos_as_xyz
  1  'x, y, z'
loop_
 _atom_site_type_symbol
 _atom_site_label
 _atom_site_symmetry_multiplicity
 _atom_site_fract_x
 _atom_site_fract_y
 _atom_site_fract_z
 _atom_site_occupancy
  Ho  Ho0  1  0.047560  0.650040  0.200662  1
  Ho  Ho1  1  0.395817  0.707627  0.103445  1
  Ho  Ho2  1  0.100185  0.798460  0.898645  1
  Ho  Ho3  1  0.758648  0.758648  0.000000  1
  Ho  Ho4  1  0.798460  0.899815  0.698275  1
  Ho  Ho5  1  0.449380  0.846897  0.799338  1
  Ho  Ho6  1  0.500000  0.000000  0.500000  1
  Ho  Ho7  1  0.153103  0.952440  0.602481  1
  Ho  Ho8  1  0.201540  0.100185  0.301725  1
  Ho  Ho9  1  0.846897  0.047560  0.397519  1
  Ho  Ho10  1  0.899815  0.201540  0.101355  1
  Ho  Ho11  1  0.550620  0.153103  0.200662  1
  Ho  Ho12  1  0.604183  0.292373  0.896555  1
  Ho  Ho13  1  0.241352  0.241352  0.000000  1
  Ho  Ho14  1  0.292373  0.395817  0.688191  1
  Ho  Ho15  1  0.952440  0.349960  0.799338  1
  Ho  Ho16  1  0.000000  0.500000  0.500000  1
  Ho  Ho17  1  0.650040  0.449380  0.602481  1
  Ho  Ho18  1  0.707627  0.604183  0.311809  1
  Ho  Ho19  1  0.349960  0.550620  0.397519  1
  N  N20  1  0.898474  0.699638  0.598112  1
  N  N21  1  0.550312  0.650270  0.701980  1
  N  N22  1  0.600237  0.799147  0.399384  1
  N  N23  1  0.250000  0.750000  0.500000  1
  N  N24  1  0.300362  0.898474  0.198836  1
  N  N25  1  0.948291  0.848332  0.298020  1
  N  N26  1  0.000000  0.000000  0.000000  1
  N  N27  1  0.650270  0.948291  0.099958  1
  N  N28  1  0.699638  0.101526  0.801164  1
  N  N29  1  0.349730  0.051709  0.900042  1
  N  N30  1  0.051709  0.151668  0.701980  1
  N  N31  1  0.750000  0.250000  0.500000  1
  N  N32  1  0.399763  0.200853  0.600616  1
  N  N33  1  0.449688  0.349730  0.298020  1
  N  N34  1  0.101526  0.300362  0.401888  1
  N  N35  1  0.151668  0.449688  0.099958  1
  N  N36  1  0.200853  0.600237  0.801091  1
  N  N37  1  0.799147  0.399763  0.198909  1
  N  N38  1  0.848332  0.550312  0.900042  1
