# generated using pymatgen
data_TbDy9Si5Ge
_symmetry_space_group_name_H-M   'P 1'
_cell_length_a   8.46128900
_cell_length_b   8.46665378
_cell_length_c   6.39284700
_cell_angle_alpha   90.00000000
_cell_angle_beta   90.00000000
_cell_angle_gamma   119.97904558
_symmetry_Int_Tables_number   1
_chemical_formula_structural   TbDy9Si5Ge
_chemical_formula_sum   'Tb1 Dy9 Si5 Ge1'
_cell_volume   396.70249793
_cell_formula_units_Z   1
loop_
 _symmetry_equiv_pos_site_id
 _symmetry_equiv_pos_as_xyz
  1  'x, y, z'
loop_
 _atom_site_type_symbol
 _atom_site_label
 _atom_site_symmetry_multiplicity
 _atom_site_fract_x
 _atom_site_fract_y
 _atom_site_fract_z
 _atom_site_occupancy
  Tb  Tb0  1  0.757904  0.000000  0.750000  1
  Dy  Dy1  1  0.333062  0.665364  0.000826  1
  Dy  Dy2  1  0.667698  0.334636  0.499174  1
  Dy  Dy3  1  0.667698  0.334636  0.000826  1
  Dy  Dy4  1  0.333062  0.665364  0.499174  1
  Dy  Dy5  1  0.242733  0.000000  0.250000  1
  Dy  Dy6  1  0.243070  0.244501  0.750000  1
  Dy  Dy7  1  0.998569  0.755499  0.750000  1
  Dy  Dy8  1  0.999973  0.243316  0.250000  1
  Dy  Dy9  1  0.756657  0.756684  0.250000  1
  Si  Si10  1  0.606225  0.000000  0.250000  1
  Si  Si11  1  0.605897  0.605829  0.750000  1
  Si  Si12  1  0.000068  0.394171  0.750000  1
  Si  Si13  1  0.000123  0.606185  0.250000  1
  Si  Si14  1  0.393938  0.393815  0.250000  1
  Ge  Ge15  1  0.393320  0.000000  0.750000  1
