# generated using pymatgen
data_V12SiOsPt2
_symmetry_space_group_name_H-M   'P 1'
_cell_length_a   4.78815200
_cell_length_b   4.77695600
_cell_length_c   9.57022400
_cell_angle_alpha   90.00000000
_cell_angle_beta   90.00000000
_cell_angle_gamma   90.00000000
_symmetry_Int_Tables_number   1
_chemical_formula_structural   V12SiOsPt2
_chemical_formula_sum   'V12 Si1 Os1 Pt2'
_cell_volume   218.89773745
_cell_formula_units_Z   1
loop_
 _symmetry_equiv_pos_site_id
 _symmetry_equiv_pos_as_xyz
  1  'x, y, z'
loop_
 _atom_site_type_symbol
 _atom_site_label
 _atom_site_symmetry_multiplicity
 _atom_site_fract_x
 _atom_site_fract_y
 _atom_site_fract_z
 _atom_site_occupancy
  V  V0  1  0.000000  0.500000  0.121623  1
  V  V1  1  0.000000  0.500000  0.627095  1
  V  V2  1  0.500000  0.251271  0.754302  1
  V  V3  1  0.500000  0.248411  0.247478  1
  V  V4  1  0.747730  0.000000  0.006022  1
  V  V5  1  0.751267  0.000000  0.492423  1
  V  V6  1  0.000000  0.500000  0.873837  1
  V  V7  1  0.000000  0.500000  0.376794  1
  V  V8  1  0.500000  0.748729  0.754302  1
  V  V9  1  0.500000  0.751589  0.247478  1
  V  V10  1  0.252270  0.000000  0.006022  1
  V  V11  1  0.248733  0.000000  0.492423  1
  Si  Si12  1  0.000000  0.000000  0.248970  1
  Os  Os13  1  0.500000  0.500000  0.999405  1
  Pt  Pt14  1  0.500000  0.500000  0.503160  1
  Pt  Pt15  1  0.000000  0.000000  0.748667  1
