# generated using pymatgen
data_TbEr6Co4Sn23Ir2
_symmetry_space_group_name_H-M   'P 1'
_cell_length_a   9.74396704
_cell_length_b   9.74396729
_cell_length_c   10.01956623
_cell_angle_alpha   90.21626809
_cell_angle_beta   89.78372524
_cell_angle_gamma   120.07217453
_symmetry_Int_Tables_number   1
_chemical_formula_structural   TbEr6Co4Sn23Ir2
_chemical_formula_sum   'Tb1 Er6 Co4 Sn23 Ir2'
_cell_volume   823.24810733
_cell_formula_units_Z   1
loop_
 _symmetry_equiv_pos_site_id
 _symmetry_equiv_pos_as_xyz
  1  'x, y, z'
loop_
 _atom_site_type_symbol
 _atom_site_label
 _atom_site_symmetry_multiplicity
 _atom_site_fract_x
 _atom_site_fract_y
 _atom_site_fract_z
 _atom_site_occupancy
  Tb  Tb0  1  0.000000  0.000000  0.000000  1
  Er  Er1  1  0.479165  0.520835  0.306912  1
  Er  Er2  1  0.520835  0.479165  0.693088  1
  Er  Er3  1  0.479829  0.958556  0.306334  1
  Er  Er4  1  0.520171  0.041444  0.693666  1
  Er  Er5  1  0.041444  0.520171  0.306334  1
  Er  Er6  1  0.958556  0.479829  0.693666  1
  Co  Co7  1  0.830467  0.663256  0.197892  1
  Co  Co8  1  0.169533  0.336744  0.802108  1
  Co  Co9  1  0.336744  0.169533  0.197892  1
  Co  Co10  1  0.663256  0.830467  0.802108  1
  Sn  Sn11  1  0.117833  0.882167  0.274162  1
  Sn  Sn12  1  0.882167  0.117833  0.725838  1
  Sn  Sn13  1  0.124919  0.238440  0.278620  1
  Sn  Sn14  1  0.875081  0.761560  0.721380  1
  Sn  Sn15  1  0.761560  0.875081  0.278620  1
  Sn  Sn16  1  0.238440  0.124919  0.721380  1
  Sn  Sn17  1  0.779040  0.220960  0.457987  1
  Sn  Sn18  1  0.220960  0.779040  0.542013  1
  Sn  Sn19  1  0.780661  0.560982  0.451405  1
  Sn  Sn20  1  0.219339  0.439018  0.548595  1
  Sn  Sn21  1  0.439018  0.219339  0.451405  1
  Sn  Sn22  1  0.560982  0.780661  0.548595  1
  Sn  Sn23  1  0.351538  0.004749  0.005830  1
  Sn  Sn24  1  0.648462  0.995251  0.994170  1
  Sn  Sn25  1  0.004749  0.351538  0.994170  1
  Sn  Sn26  1  0.995251  0.648462  0.005830  1
  Sn  Sn27  1  0.653779  0.653779  0.000000  1
  Sn  Sn28  1  0.346221  0.346221  0.000000  1
  Sn  Sn29  1  0.333716  0.666284  0.119960  1
  Sn  Sn30  1  0.666284  0.333716  0.880040  1
  Sn  Sn31  1  0.336054  0.663946  0.819905  1
  Sn  Sn32  1  0.663946  0.336054  0.180095  1
  Sn  Sn33  1  0.000000  0.000000  0.500000  1
  Ir  Ir34  1  0.831585  0.168415  0.197328  1
  Ir  Ir35  1  0.168415  0.831585  0.802672  1
