# generated using pymatgen
data_Ho8LuTh3Co4
_symmetry_space_group_name_H-M   'P 1'
_cell_length_a   6.26295804
_cell_length_b   6.86123979
_cell_length_c   9.49256810
_cell_angle_alpha   89.98479522
_cell_angle_beta   89.99350434
_cell_angle_gamma   91.05949032
_symmetry_Int_Tables_number   1
_chemical_formula_structural   Ho8LuTh3Co4
_chemical_formula_sum   'Ho8 Lu1 Th3 Co4'
_cell_volume   407.84162357
_cell_formula_units_Z   1
loop_
 _symmetry_equiv_pos_site_id
 _symmetry_equiv_pos_as_xyz
  1  'x, y, z'
loop_
 _atom_site_type_symbol
 _atom_site_label
 _atom_site_symmetry_multiplicity
 _atom_site_fract_x
 _atom_site_fract_y
 _atom_site_fract_z
 _atom_site_occupancy
  Ho  Ho0  1  0.328641  0.673699  0.067986  1
  Ho  Ho1  1  0.169498  0.171078  0.430941  1
  Ho  Ho2  1  0.674134  0.327654  0.569006  1
  Ho  Ho3  1  0.825394  0.827851  0.929155  1
  Ho  Ho4  1  0.674188  0.326987  0.931451  1
  Ho  Ho5  1  0.825191  0.827702  0.571087  1
  Ho  Ho6  1  0.329402  0.673485  0.432040  1
  Ho  Ho7  1  0.356614  0.958361  0.750833  1
  Lu  Lu8  1  0.169359  0.171230  0.069003  1
  Th  Th9  1  0.847406  0.550155  0.249747  1
  Th  Th10  1  0.652704  0.053163  0.248999  1
  Th  Th11  1  0.155447  0.450172  0.750678  1
  Co  Co12  1  0.036980  0.871918  0.249390  1
  Co  Co13  1  0.459732  0.371782  0.249057  1
  Co  Co14  1  0.959826  0.131746  0.750830  1
  Co  Co15  1  0.535487  0.613017  0.749796  1
