# generated using pymatgen
data_Nd3Y5Cd2PdRu
_symmetry_space_group_name_H-M   'P 1'
_cell_length_a   9.78280234
_cell_length_b   9.78280298
_cell_length_c   9.81476900
_cell_angle_alpha   59.89185396
_cell_angle_beta   59.89185179
_cell_angle_gamma   60.01279114
_symmetry_Int_Tables_number   1
_chemical_formula_structural   Nd3Y5Cd2PdRu
_chemical_formula_sum   'Nd6 Y10 Cd4 Pd2 Ru2'
_cell_volume   663.16507133
_cell_formula_units_Z   2
loop_
 _symmetry_equiv_pos_site_id
 _symmetry_equiv_pos_as_xyz
  1  'x, y, z'
loop_
 _atom_site_type_symbol
 _atom_site_label
 _atom_site_symmetry_multiplicity
 _atom_site_fract_x
 _atom_site_fract_y
 _atom_site_fract_z
 _atom_site_occupancy
  Nd  Nd0  1  0.937887  0.556966  0.564692  1
  Nd  Nd1  1  0.556966  0.937887  0.940455  1
  Nd  Nd2  1  0.556966  0.937887  0.564692  1
  Nd  Nd3  1  0.937887  0.556966  0.940455  1
  Nd  Nd4  1  0.561736  0.561736  0.938264  1
  Nd  Nd5  1  0.939466  0.939466  0.560534  1
  Y  Y6  1  0.348797  0.348797  0.355393  1
  Y  Y7  1  0.348797  0.348797  0.947013  1
  Y  Y8  1  0.344019  0.956650  0.349666  1
  Y  Y9  1  0.956650  0.344019  0.349666  1
  Y  Y10  1  0.818533  0.185708  0.188499  1
  Y  Y11  1  0.185708  0.818533  0.807259  1
  Y  Y12  1  0.185708  0.818533  0.188499  1
  Y  Y13  1  0.818533  0.185708  0.807259  1
  Y  Y14  1  0.185728  0.185728  0.814272  1
  Y  Y15  1  0.811230  0.811230  0.188770  1
  Cd  Cd16  1  0.579350  0.579350  0.579448  1
  Cd  Cd17  1  0.579350  0.579350  0.261852  1
  Cd  Cd18  1  0.580100  0.259483  0.580209  1
  Cd  Cd19  1  0.259483  0.580100  0.580209  1
  Pd  Pd20  1  0.146591  0.571651  0.140879  1
  Pd  Pd21  1  0.571651  0.146591  0.140879  1
  Ru  Ru22  1  0.144432  0.144432  0.137581  1
  Ru  Ru23  1  0.144432  0.144432  0.573556  1
