# generated using pymatgen
data_YCoP3Ru3Rh
_symmetry_space_group_name_H-M   'P 1'
_cell_length_a   3.85439400
_cell_length_b   10.71590900
_cell_length_c   12.28368800
_cell_angle_alpha   90.00000000
_cell_angle_beta   90.00000000
_cell_angle_gamma   90.00000000
_symmetry_Int_Tables_number   1
_chemical_formula_structural   YCoP3Ru3Rh
_chemical_formula_sum   'Y4 Co4 P12 Ru12 Rh4'
_cell_volume   507.35728485
_cell_formula_units_Z   4
loop_
 _symmetry_equiv_pos_site_id
 _symmetry_equiv_pos_as_xyz
  1  'x, y, z'
loop_
 _atom_site_type_symbol
 _atom_site_label
 _atom_site_symmetry_multiplicity
 _atom_site_fract_x
 _atom_site_fract_y
 _atom_site_fract_z
 _atom_site_occupancy
  Y  Y0  1  0.250000  0.913836  0.206186  1
  Y  Y1  1  0.750000  0.086164  0.793814  1
  Y  Y2  1  0.750000  0.413836  0.293814  1
  Y  Y3  1  0.250000  0.586164  0.706186  1
  Co  Co4  1  0.250000  0.037484  0.436889  1
  Co  Co5  1  0.750000  0.962516  0.563111  1
  Co  Co6  1  0.750000  0.537484  0.063111  1
  Co  Co7  1  0.250000  0.462516  0.936889  1
  P  P8  1  0.250000  0.079834  0.608703  1
  P  P9  1  0.750000  0.920166  0.391297  1
  P  P10  1  0.750000  0.579834  0.891297  1
  P  P11  1  0.250000  0.420166  0.108703  1
  P  P12  1  0.250000  0.230518  0.372290  1
  P  P13  1  0.750000  0.769482  0.627710  1
  P  P14  1  0.750000  0.730518  0.127710  1
  P  P15  1  0.250000  0.269482  0.872290  1
  P  P16  1  0.250000  0.899871  0.893282  1
  P  P17  1  0.750000  0.100129  0.106718  1
  P  P18  1  0.750000  0.399871  0.606718  1
  P  P19  1  0.250000  0.600129  0.393282  1
  Ru  Ru20  1  0.250000  0.792854  0.484366  1
  Ru  Ru21  1  0.750000  0.207146  0.515634  1
  Ru  Ru22  1  0.750000  0.292854  0.015634  1
  Ru  Ru23  1  0.250000  0.707146  0.984366  1
  Ru  Ru24  1  0.250000  0.095314  0.987209  1
  Ru  Ru25  1  0.750000  0.904686  0.012791  1
  Ru  Ru26  1  0.750000  0.595314  0.512791  1
  Ru  Ru27  1  0.250000  0.404686  0.487209  1
  Ru  Ru28  1  0.250000  0.274012  0.679234  1
  Ru  Ru29  1  0.750000  0.725988  0.320766  1
  Ru  Ru30  1  0.750000  0.774012  0.820766  1
  Ru  Ru31  1  0.250000  0.225988  0.179234  1
  Rh  Rh32  1  0.250000  0.609475  0.198907  1
  Rh  Rh33  1  0.750000  0.390525  0.801093  1
  Rh  Rh34  1  0.750000  0.109475  0.301093  1
  Rh  Rh35  1  0.250000  0.890525  0.698907  1
