# generated using pymatgen
data_Sr2Cu3P4
_symmetry_space_group_name_H-M   'P 1'
_cell_length_a   8.16341295
_cell_length_b   8.16341281
_cell_length_c   8.16341312
_cell_angle_alpha   137.15841772
_cell_angle_beta   110.02849737
_cell_angle_gamma   85.65717044
_symmetry_Int_Tables_number   1
_chemical_formula_structural   Sr2Cu3P4
_chemical_formula_sum   'Sr4 Cu6 P8'
_cell_volume   334.19189429
_cell_formula_units_Z   2
loop_
 _symmetry_equiv_pos_site_id
 _symmetry_equiv_pos_as_xyz
  1  'x, y, z'
loop_
 _atom_site_type_symbol
 _atom_site_label
 _atom_site_symmetry_multiplicity
 _atom_site_fract_x
 _atom_site_fract_y
 _atom_site_fract_z
 _atom_site_occupancy
  Sr  Sr0  1  0.095659  0.888189  0.207469  1
  Sr  Sr1  1  0.904341  0.111811  0.792531  1
  Sr  Sr2  1  0.319281  0.611811  0.707469  1
  Sr  Sr3  1  0.680719  0.388189  0.292531  1
  Cu  Cu4  1  0.500000  0.750000  0.250000  1
  Cu  Cu5  1  0.500000  0.250000  0.750000  1
  Cu  Cu6  1  0.274900  0.024900  0.750000  1
  Cu  Cu7  1  0.725100  0.475100  0.750000  1
  Cu  Cu8  1  0.274900  0.524900  0.250000  1
  Cu  Cu9  1  0.725100  0.975100  0.250000  1
  P  P10  1  0.483632  0.119678  0.363954  1
  P  P11  1  0.516368  0.880322  0.636046  1
  P  P12  1  0.244275  0.380322  0.863954  1
  P  P13  1  0.755725  0.619678  0.136046  1
  P  P14  1  0.978036  0.349601  0.628435  1
  P  P15  1  0.021964  0.650399  0.371565  1
  P  P16  1  0.721166  0.849601  0.871565  1
  P  P17  1  0.278834  0.150399  0.128435  1
