# generated using pymatgen
data_Ho8Lu12Si15Se
_symmetry_space_group_name_H-M   'P 1'
_cell_length_a   7.36578079
_cell_length_b   7.54020103
_cell_length_c   14.35197365
_cell_angle_alpha   89.67825085
_cell_angle_beta   86.74838484
_cell_angle_gamma   89.85512232
_symmetry_Int_Tables_number   1
_chemical_formula_structural   Ho8Lu12Si15Se
_chemical_formula_sum   'Ho8 Lu12 Si15 Se1'
_cell_volume   795.80320675
_cell_formula_units_Z   1
loop_
 _symmetry_equiv_pos_site_id
 _symmetry_equiv_pos_as_xyz
  1  'x, y, z'
loop_
 _atom_site_type_symbol
 _atom_site_label
 _atom_site_symmetry_multiplicity
 _atom_site_fract_x
 _atom_site_fract_y
 _atom_site_fract_z
 _atom_site_occupancy
  Ho  Ho0  1  0.014599  0.179731  0.098796  1
  Ho  Ho1  1  0.985855  0.822515  0.900837  1
  Ho  Ho2  1  0.486359  0.680513  0.901462  1
  Ho  Ho3  1  0.007590  0.829006  0.600703  1
  Ho  Ho4  1  0.514110  0.320631  0.098796  1
  Ho  Ho5  1  0.984575  0.169019  0.396707  1
  Ho  Ho6  1  0.495072  0.313388  0.397741  1
  Ho  Ho7  1  0.517037  0.685617  0.601844  1
  Lu  Lu8  1  0.175002  0.506814  0.753032  1
  Lu  Lu9  1  0.824519  0.493857  0.253302  1
  Lu  Lu10  1  0.322815  0.003598  0.252393  1
  Lu  Lu11  1  0.677308  0.996461  0.748012  1
  Lu  Lu12  1  0.361289  0.162282  0.622267  1
  Lu  Lu13  1  0.640709  0.831392  0.378514  1
  Lu  Lu14  1  0.139286  0.665537  0.379641  1
  Lu  Lu15  1  0.665766  0.820999  0.123550  1
  Lu  Lu16  1  0.855047  0.334620  0.619534  1
  Lu  Lu17  1  0.333198  0.178461  0.875570  1
  Lu  Lu18  1  0.832576  0.324194  0.875435  1
  Lu  Lu19  1  0.167073  0.676469  0.123763  1
  Si  Si20  1  0.048781  0.115810  0.748784  1
  Si  Si21  1  0.950316  0.885378  0.248778  1
  Si  Si22  1  0.450156  0.610337  0.250647  1
  Si  Si23  1  0.547485  0.389375  0.748406  1
  Si  Si24  1  0.297292  0.868942  0.751678  1
  Si  Si25  1  0.703682  0.128353  0.246916  1
  Si  Si26  1  0.204337  0.368731  0.248769  1
  Si  Si27  1  0.798819  0.632673  0.750761  1
  Si  Si28  1  0.790700  0.531068  0.456327  1
  Si  Si29  1  0.293960  0.964159  0.458594  1
  Si  Si30  1  0.845602  0.531166  0.039446  1
  Si  Si31  1  0.701985  0.036392  0.542150  1
  Si  Si32  1  0.153598  0.470398  0.959819  1
  Si  Si33  1  0.653932  0.032748  0.960105  1
  Si  Si34  1  0.345007  0.968902  0.039815  1
  Se  Se35  1  0.214564  0.470468  0.547104  1
