# generated using pymatgen
data_Sc6Al16Os6Rh
_symmetry_space_group_name_H-M   'P 1'
_cell_length_a   8.76459841
_cell_length_b   8.76459790
_cell_length_c   8.76459800
_cell_angle_alpha   59.99999961
_cell_angle_beta   60.00000156
_cell_angle_gamma   59.99999691
_symmetry_Int_Tables_number   1
_chemical_formula_structural   Sc6Al16Os6Rh
_chemical_formula_sum   'Sc6 Al16 Os6 Rh1'
_cell_volume   476.08118196
_cell_formula_units_Z   1
loop_
 _symmetry_equiv_pos_site_id
 _symmetry_equiv_pos_as_xyz
  1  'x, y, z'
loop_
 _atom_site_type_symbol
 _atom_site_label
 _atom_site_symmetry_multiplicity
 _atom_site_fract_x
 _atom_site_fract_y
 _atom_site_fract_z
 _atom_site_occupancy
  Sc  Sc0  1  0.711296  0.288704  0.288704  1
  Sc  Sc1  1  0.711296  0.288704  0.711296  1
  Sc  Sc2  1  0.711296  0.711296  0.288704  1
  Sc  Sc3  1  0.288704  0.711296  0.711296  1
  Sc  Sc4  1  0.288704  0.711296  0.288704  1
  Sc  Sc5  1  0.288704  0.288704  0.711296  1
  Al  Al6  1  0.634218  0.121927  0.121927  1
  Al  Al7  1  0.121927  0.634218  0.121927  1
  Al  Al8  1  0.121927  0.121927  0.634218  1
  Al  Al9  1  0.121927  0.121927  0.121927  1
  Al  Al10  1  0.365782  0.878073  0.878073  1
  Al  Al11  1  0.878073  0.365782  0.878073  1
  Al  Al12  1  0.878073  0.878073  0.365782  1
  Al  Al13  1  0.878073  0.878073  0.878073  1
  Al  Al14  1  0.987108  0.337631  0.337631  1
  Al  Al15  1  0.337631  0.987108  0.337631  1
  Al  Al16  1  0.337631  0.337631  0.987108  1
  Al  Al17  1  0.337631  0.337631  0.337631  1
  Al  Al18  1  0.012892  0.662369  0.662369  1
  Al  Al19  1  0.662369  0.012892  0.662369  1
  Al  Al20  1  0.662369  0.662369  0.012892  1
  Al  Al21  1  0.662369  0.662369  0.662369  1
  Os  Os22  1  0.500000  0.000000  0.000000  1
  Os  Os23  1  0.500000  0.000000  0.500000  1
  Os  Os24  1  0.500000  0.500000  0.000000  1
  Os  Os25  1  0.000000  0.500000  0.500000  1
  Os  Os26  1  0.000000  0.500000  0.000000  1
  Os  Os27  1  0.000000  0.000000  0.500000  1
  Rh  Rh28  1  0.000000  0.000000  0.000000  1
