# generated using pymatgen
data_Tm3Pa3VCo17P12
_symmetry_space_group_name_H-M   'P 1'
_cell_length_a   3.71785800
_cell_length_b   10.49260166
_cell_length_c   12.19703240
_cell_angle_alpha   90.02863634
_cell_angle_beta   90.00000000
_cell_angle_gamma   90.00000000
_symmetry_Int_Tables_number   1
_chemical_formula_structural   Tm3Pa3VCo17P12
_chemical_formula_sum   'Tm3 Pa3 V1 Co17 P12'
_cell_volume   475.80621107
_cell_formula_units_Z   1
loop_
 _symmetry_equiv_pos_site_id
 _symmetry_equiv_pos_as_xyz
  1  'x, y, z'
loop_
 _atom_site_type_symbol
 _atom_site_label
 _atom_site_symmetry_multiplicity
 _atom_site_fract_x
 _atom_site_fract_y
 _atom_site_fract_z
 _atom_site_occupancy
  Tm  Tm0  1  0.500000  0.185516  0.203470  1
  Tm  Tm1  1  0.000000  0.684146  0.794763  1
  Tm  Tm2  1  0.000000  0.316066  0.792918  1
  Pa  Pa3  1  0.000000  0.499343  0.528969  1
  Pa  Pa4  1  0.500000  0.001250  0.473359  1
  Pa  Pa5  1  0.500000  0.819082  0.206489  1
  V  V6  1  0.000000  0.000028  0.848274  1
  Co  Co7  1  0.500000  0.499969  0.159649  1
  Co  Co8  1  0.500000  0.498932  0.696541  1
  Co  Co9  1  0.000000  0.994879  0.300152  1
  Co  Co10  1  0.000000  0.499220  0.980986  1
  Co  Co11  1  0.500000  0.000585  0.014161  1
  Co  Co12  1  0.500000  0.335435  0.991839  1
  Co  Co13  1  0.500000  0.665415  0.993163  1
  Co  Co14  1  0.000000  0.169515  0.007399  1
  Co  Co15  1  0.000000  0.833646  0.009615  1
  Co  Co16  1  0.500000  0.299840  0.431932  1
  Co  Co17  1  0.500000  0.697390  0.431935  1
  Co  Co18  1  0.000000  0.197775  0.567042  1
  Co  Co19  1  0.000000  0.801235  0.571514  1
  Co  Co20  1  0.500000  0.879506  0.711430  1
  Co  Co21  1  0.500000  0.120577  0.710317  1
  Co  Co22  1  0.000000  0.622053  0.287300  1
  Co  Co23  1  0.000000  0.379840  0.288477  1
  P  P24  1  0.500000  0.499875  0.876524  1
  P  P25  1  0.000000  0.004726  0.119194  1
  P  P26  1  0.500000  0.498830  0.343923  1
  P  P27  1  0.000000  0.999460  0.656464  1
  P  P28  1  0.500000  0.306695  0.616982  1
  P  P29  1  0.500000  0.692129  0.618683  1
  P  P30  1  0.000000  0.190805  0.380001  1
  P  P31  1  0.000000  0.806309  0.388368  1
  P  P32  1  0.500000  0.844718  0.894099  1
  P  P33  1  0.500000  0.156642  0.893469  1
  P  P34  1  0.000000  0.648565  0.104094  1
  P  P35  1  0.000000  0.350003  0.106509  1
