# generated using pymatgen
data_LuTh3(Tc3Ge4)2
_symmetry_space_group_name_H-M   'P 1'
_cell_length_a   8.37210891
_cell_length_b   5.82899921
_cell_length_c   7.04538228
_cell_angle_alpha   76.17187819
_cell_angle_beta   90.41675522
_cell_angle_gamma   90.17920392
_symmetry_Int_Tables_number   1
_chemical_formula_structural   LuTh3(Tc3Ge4)2
_chemical_formula_sum   'Lu1 Th3 Tc6 Ge8'
_cell_volume   333.84768417
_cell_formula_units_Z   1
loop_
 _symmetry_equiv_pos_site_id
 _symmetry_equiv_pos_as_xyz
  1  'x, y, z'
loop_
 _atom_site_type_symbol
 _atom_site_label
 _atom_site_symmetry_multiplicity
 _atom_site_fract_x
 _atom_site_fract_y
 _atom_site_fract_z
 _atom_site_occupancy
  Lu  Lu0  1  0.939772  0.573280  0.242332  1
  Th  Th1  1  0.556059  0.075304  0.249716  1
  Th  Th2  1  0.056573  0.424879  0.753582  1
  Th  Th3  1  0.439419  0.923767  0.750738  1
  Tc  Tc4  1  0.212915  0.119600  0.111351  1
  Tc  Tc5  1  0.711720  0.381334  0.892812  1
  Tc  Tc6  1  0.792717  0.889989  0.887383  1
  Tc  Tc7  1  0.296623  0.614599  0.107892  1
  Tc  Tc8  1  0.999749  0.998290  0.498549  1
  Tc  Tc9  1  0.498784  0.502335  0.500308  1
  Ge  Ge10  1  0.907302  0.112816  0.133418  1
  Ge  Ge11  1  0.407967  0.383652  0.871646  1
  Ge  Ge12  1  0.092072  0.876170  0.885099  1
  Ge  Ge13  1  0.601271  0.618899  0.126005  1
  Ge  Ge14  1  0.749411  0.226934  0.581520  1
  Ge  Ge15  1  0.242138  0.286273  0.412326  1
  Ge  Ge16  1  0.243228  0.771031  0.410448  1
  Ge  Ge17  1  0.752278  0.720846  0.584876  1
