# generated using pymatgen
data_Na4DyGe6P6Ir19
_symmetry_space_group_name_H-M   'P 1'
_cell_length_a   12.88318000
_cell_length_b   12.88318023
_cell_length_c   3.99599700
_cell_angle_alpha   90.00000000
_cell_angle_beta   90.00000000
_cell_angle_gamma   119.99999873
_symmetry_Int_Tables_number   1
_chemical_formula_structural   Na4DyGe6P6Ir19
_chemical_formula_sum   'Na4 Dy1 Ge6 P6 Ir19'
_cell_volume   574.38348948
_cell_formula_units_Z   1
loop_
 _symmetry_equiv_pos_site_id
 _symmetry_equiv_pos_as_xyz
  1  'x, y, z'
loop_
 _atom_site_type_symbol
 _atom_site_label
 _atom_site_symmetry_multiplicity
 _atom_site_fract_x
 _atom_site_fract_y
 _atom_site_fract_z
 _atom_site_occupancy
  Na  Na0  1  0.333333  0.666667  0.500000  1
  Na  Na1  1  0.001663  0.824724  0.000000  1
  Na  Na2  1  0.175276  0.176938  0.000000  1
  Na  Na3  1  0.823062  0.998337  0.000000  1
  Dy  Dy4  1  0.666667  0.333333  0.500000  1
  Ge  Ge5  1  0.001759  0.644294  0.500000  1
  Ge  Ge6  1  0.355706  0.357464  0.500000  1
  Ge  Ge7  1  0.642536  0.998241  0.500000  1
  Ge  Ge8  1  0.515567  0.679280  0.000000  1
  Ge  Ge9  1  0.320720  0.836286  0.000000  1
  Ge  Ge10  1  0.163714  0.484433  0.000000  1
  P  P11  1  0.480487  0.176200  0.000000  1
  P  P12  1  0.695712  0.519513  0.000000  1
  P  P13  1  0.823800  0.304288  0.000000  1
  P  P14  1  0.997027  0.177052  0.500000  1
  P  P15  1  0.822948  0.819975  0.500000  1
  P  P16  1  0.180025  0.002973  0.500000  1
  Ir  Ir17  1  0.525213  0.877228  0.000000  1
  Ir  Ir18  1  0.122772  0.647986  0.000000  1
  Ir  Ir19  1  0.352014  0.474787  0.000000  1
  Ir  Ir20  1  0.502349  0.367939  0.000000  1
  Ir  Ir21  1  0.865591  0.497651  0.000000  1
  Ir  Ir22  1  0.632061  0.134409  0.000000  1
  Ir  Ir23  1  0.998690  0.450719  0.500000  1
  Ir  Ir24  1  0.549281  0.547970  0.500000  1
  Ir  Ir25  1  0.452030  0.001310  0.500000  1
  Ir  Ir26  1  0.989223  0.275897  0.000000  1
  Ir  Ir27  1  0.724103  0.713326  0.000000  1
  Ir  Ir28  1  0.286674  0.010777  0.000000  1
  Ir  Ir29  1  0.633515  0.802792  0.500000  1
  Ir  Ir30  1  0.197208  0.830723  0.500000  1
  Ir  Ir31  1  0.169277  0.366485  0.500000  1
  Ir  Ir32  1  0.387314  0.183718  0.500000  1
  Ir  Ir33  1  0.796404  0.612686  0.500000  1
  Ir  Ir34  1  0.816282  0.203596  0.500000  1
  Ir  Ir35  1  0.000000  0.000000  0.500000  1
