# generated using pymatgen
data_LuTh3Ge6Os7
_symmetry_space_group_name_H-M   'P 1'
_cell_length_a   7.34466118
_cell_length_b   7.39153811
_cell_length_c   7.34466011
_cell_angle_alpha   109.60056846
_cell_angle_beta   109.34155539
_cell_angle_gamma   109.60057270
_symmetry_Int_Tables_number   1
_chemical_formula_structural   LuTh3Ge6Os7
_chemical_formula_sum   'Lu1 Th3 Ge6 Os7'
_cell_volume   306.45072515
_cell_formula_units_Z   1
loop_
 _symmetry_equiv_pos_site_id
 _symmetry_equiv_pos_as_xyz
  1  'x, y, z'
loop_
 _atom_site_type_symbol
 _atom_site_label
 _atom_site_symmetry_multiplicity
 _atom_site_fract_x
 _atom_site_fract_y
 _atom_site_fract_z
 _atom_site_occupancy
  Lu  Lu0  1  0.000000  0.500000  0.000000  1
  Th  Th1  1  0.000000  0.000000  0.500000  1
  Th  Th2  1  0.500000  0.000000  0.000000  1
  Th  Th3  1  0.500000  0.500000  0.500000  1
  Ge  Ge4  1  0.688883  0.682010  0.000000  1
  Ge  Ge5  1  0.311117  0.993127  0.311117  1
  Ge  Ge6  1  0.000000  0.317990  0.311117  1
  Ge  Ge7  1  0.311117  0.317990  0.000000  1
  Ge  Ge8  1  0.688883  0.006873  0.688883  1
  Ge  Ge9  1  0.000000  0.682010  0.688883  1
  Os  Os10  1  0.752282  0.252282  0.504565  1
  Os  Os11  1  0.752282  0.500000  0.247718  1
  Os  Os12  1  0.504565  0.252282  0.752282  1
  Os  Os13  1  0.247718  0.500000  0.752282  1
  Os  Os14  1  0.247718  0.747718  0.495435  1
  Os  Os15  1  0.495435  0.747718  0.247718  1
  Os  Os16  1  0.000000  0.000000  0.000000  1
