# generated using pymatgen
data_Ta6Ga4Fe2CN
_symmetry_space_group_name_H-M   'P 1'
_cell_length_a   8.16067888
_cell_length_b   8.18427920
_cell_length_c   8.15994804
_cell_angle_alpha   59.89125252
_cell_angle_beta   59.81874886
_cell_angle_gamma   59.89418854
_symmetry_Int_Tables_number   1
_chemical_formula_structural   Ta6Ga4Fe2CN
_chemical_formula_sum   'Ta12 Ga8 Fe4 C2 N2'
_cell_volume   384.21692473
_cell_formula_units_Z   2
loop_
 _symmetry_equiv_pos_site_id
 _symmetry_equiv_pos_as_xyz
  1  'x, y, z'
loop_
 _atom_site_type_symbol
 _atom_site_label
 _atom_site_symmetry_multiplicity
 _atom_site_fract_x
 _atom_site_fract_y
 _atom_site_fract_z
 _atom_site_occupancy
  Ta  Ta0  1  0.554351  0.945661  0.554333  1
  Ta  Ta1  1  0.305166  0.694316  0.695353  1
  Ta  Ta2  1  0.695362  0.305166  0.305167  1
  Ta  Ta3  1  0.306083  0.693949  0.306072  1
  Ta  Ta4  1  0.695345  0.694328  0.305160  1
  Ta  Ta5  1  0.305174  0.305166  0.695369  1
  Ta  Ta6  1  0.554655  0.555670  0.944841  1
  Ta  Ta7  1  0.944834  0.555684  0.554647  1
  Ta  Ta8  1  0.554638  0.944834  0.944833  1
  Ta  Ta9  1  0.944826  0.944836  0.554629  1
  Ta  Ta10  1  0.695650  0.304339  0.695667  1
  Ta  Ta11  1  0.943916  0.556051  0.943928  1
  Ga  Ga12  1  0.915994  0.916281  0.915991  1
  Ga  Ga13  1  0.998170  0.333885  0.334158  1
  Ga  Ga14  1  0.334046  0.998246  0.334051  1
  Ga  Ga15  1  0.334155  0.333883  0.998179  1
  Ga  Ga16  1  0.915952  0.251755  0.915949  1
  Ga  Ga17  1  0.915846  0.916117  0.251821  1
  Ga  Ga18  1  0.251829  0.916113  0.915844  1
  Ga  Ga19  1  0.334006  0.333721  0.334008  1
  Fe  Fe20  1  0.125000  0.125000  0.125001  1
  Fe  Fe21  1  0.625000  0.125001  0.125000  1
  Fe  Fe22  1  0.125000  0.625000  0.125000  1
  Fe  Fe23  1  0.124999  0.125000  0.625000  1
  C  C24  1  0.625001  0.624999  0.625001  1
  C  C25  1  0.625001  0.125000  0.624999  1
  N  N26  1  0.125000  0.625001  0.624999  1
  N  N27  1  0.624999  0.625000  0.125000  1
