# generated using pymatgen
data_BaBBrF4
_symmetry_space_group_name_H-M   'P 1'
_cell_length_a   4.87091000
_cell_length_b   5.45156300
_cell_length_c   9.69252300
_cell_angle_alpha   90.00000000
_cell_angle_beta   90.00000000
_cell_angle_gamma   90.00000000
_symmetry_Int_Tables_number   1
_chemical_formula_structural   BaBBrF4
_chemical_formula_sum   'Ba2 B2 Br2 F8'
_cell_volume   257.37596070
_cell_formula_units_Z   2
loop_
 _symmetry_equiv_pos_site_id
 _symmetry_equiv_pos_as_xyz
  1  'x, y, z'
loop_
 _atom_site_type_symbol
 _atom_site_label
 _atom_site_symmetry_multiplicity
 _atom_site_fract_x
 _atom_site_fract_y
 _atom_site_fract_z
 _atom_site_occupancy
  Ba  Ba0  1  0.473832  0.500000  0.287920  1
  Ba  Ba1  1  0.973832  0.000000  0.712080  1
  B  B2  1  0.887271  0.000000  0.132810  1
  B  B3  1  0.387271  0.500000  0.867190  1
  Br  Br4  1  0.478086  0.000000  0.478426  1
  Br  Br5  1  0.978086  0.500000  0.521574  1
  F  F6  1  0.596815  0.000000  0.139897  1
  F  F7  1  0.096815  0.500000  0.860103  1
  F  F8  1  0.984616  0.785004  0.201266  1
  F  F9  1  0.984616  0.214996  0.201266  1
  F  F10  1  0.484616  0.714996  0.798734  1
  F  F11  1  0.484616  0.285004  0.798734  1
  F  F12  1  0.977465  0.000000  0.994822  1
  F  F13  1  0.477465  0.500000  0.005178  1
