# generated using pymatgen
data_BeGa7(NiRu)4
_symmetry_space_group_name_H-M   'P 1'
_cell_length_a   5.85852600
_cell_length_b   5.85873875
_cell_length_c   6.11117700
_cell_angle_alpha   90.00177010
_cell_angle_beta   89.99770172
_cell_angle_gamma   90.02902575
_symmetry_Int_Tables_number   1
_chemical_formula_structural   BeGa7(NiRu)4
_chemical_formula_sum   'Be1 Ga7 Ni4 Ru4'
_cell_volume   209.75740482
_cell_formula_units_Z   1
loop_
 _symmetry_equiv_pos_site_id
 _symmetry_equiv_pos_as_xyz
  1  'x, y, z'
loop_
 _atom_site_type_symbol
 _atom_site_label
 _atom_site_symmetry_multiplicity
 _atom_site_fract_x
 _atom_site_fract_y
 _atom_site_fract_z
 _atom_site_occupancy
  Be  Be0  1  0.500000  0.500049  0.750193  1
  Ga  Ga1  1  0.500081  0.999986  0.249960  1
  Ga  Ga2  1  0.500093  0.499976  0.249943  1
  Ga  Ga3  1  0.999928  0.000005  0.250008  1
  Ga  Ga4  1  0.999945  0.499981  0.250005  1
  Ga  Ga5  1  0.999982  0.999924  0.750010  1
  Ga  Ga6  1  0.000034  0.500055  0.749999  1
  Ga  Ga7  1  0.500017  0.999894  0.750059  1
  Ni  Ni8  1  0.254775  0.745312  0.990629  1
  Ni  Ni9  1  0.745467  0.254543  0.509670  1
  Ni  Ni10  1  0.254770  0.745230  0.509468  1
  Ni  Ni11  1  0.744909  0.255043  0.990007  1
  Ru  Ru12  1  0.253194  0.253249  0.997845  1
  Ru  Ru13  1  0.746758  0.746816  0.997863  1
  Ru  Ru14  1  0.253297  0.253231  0.502192  1
  Ru  Ru15  1  0.746754  0.746695  0.502150  1
