# generated using pymatgen
data_Ho3LuAl2(ZnPt2)2
_symmetry_space_group_name_H-M   'P 1'
_cell_length_a   4.32422100
_cell_length_b   6.75913754
_cell_length_c   7.92803349
_cell_angle_alpha   89.34038045
_cell_angle_beta   90.00000000
_cell_angle_gamma   90.00000000
_symmetry_Int_Tables_number   1
_chemical_formula_structural   Ho3LuAl2(ZnPt2)2
_chemical_formula_sum   'Ho3 Lu1 Al2 Zn2 Pt4'
_cell_volume   231.70524267
_cell_formula_units_Z   1
loop_
 _symmetry_equiv_pos_site_id
 _symmetry_equiv_pos_as_xyz
  1  'x, y, z'
loop_
 _atom_site_type_symbol
 _atom_site_label
 _atom_site_symmetry_multiplicity
 _atom_site_fract_x
 _atom_site_fract_y
 _atom_site_fract_z
 _atom_site_occupancy
  Ho  Ho0  1  0.250000  0.534688  0.178815  1
  Ho  Ho1  1  0.750000  0.465205  0.821625  1
  Ho  Ho2  1  0.750000  0.969250  0.684251  1
  Lu  Lu3  1  0.250000  0.031469  0.315518  1
  Al  Al4  1  0.250000  0.640334  0.557275  1
  Al  Al5  1  0.750000  0.359674  0.442080  1
  Zn  Zn6  1  0.750000  0.857627  0.062633  1
  Zn  Zn7  1  0.250000  0.142542  0.938198  1
  Pt  Pt8  1  0.250000  0.755394  0.868946  1
  Pt  Pt9  1  0.750000  0.242699  0.132354  1
  Pt  Pt10  1  0.750000  0.737048  0.386342  1
  Pt  Pt11  1  0.250000  0.264069  0.611963  1
