# generated using pymatgen
data_Y2CoNi8Mo3As7
_symmetry_space_group_name_H-M   'P 1'
_cell_length_a   3.90567000
_cell_length_b   9.50702309
_cell_length_c   9.54877590
_cell_angle_alpha   119.83733995
_cell_angle_beta   90.00000000
_cell_angle_gamma   90.00000000
_symmetry_Int_Tables_number   1
_chemical_formula_structural   Y2CoNi8Mo3As7
_chemical_formula_sum   'Y2 Co1 Ni8 Mo3 As7'
_cell_volume   307.55864279
_cell_formula_units_Z   1
loop_
 _symmetry_equiv_pos_site_id
 _symmetry_equiv_pos_as_xyz
  1  'x, y, z'
loop_
 _atom_site_type_symbol
 _atom_site_label
 _atom_site_symmetry_multiplicity
 _atom_site_fract_x
 _atom_site_fract_y
 _atom_site_fract_z
 _atom_site_occupancy
  Y  Y0  1  0.000000  0.668301  0.336792  1
  Y  Y1  1  0.500000  0.333650  0.666280  1
  Co  Co2  1  0.000000  0.846516  0.718164  1
  Ni  Ni3  1  0.000000  0.571024  0.937897  1
  Ni  Ni4  1  0.000000  0.369674  0.430559  1
  Ni  Ni5  1  0.000000  0.063459  0.633035  1
  Ni  Ni6  1  0.000000  0.870921  0.154908  1
  Ni  Ni7  1  0.000000  0.282973  0.129312  1
  Ni  Ni8  1  0.500000  0.942592  0.380906  1
  Ni  Ni9  1  0.500000  0.436457  0.056366  1
  Ni  Ni10  1  0.500000  0.618372  0.562096  1
  Mo  Mo11  1  0.500000  0.787008  0.895628  1
  Mo  Mo12  1  0.500000  0.109357  0.214265  1
  Mo  Mo13  1  0.500000  0.098770  0.884099  1
  As  As14  1  0.000000  0.000150  0.999074  1
  As  As15  1  0.500000  0.707766  0.114738  1
  As  As16  1  0.500000  0.406593  0.291338  1
  As  As17  1  0.500000  0.883699  0.592827  1
  As  As18  1  0.000000  0.590217  0.700690  1
  As  As19  1  0.000000  0.111862  0.411962  1
  As  As20  1  0.000000  0.300638  0.889062  1
