# generated using pymatgen
data_Y2Ho2MnRu7
_symmetry_space_group_name_H-M   'P 1'
_cell_length_a   5.34211300
_cell_length_b   5.20539532
_cell_length_c   8.93025849
_cell_angle_alpha   89.96268243
_cell_angle_beta   90.01087819
_cell_angle_gamma   120.57031948
_symmetry_Int_Tables_number   1
_chemical_formula_structural   Y2Ho2MnRu7
_chemical_formula_sum   'Y2 Ho2 Mn1 Ru7'
_cell_volume   213.81427604
_cell_formula_units_Z   1
loop_
 _symmetry_equiv_pos_site_id
 _symmetry_equiv_pos_as_xyz
  1  'x, y, z'
loop_
 _atom_site_type_symbol
 _atom_site_label
 _atom_site_symmetry_multiplicity
 _atom_site_fract_x
 _atom_site_fract_y
 _atom_site_fract_z
 _atom_site_occupancy
  Y  Y0  1  0.668012  0.335729  0.566362  1
  Y  Y1  1  0.331027  0.662942  0.432744  1
  Ho  Ho2  1  0.330993  0.662816  0.066517  1
  Ho  Ho3  1  0.668100  0.335893  0.934490  1
  Mn  Mn4  1  0.164987  0.331120  0.750096  1
  Ru  Ru5  1  0.000405  0.001650  0.501918  1
  Ru  Ru6  1  0.000716  0.002248  0.998157  1
  Ru  Ru7  1  0.174293  0.826546  0.751299  1
  Ru  Ru8  1  0.653629  0.826967  0.751271  1
  Ru  Ru9  1  0.834393  0.669501  0.249183  1
  Ru  Ru10  1  0.826538  0.172063  0.248960  1
  Ru  Ru11  1  0.346905  0.172523  0.249003  1
