# generated using pymatgen
data_Ca3Th(SiPd14)2
_symmetry_space_group_name_H-M   'P 1'
_cell_length_a   8.94028200
_cell_length_b   8.94028200
_cell_length_c   7.14043900
_cell_angle_alpha   90.00000000
_cell_angle_beta   90.00000000
_cell_angle_gamma   90.00000000
_symmetry_Int_Tables_number   1
_chemical_formula_structural   Ca3Th(SiPd14)2
_chemical_formula_sum   'Ca3 Th1 Si2 Pd28'
_cell_volume   570.72559426
_cell_formula_units_Z   1
loop_
 _symmetry_equiv_pos_site_id
 _symmetry_equiv_pos_as_xyz
  1  'x, y, z'
loop_
 _atom_site_type_symbol
 _atom_site_label
 _atom_site_symmetry_multiplicity
 _atom_site_fract_x
 _atom_site_fract_y
 _atom_site_fract_z
 _atom_site_occupancy
  Ca  Ca0  1  0.500000  0.000000  0.938185  1
  Ca  Ca1  1  0.000000  0.500000  0.061815  1
  Ca  Ca2  1  0.500000  0.500000  0.500000  1
  Th  Th3  1  0.000000  0.000000  0.500000  1
  Si  Si4  1  0.500000  0.000000  0.449040  1
  Si  Si5  1  0.000000  0.500000  0.550960  1
  Pd  Pd6  1  0.334328  0.833772  0.616101  1
  Pd  Pd7  1  0.334328  0.166228  0.616101  1
  Pd  Pd8  1  0.665672  0.833772  0.616101  1
  Pd  Pd9  1  0.665672  0.166228  0.616101  1
  Pd  Pd10  1  0.166228  0.665672  0.383899  1
  Pd  Pd11  1  0.166228  0.334328  0.383899  1
  Pd  Pd12  1  0.833772  0.665672  0.383899  1
  Pd  Pd13  1  0.833772  0.334328  0.383899  1
  Pd  Pd14  1  0.500000  0.770835  0.257514  1
  Pd  Pd15  1  0.500000  0.229165  0.257514  1
  Pd  Pd16  1  0.269029  0.000000  0.258998  1
  Pd  Pd17  1  0.730971  0.000000  0.258998  1
  Pd  Pd18  1  0.000000  0.730971  0.741002  1
  Pd  Pd19  1  0.000000  0.269029  0.741002  1
  Pd  Pd20  1  0.229165  0.500000  0.742486  1
  Pd  Pd21  1  0.770835  0.500000  0.742486  1
  Pd  Pd22  1  0.500000  0.349024  0.856223  1
  Pd  Pd23  1  0.500000  0.650976  0.856223  1
  Pd  Pd24  1  0.849265  0.000000  0.853456  1
  Pd  Pd25  1  0.150735  0.000000  0.853456  1
  Pd  Pd26  1  0.000000  0.150735  0.146544  1
  Pd  Pd27  1  0.000000  0.849265  0.146544  1
  Pd  Pd28  1  0.650976  0.500000  0.143777  1
  Pd  Pd29  1  0.349024  0.500000  0.143777  1
  Pd  Pd30  1  0.250184  0.749816  0.000000  1
  Pd  Pd31  1  0.250184  0.250184  0.000000  1
  Pd  Pd32  1  0.749816  0.749816  0.000000  1
  Pd  Pd33  1  0.749816  0.250184  0.000000  1
