# generated using pymatgen
data_Ce2ErMg2InTc2
_symmetry_space_group_name_H-M   'P 1'
_cell_length_a   8.26786424
_cell_length_b   8.26786557
_cell_length_c   4.85068257
_cell_angle_alpha   83.31749588
_cell_angle_beta   83.31748523
_cell_angle_gamma   34.49207254
_symmetry_Int_Tables_number   1
_chemical_formula_structural   Ce2ErMg2InTc2
_chemical_formula_sum   'Ce2 Er1 Mg2 In1 Tc2'
_cell_volume   186.37264254
_cell_formula_units_Z   1
loop_
 _symmetry_equiv_pos_site_id
 _symmetry_equiv_pos_as_xyz
  1  'x, y, z'
loop_
 _atom_site_type_symbol
 _atom_site_label
 _atom_site_symmetry_multiplicity
 _atom_site_fract_x
 _atom_site_fract_y
 _atom_site_fract_z
 _atom_site_occupancy
  Ce  Ce0  1  0.830266  0.830266  0.567590  1
  Ce  Ce1  1  0.169734  0.169734  0.432410  1
  Er  Er2  1  0.000000  0.000000  0.000000  1
  Mg  Mg3  1  0.373389  0.373389  0.049510  1
  Mg  Mg4  1  0.626611  0.626611  0.950490  1
  In  In5  1  0.500000  0.500000  0.500000  1
  Tc  Tc6  1  0.792342  0.792342  0.110327  1
  Tc  Tc7  1  0.207658  0.207658  0.889673  1
