# generated using pymatgen
data_Zr3TaOs2N
_symmetry_space_group_name_H-M   'P 1'
_cell_length_a   8.73996773
_cell_length_b   8.73996707
_cell_length_c   8.73996700
_cell_angle_alpha   59.99999646
_cell_angle_beta   59.99999896
_cell_angle_gamma   59.99999899
_symmetry_Int_Tables_number   1
_chemical_formula_structural   Zr3TaOs2N
_chemical_formula_sum   'Zr12 Ta4 Os8 N4'
_cell_volume   472.07869570
_cell_formula_units_Z   4
loop_
 _symmetry_equiv_pos_site_id
 _symmetry_equiv_pos_as_xyz
  1  'x, y, z'
loop_
 _atom_site_type_symbol
 _atom_site_label
 _atom_site_symmetry_multiplicity
 _atom_site_fract_x
 _atom_site_fract_y
 _atom_site_fract_z
 _atom_site_occupancy
  Zr  Zr0  1  0.812724  0.812724  0.187276  1
  Zr  Zr1  1  0.187276  0.187276  0.812724  1
  Zr  Zr2  1  0.812724  0.187276  0.812724  1
  Zr  Zr3  1  0.187276  0.812724  0.187276  1
  Zr  Zr4  1  0.187276  0.812724  0.812724  1
  Zr  Zr5  1  0.812724  0.187276  0.187276  1
  Zr  Zr6  1  0.437276  0.437276  0.062724  1
  Zr  Zr7  1  0.062724  0.062724  0.437276  1
  Zr  Zr8  1  0.437276  0.062724  0.437276  1
  Zr  Zr9  1  0.062724  0.437276  0.062724  1
  Zr  Zr10  1  0.062724  0.437276  0.437276  1
  Zr  Zr11  1  0.437276  0.062724  0.062724  1
  Ta  Ta12  1  0.125000  0.625000  0.625000  1
  Ta  Ta13  1  0.625000  0.125000  0.625000  1
  Ta  Ta14  1  0.625000  0.625000  0.125000  1
  Ta  Ta15  1  0.625000  0.625000  0.625000  1
  Os  Os16  1  0.749167  0.416944  0.416944  1
  Os  Os17  1  0.416944  0.749167  0.416944  1
  Os  Os18  1  0.416944  0.416944  0.749167  1
  Os  Os19  1  0.416944  0.416944  0.416944  1
  Os  Os20  1  0.500833  0.833056  0.833056  1
  Os  Os21  1  0.833056  0.500833  0.833056  1
  Os  Os22  1  0.833056  0.833056  0.500833  1
  Os  Os23  1  0.833056  0.833056  0.833056  1
  N  N24  1  0.625000  0.125000  0.125000  1
  N  N25  1  0.125000  0.625000  0.125000  1
  N  N26  1  0.125000  0.125000  0.625000  1
  N  N27  1  0.125000  0.125000  0.125000  1
