# generated using pymatgen
data_La2PbO2
_symmetry_space_group_name_H-M   'P 1'
_cell_length_a   4.04722267
_cell_length_b   4.04722215
_cell_length_c   8.05907454
_cell_angle_alpha   104.54245225
_cell_angle_beta   104.54245008
_cell_angle_gamma   89.99999711
_symmetry_Int_Tables_number   1
_chemical_formula_structural   La2PbO2
_chemical_formula_sum   'La2 Pb1 O2'
_cell_volume   123.40429390
_cell_formula_units_Z   1
loop_
 _symmetry_equiv_pos_site_id
 _symmetry_equiv_pos_as_xyz
  1  'x, y, z'
loop_
 _atom_site_type_symbol
 _atom_site_label
 _atom_site_symmetry_multiplicity
 _atom_site_fract_x
 _atom_site_fract_y
 _atom_site_fract_z
 _atom_site_occupancy
  La  La0  1  0.668578  0.668578  0.337156  1
  La  La1  1  0.331422  0.331422  0.662844  1
  Pb  Pb2  1  0.000000  0.000000  0.000000  1
  O  O3  1  0.750000  0.250000  0.500000  1
  O  O4  1  0.250000  0.750000  0.500000  1
