# generated using pymatgen
data_Sc4CS3
_symmetry_space_group_name_H-M   'P 1'
_cell_length_a   7.24001634
_cell_length_b   8.05216469
_cell_length_c   6.30486043
_cell_angle_alpha   154.97461883
_cell_angle_beta   106.90568403
_cell_angle_gamma   63.68712603
_symmetry_Int_Tables_number   1
_chemical_formula_structural   Sc4CS3
_chemical_formula_sum   'Sc4 C1 S3'
_cell_volume   133.28495705
_cell_formula_units_Z   1
loop_
 _symmetry_equiv_pos_site_id
 _symmetry_equiv_pos_as_xyz
  1  'x, y, z'
loop_
 _atom_site_type_symbol
 _atom_site_label
 _atom_site_symmetry_multiplicity
 _atom_site_fract_x
 _atom_site_fract_y
 _atom_site_fract_z
 _atom_site_occupancy
  Sc  Sc0  1  0.150605  0.323179  0.213668  1
  Sc  Sc1  1  0.713305  0.253336  0.131648  1
  Sc  Sc2  1  0.917268  0.836698  0.286414  1
  Sc  Sc3  1  0.479883  0.767307  0.205052  1
  C  C4  1  0.815267  0.545081  0.209260  1
  S  S5  1  0.315281  0.545057  0.209148  1
  S  S6  1  0.068085  0.050352  0.228239  1
  S  S7  1  0.562345  0.040063  0.190371  1
