# generated using pymatgen
data_TbTh5(GaPd)6
_symmetry_space_group_name_H-M   'P 1'
_cell_length_a   7.34051011
_cell_length_b   7.34457207
_cell_length_c   8.22124200
_cell_angle_alpha   90.00000000
_cell_angle_beta   90.00000000
_cell_angle_gamma   120.01892590
_symmetry_Int_Tables_number   1
_chemical_formula_structural   TbTh5(GaPd)6
_chemical_formula_sum   'Tb1 Th5 Ga6 Pd6'
_cell_volume   383.77611882
_cell_formula_units_Z   1
loop_
 _symmetry_equiv_pos_site_id
 _symmetry_equiv_pos_as_xyz
  1  'x, y, z'
loop_
 _atom_site_type_symbol
 _atom_site_label
 _atom_site_symmetry_multiplicity
 _atom_site_fract_x
 _atom_site_fract_y
 _atom_site_fract_z
 _atom_site_occupancy
  Tb  Tb0  1  0.999927  0.407853  0.250000  1
  Th  Th1  1  0.583692  0.581875  0.250000  1
  Th  Th2  1  0.000059  0.418357  0.750000  1
  Th  Th3  1  0.416428  0.998398  0.250000  1
  Th  Th4  1  0.414945  0.001425  0.750000  1
  Th  Th5  1  0.584938  0.586548  0.750000  1
  Ga  Ga6  1  0.240239  0.242955  0.499018  1
  Ga  Ga7  1  0.759692  0.002674  0.498965  1
  Ga  Ga8  1  0.000041  0.755704  0.496801  1
  Ga  Ga9  1  0.759692  0.002674  0.001035  1
  Ga  Ga10  1  0.240239  0.242955  0.000982  1
  Ga  Ga11  1  0.000041  0.755704  0.003199  1
  Pd  Pd12  1  0.334466  0.668071  0.499162  1
  Pd  Pd13  1  0.999908  0.001231  0.750000  1
  Pd  Pd14  1  0.000071  0.998227  0.250000  1
  Pd  Pd15  1  0.334466  0.668071  0.000838  1
  Pd  Pd16  1  0.665579  0.333639  0.499447  1
  Pd  Pd17  1  0.665579  0.333639  0.000553  1
