# generated using pymatgen
data_Y11Tm5(CdPd)4
_symmetry_space_group_name_H-M   'P 1'
_cell_length_a   9.66486199
_cell_length_b   9.68581168
_cell_length_c   9.68581143
_cell_angle_alpha   60.00138029
_cell_angle_beta   60.07152060
_cell_angle_gamma   60.07152379
_symmetry_Int_Tables_number   1
_chemical_formula_structural   Y11Tm5(CdPd)4
_chemical_formula_sum   'Y11 Tm5 Cd4 Pd4'
_cell_volume   641.83867349
_cell_formula_units_Z   1
loop_
 _symmetry_equiv_pos_site_id
 _symmetry_equiv_pos_as_xyz
  1  'x, y, z'
loop_
 _atom_site_type_symbol
 _atom_site_label
 _atom_site_symmetry_multiplicity
 _atom_site_fract_x
 _atom_site_fract_y
 _atom_site_fract_z
 _atom_site_occupancy
  Y  Y0  1  0.190115  0.809885  0.809885  1
  Y  Y1  1  0.189834  0.810431  0.190492  1
  Y  Y2  1  0.809243  0.190492  0.810431  1
  Y  Y3  1  0.189834  0.190492  0.810431  1
  Y  Y4  1  0.809243  0.810431  0.190492  1
  Y  Y5  1  0.934889  0.565111  0.565111  1
  Y  Y6  1  0.564416  0.935584  0.935584  1
  Y  Y7  1  0.565639  0.935689  0.563434  1
  Y  Y8  1  0.935238  0.563434  0.935689  1
  Y  Y9  1  0.565639  0.563434  0.935689  1
  Y  Y10  1  0.935238  0.935689  0.563434  1
  Tm  Tm11  1  0.352286  0.353220  0.353220  1
  Tm  Tm12  1  0.353421  0.354799  0.938359  1
  Tm  Tm13  1  0.353421  0.938359  0.354799  1
  Tm  Tm14  1  0.941275  0.353220  0.353220  1
  Tm  Tm15  1  0.809300  0.190700  0.190700  1
  Cd  Cd16  1  0.582201  0.581573  0.581573  1
  Cd  Cd17  1  0.582076  0.581436  0.254413  1
  Cd  Cd18  1  0.582076  0.254413  0.581436  1
  Cd  Cd19  1  0.254653  0.581573  0.581573  1
  Pd  Pd20  1  0.144287  0.146960  0.146960  1
  Pd  Pd21  1  0.146942  0.145534  0.560582  1
  Pd  Pd22  1  0.146942  0.560582  0.145534  1
  Pd  Pd23  1  0.561791  0.146960  0.146960  1
