# generated using pymatgen
data_Ti4CrSe8
_symmetry_space_group_name_H-M   'P 1'
_cell_length_a   7.04850730
_cell_length_b   7.04850736
_cell_length_c   8.59380976
_cell_angle_alpha   53.25571058
_cell_angle_beta   53.25571117
_cell_angle_gamma   61.25265529
_symmetry_Int_Tables_number   1
_chemical_formula_structural   Ti4CrSe8
_chemical_formula_sum   'Ti4 Cr1 Se8'
_cell_volume   269.06674484
_cell_formula_units_Z   1
loop_
 _symmetry_equiv_pos_site_id
 _symmetry_equiv_pos_as_xyz
  1  'x, y, z'
loop_
 _atom_site_type_symbol
 _atom_site_label
 _atom_site_symmetry_multiplicity
 _atom_site_fract_x
 _atom_site_fract_y
 _atom_site_fract_z
 _atom_site_occupancy
  Ti  Ti0  1  0.257055  0.257055  0.988679  1
  Ti  Ti1  1  0.742945  0.742945  0.011321  1
  Ti  Ti2  1  0.267530  0.732470  0.500000  1
  Ti  Ti3  1  0.732470  0.267530  0.500000  1
  Cr  Cr4  1  0.000000  0.000000  0.000000  1
  Se  Se5  1  0.964033  0.964033  0.330683  1
  Se  Se6  1  0.035967  0.035967  0.669317  1
  Se  Se7  1  0.453591  0.453591  0.330436  1
  Se  Se8  1  0.546409  0.546409  0.669564  1
  Se  Se9  1  0.043779  0.544941  0.170534  1
  Se  Se10  1  0.544941  0.043779  0.170534  1
  Se  Se11  1  0.956221  0.455059  0.829466  1
  Se  Se12  1  0.455059  0.956221  0.829466  1
