# generated using pymatgen
data_PrSmAl20(OsRh)2
_symmetry_space_group_name_H-M   'P 1'
_cell_length_a   6.87566234
_cell_length_b   6.90057577
_cell_length_c   9.21911600
_cell_angle_alpha   90.00000000
_cell_angle_beta   90.00000000
_cell_angle_gamma   97.08167077
_symmetry_Int_Tables_number   1
_chemical_formula_structural   PrSmAl20(OsRh)2
_chemical_formula_sum   'Pr1 Sm1 Al20 Os2 Rh2'
_cell_volume   434.07362732
_cell_formula_units_Z   1
loop_
 _symmetry_equiv_pos_site_id
 _symmetry_equiv_pos_as_xyz
  1  'x, y, z'
loop_
 _atom_site_type_symbol
 _atom_site_label
 _atom_site_symmetry_multiplicity
 _atom_site_fract_x
 _atom_site_fract_y
 _atom_site_fract_z
 _atom_site_occupancy
  Pr  Pr0  1  0.127958  0.875710  0.250000  1
  Sm  Sm1  1  0.870447  0.124952  0.750000  1
  Al  Al2  1  0.620654  0.375516  0.550451  1
  Al  Al3  1  0.380067  0.623944  0.450354  1
  Al  Al4  1  0.380067  0.623944  0.049646  1
  Al  Al5  1  0.620654  0.375516  0.949549  1
  Al  Al6  1  0.224505  0.223949  0.499552  1
  Al  Al7  1  0.775196  0.776377  0.502002  1
  Al  Al8  1  0.775196  0.776377  0.997998  1
  Al  Al9  1  0.224505  0.223949  0.000448  1
  Al  Al10  1  0.841470  0.158137  0.102423  1
  Al  Al11  1  0.157715  0.842824  0.896573  1
  Al  Al12  1  0.157715  0.842824  0.603427  1
  Al  Al13  1  0.841470  0.158137  0.397577  1
  Al  Al14  1  0.856059  0.588169  0.750000  1
  Al  Al15  1  0.143606  0.410152  0.250000  1
  Al  Al16  1  0.410563  0.142617  0.750000  1
  Al  Al17  1  0.590918  0.857598  0.250000  1
  Al  Al18  1  0.224706  0.481598  0.750000  1
  Al  Al19  1  0.774268  0.517378  0.250000  1
  Al  Al20  1  0.517549  0.780529  0.750000  1
  Al  Al21  1  0.483528  0.220363  0.250000  1
  Os  Os22  1  0.500587  0.000133  0.999118  1
  Os  Os23  1  0.500587  0.000133  0.500882  1
  Rh  Rh24  1  0.000006  0.499589  0.500643  1
  Rh  Rh25  1  0.000006  0.499589  0.999357  1
