# generated using pymatgen
data_SiAs2Pd5Ru
_symmetry_space_group_name_H-M   'P 1'
_cell_length_a   6.58839822
_cell_length_b   6.57777687
_cell_length_c   3.65357100
_cell_angle_alpha   90.00000000
_cell_angle_beta   90.00000000
_cell_angle_gamma   119.94669606
_symmetry_Int_Tables_number   1
_chemical_formula_structural   SiAs2Pd5Ru
_chemical_formula_sum   'Si1 As2 Pd5 Ru1'
_cell_volume   137.19559959
_cell_formula_units_Z   1
loop_
 _symmetry_equiv_pos_site_id
 _symmetry_equiv_pos_as_xyz
  1  'x, y, z'
loop_
 _atom_site_type_symbol
 _atom_site_label
 _atom_site_symmetry_multiplicity
 _atom_site_fract_x
 _atom_site_fract_y
 _atom_site_fract_z
 _atom_site_occupancy
  Si  Si0  1  0.000000  0.983555  0.500000  1
  As  As1  1  0.325424  0.670719  0.000000  1
  As  As2  1  0.674576  0.345296  0.000000  1
  Pd  Pd3  1  0.257102  0.257587  0.000000  1
  Pd  Pd4  1  0.742898  0.000486  0.000000  1
  Pd  Pd5  1  0.000000  0.377092  0.500000  1
  Pd  Pd6  1  0.602493  0.613603  0.500000  1
  Pd  Pd7  1  0.397507  0.011109  0.500000  1
  Ru  Ru8  1  0.000000  0.740553  0.000000  1
