# generated using pymatgen
data_La8HoLuIn6
_symmetry_space_group_name_H-M   'P 1'
_cell_length_a   6.33542496
_cell_length_b   9.49729970
_cell_length_c   9.49729962
_cell_angle_alpha   83.65040446
_cell_angle_beta   70.57605057
_cell_angle_gamma   70.57606004
_symmetry_Int_Tables_number   1
_chemical_formula_structural   La8HoLuIn6
_chemical_formula_sum   'La8 Ho1 Lu1 In6'
_cell_volume   508.24904047
_cell_formula_units_Z   1
loop_
 _symmetry_equiv_pos_site_id
 _symmetry_equiv_pos_as_xyz
  1  'x, y, z'
loop_
 _atom_site_type_symbol
 _atom_site_label
 _atom_site_symmetry_multiplicity
 _atom_site_fract_x
 _atom_site_fract_y
 _atom_site_fract_z
 _atom_site_occupancy
  La  La0  1  0.724371  0.863340  0.686861  1
  La  La1  1  0.274889  0.136535  0.312927  1
  La  La2  1  0.775629  0.313139  0.136660  1
  La  La3  1  0.225111  0.687073  0.863465  1
  La  La4  1  0.588357  0.687244  0.136822  1
  La  La5  1  0.412916  0.312711  0.863488  1
  La  La6  1  0.087084  0.136512  0.687289  1
  La  La7  1  0.911643  0.863178  0.312756  1
  Ho  Ho8  1  0.250000  0.500037  0.499963  1
  Lu  Lu9  1  0.750000  0.500019  0.499981  1
  In  In10  1  0.155053  0.499879  0.189183  1
  In  In11  1  0.843787  0.500054  0.810750  1
  In  In12  1  0.344947  0.810817  0.500121  1
  In  In13  1  0.656213  0.189250  0.499946  1
  In  In14  1  0.250000  0.000234  0.999766  1
  In  In15  1  0.750000  0.999978  0.000022  1
