# generated using pymatgen
data_Li6Sc5ZnPt12
_symmetry_space_group_name_H-M   'P 1'
_cell_length_a   4.24315800
_cell_length_b   6.88215800
_cell_length_c   12.73929700
_cell_angle_alpha   90.00000000
_cell_angle_beta   90.00075137
_cell_angle_gamma   90.00000000
_symmetry_Int_Tables_number   1
_chemical_formula_structural   Li6Sc5ZnPt12
_chemical_formula_sum   'Li6 Sc5 Zn1 Pt12'
_cell_volume   372.01401821
_cell_formula_units_Z   1
loop_
 _symmetry_equiv_pos_site_id
 _symmetry_equiv_pos_as_xyz
  1  'x, y, z'
loop_
 _atom_site_type_symbol
 _atom_site_label
 _atom_site_symmetry_multiplicity
 _atom_site_fract_x
 _atom_site_fract_y
 _atom_site_fract_z
 _atom_site_occupancy
  Li  Li0  1  0.999995  0.000000  0.000000  1
  Li  Li1  1  0.500013  0.500000  0.160923  1
  Li  Li2  1  0.000021  0.000000  0.328660  1
  Li  Li3  1  0.499995  0.500000  0.500002  1
  Li  Li4  1  0.999982  0.000000  0.671324  1
  Li  Li5  1  0.499994  0.500000  0.839072  1
  Sc  Sc6  1  0.500098  0.000000  0.160416  1
  Sc  Sc7  1  0.999983  0.500000  0.332463  1
  Sc  Sc8  1  0.499964  0.000000  0.499991  1
  Sc  Sc9  1  0.999962  0.500000  0.667555  1
  Sc  Sc10  1  0.499956  0.000000  0.839566  1
  Zn  Zn11  1  0.000001  0.500000  0.000003  1
  Pt  Pt12  1  0.500002  0.260572  0.000000  1
  Pt  Pt13  1  0.500002  0.739428  0.000000  1
  Pt  Pt14  1  0.000044  0.257443  0.161642  1
  Pt  Pt15  1  0.000044  0.742557  0.161642  1
  Pt  Pt16  1  0.500004  0.248513  0.331871  1
  Pt  Pt17  1  0.500004  0.751488  0.331871  1
  Pt  Pt18  1  0.000003  0.250121  0.500005  1
  Pt  Pt19  1  0.000003  0.749880  0.500005  1
  Pt  Pt20  1  0.499984  0.248522  0.668129  1
  Pt  Pt21  1  0.499984  0.751479  0.668129  1
  Pt  Pt22  1  0.999977  0.257435  0.838365  1
  Pt  Pt23  1  0.999977  0.742565  0.838365  1
