# generated using pymatgen
data_Dy4Ga4Ir3Au
_symmetry_space_group_name_H-M   'P 1'
_cell_length_a   4.41997800
_cell_length_b   6.87043081
_cell_length_c   7.77390190
_cell_angle_alpha   90.63032249
_cell_angle_beta   90.00000000
_cell_angle_gamma   90.00000000
_symmetry_Int_Tables_number   1
_chemical_formula_structural   Dy4Ga4Ir3Au
_chemical_formula_sum   'Dy4 Ga4 Ir3 Au1'
_cell_volume   236.05698346
_cell_formula_units_Z   1
loop_
 _symmetry_equiv_pos_site_id
 _symmetry_equiv_pos_as_xyz
  1  'x, y, z'
loop_
 _atom_site_type_symbol
 _atom_site_label
 _atom_site_symmetry_multiplicity
 _atom_site_fract_x
 _atom_site_fract_y
 _atom_site_fract_z
 _atom_site_occupancy
  Dy  Dy0  1  0.250000  0.979454  0.310839  1
  Dy  Dy1  1  0.250000  0.486907  0.198579  1
  Dy  Dy2  1  0.750000  0.016519  0.683067  1
  Dy  Dy3  1  0.750000  0.532573  0.809234  1
  Ga  Ga4  1  0.250000  0.345979  0.562587  1
  Ga  Ga5  1  0.250000  0.824249  0.932009  1
  Ga  Ga6  1  0.750000  0.660072  0.428686  1
  Ga  Ga7  1  0.750000  0.155303  0.074921  1
  Ir  Ir8  1  0.250000  0.730148  0.608079  1
  Ir  Ir9  1  0.750000  0.771259  0.108562  1
  Ir  Ir10  1  0.750000  0.270809  0.392871  1
  Au  Au11  1  0.250000  0.226729  0.890568  1
