# generated using pymatgen
data_NdY5(Al3Os)8
_symmetry_space_group_name_H-M   'P 1'
_cell_length_a   8.83790700
_cell_length_b   8.84066694
_cell_length_c   9.62144800
_cell_angle_alpha   90.00000000
_cell_angle_beta   90.00000000
_cell_angle_gamma   119.98966975
_symmetry_Int_Tables_number   1
_chemical_formula_structural   NdY5(Al3Os)8
_chemical_formula_sum   'Nd1 Y5 Al24 Os8'
_cell_volume   651.10453966
_cell_formula_units_Z   1
loop_
 _symmetry_equiv_pos_site_id
 _symmetry_equiv_pos_as_xyz
  1  'x, y, z'
loop_
 _atom_site_type_symbol
 _atom_site_label
 _atom_site_symmetry_multiplicity
 _atom_site_fract_x
 _atom_site_fract_y
 _atom_site_fract_z
 _atom_site_occupancy
  Nd  Nd0  1  0.191597  0.383195  0.250000  1
  Y  Y1  1  0.806834  0.613668  0.750000  1
  Y  Y2  1  0.613785  0.807337  0.250000  1
  Y  Y3  1  0.385951  0.192983  0.750000  1
  Y  Y4  1  0.193553  0.807337  0.250000  1
  Y  Y5  1  0.807032  0.192983  0.750000  1
  Al  Al6  1  0.333886  0.667772  0.015038  1
  Al  Al7  1  0.666403  0.332805  0.982048  1
  Al  Al8  1  0.666403  0.332805  0.517952  1
  Al  Al9  1  0.333886  0.667772  0.484962  1
  Al  Al10  1  0.163888  0.327777  0.576500  1
  Al  Al11  1  0.836332  0.672664  0.426575  1
  Al  Al12  1  0.672676  0.836082  0.573857  1
  Al  Al13  1  0.836332  0.672664  0.073425  1
  Al  Al14  1  0.328750  0.163653  0.427560  1
  Al  Al15  1  0.163888  0.327777  0.923500  1
  Al  Al16  1  0.163406  0.836082  0.573857  1
  Al  Al17  1  0.328750  0.163653  0.072440  1
  Al  Al18  1  0.834904  0.163653  0.427560  1
  Al  Al19  1  0.672676  0.836082  0.926143  1
  Al  Al20  1  0.834904  0.163653  0.072440  1
  Al  Al21  1  0.163406  0.836082  0.926143  1
  Al  Al22  1  0.561306  0.122613  0.250000  1
  Al  Al23  1  0.438751  0.877502  0.750000  1
  Al  Al24  1  0.875527  0.439519  0.250000  1
  Al  Al25  1  0.122537  0.561251  0.750000  1
  Al  Al26  1  0.563993  0.439519  0.250000  1
  Al  Al27  1  0.438714  0.561251  0.750000  1
  Al  Al28  1  0.998568  0.997136  0.250000  1
  Al  Al29  1  0.999419  0.998838  0.750000  1
  Os  Os30  1  0.500088  0.000175  0.999693  1
  Os  Os31  1  0.999174  0.500654  0.998821  1
  Os  Os32  1  0.500088  0.000175  0.500307  1
  Os  Os33  1  0.501479  0.500654  0.998821  1
  Os  Os34  1  0.999174  0.500654  0.501179  1
  Os  Os35  1  0.501479  0.500654  0.501179  1
  Os  Os36  1  0.000231  0.000463  0.999824  1
  Os  Os37  1  0.000231  0.000463  0.500176  1
