# generated using pymatgen
data_HoPa2(AlCo)3
_symmetry_space_group_name_H-M   'P 1'
_cell_length_a   6.91871100
_cell_length_b   6.76089085
_cell_length_c   3.82598300
_cell_angle_alpha   90.00000000
_cell_angle_beta   90.00000000
_cell_angle_gamma   119.24825285
_symmetry_Int_Tables_number   1
_chemical_formula_structural   HoPa2(AlCo)3
_chemical_formula_sum   'Ho1 Pa2 Al3 Co3'
_cell_volume   156.15036900
_cell_formula_units_Z   1
loop_
 _symmetry_equiv_pos_site_id
 _symmetry_equiv_pos_as_xyz
  1  'x, y, z'
loop_
 _atom_site_type_symbol
 _atom_site_label
 _atom_site_symmetry_multiplicity
 _atom_site_fract_x
 _atom_site_fract_y
 _atom_site_fract_z
 _atom_site_occupancy
  Ho  Ho0  1  0.000000  0.582847  0.499999  1
  Pa  Pa1  1  0.576524  0.998102  0.499999  1
  Pa  Pa2  1  0.423476  0.421576  0.499999  1
  Al  Al3  1  0.223195  0.993172  0.000000  1
  Al  Al4  1  0.000000  0.243095  0.000000  1
  Al  Al5  1  0.776805  0.769977  0.000000  1
  Co  Co6  1  0.628733  0.299592  0.000000  1
  Co  Co7  1  0.371267  0.670858  0.000000  1
  Co  Co8  1  0.000000  0.020779  0.499999  1
