# generated using pymatgen
data_LaBiSO6
_symmetry_space_group_name_H-M   'P 1'
_cell_length_a   4.29021343
_cell_length_b   7.54965768
_cell_length_c   8.35165615
_cell_angle_alpha   105.98088905
_cell_angle_beta   90.95348609
_cell_angle_gamma   105.99900703
_symmetry_Int_Tables_number   1
_chemical_formula_structural   LaBiSO6
_chemical_formula_sum   'La2 Bi2 S2 O12'
_cell_volume   248.72416706
_cell_formula_units_Z   2
loop_
 _symmetry_equiv_pos_site_id
 _symmetry_equiv_pos_as_xyz
  1  'x, y, z'
loop_
 _atom_site_type_symbol
 _atom_site_label
 _atom_site_symmetry_multiplicity
 _atom_site_fract_x
 _atom_site_fract_y
 _atom_site_fract_z
 _atom_site_occupancy
  La  La0  1  0.340980  0.674597  0.919940  1
  La  La1  1  0.659020  0.325403  0.080060  1
  Bi  Bi2  1  0.672928  0.346355  0.588822  1
  Bi  Bi3  1  0.327072  0.653645  0.411178  1
  S  S4  1  0.943018  0.998760  0.755167  1
  S  S5  1  0.056982  0.001240  0.244833  1
  O  O6  1  0.765796  0.505545  0.870501  1
  O  O7  1  0.234204  0.494455  0.129499  1
  O  O8  1  0.263292  0.493908  0.614894  1
  O  O9  1  0.736708  0.506092  0.385106  1
  O  O10  1  0.746316  0.992417  0.605347  1
  O  O11  1  0.253684  0.007583  0.394653  1
  O  O12  1  0.731642  0.001277  0.897905  1
  O  O13  1  0.268358  0.998723  0.102095  1
  O  O14  1  0.219540  0.179713  0.805741  1
  O  O15  1  0.780460  0.820287  0.194259  1
  O  O16  1  0.054197  0.823611  0.722732  1
  O  O17  1  0.945803  0.176389  0.277268  1
