# generated using pymatgen
data_DyY4Ho3(B6Ru)4
_symmetry_space_group_name_H-M   'P 1'
_cell_length_a   3.65788900
_cell_length_b   9.14109602
_cell_length_c   11.51829002
_cell_angle_alpha   90.00698322
_cell_angle_beta   90.00000000
_cell_angle_gamma   90.00000000
_symmetry_Int_Tables_number   1
_chemical_formula_structural   DyY4Ho3(B6Ru)4
_chemical_formula_sum   'Dy1 Y4 Ho3 B24 Ru4'
_cell_volume   385.13838022
_cell_formula_units_Z   1
loop_
 _symmetry_equiv_pos_site_id
 _symmetry_equiv_pos_as_xyz
  1  'x, y, z'
loop_
 _atom_site_type_symbol
 _atom_site_label
 _atom_site_symmetry_multiplicity
 _atom_site_fract_x
 _atom_site_fract_y
 _atom_site_fract_z
 _atom_site_occupancy
  Dy  Dy0  1  0.000000  0.943786  0.372256  1
  Y  Y1  1  0.000000  0.322607  0.414066  1
  Y  Y2  1  0.000000  0.677412  0.586035  1
  Y  Y3  1  0.000000  0.822492  0.085889  1
  Y  Y4  1  0.000000  0.177504  0.914017  1
  Ho  Ho5  1  0.000000  0.056232  0.627914  1
  Ho  Ho6  1  0.000000  0.443804  0.127733  1
  Ho  Ho7  1  0.000000  0.556235  0.872242  1
  B  B8  1  0.500000  0.554252  0.432778  1
  B  B9  1  0.500000  0.445640  0.567257  1
  B  B10  1  0.500000  0.054354  0.067179  1
  B  B11  1  0.500000  0.945660  0.932751  1
  B  B12  1  0.500000  0.747888  0.419528  1
  B  B13  1  0.500000  0.251837  0.580515  1
  B  B14  1  0.500000  0.248246  0.080476  1
  B  B15  1  0.500000  0.751798  0.919501  1
  B  B16  1  0.500000  0.790878  0.266344  1
  B  B17  1  0.500000  0.208844  0.733580  1
  B  B18  1  0.500000  0.291285  0.233529  1
  B  B19  1  0.500000  0.708831  0.766436  1
  B  B20  1  0.500000  0.631655  0.185128  1
  B  B21  1  0.500000  0.368281  0.814820  1
  B  B22  1  0.500000  0.131983  0.314707  1
  B  B23  1  0.500000  0.868247  0.685220  1
  B  B24  1  0.500000  0.983992  0.212850  1
  B  B25  1  0.500000  0.016166  0.786917  1
  B  B26  1  0.500000  0.483772  0.286894  1
  B  B27  1  0.500000  0.516183  0.713096  1
  B  B28  1  0.500000  0.607846  0.029731  1
  B  B29  1  0.500000  0.392142  0.970255  1
  B  B30  1  0.500000  0.108295  0.470413  1
  B  B31  1  0.500000  0.891929  0.530066  1
  Ru  Ru32  1  0.000000  0.637778  0.320888  1
  Ru  Ru33  1  0.000000  0.361936  0.679124  1
  Ru  Ru34  1  0.000000  0.138293  0.178904  1
  Ru  Ru35  1  0.000000  0.861918  0.820962  1
