# generated using pymatgen
data_Dy7Zn(Sn11Os3)2
_symmetry_space_group_name_H-M   'P 1'
_cell_length_a   9.82537900
_cell_length_b   9.82537891
_cell_length_c   10.13697100
_cell_angle_alpha   90.00000000
_cell_angle_beta   90.00000000
_cell_angle_gamma   119.99999694
_symmetry_Int_Tables_number   1
_chemical_formula_structural   Dy7Zn(Sn11Os3)2
_chemical_formula_sum   'Dy7 Zn1 Sn22 Os6'
_cell_volume   847.49563192
_cell_formula_units_Z   1
loop_
 _symmetry_equiv_pos_site_id
 _symmetry_equiv_pos_as_xyz
  1  'x, y, z'
loop_
 _atom_site_type_symbol
 _atom_site_label
 _atom_site_symmetry_multiplicity
 _atom_site_fract_x
 _atom_site_fract_y
 _atom_site_fract_z
 _atom_site_occupancy
  Dy  Dy0  1  0.000000  0.000000  0.000000  1
  Dy  Dy1  1  0.482278  0.517722  0.306010  1
  Dy  Dy2  1  0.517722  0.482278  0.693990  1
  Dy  Dy3  1  0.482278  0.964556  0.306010  1
  Dy  Dy4  1  0.517722  0.035444  0.693990  1
  Dy  Dy5  1  0.035444  0.517722  0.306010  1
  Dy  Dy6  1  0.964556  0.482278  0.693990  1
  Zn  Zn7  1  0.000000  0.000000  0.500000  1
  Sn  Sn8  1  0.349416  0.000000  0.000000  1
  Sn  Sn9  1  0.650584  0.000000  0.000000  1
  Sn  Sn10  1  0.000000  0.349416  0.000000  1
  Sn  Sn11  1  0.000000  0.650584  0.000000  1
  Sn  Sn12  1  0.650584  0.650584  0.000000  1
  Sn  Sn13  1  0.349416  0.349416  0.000000  1
  Sn  Sn14  1  0.333333  0.666667  0.822833  1
  Sn  Sn15  1  0.666667  0.333333  0.177167  1
  Sn  Sn16  1  0.779874  0.220126  0.460595  1
  Sn  Sn17  1  0.220126  0.779874  0.539405  1
  Sn  Sn18  1  0.779874  0.559749  0.460595  1
  Sn  Sn19  1  0.220126  0.440251  0.539405  1
  Sn  Sn20  1  0.440251  0.220126  0.460595  1
  Sn  Sn21  1  0.559749  0.779874  0.539405  1
  Sn  Sn22  1  0.333333  0.666667  0.125299  1
  Sn  Sn23  1  0.666667  0.333333  0.874701  1
  Sn  Sn24  1  0.119986  0.880014  0.272582  1
  Sn  Sn25  1  0.880014  0.119986  0.727418  1
  Sn  Sn26  1  0.119986  0.239972  0.272582  1
  Sn  Sn27  1  0.880014  0.760028  0.727418  1
  Sn  Sn28  1  0.760028  0.880014  0.272582  1
  Sn  Sn29  1  0.239972  0.119986  0.727418  1
  Os  Os30  1  0.831396  0.168604  0.203975  1
  Os  Os31  1  0.168604  0.831396  0.796025  1
  Os  Os32  1  0.831396  0.662790  0.203975  1
  Os  Os33  1  0.168604  0.337210  0.796025  1
  Os  Os34  1  0.337210  0.168604  0.203975  1
  Os  Os35  1  0.662790  0.831396  0.796025  1
