# generated using pymatgen
data_NdSc3Sb10
_symmetry_space_group_name_H-M   'P 1'
_cell_length_a   4.23400300
_cell_length_b   13.03240374
_cell_length_c   14.04317762
_cell_angle_alpha   78.90859499
_cell_angle_beta   90.00000000
_cell_angle_gamma   90.00000000
_symmetry_Int_Tables_number   1
_chemical_formula_structural   NdSc3Sb10
_chemical_formula_sum   'Nd2 Sc6 Sb20'
_cell_volume   760.41802901
_cell_formula_units_Z   2
loop_
 _symmetry_equiv_pos_site_id
 _symmetry_equiv_pos_as_xyz
  1  'x, y, z'
loop_
 _atom_site_type_symbol
 _atom_site_label
 _atom_site_symmetry_multiplicity
 _atom_site_fract_x
 _atom_site_fract_y
 _atom_site_fract_z
 _atom_site_occupancy
  Nd  Nd0  1  0.250000  0.956551  0.355199  1
  Nd  Nd1  1  0.750000  0.043449  0.644801  1
  Sc  Sc2  1  0.250000  0.400316  0.771275  1
  Sc  Sc3  1  0.750000  0.599684  0.228725  1
  Sc  Sc4  1  0.250000  0.656164  0.857798  1
  Sc  Sc5  1  0.750000  0.343836  0.142202  1
  Sc  Sc6  1  0.250000  0.664604  0.576294  1
  Sc  Sc7  1  0.750000  0.335396  0.423706  1
  Sb  Sb8  1  0.250000  0.152210  0.783692  1
  Sb  Sb9  1  0.750000  0.847790  0.216308  1
  Sb  Sb10  1  0.250000  0.159021  0.480779  1
  Sb  Sb11  1  0.750000  0.840979  0.519221  1
  Sb  Sb12  1  0.250000  0.166349  0.158136  1
  Sb  Sb13  1  0.750000  0.833651  0.841864  1
  Sb  Sb14  1  0.250000  0.422705  0.976285  1
  Sb  Sb15  1  0.750000  0.577295  0.023715  1
  Sb  Sb16  1  0.750000  0.030840  0.912797  1
  Sb  Sb17  1  0.250000  0.969160  0.087203  1
  Sb  Sb18  1  0.750000  0.152703  0.316194  1
  Sb  Sb19  1  0.250000  0.847297  0.683806  1
  Sb  Sb20  1  0.750000  0.281810  0.936926  1
  Sb  Sb21  1  0.250000  0.718190  0.063074  1
  Sb  Sb22  1  0.750000  0.292427  0.657733  1
  Sb  Sb23  1  0.250000  0.707573  0.342267  1
  Sb  Sb24  1  0.750000  0.575635  0.735410  1
  Sb  Sb25  1  0.250000  0.424365  0.264590  1
  Sb  Sb26  1  0.750000  0.570810  0.446293  1
  Sb  Sb27  1  0.250000  0.429190  0.553707  1
