# generated using pymatgen
data_Ce6Al19Si5Ru8
_symmetry_space_group_name_H-M   'P 1'
_cell_length_a   8.79103700
_cell_length_b   8.77684833
_cell_length_c   9.55811700
_cell_angle_alpha   90.00000000
_cell_angle_beta   90.00000000
_cell_angle_gamma   120.05349495
_symmetry_Int_Tables_number   1
_chemical_formula_structural   Ce6Al19Si5Ru8
_chemical_formula_sum   'Ce6 Al19 Si5 Ru8'
_cell_volume   638.33302895
_cell_formula_units_Z   1
loop_
 _symmetry_equiv_pos_site_id
 _symmetry_equiv_pos_as_xyz
  1  'x, y, z'
loop_
 _atom_site_type_symbol
 _atom_site_label
 _atom_site_symmetry_multiplicity
 _atom_site_fract_x
 _atom_site_fract_y
 _atom_site_fract_z
 _atom_site_occupancy
  Ce  Ce0  1  0.193293  0.386588  0.250000  1
  Ce  Ce1  1  0.807081  0.614163  0.750000  1
  Ce  Ce2  1  0.611777  0.807971  0.250000  1
  Ce  Ce3  1  0.387086  0.193997  0.750000  1
  Ce  Ce4  1  0.196193  0.807971  0.250000  1
  Ce  Ce5  1  0.806912  0.193997  0.750000  1
  Al  Al6  1  0.163684  0.327370  0.577306  1
  Al  Al7  1  0.835882  0.671762  0.422210  1
  Al  Al8  1  0.672275  0.836170  0.576189  1
  Al  Al9  1  0.835882  0.671762  0.077790  1
  Al  Al10  1  0.327499  0.164456  0.422602  1
  Al  Al11  1  0.163684  0.327370  0.922694  1
  Al  Al12  1  0.163894  0.836170  0.576189  1
  Al  Al13  1  0.327499  0.164456  0.077398  1
  Al  Al14  1  0.836958  0.164456  0.422602  1
  Al  Al15  1  0.672275  0.836170  0.923811  1
  Al  Al16  1  0.836958  0.164456  0.077398  1
  Al  Al17  1  0.163894  0.836170  0.923811  1
  Al  Al18  1  0.436458  0.872916  0.750000  1
  Al  Al19  1  0.870943  0.432327  0.250000  1
  Al  Al20  1  0.128390  0.564757  0.750000  1
  Al  Al21  1  0.561384  0.432327  0.250000  1
  Al  Al22  1  0.436367  0.564757  0.750000  1
  Al  Al23  1  0.999639  0.999276  0.250000  1
  Al  Al24  1  0.000294  0.000589  0.750000  1
  Si  Si25  1  0.332618  0.665239  0.032931  1
  Si  Si26  1  0.667487  0.334972  0.964375  1
  Si  Si27  1  0.667487  0.334972  0.535625  1
  Si  Si28  1  0.332618  0.665239  0.467069  1
  Si  Si29  1  0.563901  0.127800  0.250000  1
  Ru  Ru30  1  0.500664  0.001328  0.006348  1
  Ru  Ru31  1  0.999271  0.499315  0.000887  1
  Ru  Ru32  1  0.500664  0.001328  0.493652  1
  Ru  Ru33  1  0.500045  0.499315  0.000887  1
  Ru  Ru34  1  0.999271  0.499315  0.499113  1
  Ru  Ru35  1  0.500045  0.499315  0.499113  1
  Ru  Ru36  1  0.999865  0.999729  0.999964  1
  Ru  Ru37  1  0.999865  0.999729  0.500036  1
