# generated using pymatgen
data_Dy3YAl18(IrPt)3
_symmetry_space_group_name_H-M   'P 1'
_cell_length_a   7.59580968
_cell_length_b   7.59611502
_cell_length_c   9.43873218
_cell_angle_alpha   89.98882657
_cell_angle_beta   89.98877678
_cell_angle_gamma   119.59688124
_symmetry_Int_Tables_number   1
_chemical_formula_structural   Dy3YAl18(IrPt)3
_chemical_formula_sum   'Dy3 Y1 Al18 Ir3 Pt3'
_cell_volume   473.54332497
_cell_formula_units_Z   1
loop_
 _symmetry_equiv_pos_site_id
 _symmetry_equiv_pos_as_xyz
  1  'x, y, z'
loop_
 _atom_site_type_symbol
 _atom_site_label
 _atom_site_symmetry_multiplicity
 _atom_site_fract_x
 _atom_site_fract_y
 _atom_site_fract_z
 _atom_site_occupancy
  Dy  Dy0  1  0.005094  0.329050  0.249618  1
  Dy  Dy1  1  0.670947  0.994944  0.750390  1
  Dy  Dy2  1  0.328799  0.004827  0.249536  1
  Y  Y3  1  0.995206  0.671183  0.750463  1
  Al  Al4  1  0.127355  0.128231  0.750462  1
  Al  Al5  1  0.871912  0.872650  0.249541  1
  Al  Al6  1  0.999991  0.331710  0.576355  1
  Al  Al7  1  0.999783  0.668634  0.422668  1
  Al  Al8  1  0.996950  0.664631  0.075577  1
  Al  Al9  1  0.335377  0.003141  0.924887  1
  Al  Al10  1  0.996665  0.331485  0.924929  1
  Al  Al11  1  0.668434  0.003377  0.075381  1
  Al  Al12  1  0.668208  0.000070  0.423322  1
  Al  Al13  1  0.331415  0.000333  0.576852  1
  Al  Al14  1  0.332692  0.329404  0.052751  1
  Al  Al15  1  0.670542  0.667286  0.947644  1
  Al  Al16  1  0.669706  0.669816  0.554960  1
  Al  Al17  1  0.330175  0.330216  0.444629  1
  Al  Al18  1  0.340805  0.546335  0.750451  1
  Al  Al19  1  0.658925  0.451686  0.247436  1
  Al  Al20  1  0.548046  0.340687  0.752578  1
  Al  Al21  1  0.453682  0.659472  0.249556  1
  Ir  Ir22  1  0.671831  0.328049  0.000070  1
  Ir  Ir23  1  0.999850  0.000255  0.499902  1
  Ir  Ir24  1  0.000282  0.999846  0.000108  1
  Pt  Pt25  1  0.671948  0.327961  0.499937  1
  Pt  Pt26  1  0.327645  0.672401  0.499938  1
  Pt  Pt27  1  0.327732  0.672325  0.000061  1
