# generated using pymatgen
data_Ho8TaTi8Si16Mo3
_symmetry_space_group_name_H-M   'P 1'
_cell_length_a   6.99551205
_cell_length_b   6.99551156
_cell_length_c   12.86070515
_cell_angle_alpha   90.01784889
_cell_angle_beta   89.98215009
_cell_angle_gamma   90.04894798
_symmetry_Int_Tables_number   1
_chemical_formula_structural   Ho8TaTi8Si16Mo3
_chemical_formula_sum   'Ho8 Ta1 Ti8 Si16 Mo3'
_cell_volume   629.36642208
_cell_formula_units_Z   1
loop_
 _symmetry_equiv_pos_site_id
 _symmetry_equiv_pos_as_xyz
  1  'x, y, z'
loop_
 _atom_site_type_symbol
 _atom_site_label
 _atom_site_symmetry_multiplicity
 _atom_site_fract_x
 _atom_site_fract_y
 _atom_site_fract_z
 _atom_site_occupancy
  Ho  Ho0  1  0.340473  0.001585  0.466824  1
  Ho  Ho1  1  0.499024  0.841951  0.718018  1
  Ho  Ho2  1  0.500072  0.158620  0.216636  1
  Ho  Ho3  1  0.841951  0.499024  0.281982  1
  Ho  Ho4  1  0.158620  0.500072  0.783364  1
  Ho  Ho5  1  0.658884  0.999549  0.966998  1
  Ho  Ho6  1  0.001585  0.340473  0.533176  1
  Ho  Ho7  1  0.999549  0.658884  0.033002  1
  Ta  Ta8  1  0.673587  0.673587  0.500000  1
  Ti  Ti9  1  0.152347  0.008866  0.876091  1
  Ti  Ti10  1  0.491413  0.652577  0.125047  1
  Ti  Ti11  1  0.507980  0.347515  0.626234  1
  Ti  Ti12  1  0.652577  0.491413  0.874953  1
  Ti  Ti13  1  0.347515  0.507980  0.373766  1
  Ti  Ti14  1  0.847637  0.991268  0.375447  1
  Ti  Ti15  1  0.008866  0.152347  0.123909  1
  Ti  Ti16  1  0.991268  0.847637  0.624553  1
  Si  Si17  1  0.201774  0.130520  0.684402  1
  Si  Si18  1  0.369346  0.701369  0.934267  1
  Si  Si19  1  0.631271  0.297187  0.434322  1
  Si  Si20  1  0.701369  0.369346  0.065733  1
  Si  Si21  1  0.297187  0.631271  0.565678  1
  Si  Si22  1  0.798349  0.869319  0.184242  1
  Si  Si23  1  0.130520  0.201774  0.315598  1
  Si  Si24  1  0.869319  0.798349  0.815758  1
  Si  Si25  1  0.291631  0.952365  0.064972  1
  Si  Si26  1  0.546314  0.792045  0.314044  1
  Si  Si27  1  0.452440  0.208816  0.815243  1
  Si  Si28  1  0.792045  0.546314  0.685956  1
  Si  Si29  1  0.208816  0.452440  0.184757  1
  Si  Si30  1  0.707894  0.048442  0.565681  1
  Si  Si31  1  0.952365  0.291631  0.935028  1
  Si  Si32  1  0.048442  0.707894  0.434319  1
  Mo  Mo33  1  0.326684  0.326684  0.000000  1
  Mo  Mo34  1  0.173915  0.826971  0.249229  1
  Mo  Mo35  1  0.826971  0.173915  0.750771  1
