# generated using pymatgen
data_DyHo7(Ge4Mo3)4
_symmetry_space_group_name_H-M   'P 1'
_cell_length_a   6.92115911
_cell_length_b   7.05044219
_cell_length_c   13.11868279
_cell_angle_alpha   90.00838517
_cell_angle_beta   90.00213205
_cell_angle_gamma   90.00259049
_symmetry_Int_Tables_number   1
_chemical_formula_structural   DyHo7(Ge4Mo3)4
_chemical_formula_sum   'Dy1 Ho7 Ge16 Mo12'
_cell_volume   640.15540288
_cell_formula_units_Z   1
loop_
 _symmetry_equiv_pos_site_id
 _symmetry_equiv_pos_as_xyz
  1  'x, y, z'
loop_
 _atom_site_type_symbol
 _atom_site_label
 _atom_site_symmetry_multiplicity
 _atom_site_fract_x
 _atom_site_fract_y
 _atom_site_fract_z
 _atom_site_occupancy
  Dy  Dy0  1  0.990307  0.169685  0.092193  1
  Ho  Ho1  1  0.489950  0.330211  0.092295  1
  Ho  Ho2  1  0.989977  0.169873  0.407654  1
  Ho  Ho3  1  0.510028  0.669847  0.592401  1
  Ho  Ho4  1  0.010105  0.830160  0.907518  1
  Ho  Ho5  1  0.510083  0.669727  0.907498  1
  Ho  Ho6  1  0.009960  0.830092  0.592381  1
  Ho  Ho7  1  0.490006  0.330192  0.407876  1
  Ge  Ge8  1  0.669665  0.045169  0.547889  1
  Ge  Ge9  1  0.169757  0.454997  0.951959  1
  Ge  Ge10  1  0.331015  0.954358  0.047772  1
  Ge  Ge11  1  0.830303  0.545207  0.452183  1
  Ge  Ge12  1  0.330299  0.954828  0.452221  1
  Ge  Ge13  1  0.830127  0.545744  0.047769  1
  Ge  Ge14  1  0.669403  0.045206  0.951921  1
  Ge  Ge15  1  0.169660  0.454745  0.547923  1
  Ge  Ge16  1  0.529864  0.367294  0.749967  1
  Ge  Ge17  1  0.029882  0.132654  0.750018  1
  Ge  Ge18  1  0.470038  0.632601  0.250031  1
  Ge  Ge19  1  0.970007  0.867109  0.250117  1
  Ge  Ge20  1  0.809884  0.643404  0.749944  1
  Ge  Ge21  1  0.309914  0.856548  0.749976  1
  Ge  Ge22  1  0.190366  0.356895  0.250205  1
  Ge  Ge23  1  0.689743  0.143480  0.250146  1
  Mo  Mo24  1  0.829993  0.343041  0.626686  1
  Mo  Mo25  1  0.330029  0.156968  0.873246  1
  Mo  Mo26  1  0.169993  0.656967  0.126651  1
  Mo  Mo27  1  0.669969  0.842977  0.373413  1
  Mo  Mo28  1  0.170041  0.656974  0.373476  1
  Mo  Mo29  1  0.669839  0.842991  0.126777  1
  Mo  Mo30  1  0.829915  0.343206  0.873174  1
  Mo  Mo31  1  0.329920  0.156937  0.626731  1
  Mo  Mo32  1  0.665711  0.004279  0.749902  1
  Mo  Mo33  1  0.165668  0.495697  0.749943  1
  Mo  Mo34  1  0.334313  0.995511  0.250105  1
  Mo  Mo35  1  0.834266  0.504430  0.250043  1
