# generated using pymatgen
data_DyY7(GeBr6)2
_symmetry_space_group_name_H-M   'P 1'
_cell_length_a   4.08196600
_cell_length_b   13.31316819
_cell_length_c   14.07662200
_cell_angle_alpha   90.28971289
_cell_angle_beta   90.00000000
_cell_angle_gamma   90.00000000
_symmetry_Int_Tables_number   1
_chemical_formula_structural   DyY7(GeBr6)2
_chemical_formula_sum   'Dy1 Y7 Ge2 Br12'
_cell_volume   764.96875779
_cell_formula_units_Z   1
loop_
 _symmetry_equiv_pos_site_id
 _symmetry_equiv_pos_as_xyz
  1  'x, y, z'
loop_
 _atom_site_type_symbol
 _atom_site_label
 _atom_site_symmetry_multiplicity
 _atom_site_fract_x
 _atom_site_fract_y
 _atom_site_fract_z
 _atom_site_occupancy
  Dy  Dy0  1  0.000000  0.381729  0.078905  1
  Y  Y1  1  0.500000  0.118553  0.340613  1
  Y  Y2  1  0.500000  0.880718  0.660033  1
  Y  Y3  1  0.500000  0.619772  0.159432  1
  Y  Y4  1  0.500000  0.381556  0.839792  1
  Y  Y5  1  0.000000  0.118270  0.579658  1
  Y  Y6  1  0.000000  0.881347  0.421271  1
  Y  Y7  1  0.000000  0.617795  0.921522  1
  Ge  Ge8  1  0.500000  0.999789  0.500471  1
  Ge  Ge9  1  0.500000  0.499456  0.000411  1
  Br  Br10  1  0.500000  0.245606  0.162868  1
  Br  Br11  1  0.500000  0.753485  0.835916  1
  Br  Br12  1  0.500000  0.746233  0.335581  1
  Br  Br13  1  0.500000  0.254495  0.663955  1
  Br  Br14  1  0.000000  0.254665  0.412498  1
  Br  Br15  1  0.000000  0.744726  0.587844  1
  Br  Br16  1  0.000000  0.755359  0.088105  1
  Br  Br17  1  0.000000  0.246085  0.911032  1
  Br  Br18  1  0.000000  0.001411  0.243568  1
  Br  Br19  1  0.000000  0.997799  0.757236  1
  Br  Br20  1  0.000000  0.503407  0.256243  1
  Br  Br21  1  0.000000  0.497745  0.743046  1
