# generated using pymatgen
data_Ti11Nb8Si16Os
_symmetry_space_group_name_H-M   'P 1'
_cell_length_a   6.69151951
_cell_length_b   6.69151995
_cell_length_c   12.23711831
_cell_angle_alpha   90.27943510
_cell_angle_beta   89.72056280
_cell_angle_gamma   90.07955211
_symmetry_Int_Tables_number   1
_chemical_formula_structural   Ti11Nb8Si16Os
_chemical_formula_sum   'Ti11 Nb8 Si16 Os1'
_cell_volume   547.92100568
_cell_formula_units_Z   1
loop_
 _symmetry_equiv_pos_site_id
 _symmetry_equiv_pos_as_xyz
  1  'x, y, z'
loop_
 _atom_site_type_symbol
 _atom_site_label
 _atom_site_symmetry_multiplicity
 _atom_site_fract_x
 _atom_site_fract_y
 _atom_site_fract_z
 _atom_site_occupancy
  Ti  Ti0  1  0.170984  0.829790  0.247809  1
  Ti  Ti1  1  0.829790  0.170984  0.752191  1
  Ti  Ti2  1  0.669727  0.669727  0.500000  1
  Ti  Ti3  1  0.149284  0.000110  0.870082  1
  Ti  Ti4  1  0.496408  0.654334  0.120305  1
  Ti  Ti5  1  0.502305  0.349332  0.623701  1
  Ti  Ti6  1  0.654334  0.496408  0.879695  1
  Ti  Ti7  1  0.349332  0.502305  0.376299  1
  Ti  Ti8  1  0.849129  0.996379  0.372229  1
  Ti  Ti9  1  0.000110  0.149284  0.129918  1
  Ti  Ti10  1  0.996379  0.849129  0.627771  1
  Nb  Nb11  1  0.342357  0.996834  0.470411  1
  Nb  Nb12  1  0.503641  0.842040  0.722265  1
  Nb  Nb13  1  0.498663  0.154713  0.221666  1
  Nb  Nb14  1  0.842040  0.503641  0.277735  1
  Nb  Nb15  1  0.154713  0.498663  0.778334  1
  Nb  Nb16  1  0.665653  0.001096  0.971337  1
  Nb  Nb17  1  0.996834  0.342357  0.529589  1
  Nb  Nb18  1  0.001096  0.665653  0.028663  1
  Si  Si19  1  0.208384  0.137802  0.673470  1
  Si  Si20  1  0.362451  0.706430  0.922747  1
  Si  Si21  1  0.637276  0.292157  0.423532  1
  Si  Si22  1  0.706430  0.362451  0.077253  1
  Si  Si23  1  0.292157  0.637276  0.576468  1
  Si  Si24  1  0.792402  0.860488  0.174524  1
  Si  Si25  1  0.137802  0.208384  0.326530  1
  Si  Si26  1  0.860488  0.792402  0.825476  1
  Si  Si27  1  0.299300  0.961421  0.061326  1
  Si  Si28  1  0.544096  0.797383  0.314113  1
  Si  Si29  1  0.454564  0.202918  0.817382  1
  Si  Si30  1  0.797383  0.544096  0.685887  1
  Si  Si31  1  0.202918  0.454564  0.182618  1
  Si  Si32  1  0.701545  0.045062  0.564598  1
  Si  Si33  1  0.961421  0.299300  0.938674  1
  Si  Si34  1  0.045062  0.701545  0.435402  1
  Os  Os35  1  0.323547  0.323547  0.000000  1
