# generated using pymatgen
data_Er16MgCo4Ag3
_symmetry_space_group_name_H-M   'P 1'
_cell_length_a   9.35544172
_cell_length_b   9.36571612
_cell_length_c   9.36571600
_cell_angle_alpha   60.00000042
_cell_angle_beta   59.96366469
_cell_angle_gamma   59.96365875
_symmetry_Int_Tables_number   1
_chemical_formula_structural   Er16MgCo4Ag3
_chemical_formula_sum   'Er16 Mg1 Co4 Ag3'
_cell_volume   579.95262612
_cell_formula_units_Z   1
loop_
 _symmetry_equiv_pos_site_id
 _symmetry_equiv_pos_as_xyz
  1  'x, y, z'
loop_
 _atom_site_type_symbol
 _atom_site_label
 _atom_site_symmetry_multiplicity
 _atom_site_fract_x
 _atom_site_fract_y
 _atom_site_fract_z
 _atom_site_occupancy
  Er  Er0  1  0.596831  0.595739  0.595739  1
  Er  Er1  1  0.596831  0.595739  0.211690  1
  Er  Er2  1  0.596831  0.211690  0.595739  1
  Er  Er3  1  0.206587  0.597804  0.597804  1
  Er  Er4  1  0.060572  0.438855  0.438855  1
  Er  Er5  1  0.436619  0.063296  0.063296  1
  Er  Er6  1  0.436619  0.063296  0.436788  1
  Er  Er7  1  0.060572  0.438855  0.061719  1
  Er  Er8  1  0.436619  0.436788  0.063296  1
  Er  Er9  1  0.060572  0.061719  0.438855  1
  Er  Er10  1  0.183843  0.812982  0.812982  1
  Er  Er11  1  0.812310  0.187322  0.187322  1
  Er  Er12  1  0.812310  0.187322  0.813046  1
  Er  Er13  1  0.183843  0.812982  0.190194  1
  Er  Er14  1  0.812310  0.813046  0.187322  1
  Er  Er15  1  0.183843  0.190194  0.812982  1
  Mg  Mg16  1  0.530382  0.823206  0.823206  1
  Co  Co17  1  0.390186  0.391616  0.391616  1
  Co  Co18  1  0.390186  0.391616  0.826584  1
  Co  Co19  1  0.390186  0.826584  0.391616  1
  Co  Co20  1  0.826662  0.391113  0.391113  1
  Ag  Ag21  1  0.831764  0.831934  0.831934  1
  Ag  Ag22  1  0.831764  0.831934  0.504369  1
  Ag  Ag23  1  0.831764  0.504369  0.831934  1
