# generated using pymatgen
data_Lu3PaZn4PtRh3
_symmetry_space_group_name_H-M   'P 1'
_cell_length_a   3.80927400
_cell_length_b   7.08127369
_cell_length_c   8.28887444
_cell_angle_alpha   90.64200339
_cell_angle_beta   90.00000000
_cell_angle_gamma   90.00000000
_symmetry_Int_Tables_number   1
_chemical_formula_structural   Lu3PaZn4PtRh3
_chemical_formula_sum   'Lu3 Pa1 Zn4 Pt1 Rh3'
_cell_volume   223.57430506
_cell_formula_units_Z   1
loop_
 _symmetry_equiv_pos_site_id
 _symmetry_equiv_pos_as_xyz
  1  'x, y, z'
loop_
 _atom_site_type_symbol
 _atom_site_label
 _atom_site_symmetry_multiplicity
 _atom_site_fract_x
 _atom_site_fract_y
 _atom_site_fract_z
 _atom_site_occupancy
  Lu  Lu0  1  0.750000  0.443124  0.809628  1
  Lu  Lu1  1  0.750000  0.935434  0.688717  1
  Lu  Lu2  1  0.250000  0.054404  0.317803  1
  Pa  Pa3  1  0.250000  0.555945  0.177918  1
  Zn  Zn4  1  0.250000  0.624267  0.565521  1
  Zn  Zn5  1  0.750000  0.371795  0.439264  1
  Zn  Zn6  1  0.750000  0.894125  0.062365  1
  Zn  Zn7  1  0.250000  0.125414  0.937323  1
  Pt  Pt8  1  0.250000  0.232167  0.626001  1
  Rh  Rh9  1  0.250000  0.735093  0.886820  1
  Rh  Rh10  1  0.750000  0.280245  0.128944  1
  Rh  Rh11  1  0.750000  0.747987  0.359695  1
