# generated using pymatgen
data_TbHo4In4NiAu
_symmetry_space_group_name_H-M   'P 1'
_cell_length_a   8.10737098
_cell_length_b   18.24246993
_cell_length_c   3.60106400
_cell_angle_alpha   90.00000000
_cell_angle_beta   90.00000000
_cell_angle_gamma   89.78710917
_symmetry_Int_Tables_number   1
_chemical_formula_structural   TbHo4In4NiAu
_chemical_formula_sum   'Tb2 Ho8 In8 Ni2 Au2'
_cell_volume   532.58818436
_cell_formula_units_Z   2
loop_
 _symmetry_equiv_pos_site_id
 _symmetry_equiv_pos_as_xyz
  1  'x, y, z'
loop_
 _atom_site_type_symbol
 _atom_site_label
 _atom_site_symmetry_multiplicity
 _atom_site_fract_x
 _atom_site_fract_y
 _atom_site_fract_z
 _atom_site_occupancy
  Tb  Tb0  1  0.500000  0.500000  0.000000  1
  Tb  Tb1  1  0.000000  0.000000  0.000000  1
  Ho  Ho2  1  0.765942  0.284388  0.000000  1
  Ho  Ho3  1  0.234058  0.715612  0.000000  1
  Ho  Ho4  1  0.769624  0.775382  0.000000  1
  Ho  Ho5  1  0.230376  0.224618  0.000000  1
  Ho  Ho6  1  0.623022  0.080658  0.000000  1
  Ho  Ho7  1  0.376978  0.919342  0.000000  1
  Ho  Ho8  1  0.882629  0.586429  0.000000  1
  Ho  Ho9  1  0.117371  0.413571  0.000000  1
  In  In10  1  0.707691  0.930652  0.500000  1
  In  In11  1  0.292309  0.069348  0.500000  1
  In  In12  1  0.797550  0.433525  0.500000  1
  In  In13  1  0.202450  0.566475  0.500000  1
  In  In14  1  0.575913  0.647943  0.500000  1
  In  In15  1  0.424087  0.352057  0.500000  1
  In  In16  1  0.928948  0.151747  0.500000  1
  In  In17  1  0.071052  0.848253  0.500000  1
  Ni  Ni18  1  0.969206  0.695207  0.500000  1
  Ni  Ni19  1  0.030794  0.304793  0.500000  1
  Au  Au20  1  0.534116  0.199486  0.500000  1
  Au  Au21  1  0.465884  0.800514  0.500000  1
