# generated using pymatgen
data_Li4La4(SiSn)3
_symmetry_space_group_name_H-M   'P 1'
_cell_length_a   10.04242663
_cell_length_b   10.04242629
_cell_length_c   7.10683094
_cell_angle_alpha   90.54076490
_cell_angle_beta   89.45923669
_cell_angle_gamma   152.95380977
_symmetry_Int_Tables_number   1
_chemical_formula_structural   Li4La4(SiSn)3
_chemical_formula_sum   'Li4 La4 Si3 Sn3'
_cell_volume   325.88627081
_cell_formula_units_Z   1
loop_
 _symmetry_equiv_pos_site_id
 _symmetry_equiv_pos_as_xyz
  1  'x, y, z'
loop_
 _atom_site_type_symbol
 _atom_site_label
 _atom_site_symmetry_multiplicity
 _atom_site_fract_x
 _atom_site_fract_y
 _atom_site_fract_z
 _atom_site_occupancy
  Li  Li0  1  0.816114  0.183886  0.438299  1
  Li  Li1  1  0.182935  0.817065  0.558039  1
  Li  Li2  1  0.809407  0.190593  0.059111  1
  Li  Li3  1  0.185516  0.814484  0.943638  1
  La  La4  1  0.550526  0.449474  0.747754  1
  La  La5  1  0.454143  0.545857  0.260244  1
  La  La6  1  0.344251  0.655749  0.738802  1
  La  La7  1  0.652871  0.347129  0.252193  1
  Si  Si8  1  0.062929  0.937071  0.084767  1
  Si  Si9  1  0.943624  0.056376  0.559027  1
  Si  Si10  1  0.057359  0.942641  0.426413  1
  Sn  Sn11  1  0.940066  0.059934  0.932542  1
  Sn  Sn12  1  0.719364  0.280636  0.748478  1
  Sn  Sn13  1  0.280895  0.719105  0.250694  1
