# generated using pymatgen
data_PrY3CdPt
_symmetry_space_group_name_H-M   'P 1'
_cell_length_a   9.82749461
_cell_length_b   9.79878420
_cell_length_c   9.79878328
_cell_angle_alpha   60.19394033
_cell_angle_beta   59.90303134
_cell_angle_gamma   59.90303196
_symmetry_Int_Tables_number   1
_chemical_formula_structural   PrY3CdPt
_chemical_formula_sum   'Pr4 Y12 Cd4 Pt4'
_cell_volume   667.21330155
_cell_formula_units_Z   4
loop_
 _symmetry_equiv_pos_site_id
 _symmetry_equiv_pos_as_xyz
  1  'x, y, z'
loop_
 _atom_site_type_symbol
 _atom_site_label
 _atom_site_symmetry_multiplicity
 _atom_site_fract_x
 _atom_site_fract_y
 _atom_site_fract_z
 _atom_site_occupancy
  Pr  Pr0  1  0.565621  0.934379  0.565621  1
  Pr  Pr1  1  0.934379  0.565621  0.934379  1
  Pr  Pr2  1  0.565621  0.565621  0.934379  1
  Pr  Pr3  1  0.934379  0.934379  0.565621  1
  Y  Y4  1  0.353755  0.350055  0.350055  1
  Y  Y5  1  0.350055  0.353755  0.946135  1
  Y  Y6  1  0.350055  0.946135  0.353755  1
  Y  Y7  1  0.946135  0.350055  0.350055  1
  Y  Y8  1  0.811267  0.188733  0.188733  1
  Y  Y9  1  0.188733  0.811267  0.811267  1
  Y  Y10  1  0.189674  0.810326  0.189674  1
  Y  Y11  1  0.810326  0.189674  0.810326  1
  Y  Y12  1  0.189674  0.189674  0.810326  1
  Y  Y13  1  0.810326  0.810326  0.189674  1
  Y  Y14  1  0.943681  0.556319  0.556319  1
  Y  Y15  1  0.556319  0.943681  0.943681  1
  Cd  Cd16  1  0.583812  0.578372  0.578372  1
  Cd  Cd17  1  0.578372  0.583812  0.259442  1
  Cd  Cd18  1  0.578372  0.259442  0.583812  1
  Cd  Cd19  1  0.259442  0.578372  0.578372  1
  Pt  Pt20  1  0.146097  0.141064  0.141064  1
  Pt  Pt21  1  0.141064  0.146097  0.571776  1
  Pt  Pt22  1  0.141064  0.571776  0.146097  1
  Pt  Pt23  1  0.571776  0.141064  0.141064  1
