# generated using pymatgen
data_Li2Pr6Cd21P
_symmetry_space_group_name_H-M   'P 1'
_cell_length_a   10.00746314
_cell_length_b   10.00746231
_cell_length_c   10.04735700
_cell_angle_alpha   59.86803666
_cell_angle_beta   59.86803942
_cell_angle_gamma   59.99540581
_symmetry_Int_Tables_number   1
_chemical_formula_structural   Li2Pr6Cd21P
_chemical_formula_sum   'Li2 Pr6 Cd21 P1'
_cell_volume   710.06915197
_cell_formula_units_Z   1
loop_
 _symmetry_equiv_pos_site_id
 _symmetry_equiv_pos_as_xyz
  1  'x, y, z'
loop_
 _atom_site_type_symbol
 _atom_site_label
 _atom_site_symmetry_multiplicity
 _atom_site_fract_x
 _atom_site_fract_y
 _atom_site_fract_z
 _atom_site_occupancy
  Li  Li0  1  0.000000  0.000000  0.500000  1
  Li  Li1  1  0.500000  0.500000  0.500000  1
  Pr  Pr2  1  0.795845  0.795845  0.204155  1
  Pr  Pr3  1  0.205959  0.794041  0.201930  1
  Pr  Pr4  1  0.794041  0.205959  0.201930  1
  Pr  Pr5  1  0.204155  0.204155  0.795845  1
  Pr  Pr6  1  0.794041  0.205959  0.798070  1
  Pr  Pr7  1  0.205959  0.794041  0.798070  1
  Cd  Cd8  1  0.836858  0.836858  0.505469  1
  Cd  Cd9  1  0.831636  0.508971  0.829696  1
  Cd  Cd10  1  0.508971  0.831636  0.829696  1
  Cd  Cd11  1  0.836858  0.836858  0.820817  1
  Cd  Cd12  1  0.163142  0.163142  0.494531  1
  Cd  Cd13  1  0.168364  0.491029  0.170304  1
  Cd  Cd14  1  0.491029  0.168364  0.170304  1
  Cd  Cd15  1  0.163142  0.163142  0.179183  1
  Cd  Cd16  1  0.617826  0.617826  0.151272  1
  Cd  Cd17  1  0.627246  0.148200  0.612278  1
  Cd  Cd18  1  0.148200  0.627246  0.612278  1
  Cd  Cd19  1  0.617826  0.617826  0.613075  1
  Cd  Cd20  1  0.382174  0.382174  0.848728  1
  Cd  Cd21  1  0.372754  0.851800  0.387722  1
  Cd  Cd22  1  0.851800  0.372754  0.387722  1
  Cd  Cd23  1  0.382174  0.382174  0.386925  1
  Cd  Cd24  1  0.500000  0.000000  0.500000  1
  Cd  Cd25  1  0.000000  0.500000  0.500000  1
  Cd  Cd26  1  0.500000  0.500000  0.000000  1
  Cd  Cd27  1  0.000000  0.500000  0.000000  1
  Cd  Cd28  1  0.500000  0.000000  0.000000  1
  P  P29  1  0.000000  0.000000  0.000000  1
