# generated using pymatgen
data_CaNd3Fe2(NiO6)2
_symmetry_space_group_name_H-M   'P 1'
_cell_length_a   5.42441228
_cell_length_b   5.58307336
_cell_length_c   7.71597651
_cell_angle_alpha   90.03772065
_cell_angle_beta   90.04480297
_cell_angle_gamma   90.19514047
_symmetry_Int_Tables_number   1
_chemical_formula_structural   CaNd3Fe2(NiO6)2
_chemical_formula_sum   'Ca1 Nd3 Fe2 Ni2 O12'
_cell_volume   233.67603534
_cell_formula_units_Z   1
loop_
 _symmetry_equiv_pos_site_id
 _symmetry_equiv_pos_as_xyz
  1  'x, y, z'
loop_
 _atom_site_type_symbol
 _atom_site_label
 _atom_site_symmetry_multiplicity
 _atom_site_fract_x
 _atom_site_fract_y
 _atom_site_fract_z
 _atom_site_occupancy
  Ca  Ca0  1  0.012374  0.948172  0.749489  1
  Nd  Nd1  1  0.487456  0.446793  0.750124  1
  Nd  Nd2  1  0.511430  0.552718  0.250047  1
  Nd  Nd3  1  0.986686  0.052384  0.250231  1
  Fe  Fe4  1  0.499127  0.997965  0.504220  1
  Fe  Fe5  1  0.999869  0.501990  0.996271  1
  Ni  Ni6  1  0.999684  0.501771  0.502251  1
  Ni  Ni7  1  0.499375  0.999166  0.997412  1
  O  O8  1  0.710599  0.290304  0.455540  1
  O  O9  1  0.787761  0.785750  0.048742  1
  O  O10  1  0.217256  0.203319  0.542772  1
  O  O11  1  0.288904  0.699426  0.962359  1
  O  O12  1  0.295951  0.704343  0.539265  1
  O  O13  1  0.208038  0.212548  0.955711  1
  O  O14  1  0.780150  0.793991  0.453157  1
  O  O15  1  0.715900  0.296122  0.042260  1
  O  O16  1  0.077773  0.482912  0.247448  1
  O  O17  1  0.418805  0.986075  0.253241  1
  O  O18  1  0.584696  0.019970  0.746304  1
  O  O19  1  0.918164  0.524285  0.753160  1
