# generated using pymatgen
data_U4Re7(SiP2)2
_symmetry_space_group_name_H-M   'P 1'
_cell_length_a   7.09184458
_cell_length_b   7.09598470
_cell_length_c   7.09598416
_cell_angle_alpha   109.49570740
_cell_angle_beta   109.47079491
_cell_angle_gamma   109.47079436
_symmetry_Int_Tables_number   1
_chemical_formula_structural   U4Re7(SiP2)2
_chemical_formula_sum   'U4 Re7 Si2 P4'
_cell_volume   274.81210874
_cell_formula_units_Z   1
loop_
 _symmetry_equiv_pos_site_id
 _symmetry_equiv_pos_as_xyz
  1  'x, y, z'
loop_
 _atom_site_type_symbol
 _atom_site_label
 _atom_site_symmetry_multiplicity
 _atom_site_fract_x
 _atom_site_fract_y
 _atom_site_fract_z
 _atom_site_occupancy
  U  U0  1  0.500000  0.500144  0.499856  1
  U  U1  1  0.000000  0.000589  0.507931  1
  U  U2  1  0.500000  0.000144  0.999856  1
  U  U3  1  0.000000  0.492069  0.999411  1
  Re  Re4  1  0.749671  0.249898  0.499773  1
  Re  Re5  1  0.500000  0.250058  0.749942  1
  Re  Re6  1  0.500000  0.750058  0.249942  1
  Re  Re7  1  0.250329  0.500227  0.750102  1
  Re  Re8  1  0.752361  0.500274  0.252087  1
  Re  Re9  1  0.247639  0.747913  0.499726  1
  Re  Re10  1  0.000000  0.006099  0.993901  1
  Si  Si11  1  0.306291  0.998257  0.308033  1
  Si  Si12  1  0.693709  0.691967  0.001743  1
  P  P13  1  0.317447  0.316010  0.001437  1
  P  P14  1  0.000000  0.308407  0.310674  1
  P  P15  1  0.000000  0.689326  0.691593  1
  P  P16  1  0.682553  0.998563  0.683990  1
