# generated using pymatgen
data_La6TbDy3(Sn5Ir2)4
_symmetry_space_group_name_H-M   'P 1'
_cell_length_a   14.17122717
_cell_length_b   14.17122717
_cell_length_c   4.65023500
_cell_angle_alpha   90.00000000
_cell_angle_beta   90.00000000
_cell_angle_gamma   89.98199200
_symmetry_Int_Tables_number   1
_chemical_formula_structural   La6TbDy3(Sn5Ir2)4
_chemical_formula_sum   'La6 Tb1 Dy3 Sn20 Ir8'
_cell_volume   933.87725779
_cell_formula_units_Z   1
loop_
 _symmetry_equiv_pos_site_id
 _symmetry_equiv_pos_as_xyz
  1  'x, y, z'
loop_
 _atom_site_type_symbol
 _atom_site_label
 _atom_site_symmetry_multiplicity
 _atom_site_fract_x
 _atom_site_fract_y
 _atom_site_fract_z
 _atom_site_occupancy
  La  La0  1  0.500025  0.499988  0.000000  1
  La  La1  1  0.000012  0.999975  0.000000  1
  La  La2  1  0.886780  0.386765  0.500000  1
  La  La3  1  0.113235  0.613220  0.500000  1
  La  La4  1  0.386799  0.113201  0.500000  1
  La  La5  1  0.613166  0.886834  0.500000  1
  Tb  Tb6  1  0.824508  0.675492  0.500000  1
  Dy  Dy7  1  0.675333  0.175280  0.500000  1
  Dy  Dy8  1  0.324720  0.824667  0.500000  1
  Dy  Dy9  1  0.175331  0.324669  0.500000  1
  Sn  Sn10  1  0.569958  0.069972  0.000000  1
  Sn  Sn11  1  0.430028  0.930042  0.000000  1
  Sn  Sn12  1  0.069966  0.430034  0.000000  1
  Sn  Sn13  1  0.930199  0.569801  0.000000  1
  Sn  Sn14  1  0.655241  0.698413  0.000000  1
  Sn  Sn15  1  0.344610  0.301582  0.000000  1
  Sn  Sn16  1  0.155406  0.801644  0.000000  1
  Sn  Sn17  1  0.844611  0.198384  0.000000  1
  Sn  Sn18  1  0.301616  0.655389  0.000000  1
  Sn  Sn19  1  0.698356  0.344594  0.000000  1
  Sn  Sn20  1  0.198418  0.155390  0.000000  1
  Sn  Sn21  1  0.801587  0.844759  0.000000  1
  Sn  Sn22  1  0.663376  0.506524  0.500000  1
  Sn  Sn23  1  0.336529  0.493343  0.500000  1
  Sn  Sn24  1  0.163421  0.993323  0.500000  1
  Sn  Sn25  1  0.836525  0.006620  0.500000  1
  Sn  Sn26  1  0.493380  0.663475  0.500000  1
  Sn  Sn27  1  0.506677  0.336579  0.500000  1
  Sn  Sn28  1  0.006657  0.163471  0.500000  1
  Sn  Sn29  1  0.993476  0.836624  0.500000  1
  Ir  Ir30  1  0.747393  0.529518  0.000000  1
  Ir  Ir31  1  0.252429  0.470135  0.000000  1
  Ir  Ir32  1  0.247556  0.970212  0.000000  1
  Ir  Ir33  1  0.752435  0.029893  0.000000  1
  Ir  Ir34  1  0.470107  0.747565  0.000000  1
  Ir  Ir35  1  0.529788  0.252444  0.000000  1
  Ir  Ir36  1  0.029865  0.247571  0.000000  1
  Ir  Ir37  1  0.970482  0.752607  0.000000  1
