# generated using pymatgen
data_Cs2Mn11CrSe14
_symmetry_space_group_name_H-M   'P 1'
_cell_length_a   9.32745623
_cell_length_b   9.32457509
_cell_length_c   9.34406300
_cell_angle_alpha   60.56735323
_cell_angle_beta   60.55357632
_cell_angle_gamma   60.70704456
_symmetry_Int_Tables_number   1
_chemical_formula_structural   Cs2Mn11CrSe14
_chemical_formula_sum   'Cs2 Mn11 Cr1 Se14'
_cell_volume   582.56803438
_cell_formula_units_Z   1
loop_
 _symmetry_equiv_pos_site_id
 _symmetry_equiv_pos_as_xyz
  1  'x, y, z'
loop_
 _atom_site_type_symbol
 _atom_site_label
 _atom_site_symmetry_multiplicity
 _atom_site_fract_x
 _atom_site_fract_y
 _atom_site_fract_z
 _atom_site_occupancy
  Cs  Cs0  1  0.379972  0.381664  0.382058  1
  Cs  Cs1  1  0.619560  0.616495  0.618065  1
  Mn  Mn2  1  0.189409  0.889000  0.060067  1
  Mn  Mn3  1  0.882112  0.063392  0.194782  1
  Mn  Mn4  1  0.936910  0.807531  0.113704  1
  Mn  Mn5  1  0.811161  0.109802  0.940212  1
  Mn  Mn6  1  0.119998  0.938141  0.804249  1
  Mn  Mn7  1  0.994891  0.303823  0.119195  1
  Mn  Mn8  1  0.878745  0.003964  0.693027  1
  Mn  Mn9  1  0.120988  0.998379  0.303640  1
  Mn  Mn10  1  0.006204  0.695551  0.878439  1
  Mn  Mn11  1  0.685681  0.875513  0.011586  1
  Mn  Mn12  1  0.062938  0.192217  0.886884  1
  Cr  Cr13  1  0.306464  0.122416  0.991794  1
  Se  Se14  1  0.990933  0.229123  0.647733  1
  Se  Se15  1  0.232877  0.647577  0.986495  1
  Se  Se16  1  0.645947  0.986116  0.233963  1
  Se  Se17  1  0.008870  0.771910  0.353125  1
  Se  Se18  1  0.768067  0.353607  0.012499  1
  Se  Se19  1  0.359314  0.013443  0.767546  1
  Se  Se20  1  0.169177  0.414829  0.813957  1
  Se  Se21  1  0.405570  0.811072  0.175841  1
  Se  Se22  1  0.814773  0.174763  0.411972  1
  Se  Se23  1  0.831728  0.584355  0.184671  1
  Se  Se24  1  0.591329  0.184519  0.831509  1
  Se  Se25  1  0.186224  0.828378  0.585485  1
  Se  Se26  1  0.780036  0.774890  0.777991  1
  Se  Se27  1  0.220122  0.227534  0.219511  1
