# generated using pymatgen
data_Sr6Cd3In5Pb2
_symmetry_space_group_name_H-M   'P 1'
_cell_length_a   6.57153068
_cell_length_b   6.57153126
_cell_length_c   16.65661976
_cell_angle_alpha   90.07040350
_cell_angle_beta   89.92959633
_cell_angle_gamma   134.52789284
_symmetry_Int_Tables_number   1
_chemical_formula_structural   Sr6Cd3In5Pb2
_chemical_formula_sum   'Sr6 Cd3 In5 Pb2'
_cell_volume   512.80681826
_cell_formula_units_Z   1
loop_
 _symmetry_equiv_pos_site_id
 _symmetry_equiv_pos_as_xyz
  1  'x, y, z'
loop_
 _atom_site_type_symbol
 _atom_site_label
 _atom_site_symmetry_multiplicity
 _atom_site_fract_x
 _atom_site_fract_y
 _atom_site_fract_z
 _atom_site_occupancy
  Sr  Sr0  1  0.090293  0.909707  0.390140  1
  Sr  Sr1  1  0.637463  0.362537  0.749475  1
  Sr  Sr2  1  0.362662  0.637338  0.251209  1
  Sr  Sr3  1  0.911217  0.088783  0.609057  1
  Sr  Sr4  1  0.910151  0.089849  0.889640  1
  Sr  Sr5  1  0.088781  0.911219  0.110087  1
  Cd  Cd6  1  0.205663  0.794337  0.903443  1
  Cd  Cd7  1  0.797107  0.202893  0.404271  1
  Cd  Cd8  1  0.386386  0.613614  0.461297  1
  In  In9  1  0.614435  0.385565  0.962940  1
  In  In10  1  0.205840  0.794160  0.597348  1
  In  In11  1  0.611111  0.388889  0.536105  1
  In  In12  1  0.386331  0.613669  0.034920  1
  In  In13  1  0.792379  0.207621  0.097280  1
  Pb  Pb14  1  0.347557  0.652443  0.751682  1
  Pb  Pb15  1  0.652625  0.347375  0.251107  1
