# generated using pymatgen
data_Dy3Zr(NiP)4
_symmetry_space_group_name_H-M   'P 1'
_cell_length_a   3.89199500
_cell_length_b   3.89199428
_cell_length_c   15.08532500
_cell_angle_alpha   90.00000000
_cell_angle_beta   90.00000000
_cell_angle_gamma   119.99999761
_symmetry_Int_Tables_number   1
_chemical_formula_structural   Dy3Zr(NiP)4
_chemical_formula_sum   'Dy3 Zr1 Ni4 P4'
_cell_volume   197.89270292
_cell_formula_units_Z   1
loop_
 _symmetry_equiv_pos_site_id
 _symmetry_equiv_pos_as_xyz
  1  'x, y, z'
loop_
 _atom_site_type_symbol
 _atom_site_label
 _atom_site_symmetry_multiplicity
 _atom_site_fract_x
 _atom_site_fract_y
 _atom_site_fract_z
 _atom_site_occupancy
  Dy  Dy0  1  0.000000  0.000000  0.494292  1
  Dy  Dy1  1  0.000000  0.000000  0.005708  1
  Dy  Dy2  1  0.000000  0.000000  0.750000  1
  Zr  Zr3  1  0.000000  0.000000  0.250000  1
  Ni  Ni4  1  0.333333  0.666667  0.348379  1
  Ni  Ni5  1  0.666667  0.333333  0.623372  1
  Ni  Ni6  1  0.666667  0.333333  0.876628  1
  Ni  Ni7  1  0.333333  0.666667  0.151621  1
  P  P8  1  0.333333  0.666667  0.879644  1
  P  P9  1  0.666667  0.333333  0.126926  1
  P  P10  1  0.666667  0.333333  0.373074  1
  P  P11  1  0.333333  0.666667  0.620356  1
