# generated using pymatgen
data_La2YPtRh8
_symmetry_space_group_name_H-M   'P 1'
_cell_length_a   5.35889800
_cell_length_b   5.35889767
_cell_length_c   17.73827000
_cell_angle_alpha   90.00000000
_cell_angle_beta   90.00000000
_cell_angle_gamma   119.99998969
_symmetry_Int_Tables_number   1
_chemical_formula_structural   La2YPtRh8
_chemical_formula_sum   'La4 Y2 Pt2 Rh16'
_cell_volume   441.15671371
_cell_formula_units_Z   2
loop_
 _symmetry_equiv_pos_site_id
 _symmetry_equiv_pos_as_xyz
  1  'x, y, z'
loop_
 _atom_site_type_symbol
 _atom_site_label
 _atom_site_symmetry_multiplicity
 _atom_site_fract_x
 _atom_site_fract_y
 _atom_site_fract_z
 _atom_site_occupancy
  La  La0  1  0.333333  0.666667  0.955077  1
  La  La1  1  0.666667  0.333333  0.044923  1
  La  La2  1  0.333333  0.666667  0.748477  1
  La  La3  1  0.666667  0.333333  0.251523  1
  Y  Y4  1  0.666667  0.333333  0.457565  1
  Y  Y5  1  0.333333  0.666667  0.542435  1
  Pt  Pt6  1  0.000000  0.000000  0.500000  1
  Pt  Pt7  1  0.000000  0.000000  0.000000  1
  Rh  Rh8  1  0.167911  0.832089  0.375691  1
  Rh  Rh9  1  0.167911  0.335824  0.375691  1
  Rh  Rh10  1  0.664176  0.832089  0.375691  1
  Rh  Rh11  1  0.832089  0.167911  0.624309  1
  Rh  Rh12  1  0.832089  0.664176  0.624309  1
  Rh  Rh13  1  0.335824  0.167911  0.624309  1
  Rh  Rh14  1  0.833278  0.166722  0.870432  1
  Rh  Rh15  1  0.833278  0.666555  0.870432  1
  Rh  Rh16  1  0.333445  0.166722  0.870432  1
  Rh  Rh17  1  0.166722  0.833278  0.129568  1
  Rh  Rh18  1  0.166722  0.333445  0.129568  1
  Rh  Rh19  1  0.666555  0.833278  0.129568  1
  Rh  Rh20  1  0.333333  0.666667  0.252262  1
  Rh  Rh21  1  0.666667  0.333333  0.747738  1
  Rh  Rh22  1  0.000000  0.000000  0.253224  1
  Rh  Rh23  1  0.000000  0.000000  0.746776  1
