# generated using pymatgen
data_UP2PtO10
_symmetry_space_group_name_H-M   'P 1'
_cell_length_a   5.68412753
_cell_length_b   5.20932099
_cell_length_c   7.57089169
_cell_angle_alpha   106.79134941
_cell_angle_beta   111.38773222
_cell_angle_gamma   94.14913402
_symmetry_Int_Tables_number   1
_chemical_formula_structural   UP2PtO10
_chemical_formula_sum   'U1 P2 Pt1 O10'
_cell_volume   195.82832765
_cell_formula_units_Z   1
loop_
 _symmetry_equiv_pos_site_id
 _symmetry_equiv_pos_as_xyz
  1  'x, y, z'
loop_
 _atom_site_type_symbol
 _atom_site_label
 _atom_site_symmetry_multiplicity
 _atom_site_fract_x
 _atom_site_fract_y
 _atom_site_fract_z
 _atom_site_occupancy
  U  U0  1  0.000000  0.500000  0.000000  1
  P  P1  1  0.325599  0.112843  0.736219  1
  P  P2  1  0.674401  0.887157  0.263781  1
  Pt  Pt3  1  0.000000  0.500000  0.500000  1
  O  O4  1  0.177355  0.174844  0.876139  1
  O  O5  1  0.320333  0.801459  0.654690  1
  O  O6  1  0.935477  0.565789  0.750183  1
  O  O7  1  0.220335  0.220654  0.557288  1
  O  O8  1  0.779665  0.779346  0.442712  1
  O  O9  1  0.614640  0.243477  0.865248  1
  O  O10  1  0.385360  0.756523  0.134752  1
  O  O11  1  0.064523  0.434211  0.249817  1
  O  O12  1  0.679667  0.198541  0.345310  1
  O  O13  1  0.822645  0.825156  0.123861  1
