# generated using pymatgen
data_Ca4Nd16(Ga3Pb)3
_symmetry_space_group_name_H-M   'P 1'
_cell_length_a   8.07361500
_cell_length_b   8.07361500
_cell_length_c   14.38988900
_cell_angle_alpha   90.00000000
_cell_angle_beta   90.00000000
_cell_angle_gamma   90.00000000
_symmetry_Int_Tables_number   1
_chemical_formula_structural   Ca4Nd16(Ga3Pb)3
_chemical_formula_sum   'Ca4 Nd16 Ga9 Pb3'
_cell_volume   937.97986409
_cell_formula_units_Z   1
loop_
 _symmetry_equiv_pos_site_id
 _symmetry_equiv_pos_as_xyz
  1  'x, y, z'
loop_
 _atom_site_type_symbol
 _atom_site_label
 _atom_site_symmetry_multiplicity
 _atom_site_fract_x
 _atom_site_fract_y
 _atom_site_fract_z
 _atom_site_occupancy
  Ca  Ca0  1  0.500000  0.500000  0.756294  1
  Ca  Ca1  1  0.000000  0.000000  0.248184  1
  Ca  Ca2  1  0.000000  0.000000  0.751816  1
  Ca  Ca3  1  0.500000  0.500000  0.243706  1
  Nd  Nd4  1  0.674748  0.163979  0.103222  1
  Nd  Nd5  1  0.168237  0.666991  0.607064  1
  Nd  Nd6  1  0.325252  0.836021  0.103222  1
  Nd  Nd7  1  0.831763  0.333009  0.607064  1
  Nd  Nd8  1  0.836021  0.674748  0.103222  1
  Nd  Nd9  1  0.333009  0.168237  0.607064  1
  Nd  Nd10  1  0.163979  0.325252  0.103222  1
  Nd  Nd11  1  0.666991  0.831763  0.607064  1
  Nd  Nd12  1  0.836021  0.325252  0.896778  1
  Nd  Nd13  1  0.333009  0.831763  0.392936  1
  Nd  Nd14  1  0.163979  0.674748  0.896778  1
  Nd  Nd15  1  0.666991  0.168237  0.392936  1
  Nd  Nd16  1  0.674748  0.836021  0.896778  1
  Nd  Nd17  1  0.168237  0.333009  0.392936  1
  Nd  Nd18  1  0.325252  0.163979  0.896778  1
  Nd  Nd19  1  0.831763  0.666991  0.392936  1
  Ga  Ga20  1  0.620208  0.120887  0.750783  1
  Ga  Ga21  1  0.120887  0.620208  0.249217  1
  Ga  Ga22  1  0.879113  0.379792  0.249217  1
  Ga  Ga23  1  0.379792  0.879113  0.750783  1
  Ga  Ga24  1  0.879113  0.620208  0.750783  1
  Ga  Ga25  1  0.379792  0.120887  0.249217  1
  Ga  Ga26  1  0.120887  0.379792  0.750783  1
  Ga  Ga27  1  0.620208  0.879113  0.249217  1
  Ga  Ga28  1  0.000000  0.000000  0.000000  1
  Pb  Pb29  1  0.500000  0.500000  0.500000  1
  Pb  Pb30  1  0.500000  0.500000  0.000000  1
  Pb  Pb31  1  0.000000  0.000000  0.500000  1
