# generated using pymatgen
data_Ta3Nb7Si5Sn
_symmetry_space_group_name_H-M   'P 1'
_cell_length_a   7.63480398
_cell_length_b   7.63556188
_cell_length_c   7.63063953
_cell_angle_alpha   127.98195137
_cell_angle_beta   128.00948160
_cell_angle_gamma   76.60136689
_symmetry_Int_Tables_number   1
_chemical_formula_structural   Ta3Nb7Si5Sn
_chemical_formula_sum   'Ta3 Nb7 Si5 Sn1'
_cell_volume   268.38111018
_cell_formula_units_Z   1
loop_
 _symmetry_equiv_pos_site_id
 _symmetry_equiv_pos_as_xyz
  1  'x, y, z'
loop_
 _atom_site_type_symbol
 _atom_site_label
 _atom_site_symmetry_multiplicity
 _atom_site_fract_x
 _atom_site_fract_y
 _atom_site_fract_z
 _atom_site_occupancy
  Ta  Ta0  1  0.818112  0.301789  0.826569  1
  Ta  Ta1  1  0.001986  0.002370  0.999911  1
  Ta  Ta2  1  0.498403  0.497867  0.999978  1
  Nb  Nb3  1  0.025614  0.197858  0.515675  1
  Nb  Nb4  1  0.682604  0.510526  0.485107  1
  Nb  Nb5  1  0.510746  0.026236  0.828623  1
  Nb  Nb6  1  0.197546  0.682404  0.171418  1
  Nb  Nb7  1  0.989221  0.817670  0.515529  1
  Nb  Nb8  1  0.301757  0.473923  0.484327  1
  Nb  Nb9  1  0.474393  0.989456  0.172641  1
  Si  Si10  1  0.249913  0.250093  0.000197  1
  Si  Si11  1  0.369753  0.130492  0.500265  1
  Si  Si12  1  0.630206  0.869451  0.499996  1
  Si  Si13  1  0.869334  0.369393  0.238850  1
  Si  Si14  1  0.130453  0.630318  0.760788  1
  Sn  Sn15  1  0.749958  0.750155  0.000128  1
