# generated using pymatgen
data_Y20Ir9Os2Ru
_symmetry_space_group_name_H-M   'P 1'
_cell_length_a   10.90025300
_cell_length_b   10.90025300
_cell_length_c   6.42751600
_cell_angle_alpha   90.00000000
_cell_angle_beta   90.00000000
_cell_angle_gamma   90.00000000
_symmetry_Int_Tables_number   1
_chemical_formula_structural   Y20Ir9Os2Ru
_chemical_formula_sum   'Y20 Ir9 Os2 Ru1'
_cell_volume   763.68862669
_cell_formula_units_Z   1
loop_
 _symmetry_equiv_pos_site_id
 _symmetry_equiv_pos_as_xyz
  1  'x, y, z'
loop_
 _atom_site_type_symbol
 _atom_site_label
 _atom_site_symmetry_multiplicity
 _atom_site_fract_x
 _atom_site_fract_y
 _atom_site_fract_z
 _atom_site_occupancy
  Y  Y0  1  0.294093  0.086495  0.377632  1
  Y  Y1  1  0.294089  0.913705  0.877902  1
  Y  Y2  1  0.705911  0.086295  0.877902  1
  Y  Y3  1  0.705907  0.913505  0.377632  1
  Y  Y4  1  0.586295  0.794089  0.877902  1
  Y  Y5  1  0.586495  0.205907  0.377632  1
  Y  Y6  1  0.413505  0.794093  0.377632  1
  Y  Y7  1  0.413705  0.205911  0.877902  1
  Y  Y8  1  0.207955  0.412785  0.623168  1
  Y  Y9  1  0.207641  0.587246  0.120209  1
  Y  Y10  1  0.792359  0.412754  0.120209  1
  Y  Y11  1  0.792045  0.587215  0.623168  1
  Y  Y12  1  0.912754  0.707641  0.120209  1
  Y  Y13  1  0.912785  0.292045  0.623168  1
  Y  Y14  1  0.087215  0.707955  0.623168  1
  Y  Y15  1  0.087246  0.292359  0.120209  1
  Y  Y16  1  0.000000  0.000000  0.499717  1
  Y  Y17  1  0.000000  0.000000  0.999888  1
  Y  Y18  1  0.500000  0.500000  0.999888  1
  Y  Y19  1  0.500000  0.500000  0.499717  1
  Ir  Ir20  1  0.848226  0.153528  0.250393  1
  Ir  Ir21  1  0.848020  0.846569  0.750053  1
  Ir  Ir22  1  0.151980  0.153431  0.750053  1
  Ir  Ir23  1  0.151774  0.846472  0.250393  1
  Ir  Ir24  1  0.653431  0.348020  0.750053  1
  Ir  Ir25  1  0.653528  0.651774  0.250393  1
  Ir  Ir26  1  0.346472  0.348226  0.250393  1
  Ir  Ir27  1  0.346569  0.651980  0.750053  1
  Ir  Ir28  1  0.000000  0.500000  0.376906  1
  Os  Os29  1  0.500000  0.000000  0.125141  1
  Os  Os30  1  0.500000  0.000000  0.625108  1
  Ru  Ru31  1  0.000000  0.500000  0.876206  1
