# generated using pymatgen
data_Y2Co3P6Ir2Rh5
_symmetry_space_group_name_H-M   'P 1'
_cell_length_a   3.84597200
_cell_length_b   10.69883844
_cell_length_c   12.31516500
_cell_angle_alpha   90.03473129
_cell_angle_beta   90.00000000
_cell_angle_gamma   90.00000000
_symmetry_Int_Tables_number   1
_chemical_formula_structural   Y2Co3P6Ir2Rh5
_chemical_formula_sum   'Y4 Co6 P12 Ir4 Rh10'
_cell_volume   506.73733446
_cell_formula_units_Z   2
loop_
 _symmetry_equiv_pos_site_id
 _symmetry_equiv_pos_as_xyz
  1  'x, y, z'
loop_
 _atom_site_type_symbol
 _atom_site_label
 _atom_site_symmetry_multiplicity
 _atom_site_fract_x
 _atom_site_fract_y
 _atom_site_fract_z
 _atom_site_occupancy
  Y  Y0  1  0.250000  0.918994  0.210265  1
  Y  Y1  1  0.750000  0.081006  0.789735  1
  Y  Y2  1  0.750000  0.413409  0.292354  1
  Y  Y3  1  0.250000  0.586591  0.707646  1
  Co  Co4  1  0.750000  0.115663  0.302730  1
  Co  Co5  1  0.250000  0.884337  0.697270  1
  Co  Co6  1  0.250000  0.037044  0.433106  1
  Co  Co7  1  0.750000  0.962956  0.566894  1
  Co  Co8  1  0.750000  0.536952  0.065804  1
  Co  Co9  1  0.250000  0.463048  0.934196  1
  P  P10  1  0.250000  0.066072  0.609878  1
  P  P11  1  0.750000  0.933928  0.390122  1
  P  P12  1  0.750000  0.577428  0.893114  1
  P  P13  1  0.250000  0.422572  0.106886  1
  P  P14  1  0.250000  0.225204  0.372181  1
  P  P15  1  0.750000  0.774796  0.627819  1
  P  P16  1  0.750000  0.729787  0.128893  1
  P  P17  1  0.250000  0.270213  0.871107  1
  P  P18  1  0.250000  0.902237  0.880103  1
  P  P19  1  0.750000  0.097763  0.119897  1
  P  P20  1  0.750000  0.398611  0.611422  1
  P  P21  1  0.250000  0.601389  0.388578  1
  Ir  Ir22  1  0.750000  0.776710  0.818293  1
  Ir  Ir23  1  0.250000  0.223290  0.181707  1
  Ir  Ir24  1  0.250000  0.615460  0.198264  1
  Ir  Ir25  1  0.750000  0.384540  0.801736  1
  Rh  Rh26  1  0.250000  0.784010  0.492999  1
  Rh  Rh27  1  0.750000  0.215990  0.507001  1
  Rh  Rh28  1  0.750000  0.283022  0.018203  1
  Rh  Rh29  1  0.250000  0.716978  0.981797  1
  Rh  Rh30  1  0.250000  0.091376  0.978247  1
  Rh  Rh31  1  0.750000  0.908624  0.021753  1
  Rh  Rh32  1  0.750000  0.591682  0.520326  1
  Rh  Rh33  1  0.250000  0.408318  0.479674  1
  Rh  Rh34  1  0.250000  0.267643  0.675937  1
  Rh  Rh35  1  0.750000  0.732357  0.324063  1
