# generated using pymatgen
data_Th2Sc3Si7Pd9
_symmetry_space_group_name_H-M   'P 1'
_cell_length_a   10.07854600
_cell_length_b   10.07854748
_cell_length_c   4.07073900
_cell_angle_alpha   90.00000000
_cell_angle_beta   90.00000000
_cell_angle_gamma   120.00000171
_symmetry_Int_Tables_number   1
_chemical_formula_structural   Th2Sc3Si7Pd9
_chemical_formula_sum   'Th2 Sc3 Si7 Pd9'
_cell_volume   358.09619850
_cell_formula_units_Z   1
loop_
 _symmetry_equiv_pos_site_id
 _symmetry_equiv_pos_as_xyz
  1  'x, y, z'
loop_
 _atom_site_type_symbol
 _atom_site_label
 _atom_site_symmetry_multiplicity
 _atom_site_fract_x
 _atom_site_fract_y
 _atom_site_fract_z
 _atom_site_occupancy
  Th  Th0  1  0.000000  0.000000  0.000000  1
  Th  Th1  1  0.333333  0.666667  0.500000  1
  Sc  Sc2  1  0.889705  0.446056  0.500000  1
  Sc  Sc3  1  0.556351  0.110295  0.500000  1
  Sc  Sc4  1  0.553944  0.443649  0.500000  1
  Si  Si5  1  0.253687  0.203384  0.500000  1
  Si  Si6  1  0.796616  0.050306  0.500000  1
  Si  Si7  1  0.949694  0.746313  0.500000  1
  Si  Si8  1  0.561438  0.646776  0.000000  1
  Si  Si9  1  0.353224  0.914660  0.000000  1
  Si  Si10  1  0.085340  0.438562  0.000000  1
  Si  Si11  1  0.666667  0.333333  0.000000  1
  Pd  Pd12  1  0.221376  0.936867  0.500000  1
  Pd  Pd13  1  0.063133  0.284508  0.500000  1
  Pd  Pd14  1  0.715492  0.778624  0.500000  1
  Pd  Pd15  1  0.309242  0.404245  0.000000  1
  Pd  Pd16  1  0.595755  0.904997  0.000000  1
  Pd  Pd17  1  0.095003  0.690758  0.000000  1
  Pd  Pd18  1  0.383023  0.172769  0.000000  1
  Pd  Pd19  1  0.827231  0.210255  0.000000  1
  Pd  Pd20  1  0.789745  0.616977  0.000000  1
