# generated using pymatgen
data_TbY3LuInAu4
_symmetry_space_group_name_H-M   'P 1'
_cell_length_a   8.09539832
_cell_length_b   8.09273733
_cell_length_c   3.76401600
_cell_angle_alpha   90.00000000
_cell_angle_beta   90.00000000
_cell_angle_gamma   90.06556327
_symmetry_Int_Tables_number   1
_chemical_formula_structural   TbY3LuInAu4
_chemical_formula_sum   'Tb1 Y3 Lu1 In1 Au4'
_cell_volume   246.59532751
_cell_formula_units_Z   1
loop_
 _symmetry_equiv_pos_site_id
 _symmetry_equiv_pos_as_xyz
  1  'x, y, z'
loop_
 _atom_site_type_symbol
 _atom_site_label
 _atom_site_symmetry_multiplicity
 _atom_site_fract_x
 _atom_site_fract_y
 _atom_site_fract_z
 _atom_site_occupancy
  Tb  Tb0  1  0.685131  0.142203  0.500000  1
  Y  Y1  1  0.314419  0.857883  0.500000  1
  Y  Y2  1  0.142117  0.314637  0.500000  1
  Y  Y3  1  0.858125  0.685274  0.500000  1
  Lu  Lu4  1  0.500012  0.500049  0.000000  1
  In  In5  1  0.000284  0.999886  0.000000  1
  Au  Au6  1  0.148394  0.616535  0.000000  1
  Au  Au7  1  0.851514  0.383441  0.000000  1
  Au  Au8  1  0.616564  0.851597  0.000000  1
  Au  Au9  1  0.383440  0.148496  0.000000  1
