# generated using pymatgen
data_Yb6RuWO12
_symmetry_space_group_name_H-M   'P 1'
_cell_length_a   6.48471487
_cell_length_b   6.48471356
_cell_length_c   6.48471419
_cell_angle_alpha   92.21832751
_cell_angle_beta   92.21831378
_cell_angle_gamma   92.21833689
_symmetry_Int_Tables_number   1
_chemical_formula_structural   Yb6RuWO12
_chemical_formula_sum   'Yb6 Ru1 W1 O12'
_cell_volume   272.06269016
_cell_formula_units_Z   1
loop_
 _symmetry_equiv_pos_site_id
 _symmetry_equiv_pos_as_xyz
  1  'x, y, z'
loop_
 _atom_site_type_symbol
 _atom_site_label
 _atom_site_symmetry_multiplicity
 _atom_site_fract_x
 _atom_site_fract_y
 _atom_site_fract_z
 _atom_site_occupancy
  Yb  Yb0  1  0.928177  0.432974  0.743978  1
  Yb  Yb1  1  0.743978  0.928177  0.432974  1
  Yb  Yb2  1  0.567026  0.256022  0.071823  1
  Yb  Yb3  1  0.432974  0.743978  0.928177  1
  Yb  Yb4  1  0.256022  0.071823  0.567026  1
  Yb  Yb5  1  0.071823  0.567026  0.256022  1
  Ru  Ru6  1  0.500000  0.500000  0.500000  1
  W  W7  1  0.000000  0.000000  0.000000  1
  O  O8  1  0.936131  0.287585  0.069211  1
  O  O9  1  0.930789  0.063869  0.712415  1
  O  O10  1  0.786500  0.579590  0.453113  1
  O  O11  1  0.712415  0.930789  0.063869  1
  O  O12  1  0.579590  0.453113  0.786500  1
  O  O13  1  0.546887  0.213500  0.420410  1
  O  O14  1  0.453113  0.786500  0.579590  1
  O  O15  1  0.420410  0.546887  0.213500  1
  O  O16  1  0.287585  0.069211  0.936131  1
  O  O17  1  0.213500  0.420410  0.546887  1
  O  O18  1  0.069211  0.936131  0.287585  1
  O  O19  1  0.063869  0.712415  0.930789  1
