# generated using pymatgen
data_Li4Nd2HoTmSi8
_symmetry_space_group_name_H-M   'P 1'
_cell_length_a   3.81719600
_cell_length_b   7.65156718
_cell_length_c   10.26763852
_cell_angle_alpha   89.81971850
_cell_angle_beta   90.00000000
_cell_angle_gamma   90.00000000
_symmetry_Int_Tables_number   1
_chemical_formula_structural   Li4Nd2HoTmSi8
_chemical_formula_sum   'Li4 Nd2 Ho1 Tm1 Si8'
_cell_volume   299.89089249
_cell_formula_units_Z   1
loop_
 _symmetry_equiv_pos_site_id
 _symmetry_equiv_pos_as_xyz
  1  'x, y, z'
loop_
 _atom_site_type_symbol
 _atom_site_label
 _atom_site_symmetry_multiplicity
 _atom_site_fract_x
 _atom_site_fract_y
 _atom_site_fract_z
 _atom_site_occupancy
  Li  Li0  1  0.250000  0.994833  0.389401  1
  Li  Li1  1  0.750000  0.005206  0.610528  1
  Li  Li2  1  0.250000  0.488492  0.106573  1
  Li  Li3  1  0.750000  0.510930  0.893667  1
  Nd  Nd4  1  0.250000  0.639538  0.636327  1
  Nd  Nd5  1  0.750000  0.360846  0.363379  1
  Ho  Ho6  1  0.250000  0.133350  0.864644  1
  Tm  Tm7  1  0.750000  0.867408  0.135436  1
  Si  Si8  1  0.750000  0.262426  0.062650  1
  Si  Si9  1  0.250000  0.737046  0.938738  1
  Si  Si10  1  0.750000  0.776069  0.424655  1
  Si  Si11  1  0.250000  0.224623  0.574316  1
  Si  Si12  1  0.750000  0.844081  0.826301  1
  Si  Si13  1  0.250000  0.154602  0.174450  1
  Si  Si14  1  0.750000  0.334320  0.684433  1
  Si  Si15  1  0.250000  0.666226  0.314501  1
