# generated using pymatgen
data_Ce4Sm3Ho(AlRu)8
_symmetry_space_group_name_H-M   'P 1'
_cell_length_a   3.99792800
_cell_length_b   7.28840239
_cell_length_c   16.08086629
_cell_angle_alpha   91.29482911
_cell_angle_beta   90.00000000
_cell_angle_gamma   90.00000000
_symmetry_Int_Tables_number   1
_chemical_formula_structural   Ce4Sm3Ho(AlRu)8
_chemical_formula_sum   'Ce4 Sm3 Ho1 Al8 Ru8'
_cell_volume   468.45280241
_cell_formula_units_Z   1
loop_
 _symmetry_equiv_pos_site_id
 _symmetry_equiv_pos_as_xyz
  1  'x, y, z'
loop_
 _atom_site_type_symbol
 _atom_site_label
 _atom_site_symmetry_multiplicity
 _atom_site_fract_x
 _atom_site_fract_y
 _atom_site_fract_z
 _atom_site_occupancy
  Ce  Ce0  1  0.750000  0.825896  0.436542  1
  Ce  Ce1  1  0.750000  0.455871  0.281884  1
  Ce  Ce2  1  0.750000  0.327180  0.063214  1
  Ce  Ce3  1  0.250000  0.539217  0.720337  1
  Sm  Sm4  1  0.250000  0.166427  0.561122  1
  Sm  Sm5  1  0.250000  0.663402  0.939906  1
  Sm  Sm6  1  0.250000  0.040167  0.781102  1
  Ho  Ho7  1  0.750000  0.961478  0.218773  1
  Al  Al8  1  0.750000  0.501017  0.561128  1
  Al  Al9  1  0.750000  0.362370  0.854062  1
  Al  Al10  1  0.750000  0.991045  0.936992  1
  Al  Al11  1  0.750000  0.866167  0.649284  1
  Al  Al12  1  0.250000  0.492157  0.436715  1
  Al  Al13  1  0.250000  0.993331  0.067248  1
  Al  Al14  1  0.250000  0.639585  0.155330  1
  Al  Al15  1  0.250000  0.125512  0.343746  1
  Ru  Ru16  1  0.750000  0.727884  0.805383  1
  Ru  Ru17  1  0.250000  0.231300  0.943100  1
  Ru  Ru18  1  0.750000  0.271104  0.422686  1
  Ru  Ru19  1  0.250000  0.755680  0.324510  1
  Ru  Ru20  1  0.750000  0.766924  0.069524  1
  Ru  Ru21  1  0.750000  0.280173  0.688746  1
  Ru  Ru22  1  0.250000  0.273226  0.178949  1
  Ru  Ru23  1  0.250000  0.742888  0.559717  1
