# generated using pymatgen
data_Hf4Ga2Ir7Rh3
_symmetry_space_group_name_H-M   'P 1'
_cell_length_a   4.08406800
_cell_length_b   5.56411914
_cell_length_c   11.02385515
_cell_angle_alpha   89.92751063
_cell_angle_beta   90.00000000
_cell_angle_gamma   90.00000000
_symmetry_Int_Tables_number   1
_chemical_formula_structural   Hf4Ga2Ir7Rh3
_chemical_formula_sum   'Hf4 Ga2 Ir7 Rh3'
_cell_volume   250.50853997
_cell_formula_units_Z   1
loop_
 _symmetry_equiv_pos_site_id
 _symmetry_equiv_pos_as_xyz
  1  'x, y, z'
loop_
 _atom_site_type_symbol
 _atom_site_label
 _atom_site_symmetry_multiplicity
 _atom_site_fract_x
 _atom_site_fract_y
 _atom_site_fract_z
 _atom_site_occupancy
  Hf  Hf0  1  0.500000  0.189799  0.636987  1
  Hf  Hf1  1  0.500000  0.810603  0.362816  1
  Hf  Hf2  1  0.500000  0.689727  0.863046  1
  Hf  Hf3  1  0.500000  0.310149  0.137787  1
  Ga  Ga4  1  0.000000  0.499318  0.499252  1
  Ga  Ga5  1  0.000000  0.000041  0.999954  1
  Ir  Ir6  1  0.500000  0.194535  0.887557  1
  Ir  Ir7  1  0.500000  0.805713  0.112132  1
  Ir  Ir8  1  0.500000  0.694224  0.612533  1
  Ir  Ir9  1  0.000000  0.441166  0.750118  1
  Ir  Ir10  1  0.000000  0.558896  0.249669  1
  Ir  Ir11  1  0.000000  0.059586  0.250233  1
  Ir  Ir12  1  0.000000  0.941236  0.749726  1
  Rh  Rh13  1  0.500000  0.306764  0.388468  1
  Rh  Rh14  1  0.000000  0.998881  0.499640  1
  Rh  Rh15  1  0.000000  0.499361  0.000081  1
