# generated using pymatgen
data_CsRb2HgH5
_symmetry_space_group_name_H-M   'P 1'
_cell_length_a   8.46634608
_cell_length_b   8.46634526
_cell_length_c   8.46634500
_cell_angle_alpha   122.33852595
_cell_angle_beta   122.33852508
_cell_angle_gamma   85.99513542
_symmetry_Int_Tables_number   1
_chemical_formula_structural   CsRb2HgH5
_chemical_formula_sum   'Cs2 Rb4 Hg2 H10'
_cell_volume   412.84756479
_cell_formula_units_Z   2
loop_
 _symmetry_equiv_pos_site_id
 _symmetry_equiv_pos_as_xyz
  1  'x, y, z'
loop_
 _atom_site_type_symbol
 _atom_site_label
 _atom_site_symmetry_multiplicity
 _atom_site_fract_x
 _atom_site_fract_y
 _atom_site_fract_z
 _atom_site_occupancy
  Cs  Cs0  1  0.250000  0.250000  0.000000  1
  Cs  Cs1  1  0.750000  0.750000  0.000000  1
  Rb  Rb2  1  0.818464  0.318464  0.136929  1
  Rb  Rb3  1  0.681536  0.818464  0.500000  1
  Rb  Rb4  1  0.318464  0.181536  0.500000  1
  Rb  Rb5  1  0.181536  0.681536  0.863071  1
  Hg  Hg6  1  0.250000  0.750000  0.500000  1
  Hg  Hg7  1  0.750000  0.250000  0.500000  1
  H  H8  1  0.000000  0.000000  0.000000  1
  H  H9  1  0.500000  0.500000  0.000000  1
  H  H10  1  0.285499  0.534985  0.500000  1
  H  H11  1  0.034985  0.785499  0.500000  1
  H  H12  1  0.785499  0.285499  0.750514  1
  H  H13  1  0.534985  0.034985  0.249486  1
  H  H14  1  0.465015  0.965015  0.750514  1
  H  H15  1  0.214501  0.714501  0.249486  1
  H  H16  1  0.965015  0.214501  0.500000  1
  H  H17  1  0.714501  0.465015  0.500000  1
