# generated using pymatgen
data_CaPr3(RhO3)4
_symmetry_space_group_name_H-M   'P 1'
_cell_length_a   5.45441304
_cell_length_b   5.84016804
_cell_length_c   7.83576200
_cell_angle_alpha   90.00000000
_cell_angle_beta   90.00000000
_cell_angle_gamma   90.01370845
_symmetry_Int_Tables_number   1
_chemical_formula_structural   CaPr3(RhO3)4
_chemical_formula_sum   'Ca1 Pr3 Rh4 O12'
_cell_volume   249.60575224
_cell_formula_units_Z   1
loop_
 _symmetry_equiv_pos_site_id
 _symmetry_equiv_pos_as_xyz
  1  'x, y, z'
loop_
 _atom_site_type_symbol
 _atom_site_label
 _atom_site_symmetry_multiplicity
 _atom_site_fract_x
 _atom_site_fract_y
 _atom_site_fract_z
 _atom_site_occupancy
  Ca  Ca0  1  0.020866  0.932702  0.750000  1
  Pr  Pr1  1  0.520727  0.570197  0.250000  1
  Pr  Pr2  1  0.978297  0.069084  0.250000  1
  Pr  Pr3  1  0.476466  0.429427  0.750000  1
  Rh  Rh4  1  0.499676  0.999935  0.995735  1
  Rh  Rh5  1  0.000809  0.502494  0.503941  1
  Rh  Rh6  1  0.499676  0.999935  0.504265  1
  Rh  Rh7  1  0.000809  0.502494  0.996059  1
  O  O8  1  0.395036  0.968851  0.250000  1
  O  O9  1  0.102044  0.465774  0.250000  1
  O  O10  1  0.613172  0.036860  0.750000  1
  O  O11  1  0.893731  0.546555  0.750000  1
  O  O12  1  0.803481  0.797146  0.057121  1
  O  O13  1  0.692358  0.300554  0.448526  1
  O  O14  1  0.187587  0.195725  0.555539  1
  O  O15  1  0.315919  0.694421  0.951954  1
  O  O16  1  0.187587  0.195725  0.944461  1
  O  O17  1  0.315919  0.694421  0.548046  1
  O  O18  1  0.803481  0.797146  0.442879  1
  O  O19  1  0.692358  0.300554  0.051474  1
