# generated using pymatgen
data_DyTm3Ta5TiSi8
_symmetry_space_group_name_H-M   'P 1'
_cell_length_a   7.02156771
_cell_length_b   7.02089648
_cell_length_c   12.90805222
_cell_angle_alpha   89.92681263
_cell_angle_beta   89.99097755
_cell_angle_gamma   89.99500040
_symmetry_Int_Tables_number   1
_chemical_formula_structural   DyTm3Ta5TiSi8
_chemical_formula_sum   'Dy2 Tm6 Ta10 Ti2 Si16'
_cell_volume   636.33675726
_cell_formula_units_Z   2
loop_
 _symmetry_equiv_pos_site_id
 _symmetry_equiv_pos_as_xyz
  1  'x, y, z'
loop_
 _atom_site_type_symbol
 _atom_site_label
 _atom_site_symmetry_multiplicity
 _atom_site_fract_x
 _atom_site_fract_y
 _atom_site_fract_z
 _atom_site_occupancy
  Dy  Dy0  1  0.497750  0.841001  0.718375  1
  Dy  Dy1  1  0.341151  0.002325  0.467904  1
  Tm  Tm2  1  0.998981  0.657536  0.032458  1
  Tm  Tm3  1  0.001191  0.341714  0.531753  1
  Tm  Tm4  1  0.657813  0.999240  0.967863  1
  Tm  Tm5  1  0.159014  0.502332  0.782363  1
  Tm  Tm6  1  0.841889  0.498512  0.281727  1
  Tm  Tm7  1  0.502554  0.159176  0.217613  1
  Ta  Ta8  1  0.346818  0.507577  0.375858  1
  Ta  Ta9  1  0.847571  0.992900  0.374146  1
  Ta  Ta10  1  0.007062  0.152597  0.126330  1
  Ta  Ta11  1  0.993085  0.847335  0.625791  1
  Ta  Ta12  1  0.508469  0.346791  0.624055  1
  Ta  Ta13  1  0.152346  0.007833  0.873982  1
  Ta  Ta14  1  0.672470  0.671681  0.499737  1
  Ta  Ta15  1  0.829501  0.170628  0.750270  1
  Ta  Ta16  1  0.170181  0.829162  0.249661  1
  Ta  Ta17  1  0.326452  0.326576  0.000175  1
  Ti  Ti18  1  0.493219  0.652449  0.123802  1
  Ti  Ti19  1  0.652809  0.493302  0.876426  1
  Si  Si20  1  0.044644  0.703508  0.435754  1
  Si  Si21  1  0.952561  0.296687  0.935765  1
  Si  Si22  1  0.706083  0.046234  0.563928  1
  Si  Si23  1  0.206643  0.455713  0.185088  1
  Si  Si24  1  0.795658  0.544592  0.687355  1
  Si  Si25  1  0.455365  0.208088  0.815246  1
  Si  Si26  1  0.545789  0.794335  0.312098  1
  Si  Si27  1  0.296486  0.952621  0.064375  1
  Si  Si28  1  0.794182  0.863834  0.180337  1
  Si  Si29  1  0.295110  0.632546  0.569094  1
  Si  Si30  1  0.701767  0.367496  0.067617  1
  Si  Si31  1  0.635386  0.296934  0.430412  1
  Si  Si32  1  0.367297  0.701511  0.932925  1
  Si  Si33  1  0.133853  0.205616  0.318137  1
  Si  Si34  1  0.203720  0.135724  0.681597  1
  Si  Si35  1  0.865133  0.793900  0.819984  1
