# generated using pymatgen
data_Be2VSiMo4
_symmetry_space_group_name_H-M   'P 1'
_cell_length_a   7.07650535
_cell_length_b   7.07650522
_cell_length_c   7.07650526
_cell_angle_alpha   128.90482546
_cell_angle_beta   128.90482238
_cell_angle_gamma   75.16376702
_symmetry_Int_Tables_number   1
_chemical_formula_structural   Be2VSiMo4
_chemical_formula_sum   'Be4 V2 Si2 Mo8'
_cell_volume   208.92276742
_cell_formula_units_Z   2
loop_
 _symmetry_equiv_pos_site_id
 _symmetry_equiv_pos_as_xyz
  1  'x, y, z'
loop_
 _atom_site_type_symbol
 _atom_site_label
 _atom_site_symmetry_multiplicity
 _atom_site_fract_x
 _atom_site_fract_y
 _atom_site_fract_z
 _atom_site_occupancy
  Be  Be0  1  0.375872  0.875872  0.251745  1
  Be  Be1  1  0.875872  0.624128  0.500000  1
  Be  Be2  1  0.624128  0.124128  0.748255  1
  Be  Be3  1  0.124128  0.375872  0.500000  1
  V  V4  1  0.000000  0.000000  0.000000  1
  V  V5  1  0.500000  0.500000  0.000000  1
  Si  Si6  1  0.750000  0.750000  0.000000  1
  Si  Si7  1  0.250000  0.250000  0.000000  1
  Mo  Mo8  1  0.810602  0.976418  0.500000  1
  Mo  Mo9  1  0.310602  0.810602  0.834184  1
  Mo  Mo10  1  0.189398  0.023582  0.500000  1
  Mo  Mo11  1  0.523582  0.689398  0.500000  1
  Mo  Mo12  1  0.023582  0.523582  0.834184  1
  Mo  Mo13  1  0.689398  0.189398  0.165816  1
  Mo  Mo14  1  0.976418  0.476418  0.165816  1
  Mo  Mo15  1  0.476418  0.310602  0.500000  1
