# generated using pymatgen
data_PrAg3Ru2(PtO7)2
_symmetry_space_group_name_H-M   'P 1'
_cell_length_a   7.30169942
_cell_length_b   7.33784832
_cell_length_c   7.30169825
_cell_angle_alpha   59.39045616
_cell_angle_beta   59.05219775
_cell_angle_gamma   59.39045961
_symmetry_Int_Tables_number   1
_chemical_formula_structural   PrAg3Ru2(PtO7)2
_chemical_formula_sum   'Pr1 Ag3 Ru2 Pt2 O14'
_cell_volume   272.07472075
_cell_formula_units_Z   1
loop_
 _symmetry_equiv_pos_site_id
 _symmetry_equiv_pos_as_xyz
  1  'x, y, z'
loop_
 _atom_site_type_symbol
 _atom_site_label
 _atom_site_symmetry_multiplicity
 _atom_site_fract_x
 _atom_site_fract_y
 _atom_site_fract_z
 _atom_site_occupancy
  Pr  Pr0  1  0.625000  0.625000  0.625000  1
  Ag  Ag1  1  0.625000  0.625000  0.125000  1
  Ag  Ag2  1  0.625000  0.125000  0.625000  1
  Ag  Ag3  1  0.125000  0.625000  0.625000  1
  Ru  Ru4  1  0.125000  0.625000  0.125000  1
  Ru  Ru5  1  0.125000  0.125000  0.125000  1
  Pt  Pt6  1  0.125000  0.125000  0.625000  1
  Pt  Pt7  1  0.625000  0.125000  0.125000  1
  O  O8  1  0.761115  0.759535  0.761115  1
  O  O9  1  0.488885  0.490465  0.488885  1
  O  O10  1  0.073100  0.428508  0.073100  1
  O  O11  1  0.786722  0.211276  0.786722  1
  O  O12  1  0.062050  0.040641  0.445464  1
  O  O13  1  0.445464  0.040641  0.062050  1
  O  O14  1  0.048730  0.458004  0.451711  1
  O  O15  1  0.451711  0.458004  0.048730  1
  O  O16  1  0.463278  0.038724  0.463278  1
  O  O17  1  0.201270  0.791996  0.798289  1
  O  O18  1  0.804536  0.209359  0.187950  1
  O  O19  1  0.176900  0.821492  0.176900  1
  O  O20  1  0.798289  0.791996  0.201270  1
  O  O21  1  0.187950  0.209359  0.804536  1
