# generated using pymatgen
data_Ta12Mn3Ga9C4
_symmetry_space_group_name_H-M   'P 1'
_cell_length_a   8.25862307
_cell_length_b   8.26265444
_cell_length_c   8.23399020
_cell_angle_alpha   59.89128574
_cell_angle_beta   59.90408683
_cell_angle_gamma   59.98822667
_symmetry_Int_Tables_number   1
_chemical_formula_structural   Ta12Mn3Ga9C4
_chemical_formula_sum   'Ta12 Mn3 Ga9 C4'
_cell_volume   396.65293980
_cell_formula_units_Z   1
loop_
 _symmetry_equiv_pos_site_id
 _symmetry_equiv_pos_as_xyz
  1  'x, y, z'
loop_
 _atom_site_type_symbol
 _atom_site_label
 _atom_site_symmetry_multiplicity
 _atom_site_fract_x
 _atom_site_fract_y
 _atom_site_fract_z
 _atom_site_occupancy
  Ta  Ta0  1  0.558226  0.943287  0.555261  1
  Ta  Ta1  1  0.306112  0.692221  0.695068  1
  Ta  Ta2  1  0.693657  0.305633  0.307370  1
  Ta  Ta3  1  0.305872  0.693305  0.307593  1
  Ta  Ta4  1  0.693568  0.693348  0.307387  1
  Ta  Ta5  1  0.306084  0.306525  0.695175  1
  Ta  Ta6  1  0.556432  0.556652  0.942613  1
  Ta  Ta7  1  0.943888  0.557779  0.554932  1
  Ta  Ta8  1  0.556343  0.944367  0.942630  1
  Ta  Ta9  1  0.943916  0.943475  0.554825  1
  Ta  Ta10  1  0.691774  0.306713  0.694739  1
  Ta  Ta11  1  0.944128  0.556695  0.942407  1
  Mn  Mn12  1  0.125000  0.125000  0.125000  1
  Mn  Mn13  1  0.625000  0.125000  0.125000  1
  Mn  Mn14  1  0.125000  0.625000  0.125000  1
  Ga  Ga15  1  0.908829  0.908818  0.924556  1
  Ga  Ga16  1  0.992265  0.341038  0.325228  1
  Ga  Ga17  1  0.340953  0.992412  0.325229  1
  Ga  Ga18  1  0.334464  0.334823  0.995454  1
  Ga  Ga19  1  0.909047  0.257588  0.924771  1
  Ga  Ga20  1  0.915536  0.915177  0.254546  1
  Ga  Ga21  1  0.257735  0.908962  0.924772  1
  Ga  Ga22  1  0.341171  0.341182  0.325444  1
  Ga  Ga23  1  0.125000  0.125000  0.625000  1
  C  C24  1  0.625000  0.625000  0.625000  1
  C  C25  1  0.125000  0.625000  0.625000  1
  C  C26  1  0.625000  0.125000  0.625000  1
  C  C27  1  0.625000  0.625000  0.125000  1
