# generated using pymatgen
data_Tm20Al3Cu3Ru2
_symmetry_space_group_name_H-M   'P 1'
_cell_length_a   9.36029900
_cell_length_b   9.36029813
_cell_length_c   9.45291500
_cell_angle_alpha   90.00000000
_cell_angle_beta   90.00000000
_cell_angle_gamma   119.99999956
_symmetry_Int_Tables_number   1
_chemical_formula_structural   Tm20Al3Cu3Ru2
_chemical_formula_sum   'Tm20 Al3 Cu3 Ru2'
_cell_volume   717.25864174
_cell_formula_units_Z   1
loop_
 _symmetry_equiv_pos_site_id
 _symmetry_equiv_pos_as_xyz
  1  'x, y, z'
loop_
 _atom_site_type_symbol
 _atom_site_label
 _atom_site_symmetry_multiplicity
 _atom_site_fract_x
 _atom_site_fract_y
 _atom_site_fract_z
 _atom_site_occupancy
  Tm  Tm0  1  0.000000  0.000000  0.451604  1
  Tm  Tm1  1  0.000000  0.000000  0.048396  1
  Tm  Tm2  1  0.208895  0.791105  0.442548  1
  Tm  Tm3  1  0.208895  0.417791  0.442548  1
  Tm  Tm4  1  0.582209  0.791105  0.442548  1
  Tm  Tm5  1  0.794666  0.205334  0.559968  1
  Tm  Tm6  1  0.794666  0.589333  0.559968  1
  Tm  Tm7  1  0.410667  0.205334  0.559968  1
  Tm  Tm8  1  0.794666  0.205334  0.940032  1
  Tm  Tm9  1  0.794666  0.589333  0.940032  1
  Tm  Tm10  1  0.410667  0.205334  0.940032  1
  Tm  Tm11  1  0.208895  0.791105  0.057452  1
  Tm  Tm12  1  0.208895  0.417791  0.057452  1
  Tm  Tm13  1  0.582209  0.791105  0.057452  1
  Tm  Tm14  1  0.539295  0.460705  0.250000  1
  Tm  Tm15  1  0.539295  0.078590  0.250000  1
  Tm  Tm16  1  0.921410  0.460705  0.250000  1
  Tm  Tm17  1  0.459518  0.540482  0.750000  1
  Tm  Tm18  1  0.459518  0.919035  0.750000  1
  Tm  Tm19  1  0.080965  0.540482  0.750000  1
  Al  Al20  1  0.101902  0.898098  0.750000  1
  Al  Al21  1  0.101902  0.203802  0.750000  1
  Al  Al22  1  0.796198  0.898098  0.750000  1
  Cu  Cu23  1  0.868349  0.131651  0.250000  1
  Cu  Cu24  1  0.868349  0.736699  0.250000  1
  Cu  Cu25  1  0.263301  0.131651  0.250000  1
  Ru  Ru26  1  0.333333  0.666667  0.250000  1
  Ru  Ru27  1  0.666667  0.333333  0.750000  1
