# generated using pymatgen
data_LaNd4Lu(CI5)2
_symmetry_space_group_name_H-M   'P 1'
_cell_length_a   7.89183426
_cell_length_b   9.66957101
_cell_length_c   9.78476355
_cell_angle_alpha   107.23310725
_cell_angle_beta   96.88921837
_cell_angle_gamma   104.54630543
_symmetry_Int_Tables_number   1
_chemical_formula_structural   LaNd4Lu(CI5)2
_chemical_formula_sum   'La1 Nd4 Lu1 C2 I10'
_cell_volume   674.87330677
_cell_formula_units_Z   1
loop_
 _symmetry_equiv_pos_site_id
 _symmetry_equiv_pos_as_xyz
  1  'x, y, z'
loop_
 _atom_site_type_symbol
 _atom_site_label
 _atom_site_symmetry_multiplicity
 _atom_site_fract_x
 _atom_site_fract_y
 _atom_site_fract_z
 _atom_site_occupancy
  La  La0  1  0.378026  0.137520  0.184569  1
  Nd  Nd1  1  0.029503  0.734221  0.922368  1
  Nd  Nd2  1  0.104188  0.038136  0.776121  1
  Nd  Nd3  1  0.966870  0.265008  0.075219  1
  Nd  Nd4  1  0.890743  0.958640  0.221090  1
  Lu  Lu5  1  0.635580  0.868137  0.823113  1
  C  C6  1  0.084612  0.029476  0.040348  1
  C  C7  1  0.907378  0.968174  0.956919  1
  I  I8  1  0.205860  0.735875  0.649453  1
  I  I9  1  0.910641  0.628669  0.179700  1
  I  I10  1  0.087330  0.370392  0.818502  1
  I  I11  1  0.732281  0.909875  0.547692  1
  I  I12  1  0.250357  0.083530  0.466784  1
  I  I13  1  0.645376  0.553395  0.725093  1
  I  I14  1  0.461682  0.804579  0.077776  1
  I  I15  1  0.819109  0.270914  0.361495  1
  I  I16  1  0.344094  0.465786  0.275454  1
  I  I17  1  0.546369  0.177675  0.898302  1
