# generated using pymatgen
data_La3Co(P3Ru4)2
_symmetry_space_group_name_H-M   'P 1'
_cell_length_a   3.99015300
_cell_length_b   11.29067800
_cell_length_c   12.80559900
_cell_angle_alpha   90.00000000
_cell_angle_beta   90.00000000
_cell_angle_gamma   90.00000000
_symmetry_Int_Tables_number   1
_chemical_formula_structural   La3Co(P3Ru4)2
_chemical_formula_sum   'La6 Co2 P12 Ru16'
_cell_volume   576.91186201
_cell_formula_units_Z   2
loop_
 _symmetry_equiv_pos_site_id
 _symmetry_equiv_pos_as_xyz
  1  'x, y, z'
loop_
 _atom_site_type_symbol
 _atom_site_label
 _atom_site_symmetry_multiplicity
 _atom_site_fract_x
 _atom_site_fract_y
 _atom_site_fract_z
 _atom_site_occupancy
  La  La0  1  0.000000  0.500000  0.528553  1
  La  La1  1  0.500000  0.000000  0.471447  1
  La  La2  1  0.500000  0.820454  0.205345  1
  La  La3  1  0.500000  0.179546  0.205345  1
  La  La4  1  0.000000  0.679546  0.794655  1
  La  La5  1  0.000000  0.320454  0.794655  1
  Co  Co6  1  0.000000  0.500000  0.989531  1
  Co  Co7  1  0.500000  0.000000  0.010469  1
  P  P8  1  0.500000  0.500000  0.888871  1
  P  P9  1  0.000000  0.000000  0.111129  1
  P  P10  1  0.500000  0.500000  0.333289  1
  P  P11  1  0.000000  0.000000  0.666711  1
  P  P12  1  0.500000  0.295946  0.615638  1
  P  P13  1  0.500000  0.704054  0.615638  1
  P  P14  1  0.000000  0.204054  0.384362  1
  P  P15  1  0.000000  0.795946  0.384362  1
  P  P16  1  0.500000  0.850433  0.900443  1
  P  P17  1  0.500000  0.149567  0.900443  1
  P  P18  1  0.000000  0.649567  0.099557  1
  P  P19  1  0.000000  0.350433  0.099557  1
  Ru  Ru20  1  0.500000  0.500000  0.153208  1
  Ru  Ru21  1  0.000000  0.000000  0.846792  1
  Ru  Ru22  1  0.500000  0.500000  0.695035  1
  Ru  Ru23  1  0.000000  0.000000  0.304965  1
  Ru  Ru24  1  0.500000  0.334322  0.992412  1
  Ru  Ru25  1  0.500000  0.665678  0.992412  1
  Ru  Ru26  1  0.000000  0.165678  0.007588  1
  Ru  Ru27  1  0.000000  0.834322  0.007588  1
  Ru  Ru28  1  0.500000  0.303076  0.430125  1
  Ru  Ru29  1  0.500000  0.696924  0.430125  1
  Ru  Ru30  1  0.000000  0.196924  0.569875  1
  Ru  Ru31  1  0.000000  0.803076  0.569875  1
  Ru  Ru32  1  0.500000  0.880331  0.716939  1
  Ru  Ru33  1  0.500000  0.119669  0.716939  1
  Ru  Ru34  1  0.000000  0.619669  0.283061  1
  Ru  Ru35  1  0.000000  0.380331  0.283061  1
