# generated using pymatgen
data_La2Ga3Ge
_symmetry_space_group_name_H-M   'P 1'
_cell_length_a   4.41679200
_cell_length_b   4.33393500
_cell_length_c   7.46852900
_cell_angle_alpha   90.00000000
_cell_angle_beta   90.00000000
_cell_angle_gamma   90.00000000
_symmetry_Int_Tables_number   1
_chemical_formula_structural   La2Ga3Ge
_chemical_formula_sum   'La2 Ga3 Ge1'
_cell_volume   142.96325008
_cell_formula_units_Z   1
loop_
 _symmetry_equiv_pos_site_id
 _symmetry_equiv_pos_as_xyz
  1  'x, y, z'
loop_
 _atom_site_type_symbol
 _atom_site_label
 _atom_site_symmetry_multiplicity
 _atom_site_fract_x
 _atom_site_fract_y
 _atom_site_fract_z
 _atom_site_occupancy
  La  La0  1  0.000000  0.500000  0.003676  1
  La  La1  1  0.000000  0.000000  0.496703  1
  Ga  Ga2  1  0.500000  0.000000  0.830357  1
  Ga  Ga3  1  0.500000  0.000000  0.162250  1
  Ga  Ga4  1  0.500000  0.500000  0.670571  1
  Ge  Ge5  1  0.500000  0.500000  0.336444  1
