# generated using pymatgen
data_Tm11Hg9Rh4
_symmetry_space_group_name_H-M   'P 1'
_cell_length_a   3.57634600
_cell_length_b   12.68712596
_cell_length_c   12.68712600
_cell_angle_alpha   112.28615739
_cell_angle_beta   90.00000000
_cell_angle_gamma   90.00000000
_symmetry_Int_Tables_number   1
_chemical_formula_structural   Tm11Hg9Rh4
_chemical_formula_sum   'Tm11 Hg9 Rh4'
_cell_volume   532.65896073
_cell_formula_units_Z   1
loop_
 _symmetry_equiv_pos_site_id
 _symmetry_equiv_pos_as_xyz
  1  'x, y, z'
loop_
 _atom_site_type_symbol
 _atom_site_label
 _atom_site_symmetry_multiplicity
 _atom_site_fract_x
 _atom_site_fract_y
 _atom_site_fract_z
 _atom_site_occupancy
  Tm  Tm0  1  0.000000  0.917968  0.583170  1
  Tm  Tm1  1  0.000000  0.082032  0.416830  1
  Tm  Tm2  1  0.000000  0.583174  0.917963  1
  Tm  Tm3  1  0.000000  0.416826  0.082037  1
  Tm  Tm4  1  0.000000  0.166117  0.833872  1
  Tm  Tm5  1  0.000000  0.833883  0.166128  1
  Tm  Tm6  1  0.000000  0.365810  0.634158  1
  Tm  Tm7  1  0.000000  0.634190  0.365842  1
  Tm  Tm8  1  0.000000  0.703443  0.703429  1
  Tm  Tm9  1  0.000000  0.296557  0.296571  1
  Tm  Tm10  1  0.000000  0.000000  0.000000  1
  Hg  Hg11  1  0.500000  0.147914  0.631091  1
  Hg  Hg12  1  0.500000  0.852086  0.368909  1
  Hg  Hg13  1  0.500000  0.631118  0.147919  1
  Hg  Hg14  1  0.500000  0.368882  0.852081  1
  Hg  Hg15  1  0.500000  0.938726  0.786812  1
  Hg  Hg16  1  0.500000  0.061274  0.213188  1
  Hg  Hg17  1  0.500000  0.786846  0.938746  1
  Hg  Hg18  1  0.500000  0.213154  0.061254  1
  Hg  Hg19  1  0.500000  0.500000  0.500000  1
  Rh  Rh20  1  0.500000  0.742306  0.548508  1
  Rh  Rh21  1  0.500000  0.257694  0.451492  1
  Rh  Rh22  1  0.500000  0.548499  0.742294  1
  Rh  Rh23  1  0.500000  0.451501  0.257706  1
