# generated using pymatgen
data_Yb3PaPt4
_symmetry_space_group_name_H-M   'P 1'
_cell_length_a   4.42168800
_cell_length_b   5.62298990
_cell_length_c   7.17448247
_cell_angle_alpha   88.56144703
_cell_angle_beta   90.00000000
_cell_angle_gamma   90.00000000
_symmetry_Int_Tables_number   1
_chemical_formula_structural   Yb3PaPt4
_chemical_formula_sum   'Yb3 Pa1 Pt4'
_cell_volume   178.32370395
_cell_formula_units_Z   1
loop_
 _symmetry_equiv_pos_site_id
 _symmetry_equiv_pos_as_xyz
  1  'x, y, z'
loop_
 _atom_site_type_symbol
 _atom_site_label
 _atom_site_symmetry_multiplicity
 _atom_site_fract_x
 _atom_site_fract_y
 _atom_site_fract_z
 _atom_site_occupancy
  Yb  Yb0  1  0.750000  0.642276  0.322243  1
  Yb  Yb1  1  0.750000  0.857771  0.814974  1
  Yb  Yb2  1  0.250000  0.358574  0.682048  1
  Pa  Pa3  1  0.250000  0.137162  0.183628  1
  Pt  Pt4  1  0.750000  0.149484  0.435838  1
  Pt  Pt5  1  0.250000  0.856458  0.536135  1
  Pt  Pt6  1  0.250000  0.665945  0.049549  1
  Pt  Pt7  1  0.750000  0.332329  0.975585  1
