# generated using pymatgen
data_LiTlP2O7
_symmetry_space_group_name_H-M   'P 1'
_cell_length_a   8.69620600
_cell_length_b   7.16725216
_cell_length_c   9.90846400
_cell_angle_alpha   70.91351143
_cell_angle_beta   90.00000000
_cell_angle_gamma   90.00000000
_symmetry_Int_Tables_number   1
_chemical_formula_structural   LiTlP2O7
_chemical_formula_sum   'Li4 Tl4 P8 O28'
_cell_volume   583.62329646
_cell_formula_units_Z   4
loop_
 _symmetry_equiv_pos_site_id
 _symmetry_equiv_pos_as_xyz
  1  'x, y, z'
loop_
 _atom_site_type_symbol
 _atom_site_label
 _atom_site_symmetry_multiplicity
 _atom_site_fract_x
 _atom_site_fract_y
 _atom_site_fract_z
 _atom_site_occupancy
  Li  Li0  1  0.128438  0.321923  0.236102  1
  Li  Li1  1  0.371562  0.321923  0.736102  1
  Li  Li2  1  0.871562  0.678077  0.763898  1
  Li  Li3  1  0.628438  0.678077  0.263898  1
  Tl  Tl4  1  0.498664  0.747475  0.756578  1
  Tl  Tl5  1  0.501336  0.252525  0.243422  1
  Tl  Tl6  1  0.998664  0.252525  0.743422  1
  Tl  Tl7  1  0.001336  0.747475  0.256578  1
  P  P8  1  0.776887  0.884254  0.952198  1
  P  P9  1  0.723113  0.884254  0.452198  1
  P  P10  1  0.820106  0.293636  0.424477  1
  P  P11  1  0.223113  0.115746  0.047802  1
  P  P12  1  0.320106  0.706364  0.075523  1
  P  P13  1  0.179894  0.706364  0.575523  1
  P  P14  1  0.679894  0.293636  0.924477  1
  P  P15  1  0.276887  0.115746  0.547802  1
  O  O16  1  0.164313  0.615980  0.139446  1
  O  O17  1  0.289849  0.189779  0.384304  1
  O  O18  1  0.666179  0.075584  0.906519  1
  O  O19  1  0.069779  0.063242  0.127905  1
  O  O20  1  0.710151  0.810221  0.615696  1
  O  O21  1  0.957370  0.400753  0.336637  1
  O  O22  1  0.789849  0.810221  0.115696  1
  O  O23  1  0.693603  0.728862  0.903868  1
  O  O24  1  0.320234  0.734738  0.916311  1
  O  O25  1  0.930221  0.936758  0.872095  1
  O  O26  1  0.820234  0.265262  0.583689  1
  O  O27  1  0.306397  0.271138  0.096132  1
  O  O28  1  0.664313  0.384020  0.360554  1
  O  O29  1  0.542629  0.400753  0.836637  1
  O  O30  1  0.430221  0.063242  0.627905  1
  O  O31  1  0.193603  0.271138  0.596132  1
  O  O32  1  0.835687  0.384020  0.860554  1
  O  O33  1  0.179766  0.734738  0.416311  1
  O  O34  1  0.333821  0.924416  0.093481  1
  O  O35  1  0.457370  0.599247  0.163363  1
  O  O36  1  0.806397  0.728862  0.403868  1
  O  O37  1  0.335687  0.615980  0.639446  1
  O  O38  1  0.210151  0.189779  0.884304  1
  O  O39  1  0.569779  0.936758  0.372095  1
  O  O40  1  0.679766  0.265262  0.083689  1
  O  O41  1  0.042630  0.599247  0.663363  1
  O  O42  1  0.833821  0.075584  0.406519  1
  O  O43  1  0.166179  0.924416  0.593481  1
