# generated using pymatgen
data_Ho5In4OsAu
_symmetry_space_group_name_H-M   'P 1'
_cell_length_a   3.56094400
_cell_length_b   8.25921422
_cell_length_c   18.39479252
_cell_angle_alpha   90.14229113
_cell_angle_beta   90.00000000
_cell_angle_gamma   90.00000000
_symmetry_Int_Tables_number   1
_chemical_formula_structural   Ho5In4OsAu
_chemical_formula_sum   'Ho10 In8 Os2 Au2'
_cell_volume   541.00020389
_cell_formula_units_Z   2
loop_
 _symmetry_equiv_pos_site_id
 _symmetry_equiv_pos_as_xyz
  1  'x, y, z'
loop_
 _atom_site_type_symbol
 _atom_site_label
 _atom_site_symmetry_multiplicity
 _atom_site_fract_x
 _atom_site_fract_y
 _atom_site_fract_z
 _atom_site_occupancy
  Ho  Ho0  1  0.000000  0.500000  0.500000  1
  Ho  Ho1  1  0.000000  0.000000  0.000000  1
  Ho  Ho2  1  0.000000  0.721531  0.277330  1
  Ho  Ho3  1  0.000000  0.278469  0.722670  1
  Ho  Ho4  1  0.000000  0.742573  0.781431  1
  Ho  Ho5  1  0.000000  0.257427  0.218569  1
  Ho  Ho6  1  0.000000  0.614593  0.085090  1
  Ho  Ho7  1  0.000000  0.385407  0.914910  1
  Ho  Ho8  1  0.000000  0.880145  0.580580  1
  Ho  Ho9  1  0.000000  0.119855  0.419420  1
  In  In10  1  0.500000  0.708693  0.931256  1
  In  In11  1  0.500000  0.291307  0.068744  1
  In  In12  1  0.500000  0.788786  0.433173  1
  In  In13  1  0.500000  0.211214  0.566827  1
  In  In14  1  0.500000  0.576075  0.649015  1
  In  In15  1  0.500000  0.423925  0.350985  1
  In  In16  1  0.500000  0.917249  0.147829  1
  In  In17  1  0.500000  0.082751  0.852171  1
  Os  Os18  1  0.500000  0.518583  0.195442  1
  Os  Os19  1  0.500000  0.481417  0.804558  1
  Au  Au20  1  0.500000  0.978923  0.697912  1
  Au  Au21  1  0.500000  0.021077  0.302088  1
