# generated using pymatgen
data_LiYb2TmCd2Pb3
_symmetry_space_group_name_H-M   'P 1'
_cell_length_a   7.60862410
_cell_length_b   7.60862456
_cell_length_c   4.71993900
_cell_angle_alpha   90.00000000
_cell_angle_beta   90.00000000
_cell_angle_gamma   120.15310407
_symmetry_Int_Tables_number   1
_chemical_formula_structural   LiYb2TmCd2Pb3
_chemical_formula_sum   'Li1 Yb2 Tm1 Cd2 Pb3'
_cell_volume   236.26925458
_cell_formula_units_Z   1
loop_
 _symmetry_equiv_pos_site_id
 _symmetry_equiv_pos_as_xyz
  1  'x, y, z'
loop_
 _atom_site_type_symbol
 _atom_site_label
 _atom_site_symmetry_multiplicity
 _atom_site_fract_x
 _atom_site_fract_y
 _atom_site_fract_z
 _atom_site_occupancy
  Li  Li0  1  0.765179  0.765179  0.000000  1
  Yb  Yb1  1  0.564532  0.004665  0.500000  1
  Yb  Yb2  1  0.004665  0.564532  0.500000  1
  Tm  Tm3  1  0.422835  0.422835  0.500000  1
  Cd  Cd4  1  0.244498  0.997427  0.000000  1
  Cd  Cd5  1  0.997427  0.244498  0.000000  1
  Pb  Pb6  1  0.665410  0.354036  0.000000  1
  Pb  Pb7  1  0.354036  0.665410  0.000000  1
  Pb  Pb8  1  0.981417  0.981417  0.500000  1
