# generated using pymatgen
data_Sm3Pa(Al8Pt3)3
_symmetry_space_group_name_H-M   'P 1'
_cell_length_a   7.52440381
_cell_length_b   7.53473851
_cell_length_c   13.27510800
_cell_angle_alpha   84.60058457
_cell_angle_beta   100.98635597
_cell_angle_gamma   119.75920776
_symmetry_Int_Tables_number   1
_chemical_formula_structural   Sm3Pa(Al8Pt3)3
_chemical_formula_sum   'Sm3 Pa1 Al24 Pt9'
_cell_volume   641.39301567
_cell_formula_units_Z   1
loop_
 _symmetry_equiv_pos_site_id
 _symmetry_equiv_pos_as_xyz
  1  'x, y, z'
loop_
 _atom_site_type_symbol
 _atom_site_label
 _atom_site_symmetry_multiplicity
 _atom_site_fract_x
 _atom_site_fract_y
 _atom_site_fract_z
 _atom_site_occupancy
  Sm  Sm0  1  0.562304  0.168156  0.191230  1
  Sm  Sm1  1  0.768215  0.501994  0.808726  1
  Sm  Sm2  1  0.232008  0.498262  0.191091  1
  Pa  Pa3  1  0.435144  0.831208  0.803507  1
  Al  Al4  1  0.480873  0.166292  0.944417  1
  Al  Al5  1  0.519931  0.833856  0.053393  1
  Al  Al6  1  0.020731  0.166768  0.560014  1
  Al  Al7  1  0.978836  0.832986  0.439878  1
  Al  Al8  1  0.352957  0.833263  0.557756  1
  Al  Al9  1  0.648250  0.167847  0.441790  1
  Al  Al10  1  0.617784  0.834831  0.332209  1
  Al  Al11  1  0.382100  0.168302  0.669111  1
  Al  Al12  1  0.052583  0.489777  0.668994  1
  Al  Al13  1  0.944225  0.506502  0.331712  1
  Al  Al14  1  0.733354  0.840763  0.667455  1
  Al  Al15  1  0.270242  0.160017  0.332915  1
  Al  Al16  1  0.147756  0.499490  0.944700  1
  Al  Al17  1  0.852233  0.501670  0.054290  1
  Al  Al18  1  0.816618  0.833307  0.953030  1
  Al  Al19  1  0.181136  0.165620  0.045724  1
  Al  Al20  1  0.313795  0.499149  0.441590  1
  Al  Al21  1  0.686439  0.499862  0.558488  1
  Al  Al22  1  0.101942  0.836080  0.183873  1
  Al  Al23  1  0.896899  0.159972  0.817205  1
  Al  Al24  1  0.303787  0.369086  0.815774  1
  Al  Al25  1  0.693851  0.631948  0.185085  1
  Al  Al26  1  0.106084  0.962516  0.816731  1
  Al  Al27  1  0.897704  0.040164  0.184371  1
  Pt  Pt28  1  0.386922  0.508621  0.639469  1
  Pt  Pt29  1  0.614580  0.494011  0.363160  1
  Pt  Pt30  1  0.171621  0.829050  0.998394  1
  Pt  Pt31  1  0.827968  0.171349  0.999124  1
  Pt  Pt32  1  0.294259  0.833261  0.363596  1
  Pt  Pt33  1  0.704594  0.164912  0.639194  1
  Pt  Pt34  1  0.048457  0.826233  0.639123  1
  Pt  Pt35  1  0.954225  0.173076  0.364072  1
  Pt  Pt36  1  0.499593  0.499801  0.998815  1
