# generated using pymatgen
data_Ta3Nb(SiH)2
_symmetry_space_group_name_H-M   'P 1'
_cell_length_a   5.12733027
_cell_length_b   5.12733068
_cell_length_c   5.12461761
_cell_angle_alpha   105.19073843
_cell_angle_beta   105.19074094
_cell_angle_gamma   118.43822699
_symmetry_Int_Tables_number   1
_chemical_formula_structural   Ta3Nb(SiH)2
_chemical_formula_sum   'Ta3 Nb1 Si2 H2'
_cell_volume   101.75928902
_cell_formula_units_Z   1
loop_
 _symmetry_equiv_pos_site_id
 _symmetry_equiv_pos_as_xyz
  1  'x, y, z'
loop_
 _atom_site_type_symbol
 _atom_site_label
 _atom_site_symmetry_multiplicity
 _atom_site_fract_x
 _atom_site_fract_y
 _atom_site_fract_z
 _atom_site_occupancy
  Ta  Ta0  1  0.833141  0.333141  0.166282  1
  Ta  Ta1  1  0.332606  0.167451  0.500058  1
  Ta  Ta2  1  0.667451  0.832606  0.500058  1
  Nb  Nb3  1  0.167951  0.667951  0.835904  1
  Si  Si4  1  0.249994  0.249994  0.999987  1
  Si  Si5  1  0.749994  0.749994  0.999987  1
  H  H6  1  0.747813  0.247813  0.498863  1
  H  H7  1  0.251049  0.751049  0.498863  1
