# generated using pymatgen
data_NaLu4P12Rh19
_symmetry_space_group_name_H-M   'P 1'
_cell_length_a   12.67323100
_cell_length_b   12.64075313
_cell_length_c   3.90418100
_cell_angle_alpha   90.00000000
_cell_angle_beta   90.00000000
_cell_angle_gamma   120.08502555
_symmetry_Int_Tables_number   1
_chemical_formula_structural   NaLu4P12Rh19
_chemical_formula_sum   'Na1 Lu4 P12 Rh19'
_cell_volume   541.18798484
_cell_formula_units_Z   1
loop_
 _symmetry_equiv_pos_site_id
 _symmetry_equiv_pos_as_xyz
  1  'x, y, z'
loop_
 _atom_site_type_symbol
 _atom_site_label
 _atom_site_symmetry_multiplicity
 _atom_site_fract_x
 _atom_site_fract_y
 _atom_site_fract_z
 _atom_site_occupancy
  Na  Na0  1  0.184511  0.000000  0.500000  1
  Lu  Lu1  1  0.999833  0.185215  0.500000  1
  Lu  Lu2  1  0.814618  0.814785  0.500000  1
  Lu  Lu3  1  0.667412  0.333740  0.000000  1
  Lu  Lu4  1  0.333671  0.666260  0.000000  1
  P  P5  1  0.481153  0.312842  0.500000  1
  P  P6  1  0.821769  0.000000  0.000000  1
  P  P7  1  0.178916  0.180143  0.000000  1
  P  P8  1  0.998773  0.819857  0.000000  1
  P  P9  1  0.364741  0.000000  0.000000  1
  P  P10  1  0.684737  0.167572  0.500000  1
  P  P11  1  0.831891  0.517015  0.500000  1
  P  P12  1  0.517165  0.832428  0.500000  1
  P  P13  1  0.168312  0.687158  0.500000  1
  P  P14  1  0.314876  0.482985  0.500000  1
  P  P15  1  0.999823  0.362889  0.000000  1
  P  P16  1  0.636934  0.637111  0.000000  1
  Rh  Rh17  1  0.807000  0.180216  0.000000  1
  Rh  Rh18  1  0.377137  0.196012  0.000000  1
  Rh  Rh19  1  0.640989  0.507381  0.500000  1
  Rh  Rh20  1  0.866384  0.357405  0.500000  1
  Rh  Rh21  1  0.358866  0.868043  0.500000  1
  Rh  Rh22  1  0.508979  0.642595  0.500000  1
  Rh  Rh23  1  0.133608  0.492619  0.500000  1
  Rh  Rh24  1  0.818414  0.625839  0.000000  1
  Rh  Rh25  1  0.626783  0.819784  0.000000  1
  Rh  Rh26  1  0.181124  0.803988  0.000000  1
  Rh  Rh27  1  0.192574  0.374161  0.000000  1
  Rh  Rh28  1  0.998743  0.717662  0.500000  1
  Rh  Rh29  1  0.281080  0.282338  0.500000  1
  Rh  Rh30  1  0.719308  0.000000  0.500000  1
  Rh  Rh31  1  0.999307  0.544782  0.000000  1
  Rh  Rh32  1  0.454525  0.455218  0.000000  1
  Rh  Rh33  1  0.546672  0.000000  0.000000  1
  Rh  Rh34  1  0.998549  0.000000  0.000000  1
  Rh  Rh35  1  0.490823  0.131957  0.500000  1
