# generated using pymatgen
data_LiCeSm2In3Pd2
_symmetry_space_group_name_H-M   'P 1'
_cell_length_a   7.83630100
_cell_length_b   7.76275732
_cell_length_c   3.95029300
_cell_angle_alpha   90.00000000
_cell_angle_beta   90.00000000
_cell_angle_gamma   120.31389676
_symmetry_Int_Tables_number   1
_chemical_formula_structural   LiCeSm2In3Pd2
_chemical_formula_sum   'Li1 Ce1 Sm2 In3 Pd2'
_cell_volume   207.44580825
_cell_formula_units_Z   1
loop_
 _symmetry_equiv_pos_site_id
 _symmetry_equiv_pos_as_xyz
  1  'x, y, z'
loop_
 _atom_site_type_symbol
 _atom_site_label
 _atom_site_symmetry_multiplicity
 _atom_site_fract_x
 _atom_site_fract_y
 _atom_site_fract_z
 _atom_site_occupancy
  Li  Li0  1  0.000098  0.000000  0.500000  1
  Ce  Ce1  1  0.578518  0.000000  0.500000  1
  Sm  Sm2  1  0.000487  0.582714  0.500000  1
  Sm  Sm3  1  0.417774  0.417286  0.500000  1
  In  In4  1  0.246662  0.000000  0.000000  1
  In  In5  1  0.999790  0.248330  0.000000  1
  In  In6  1  0.751460  0.751670  0.000000  1
  Pd  Pd7  1  0.339970  0.674729  0.000000  1
  Pd  Pd8  1  0.665241  0.325271  0.000000  1
