# generated using pymatgen
data_Nd2YTl5
_symmetry_space_group_name_H-M   'P 1'
_cell_length_a   6.64064470
_cell_length_b   6.64064449
_cell_length_c   10.65456400
_cell_angle_alpha   90.00000000
_cell_angle_beta   90.00000000
_cell_angle_gamma   103.10256944
_symmetry_Int_Tables_number   1
_chemical_formula_structural   Nd2YTl5
_chemical_formula_sum   'Nd4 Y2 Tl10'
_cell_volume   457.61459305
_cell_formula_units_Z   2
loop_
 _symmetry_equiv_pos_site_id
 _symmetry_equiv_pos_as_xyz
  1  'x, y, z'
loop_
 _atom_site_type_symbol
 _atom_site_label
 _atom_site_symmetry_multiplicity
 _atom_site_fract_x
 _atom_site_fract_y
 _atom_site_fract_z
 _atom_site_occupancy
  Nd  Nd0  1  0.204373  0.795627  0.500000  1
  Nd  Nd1  1  0.204373  0.795627  0.000000  1
  Nd  Nd2  1  0.795627  0.204373  0.500000  1
  Nd  Nd3  1  0.795627  0.204373  0.000000  1
  Y  Y4  1  0.620646  0.620646  0.250000  1
  Y  Y5  1  0.379354  0.379354  0.750000  1
  Tl  Tl6  1  0.005145  0.005144  0.250000  1
  Tl  Tl7  1  0.994856  0.994855  0.750000  1
  Tl  Tl8  1  0.307118  0.307118  0.041027  1
  Tl  Tl9  1  0.692882  0.692882  0.958973  1
  Tl  Tl10  1  0.307118  0.307118  0.458973  1
  Tl  Tl11  1  0.692882  0.692882  0.541027  1
  Tl  Tl12  1  0.508045  0.063872  0.250000  1
  Tl  Tl13  1  0.936128  0.491955  0.750000  1
  Tl  Tl14  1  0.491955  0.936128  0.750000  1
  Tl  Tl15  1  0.063872  0.508045  0.250000  1
