# generated using pymatgen
data_Pr4Ti3V5O20
_symmetry_space_group_name_H-M   'P 1'
_cell_length_a   5.91523600
_cell_length_b   7.73359561
_cell_length_c   8.82613468
_cell_angle_alpha   89.95471098
_cell_angle_beta   90.00000000
_cell_angle_gamma   90.00000000
_symmetry_Int_Tables_number   1
_chemical_formula_structural   Pr4Ti3V5O20
_chemical_formula_sum   'Pr4 Ti3 V5 O20'
_cell_volume   403.76061200
_cell_formula_units_Z   1
loop_
 _symmetry_equiv_pos_site_id
 _symmetry_equiv_pos_as_xyz
  1  'x, y, z'
loop_
 _atom_site_type_symbol
 _atom_site_label
 _atom_site_symmetry_multiplicity
 _atom_site_fract_x
 _atom_site_fract_y
 _atom_site_fract_z
 _atom_site_occupancy
  Pr  Pr0  1  0.000000  0.354394  0.670577  1
  Pr  Pr1  1  0.000000  0.641881  0.328929  1
  Pr  Pr2  1  0.000000  0.859653  0.828290  1
  Pr  Pr3  1  0.000000  0.141416  0.171887  1
  Ti  Ti4  1  0.500000  0.882423  0.143373  1
  Ti  Ti5  1  0.500000  0.616656  0.642110  1
  Ti  Ti6  1  0.500000  0.382657  0.357464  1
  V  V7  1  0.500000  0.119311  0.862300  1
  V  V8  1  0.248901  0.501073  0.999800  1
  V  V9  1  0.749380  0.000830  0.501753  1
  V  V10  1  0.751099  0.501073  0.999800  1
  V  V11  1  0.250620  0.000830  0.501753  1
  O  O12  1  0.255668  0.899241  0.284064  1
  O  O13  1  0.254592  0.098010  0.714896  1
  O  O14  1  0.744212  0.399299  0.214479  1
  O  O15  1  0.744220  0.599192  0.785156  1
  O  O16  1  0.745408  0.098010  0.714896  1
  O  O17  1  0.744332  0.899241  0.284064  1
  O  O18  1  0.255780  0.599192  0.785156  1
  O  O19  1  0.255788  0.399299  0.214479  1
  O  O20  1  0.500000  0.334702  0.924795  1
  O  O21  1  0.500000  0.663510  0.073037  1
  O  O22  1  0.500000  0.834556  0.573176  1
  O  O23  1  0.500000  0.163712  0.425507  1
  O  O24  1  0.286593  0.001714  0.999474  1
  O  O25  1  0.714052  0.499610  0.499633  1
  O  O26  1  0.713407  0.001714  0.999474  1
  O  O27  1  0.285948  0.499610  0.499633  1
  O  O28  1  0.000000  0.165842  0.444699  1
  O  O29  1  0.000000  0.837068  0.553705  1
  O  O30  1  0.000000  0.666552  0.055191  1
  O  O31  1  0.000000  0.337728  0.946447  1
