# generated using pymatgen
data_La3PrB4Br5
_symmetry_space_group_name_H-M   'P 1'
_cell_length_a   9.51430217
_cell_length_b   9.51430174
_cell_length_c   9.86121232
_cell_angle_alpha   72.93448013
_cell_angle_beta   72.93448162
_cell_angle_gamma   26.23171602
_symmetry_Int_Tables_number   1
_chemical_formula_structural   La3PrB4Br5
_chemical_formula_sum   'La3 Pr1 B4 Br5'
_cell_volume   376.21771980
_cell_formula_units_Z   1
loop_
 _symmetry_equiv_pos_site_id
 _symmetry_equiv_pos_as_xyz
  1  'x, y, z'
loop_
 _atom_site_type_symbol
 _atom_site_label
 _atom_site_symmetry_multiplicity
 _atom_site_fract_x
 _atom_site_fract_y
 _atom_site_fract_z
 _atom_site_occupancy
  La  La0  1  0.492123  0.492123  0.262551  1
  La  La1  1  0.141124  0.141124  0.926683  1
  La  La2  1  0.859653  0.859653  0.069363  1
  Pr  Pr3  1  0.508649  0.508649  0.742115  1
  B  B4  1  0.315592  0.685031  0.001241  1
  B  B5  1  0.685031  0.315592  0.001241  1
  B  B6  1  0.998051  0.998051  0.098598  1
  B  B7  1  0.002504  0.002504  0.903035  1
  Br  Br8  1  0.678267  0.678267  0.685526  1
  Br  Br9  1  0.320863  0.320863  0.310612  1
  Br  Br10  1  0.331836  0.331836  0.850542  1
  Br  Br11  1  0.671597  0.671597  0.140051  1
  Br  Br12  1  0.009009  0.009009  0.498641  1
