# generated using pymatgen
data_Ta4Si4PtRh3
_symmetry_space_group_name_H-M   'P 1'
_cell_length_a   3.78361600
_cell_length_b   6.43983367
_cell_length_c   7.37159633
_cell_angle_alpha   89.79090147
_cell_angle_beta   90.00000000
_cell_angle_gamma   90.00000000
_symmetry_Int_Tables_number   1
_chemical_formula_structural   Ta4Si4PtRh3
_chemical_formula_sum   'Ta4 Si4 Pt1 Rh3'
_cell_volume   179.61407120
_cell_formula_units_Z   1
loop_
 _symmetry_equiv_pos_site_id
 _symmetry_equiv_pos_as_xyz
  1  'x, y, z'
loop_
 _atom_site_type_symbol
 _atom_site_label
 _atom_site_symmetry_multiplicity
 _atom_site_fract_x
 _atom_site_fract_y
 _atom_site_fract_z
 _atom_site_occupancy
  Ta  Ta0  1  0.250000  0.525395  0.673100  1
  Ta  Ta1  1  0.750000  0.472105  0.326844  1
  Ta  Ta2  1  0.250000  0.028306  0.830893  1
  Ta  Ta3  1  0.750000  0.975669  0.168815  1
  Si  Si4  1  0.250000  0.267167  0.125551  1
  Si  Si5  1  0.750000  0.731991  0.879290  1
  Si  Si6  1  0.250000  0.765617  0.368574  1
  Si  Si7  1  0.750000  0.237649  0.626201  1
  Pt  Pt8  1  0.750000  0.851974  0.564542  1
  Rh  Rh9  1  0.250000  0.145614  0.437641  1
  Rh  Rh10  1  0.750000  0.354553  0.935934  1
  Rh  Rh11  1  0.250000  0.643959  0.062617  1
