# generated using pymatgen
data_Tm4Al14Ga4Ir5Pt
_symmetry_space_group_name_H-M   'P 1'
_cell_length_a   7.52683215
_cell_length_b   7.53056287
_cell_length_c   9.48003698
_cell_angle_alpha   90.06820079
_cell_angle_beta   90.03528978
_cell_angle_gamma   119.68544842
_symmetry_Int_Tables_number   1
_chemical_formula_structural   Tm4Al14Ga4Ir5Pt
_chemical_formula_sum   'Tm4 Al14 Ga4 Ir5 Pt1'
_cell_volume   466.81784802
_cell_formula_units_Z   1
loop_
 _symmetry_equiv_pos_site_id
 _symmetry_equiv_pos_as_xyz
  1  'x, y, z'
loop_
 _atom_site_type_symbol
 _atom_site_label
 _atom_site_symmetry_multiplicity
 _atom_site_fract_x
 _atom_site_fract_y
 _atom_site_fract_z
 _atom_site_occupancy
  Tm  Tm0  1  0.998296  0.673562  0.250974  1
  Tm  Tm1  1  0.001704  0.326438  0.749026  1
  Tm  Tm2  1  0.669718  0.994395  0.251022  1
  Tm  Tm3  1  0.330282  0.005605  0.748978  1
  Al  Al4  1  0.000845  0.337659  0.076133  1
  Al  Al5  1  0.999155  0.662341  0.923867  1
  Al  Al6  1  0.999829  0.665439  0.574094  1
  Al  Al7  1  0.335050  0.000831  0.425912  1
  Al  Al8  1  0.000171  0.334561  0.425906  1
  Al  Al9  1  0.664950  0.999169  0.574088  1
  Al  Al10  1  0.661880  0.998828  0.923888  1
  Al  Al11  1  0.338120  0.001172  0.076112  1
  Al  Al12  1  0.333554  0.333915  0.556786  1
  Al  Al13  1  0.666446  0.666085  0.443214  1
  Al  Al14  1  0.663751  0.663450  0.058400  1
  Al  Al15  1  0.336249  0.336550  0.941600  1
  Al  Al16  1  0.550489  0.338609  0.250441  1
  Al  Al17  1  0.449511  0.661391  0.749559  1
  Ga  Ga18  1  0.131298  0.132123  0.251982  1
  Ga  Ga19  1  0.868702  0.867877  0.748018  1
  Ga  Ga20  1  0.338310  0.547042  0.250427  1
  Ga  Ga21  1  0.661690  0.452958  0.749573  1
  Ir  Ir22  1  0.671475  0.328050  0.002280  1
  Ir  Ir23  1  0.328525  0.671950  0.997720  1
  Ir  Ir24  1  0.328404  0.672172  0.502244  1
  Ir  Ir25  1  0.671596  0.327828  0.497756  1
  Ir  Ir26  1  0.000000  0.000000  0.500000  1
  Pt  Pt27  1  0.000000  0.000000  0.000000  1
