# generated using pymatgen
data_Co3Si3W6C
_symmetry_space_group_name_H-M   'P 1'
_cell_length_a   7.75127197
_cell_length_b   7.75127193
_cell_length_c   7.73792200
_cell_angle_alpha   60.05694798
_cell_angle_beta   60.05694818
_cell_angle_gamma   60.38553054
_symmetry_Int_Tables_number   1
_chemical_formula_structural   Co3Si3W6C
_chemical_formula_sum   'Co6 Si6 W12 C2'
_cell_volume   329.97436600
_cell_formula_units_Z   2
loop_
 _symmetry_equiv_pos_site_id
 _symmetry_equiv_pos_as_xyz
  1  'x, y, z'
loop_
 _atom_site_type_symbol
 _atom_site_label
 _atom_site_symmetry_multiplicity
 _atom_site_fract_x
 _atom_site_fract_y
 _atom_site_fract_z
 _atom_site_occupancy
  Co  Co0  1  0.330690  0.330690  0.003916  1
  Co  Co1  1  0.134252  0.134252  0.601299  1
  Co  Co2  1  0.919310  0.919310  0.915298  1
  Co  Co3  1  0.125000  0.625000  0.137999  1
  Co  Co4  1  0.115748  0.115748  0.119804  1
  Co  Co5  1  0.625000  0.125000  0.137999  1
  Si  Si6  1  0.914654  0.242748  0.912334  1
  Si  Si7  1  0.335346  0.007252  0.319735  1
  Si  Si8  1  0.336641  0.336641  0.325055  1
  Si  Si9  1  0.007252  0.335346  0.319735  1
  Si  Si10  1  0.913359  0.913359  0.248337  1
  Si  Si11  1  0.242748  0.914654  0.912334  1
  W  W12  1  0.300034  0.694979  0.700929  1
  W  W13  1  0.304902  0.304902  0.698572  1
  W  W14  1  0.555396  0.942609  0.560096  1
  W  W15  1  0.942609  0.555396  0.560096  1
  W  W16  1  0.555021  0.949966  0.945942  1
  W  W17  1  0.694604  0.307391  0.308101  1
  W  W18  1  0.949966  0.555021  0.945942  1
  W  W19  1  0.307391  0.694604  0.308101  1
  W  W20  1  0.552939  0.552939  0.946463  1
  W  W21  1  0.694979  0.300034  0.700929  1
  W  W22  1  0.697061  0.697061  0.302341  1
  W  W23  1  0.945098  0.945098  0.558376  1
  C  C24  1  0.749422  0.749422  0.755712  1
  C  C25  1  0.500578  0.500578  0.504556  1
