# generated using pymatgen
data_TbTmV3P7Rh9
_symmetry_space_group_name_H-M   'P 1'
_cell_length_a   3.85486000
_cell_length_b   9.53828904
_cell_length_c   9.53847434
_cell_angle_alpha   120.00044848
_cell_angle_beta   89.99996430
_cell_angle_gamma   89.99988363
_symmetry_Int_Tables_number   1
_chemical_formula_structural   TbTmV3P7Rh9
_chemical_formula_sum   'Tb1 Tm1 V3 P7 Rh9'
_cell_volume   303.72928882
_cell_formula_units_Z   1
loop_
 _symmetry_equiv_pos_site_id
 _symmetry_equiv_pos_as_xyz
  1  'x, y, z'
loop_
 _atom_site_type_symbol
 _atom_site_label
 _atom_site_symmetry_multiplicity
 _atom_site_fract_x
 _atom_site_fract_y
 _atom_site_fract_z
 _atom_site_occupancy
  Tb  Tb0  1  0.261818  0.666563  0.333322  1
  Tm  Tm1  1  0.761637  0.333285  0.666544  1
  V  V2  1  0.762005  0.092535  0.875573  1
  V  V3  1  0.761989  0.124589  0.217135  1
  V  V4  1  0.761998  0.782782  0.907372  1
  P  P5  1  0.262173  0.000103  0.000079  1
  P  P6  1  0.761912  0.884791  0.596818  1
  P  P7  1  0.761900  0.403280  0.287979  1
  P  P8  1  0.761915  0.711981  0.115318  1
  P  P9  1  0.261791  0.117525  0.413218  1
  P  P10  1  0.261776  0.586831  0.704267  1
  P  P11  1  0.261784  0.295778  0.882470  1
  Rh  Rh12  1  0.261975  0.885561  0.158880  1
  Rh  Rh13  1  0.261972  0.841087  0.726745  1
  Rh  Rh14  1  0.261974  0.273411  0.114395  1
  Rh  Rh15  1  0.761886  0.611644  0.561206  1
  Rh  Rh16  1  0.761913  0.438672  0.050150  1
  Rh  Rh17  1  0.761907  0.949587  0.388435  1
  Rh  Rh18  1  0.261873  0.367417  0.438065  1
  Rh  Rh19  1  0.261899  0.562007  0.929370  1
  Rh  Rh20  1  0.261903  0.070570  0.632658  1
