# generated using pymatgen
data_ZrSc3(Nb3Si4)2
_symmetry_space_group_name_H-M   'P 1'
_cell_length_a   6.71670200
_cell_length_b   6.91336054
_cell_length_c   13.15057904
_cell_angle_alpha   89.95458100
_cell_angle_beta   90.00000000
_cell_angle_gamma   90.00000000
_symmetry_Int_Tables_number   1
_chemical_formula_structural   ZrSc3(Nb3Si4)2
_chemical_formula_sum   'Zr2 Sc6 Nb12 Si16'
_cell_volume   610.64671653
_cell_formula_units_Z   2
loop_
 _symmetry_equiv_pos_site_id
 _symmetry_equiv_pos_as_xyz
  1  'x, y, z'
loop_
 _atom_site_type_symbol
 _atom_site_label
 _atom_site_symmetry_multiplicity
 _atom_site_fract_x
 _atom_site_fract_y
 _atom_site_fract_z
 _atom_site_occupancy
  Zr  Zr0  1  0.500137  0.674730  0.596287  1
  Zr  Zr1  1  0.000137  0.825270  0.903713  1
  Sc  Sc2  1  0.500705  0.326234  0.095663  1
  Sc  Sc3  1  0.000705  0.173766  0.404337  1
  Sc  Sc4  1  0.500403  0.326505  0.404404  1
  Sc  Sc5  1  0.000403  0.173495  0.095596  1
  Sc  Sc6  1  0.497918  0.674369  0.904872  1
  Sc  Sc7  1  0.997918  0.825631  0.595128  1
  Nb  Nb8  1  0.661131  0.173444  0.624538  1
  Nb  Nb9  1  0.161131  0.326556  0.875462  1
  Nb  Nb10  1  0.338362  0.825991  0.124543  1
  Nb  Nb11  1  0.838362  0.674009  0.375457  1
  Nb  Nb12  1  0.338617  0.825681  0.375281  1
  Nb  Nb13  1  0.838617  0.674319  0.124719  1
  Nb  Nb14  1  0.663198  0.172726  0.874945  1
  Nb  Nb15  1  0.163198  0.327274  0.625055  1
  Nb  Nb16  1  0.836512  0.495803  0.750823  1
  Nb  Nb17  1  0.336512  0.004197  0.749177  1
  Nb  Nb18  1  0.163570  0.505321  0.249935  1
  Nb  Nb19  1  0.663570  0.994679  0.250065  1
  Si  Si20  1  0.668956  0.968057  0.459776  1
  Si  Si21  1  0.168956  0.531943  0.040224  1
  Si  Si22  1  0.330706  0.034478  0.960740  1
  Si  Si23  1  0.830706  0.465522  0.539260  1
  Si  Si24  1  0.329591  0.034209  0.539133  1
  Si  Si25  1  0.829591  0.465791  0.960867  1
  Si  Si26  1  0.670166  0.967501  0.039976  1
  Si  Si27  1  0.170166  0.532499  0.460024  1
  Si  Si28  1  0.459602  0.386620  0.750763  1
  Si  Si29  1  0.959602  0.113380  0.749237  1
  Si  Si30  1  0.540902  0.612804  0.249800  1
  Si  Si31  1  0.040902  0.887196  0.250200  1
  Si  Si32  1  0.703854  0.863948  0.750047  1
  Si  Si33  1  0.203854  0.636052  0.749953  1
  Si  Si34  1  0.295669  0.137297  0.249869  1
  Si  Si35  1  0.795669  0.362703  0.250131  1
