# generated using pymatgen
data_RbHo3S5
_symmetry_space_group_name_H-M   'P 1'
_cell_length_a   3.97491400
_cell_length_b   11.78386700
_cell_length_c   21.24330000
_cell_angle_alpha   90.00000000
_cell_angle_beta   90.00000000
_cell_angle_gamma   90.00000000
_symmetry_Int_Tables_number   1
_chemical_formula_structural   RbHo3S5
_chemical_formula_sum   'Rb4 Ho12 S20'
_cell_volume   995.03315359
_cell_formula_units_Z   4
loop_
 _symmetry_equiv_pos_site_id
 _symmetry_equiv_pos_as_xyz
  1  'x, y, z'
loop_
 _atom_site_type_symbol
 _atom_site_label
 _atom_site_symmetry_multiplicity
 _atom_site_fract_x
 _atom_site_fract_y
 _atom_site_fract_z
 _atom_site_occupancy
  Rb  Rb0  1  0.250000  0.651132  0.596144  1
  Rb  Rb1  1  0.250000  0.848868  0.096144  1
  Rb  Rb2  1  0.750000  0.348868  0.403856  1
  Rb  Rb3  1  0.750000  0.151132  0.903856  1
  Ho  Ho4  1  0.250000  0.961032  0.697604  1
  Ho  Ho5  1  0.250000  0.538968  0.197604  1
  Ho  Ho6  1  0.750000  0.038968  0.302396  1
  Ho  Ho7  1  0.750000  0.461032  0.802396  1
  Ho  Ho8  1  0.750000  0.803931  0.827455  1
  Ho  Ho9  1  0.750000  0.696069  0.327455  1
  Ho  Ho10  1  0.250000  0.196069  0.172545  1
  Ho  Ho11  1  0.250000  0.303931  0.672545  1
  Ho  Ho12  1  0.750000  0.112752  0.551540  1
  Ho  Ho13  1  0.750000  0.387248  0.051540  1
  Ho  Ho14  1  0.250000  0.887248  0.448460  1
  Ho  Ho15  1  0.250000  0.612752  0.948460  1
  S  S16  1  0.750000  0.810837  0.699781  1
  S  S17  1  0.750000  0.689163  0.199781  1
  S  S18  1  0.250000  0.189163  0.300219  1
  S  S19  1  0.250000  0.310837  0.800219  1
  S  S20  1  0.750000  0.131105  0.681169  1
  S  S21  1  0.750000  0.368895  0.181169  1
  S  S22  1  0.250000  0.868895  0.318831  1
  S  S23  1  0.250000  0.631105  0.818831  1
  S  S24  1  0.250000  0.955926  0.825387  1
  S  S25  1  0.250000  0.544074  0.325387  1
  S  S26  1  0.750000  0.044074  0.174613  1
  S  S27  1  0.750000  0.455926  0.674613  1
  S  S28  1  0.750000  0.768289  0.954264  1
  S  S29  1  0.750000  0.731711  0.454264  1
  S  S30  1  0.250000  0.231711  0.045736  1
  S  S31  1  0.250000  0.268289  0.545736  1
  S  S32  1  0.250000  0.952038  0.569218  1
  S  S33  1  0.250000  0.547962  0.069218  1
  S  S34  1  0.750000  0.047962  0.430782  1
  S  S35  1  0.750000  0.452038  0.930782  1
