# generated using pymatgen
data_Hf16Co4TcIr3
_symmetry_space_group_name_H-M   'P 1'
_cell_length_a   8.60096851
_cell_length_b   8.60096849
_cell_length_c   8.60096857
_cell_angle_alpha   59.56703175
_cell_angle_beta   59.56703263
_cell_angle_gamma   59.56703456
_symmetry_Int_Tables_number   1
_chemical_formula_structural   Hf16Co4TcIr3
_chemical_formula_sum   'Hf16 Co4 Tc1 Ir3'
_cell_volume   445.48308567
_cell_formula_units_Z   1
loop_
 _symmetry_equiv_pos_site_id
 _symmetry_equiv_pos_as_xyz
  1  'x, y, z'
loop_
 _atom_site_type_symbol
 _atom_site_label
 _atom_site_symmetry_multiplicity
 _atom_site_fract_x
 _atom_site_fract_y
 _atom_site_fract_z
 _atom_site_occupancy
  Hf  Hf0  1  0.059075  0.646862  0.646862  1
  Hf  Hf1  1  0.646862  0.059075  0.646862  1
  Hf  Hf2  1  0.646862  0.646862  0.059075  1
  Hf  Hf3  1  0.644734  0.644734  0.644734  1
  Hf  Hf4  1  0.801897  0.801897  0.197686  1
  Hf  Hf5  1  0.198138  0.198138  0.801500  1
  Hf  Hf6  1  0.801897  0.197686  0.801897  1
  Hf  Hf7  1  0.198138  0.801500  0.198138  1
  Hf  Hf8  1  0.197686  0.801897  0.801897  1
  Hf  Hf9  1  0.801500  0.198138  0.198138  1
  Hf  Hf10  1  0.436358  0.436358  0.067640  1
  Hf  Hf11  1  0.064008  0.064008  0.436524  1
  Hf  Hf12  1  0.436358  0.067640  0.436358  1
  Hf  Hf13  1  0.064008  0.436524  0.064008  1
  Hf  Hf14  1  0.067640  0.436358  0.436358  1
  Hf  Hf15  1  0.436524  0.064008  0.064008  1
  Co  Co16  1  0.425530  0.856889  0.856889  1
  Co  Co17  1  0.856889  0.425530  0.856889  1
  Co  Co18  1  0.856889  0.856889  0.425530  1
  Co  Co19  1  0.858444  0.858444  0.858444  1
  Tc  Tc20  1  0.417114  0.417114  0.417114  1
  Ir  Ir21  1  0.753393  0.415028  0.415028  1
  Ir  Ir22  1  0.415028  0.753393  0.415028  1
  Ir  Ir23  1  0.415028  0.415028  0.753393  1
