# generated using pymatgen
data_Ho3In4CoNi
_symmetry_space_group_name_H-M   'P 1'
_cell_length_a   7.86870800
_cell_length_b   7.86870711
_cell_length_c   3.62486900
_cell_angle_alpha   90.00000000
_cell_angle_beta   90.00000000
_cell_angle_gamma   120.00000372
_symmetry_Int_Tables_number   1
_chemical_formula_structural   Ho3In4CoNi
_chemical_formula_sum   'Ho3 In4 Co1 Ni1'
_cell_volume   194.37022677
_cell_formula_units_Z   1
loop_
 _symmetry_equiv_pos_site_id
 _symmetry_equiv_pos_as_xyz
  1  'x, y, z'
loop_
 _atom_site_type_symbol
 _atom_site_label
 _atom_site_symmetry_multiplicity
 _atom_site_fract_x
 _atom_site_fract_y
 _atom_site_fract_z
 _atom_site_occupancy
  Ho  Ho0  1  0.709376  0.951638  0.500000  1
  Ho  Ho1  1  0.242261  0.290624  0.500000  1
  Ho  Ho2  1  0.048362  0.757739  0.500000  1
  In  In3  1  0.919312  0.334902  0.000000  1
  In  In4  1  0.415590  0.080688  0.000000  1
  In  In5  1  0.665098  0.584410  0.000000  1
  In  In6  1  0.333333  0.666667  0.000000  1
  Co  Co7  1  0.000000  0.000000  0.000000  1
  Ni  Ni8  1  0.666667  0.333333  0.500000  1
