# generated using pymatgen
data_TaMn(AlCo2)2
_symmetry_space_group_name_H-M   'P 1'
_cell_length_a   7.17212394
_cell_length_b   7.17212362
_cell_length_c   7.17212400
_cell_angle_alpha   33.50450397
_cell_angle_beta   33.50450787
_cell_angle_gamma   33.50451195
_symmetry_Int_Tables_number   1
_chemical_formula_structural   TaMn(AlCo2)2
_chemical_formula_sum   'Ta1 Mn1 Al2 Co4'
_cell_volume   100.12230146
_cell_formula_units_Z   1
loop_
 _symmetry_equiv_pos_site_id
 _symmetry_equiv_pos_as_xyz
  1  'x, y, z'
loop_
 _atom_site_type_symbol
 _atom_site_label
 _atom_site_symmetry_multiplicity
 _atom_site_fract_x
 _atom_site_fract_y
 _atom_site_fract_z
 _atom_site_occupancy
  Ta  Ta0  1  0.500000  0.500000  0.500000  1
  Mn  Mn1  1  0.000000  0.000000  0.000000  1
  Al  Al2  1  0.253591  0.253591  0.253591  1
  Al  Al3  1  0.746409  0.746409  0.746409  1
  Co  Co4  1  0.624447  0.624447  0.624447  1
  Co  Co5  1  0.124694  0.124694  0.124694  1
  Co  Co6  1  0.875306  0.875306  0.875306  1
  Co  Co7  1  0.375553  0.375553  0.375553  1
