# generated using pymatgen
data_Dy3Tm2Lu(Si3Ru)8
_symmetry_space_group_name_H-M   'P 1'
_cell_length_a   10.10338969
_cell_length_b   10.10363080
_cell_length_c   8.12133903
_cell_angle_alpha   89.90055383
_cell_angle_beta   90.10445936
_cell_angle_gamma   132.58474550
_symmetry_Int_Tables_number   1
_chemical_formula_structural   Dy3Tm2Lu(Si3Ru)8
_chemical_formula_sum   'Dy3 Tm2 Lu1 Si24 Ru8'
_cell_volume   610.39755537
_cell_formula_units_Z   1
loop_
 _symmetry_equiv_pos_site_id
 _symmetry_equiv_pos_as_xyz
  1  'x, y, z'
loop_
 _atom_site_type_symbol
 _atom_site_label
 _atom_site_symmetry_multiplicity
 _atom_site_fract_x
 _atom_site_fract_y
 _atom_site_fract_z
 _atom_site_occupancy
  Dy  Dy0  1  0.997122  0.497123  0.250042  1
  Dy  Dy1  1  0.497793  0.997800  0.250026  1
  Dy  Dy2  1  0.002169  0.502172  0.749963  1
  Tm  Tm3  1  0.999927  0.000004  0.999947  1
  Tm  Tm4  1  0.502389  0.002383  0.749974  1
  Lu  Lu5  1  0.500003  0.499925  0.500070  1
  Si  Si6  1  0.795073  0.205772  0.500307  1
  Si  Si7  1  0.294002  0.704747  0.999544  1
  Si  Si8  1  0.204759  0.793984  0.500468  1
  Si  Si9  1  0.705745  0.295076  0.999660  1
  Si  Si10  1  0.331950  0.332516  0.832867  1
  Si  Si11  1  0.667911  0.667756  0.167340  1
  Si  Si12  1  0.167923  0.168066  0.332849  1
  Si  Si13  1  0.832351  0.831800  0.666946  1
  Si  Si14  1  0.121002  0.887253  0.728319  1
  Si  Si15  1  0.111287  0.876768  0.271334  1
  Si  Si16  1  0.614053  0.379845  0.229132  1
  Si  Si17  1  0.621715  0.387734  0.772223  1
  Si  Si18  1  0.879836  0.114146  0.270989  1
  Si  Si19  1  0.887613  0.121672  0.727659  1
  Si  Si20  1  0.387347  0.620996  0.771558  1
  Si  Si21  1  0.376732  0.611169  0.228778  1
  Si  Si22  1  0.343556  0.111041  0.504955  1
  Si  Si23  1  0.886911  0.652623  0.494885  1
  Si  Si24  1  0.389174  0.156813  0.003200  1
  Si  Si25  1  0.847338  0.612928  0.995664  1
  Si  Si26  1  0.656773  0.889070  0.496793  1
  Si  Si27  1  0.113041  0.347390  0.504362  1
  Si  Si28  1  0.610932  0.843520  0.995060  1
  Si  Si29  1  0.152674  0.387022  0.005101  1
  Ru  Ru30  1  0.665297  0.327879  0.501601  1
  Ru  Ru31  1  0.172465  0.834618  0.999346  1
  Ru  Ru32  1  0.334828  0.672256  0.500630  1
  Ru  Ru33  1  0.827692  0.165519  0.998421  1
  Ru  Ru34  1  0.126275  0.127010  0.626773  1
  Ru  Ru35  1  0.873743  0.873609  0.372829  1
  Ru  Ru36  1  0.374048  0.374190  0.127726  1
  Ru  Ru37  1  0.626550  0.625807  0.872660  1
