# generated using pymatgen
data_La13Pr3(CdCo)4
_symmetry_space_group_name_H-M   'P 1'
_cell_length_a   9.96421757
_cell_length_b   9.98260455
_cell_length_c   9.96421800
_cell_angle_alpha   60.06091614
_cell_angle_beta   60.00000522
_cell_angle_gamma   60.06091441
_symmetry_Int_Tables_number   1
_chemical_formula_structural   La13Pr3(CdCo)4
_chemical_formula_sum   'La13 Pr3 Cd4 Co4'
_cell_volume   701.47882490
_cell_formula_units_Z   1
loop_
 _symmetry_equiv_pos_site_id
 _symmetry_equiv_pos_as_xyz
  1  'x, y, z'
loop_
 _atom_site_type_symbol
 _atom_site_label
 _atom_site_symmetry_multiplicity
 _atom_site_fract_x
 _atom_site_fract_y
 _atom_site_fract_z
 _atom_site_occupancy
  La  La0  1  0.688835  0.689854  0.310656  1
  La  La1  1  0.155088  0.154138  0.535685  1
  La  La2  1  0.310656  0.689854  0.688835  1
  La  La3  1  0.155088  0.154138  0.155088  1
  La  La4  1  0.535685  0.154138  0.155088  1
  La  La5  1  0.310656  0.689854  0.310656  1
  La  La6  1  0.311213  0.310220  0.689283  1
  La  La7  1  0.689283  0.310220  0.689283  1
  La  La8  1  0.939373  0.560904  0.560351  1
  La  La9  1  0.560351  0.560904  0.939373  1
  La  La10  1  0.154869  0.535391  0.154869  1
  La  La11  1  0.689283  0.310220  0.311213  1
  La  La12  1  0.939373  0.560904  0.939373  1
  Pr  Pr13  1  0.937998  0.939336  0.561333  1
  Pr  Pr14  1  0.561333  0.939336  0.561333  1
  Pr  Pr15  1  0.561333  0.939336  0.937998  1
  Cd  Cd16  1  0.237674  0.921243  0.920541  1
  Cd  Cd17  1  0.920541  0.921243  0.920541  1
  Cd  Cd18  1  0.920541  0.921243  0.237674  1
  Cd  Cd19  1  0.921013  0.236959  0.921013  1
  Co  Co20  1  0.920764  0.359786  0.359725  1
  Co  Co21  1  0.359725  0.359786  0.920764  1
  Co  Co22  1  0.359598  0.921206  0.359598  1
  Co  Co23  1  0.359725  0.359786  0.359725  1
