# generated using pymatgen
data_ErMg7(B6Os)4
_symmetry_space_group_name_H-M   'P 1'
_cell_length_a   8.89239714
_cell_length_b   11.08208861
_cell_length_c   3.50818900
_cell_angle_alpha   90.00000000
_cell_angle_beta   90.00000000
_cell_angle_gamma   90.13447240
_symmetry_Int_Tables_number   1
_chemical_formula_structural   ErMg7(B6Os)4
_chemical_formula_sum   'Er1 Mg7 B24 Os4'
_cell_volume   345.71820944
_cell_formula_units_Z   1
loop_
 _symmetry_equiv_pos_site_id
 _symmetry_equiv_pos_as_xyz
  1  'x, y, z'
loop_
 _atom_site_type_symbol
 _atom_site_label
 _atom_site_symmetry_multiplicity
 _atom_site_fract_x
 _atom_site_fract_y
 _atom_site_fract_z
 _atom_site_occupancy
  Er  Er0  1  0.323925  0.086008  0.000000  1
  Mg  Mg1  1  0.945989  0.128762  0.000000  1
  Mg  Mg2  1  0.446777  0.373405  0.000000  1
  Mg  Mg3  1  0.830166  0.413515  0.000000  1
  Mg  Mg4  1  0.169332  0.587497  0.000000  1
  Mg  Mg5  1  0.555513  0.627337  0.000000  1
  Mg  Mg6  1  0.054694  0.870906  0.000000  1
  Mg  Mg7  1  0.670230  0.912398  0.000000  1
  B  B8  1  0.092901  0.025304  0.500000  1
  B  B9  1  0.556198  0.064673  0.500000  1
  B  B10  1  0.757209  0.078950  0.500000  1
  B  B11  1  0.129941  0.183312  0.500000  1
  B  B12  1  0.483054  0.213317  0.500000  1
  B  B13  1  0.797832  0.238806  0.500000  1
  B  B14  1  0.296756  0.263830  0.500000  1
  B  B15  1  0.980977  0.288989  0.500000  1
  B  B16  1  0.632863  0.320225  0.500000  1
  B  B17  1  0.256328  0.422684  0.500000  1
  B  B18  1  0.054276  0.436380  0.500000  1
  B  B19  1  0.592626  0.475474  0.500000  1
  B  B20  1  0.408292  0.525145  0.500000  1
  B  B21  1  0.944252  0.564656  0.500000  1
  B  B22  1  0.743491  0.579459  0.500000  1
  B  B23  1  0.368089  0.679290  0.500000  1
  B  B24  1  0.018863  0.710915  0.500000  1
  B  B25  1  0.702512  0.738520  0.500000  1
  B  B26  1  0.201691  0.760247  0.500000  1
  B  B27  1  0.519996  0.787363  0.500000  1
  B  B28  1  0.868743  0.819474  0.500000  1
  B  B29  1  0.243796  0.917032  0.500000  1
  B  B30  1  0.444006  0.932702  0.500000  1
  B  B31  1  0.907111  0.974296  0.500000  1
  Os  Os32  1  0.643618  0.180814  0.000000  1
  Os  Os33  1  0.143631  0.323447  0.000000  1
  Os  Os34  1  0.856762  0.679912  0.000000  1
  Os  Os35  1  0.357555  0.814956  0.000000  1
