# generated using pymatgen
data_TbPrGeO5
_symmetry_space_group_name_H-M   'P 1'
_cell_length_a   8.38209705
_cell_length_b   8.38216948
_cell_length_c   10.91017402
_cell_angle_alpha   61.24450872
_cell_angle_beta   61.24537310
_cell_angle_gamma   49.76805291
_symmetry_Int_Tables_number   1
_chemical_formula_structural   TbPrGeO5
_chemical_formula_sum   'Tb4 Pr4 Ge4 O20'
_cell_volume   496.14947832
_cell_formula_units_Z   4
loop_
 _symmetry_equiv_pos_site_id
 _symmetry_equiv_pos_as_xyz
  1  'x, y, z'
loop_
 _atom_site_type_symbol
 _atom_site_label
 _atom_site_symmetry_multiplicity
 _atom_site_fract_x
 _atom_site_fract_y
 _atom_site_fract_z
 _atom_site_occupancy
  Tb  Tb0  1  0.986620  0.735236  0.837787  1
  Tb  Tb1  1  0.264762  0.013382  0.662213  1
  Tb  Tb2  1  0.013380  0.264764  0.162213  1
  Tb  Tb3  1  0.735238  0.986618  0.337787  1
  Pr  Pr4  1  0.721940  0.207387  0.964051  1
  Pr  Pr5  1  0.792614  0.278055  0.535951  1
  Pr  Pr6  1  0.278060  0.792613  0.035949  1
  Pr  Pr7  1  0.207386  0.721945  0.464049  1
  Ge  Ge8  1  0.777785  0.595448  0.691038  1
  Ge  Ge9  1  0.404557  0.222215  0.808959  1
  Ge  Ge10  1  0.222215  0.404552  0.308962  1
  Ge  Ge11  1  0.595443  0.777785  0.191041  1
  O  O12  1  0.784124  0.629810  0.057850  1
  O  O13  1  0.370193  0.215873  0.442152  1
  O  O14  1  0.215876  0.370190  0.942150  1
  O  O15  1  0.629807  0.784127  0.557848  1
  O  O16  1  0.585268  0.587891  0.359912  1
  O  O17  1  0.412115  0.414732  0.140088  1
  O  O18  1  0.414732  0.412109  0.640088  1
  O  O19  1  0.587885  0.585268  0.859912  1
  O  O20  1  0.948248  0.656247  0.682571  1
  O  O21  1  0.343751  0.051752  0.817430  1
  O  O22  1  0.051752  0.343753  0.317429  1
  O  O23  1  0.656249  0.948248  0.182570  1
  O  O24  1  0.886929  0.080450  0.391351  1
  O  O25  1  0.919550  0.113073  0.108646  1
  O  O26  1  0.113071  0.919550  0.608649  1
  O  O27  1  0.080450  0.886927  0.891354  1
  O  O28  1  0.078634  0.674065  0.325037  1
  O  O29  1  0.325933  0.921372  0.174960  1
  O  O30  1  0.921366  0.325935  0.674963  1
  O  O31  1  0.674067  0.078628  0.825040  1
