# generated using pymatgen
data_Dy4HoIn3
_symmetry_space_group_name_H-M   'P 1'
_cell_length_a   6.03003927
_cell_length_b   9.17631760
_cell_length_c   9.17631735
_cell_angle_alpha   83.80254829
_cell_angle_beta   70.81827546
_cell_angle_gamma   70.81828236
_symmetry_Int_Tables_number   1
_chemical_formula_structural   Dy4HoIn3
_chemical_formula_sum   'Dy8 Ho2 In6'
_cell_volume   452.94312582
_cell_formula_units_Z   2
loop_
 _symmetry_equiv_pos_site_id
 _symmetry_equiv_pos_as_xyz
  1  'x, y, z'
loop_
 _atom_site_type_symbol
 _atom_site_label
 _atom_site_symmetry_multiplicity
 _atom_site_fract_x
 _atom_site_fract_y
 _atom_site_fract_z
 _atom_site_occupancy
  Dy  Dy0  1  0.719325  0.862238  0.699111  1
  Dy  Dy1  1  0.280675  0.137762  0.300889  1
  Dy  Dy2  1  0.780675  0.300889  0.137762  1
  Dy  Dy3  1  0.219325  0.699111  0.862238  1
  Dy  Dy4  1  0.581563  0.699111  0.137762  1
  Dy  Dy5  1  0.418437  0.300889  0.862238  1
  Dy  Dy6  1  0.081563  0.137762  0.699111  1
  Dy  Dy7  1  0.918437  0.862238  0.300889  1
  Ho  Ho8  1  0.750000  0.500000  0.500000  1
  Ho  Ho9  1  0.250000  0.500000  0.500000  1
  In  In10  1  0.162359  0.500000  0.175282  1
  In  In11  1  0.837641  0.500000  0.824718  1
  In  In12  1  0.337641  0.824718  0.500000  1
  In  In13  1  0.662359  0.175282  0.500000  1
  In  In14  1  0.250000  0.000000  0.000000  1
  In  In15  1  0.750000  0.000000  0.000000  1
