# generated using pymatgen
data_Lu12CdNi4Pb
_symmetry_space_group_name_H-M   'P 1'
_cell_length_a   8.23197533
_cell_length_b   8.23197613
_cell_length_c   8.23197659
_cell_angle_alpha   112.44164572
_cell_angle_beta   109.57539839
_cell_angle_gamma   106.45192293
_symmetry_Int_Tables_number   1
_chemical_formula_structural   Lu12CdNi4Pb
_chemical_formula_sum   'Lu12 Cd1 Ni4 Pb1'
_cell_volume   428.25582588
_cell_formula_units_Z   1
loop_
 _symmetry_equiv_pos_site_id
 _symmetry_equiv_pos_as_xyz
  1  'x, y, z'
loop_
 _atom_site_type_symbol
 _atom_site_label
 _atom_site_symmetry_multiplicity
 _atom_site_fract_x
 _atom_site_fract_y
 _atom_site_fract_z
 _atom_site_occupancy
  Lu  Lu0  1  0.676032  0.868887  0.192855  1
  Lu  Lu1  1  0.323968  0.516823  0.192855  1
  Lu  Lu2  1  0.818623  0.790021  0.608644  1
  Lu  Lu3  1  0.181377  0.790021  0.971397  1
  Lu  Lu4  1  0.818623  0.209979  0.028603  1
  Lu  Lu5  1  0.181377  0.209979  0.391356  1
  Lu  Lu6  1  0.676032  0.483177  0.807145  1
  Lu  Lu7  1  0.323968  0.131113  0.807145  1
  Lu  Lu8  1  0.562806  0.268424  0.294382  1
  Lu  Lu9  1  0.437194  0.731576  0.705618  1
  Lu  Lu10  1  0.025958  0.731576  0.294382  1
  Lu  Lu11  1  0.974042  0.268424  0.705618  1
  Cd  Cd12  1  0.000000  0.500000  0.500000  1
  Ni  Ni13  1  0.350046  0.500000  0.850046  1
  Ni  Ni14  1  0.649954  0.500000  0.149954  1
  Ni  Ni15  1  0.875217  0.875217  0.000000  1
  Ni  Ni16  1  0.124783  0.124783  0.000000  1
  Pb  Pb17  1  0.500000  0.000000  0.500000  1
