# generated using pymatgen
data_Cs8Tl10Zn
_symmetry_space_group_name_H-M   'P 1'
_cell_length_a   11.13182900
_cell_length_b   11.13182900
_cell_length_c   15.04563300
_cell_angle_alpha   90.00000000
_cell_angle_beta   90.00000000
_cell_angle_gamma   90.00000000
_symmetry_Int_Tables_number   1
_chemical_formula_structural   Cs8Tl10Zn
_chemical_formula_sum   'Cs16 Tl20 Zn2'
_cell_volume   1864.41898589
_cell_formula_units_Z   2
loop_
 _symmetry_equiv_pos_site_id
 _symmetry_equiv_pos_as_xyz
  1  'x, y, z'
loop_
 _atom_site_type_symbol
 _atom_site_label
 _atom_site_symmetry_multiplicity
 _atom_site_fract_x
 _atom_site_fract_y
 _atom_site_fract_z
 _atom_site_occupancy
  Cs  Cs0  1  0.954572  0.177558  0.105935  1
  Cs  Cs1  1  0.545427  0.322442  0.105935  1
  Cs  Cs2  1  0.177558  0.545427  0.105935  1
  Cs  Cs3  1  0.322442  0.954572  0.105935  1
  Cs  Cs4  1  0.545427  0.177558  0.394066  1
  Cs  Cs5  1  0.954572  0.322442  0.394066  1
  Cs  Cs6  1  0.322442  0.545427  0.394066  1
  Cs  Cs7  1  0.177558  0.954572  0.394066  1
  Cs  Cs8  1  0.822442  0.045427  0.605934  1
  Cs  Cs9  1  0.677558  0.454572  0.605934  1
  Cs  Cs10  1  0.045427  0.677558  0.605934  1
  Cs  Cs11  1  0.454572  0.822442  0.605934  1
  Cs  Cs12  1  0.677558  0.045427  0.894066  1
  Cs  Cs13  1  0.822442  0.454572  0.894066  1
  Cs  Cs14  1  0.454572  0.677558  0.894066  1
  Cs  Cs15  1  0.045427  0.822442  0.894066  1
  Tl  Tl16  1  0.750000  0.750000  0.051191  1
  Tl  Tl17  1  0.839300  0.522925  0.164476  1
  Tl  Tl18  1  0.522925  0.660701  0.164476  1
  Tl  Tl19  1  0.977075  0.839300  0.164476  1
  Tl  Tl20  1  0.660701  0.977075  0.164476  1
  Tl  Tl21  1  0.660701  0.522925  0.335523  1
  Tl  Tl22  1  0.977075  0.660701  0.335523  1
  Tl  Tl23  1  0.522925  0.839300  0.335523  1
  Tl  Tl24  1  0.839300  0.977075  0.335523  1
  Tl  Tl25  1  0.750000  0.750000  0.448809  1
  Tl  Tl26  1  0.250000  0.250000  0.551191  1
  Tl  Tl27  1  0.160701  0.022925  0.664476  1
  Tl  Tl28  1  0.477075  0.160701  0.664476  1
  Tl  Tl29  1  0.022925  0.339299  0.664476  1
  Tl  Tl30  1  0.339299  0.477075  0.664476  1
  Tl  Tl31  1  0.339299  0.022925  0.835523  1
  Tl  Tl32  1  0.022925  0.160701  0.835523  1
  Tl  Tl33  1  0.477075  0.339299  0.835523  1
  Tl  Tl34  1  0.160701  0.477075  0.835523  1
  Tl  Tl35  1  0.250000  0.250000  0.948809  1
  Zn  Zn36  1  0.750000  0.750000  0.250000  1
  Zn  Zn37  1  0.250000  0.250000  0.750000  1
