# generated using pymatgen
data_Lu16In4Ir2OsRh
_symmetry_space_group_name_H-M   'P 1'
_cell_length_a   9.49491016
_cell_length_b   9.51259531
_cell_length_c   9.51259520
_cell_angle_alpha   59.59991479
_cell_angle_beta   59.56286849
_cell_angle_gamma   59.56286805
_symmetry_Int_Tables_number   1
_chemical_formula_structural   Lu16In4Ir2OsRh
_chemical_formula_sum   'Lu16 In4 Ir2 Os1 Rh1'
_cell_volume   601.67189766
_cell_formula_units_Z   1
loop_
 _symmetry_equiv_pos_site_id
 _symmetry_equiv_pos_as_xyz
  1  'x, y, z'
loop_
 _atom_site_type_symbol
 _atom_site_label
 _atom_site_symmetry_multiplicity
 _atom_site_fract_x
 _atom_site_fract_y
 _atom_site_fract_z
 _atom_site_occupancy
  Lu  Lu0  1  0.599428  0.600328  0.600328  1
  Lu  Lu1  1  0.598104  0.598361  0.205753  1
  Lu  Lu2  1  0.598104  0.205753  0.598361  1
  Lu  Lu3  1  0.206334  0.598241  0.598241  1
  Lu  Lu4  1  0.057824  0.441606  0.441606  1
  Lu  Lu5  1  0.441120  0.056739  0.056739  1
  Lu  Lu6  1  0.441687  0.057692  0.441961  1
  Lu  Lu7  1  0.057394  0.440925  0.057214  1
  Lu  Lu8  1  0.441687  0.441961  0.057692  1
  Lu  Lu9  1  0.057394  0.057214  0.440925  1
  Lu  Lu10  1  0.190403  0.809103  0.809103  1
  Lu  Lu11  1  0.804370  0.191720  0.191720  1
  Lu  Lu12  1  0.808455  0.189857  0.811171  1
  Lu  Lu13  1  0.192483  0.804468  0.192887  1
  Lu  Lu14  1  0.808455  0.811171  0.189857  1
  Lu  Lu15  1  0.192483  0.192887  0.804468  1
  In  In16  1  0.833765  0.833803  0.833803  1
  In  In17  1  0.833884  0.833809  0.499726  1
  In  In18  1  0.833884  0.499726  0.833809  1
  In  In19  1  0.499023  0.833957  0.833957  1
  Ir  Ir20  1  0.392411  0.391639  0.828078  1
  Ir  Ir21  1  0.392411  0.828078  0.391639  1
  Os  Os22  1  0.389460  0.389766  0.389766  1
  Rh  Rh23  1  0.829434  0.391195  0.391195  1
