# generated using pymatgen
data_Sc12Tc2NiRu
_symmetry_space_group_name_H-M   'P 1'
_cell_length_a   5.89953300
_cell_length_b   8.64565700
_cell_length_c   13.13115300
_cell_angle_alpha   90.00000000
_cell_angle_beta   90.00000000
_cell_angle_gamma   90.00000000
_symmetry_Int_Tables_number   1
_chemical_formula_structural   Sc12Tc2NiRu
_chemical_formula_sum   'Sc24 Tc4 Ni2 Ru2'
_cell_volume   669.75890731
_cell_formula_units_Z   2
loop_
 _symmetry_equiv_pos_site_id
 _symmetry_equiv_pos_as_xyz
  1  'x, y, z'
loop_
 _atom_site_type_symbol
 _atom_site_label
 _atom_site_symmetry_multiplicity
 _atom_site_fract_x
 _atom_site_fract_y
 _atom_site_fract_z
 _atom_site_occupancy
  Sc  Sc0  1  0.522231  0.750000  0.351234  1
  Sc  Sc1  1  0.022231  0.250000  0.148766  1
  Sc  Sc2  1  0.467942  0.250000  0.643303  1
  Sc  Sc3  1  0.967942  0.750000  0.856697  1
  Sc  Sc4  1  0.792982  0.750000  0.116007  1
  Sc  Sc5  1  0.292982  0.250000  0.383993  1
  Sc  Sc6  1  0.198855  0.250000  0.888743  1
  Sc  Sc7  1  0.698855  0.750000  0.611257  1
  Sc  Sc8  1  0.420307  0.939000  0.788714  1
  Sc  Sc9  1  0.920307  0.061000  0.711286  1
  Sc  Sc10  1  0.588436  0.436352  0.216369  1
  Sc  Sc11  1  0.088436  0.563648  0.283631  1
  Sc  Sc12  1  0.588436  0.063648  0.216369  1
  Sc  Sc13  1  0.088436  0.936352  0.283631  1
  Sc  Sc14  1  0.420307  0.561000  0.788714  1
  Sc  Sc15  1  0.920307  0.439000  0.711286  1
  Sc  Sc16  1  0.249095  0.941280  0.529799  1
  Sc  Sc17  1  0.749095  0.058720  0.970201  1
  Sc  Sc18  1  0.753813  0.444505  0.463011  1
  Sc  Sc19  1  0.253813  0.555495  0.036989  1
  Sc  Sc20  1  0.753813  0.055495  0.463011  1
  Sc  Sc21  1  0.253813  0.944505  0.036989  1
  Sc  Sc22  1  0.249095  0.558720  0.529799  1
  Sc  Sc23  1  0.749095  0.441280  0.970201  1
  Tc  Tc24  1  0.926461  0.750000  0.434630  1
  Tc  Tc25  1  0.426461  0.250000  0.065370  1
  Tc  Tc26  1  0.064549  0.250000  0.554894  1
  Tc  Tc27  1  0.564549  0.750000  0.945106  1
  Ni  Ni28  1  0.365504  0.750000  0.175118  1
  Ni  Ni29  1  0.865504  0.250000  0.324882  1
  Ru  Ru30  1  0.638176  0.250000  0.822051  1
  Ru  Ru31  1  0.138176  0.750000  0.677949  1
