# generated using pymatgen
data_HoTm8Th3Co4
_symmetry_space_group_name_H-M   'P 1'
_cell_length_a   6.25087943
_cell_length_b   6.88338062
_cell_length_c   9.43235600
_cell_angle_alpha   90.00000000
_cell_angle_beta   90.00000000
_cell_angle_gamma   88.99026063
_symmetry_Int_Tables_number   1
_chemical_formula_structural   HoTm8Th3Co4
_chemical_formula_sum   'Ho1 Tm8 Th3 Co4'
_cell_volume   405.78467954
_cell_formula_units_Z   1
loop_
 _symmetry_equiv_pos_site_id
 _symmetry_equiv_pos_as_xyz
  1  'x, y, z'
loop_
 _atom_site_type_symbol
 _atom_site_label
 _atom_site_symmetry_multiplicity
 _atom_site_fract_x
 _atom_site_fract_y
 _atom_site_fract_z
 _atom_site_occupancy
  Ho  Ho0  1  0.642435  0.457938  0.750000  1
  Tm  Tm1  1  0.671704  0.173450  0.068204  1
  Tm  Tm2  1  0.829695  0.671577  0.431408  1
  Tm  Tm3  1  0.325208  0.828033  0.930628  1
  Tm  Tm4  1  0.174879  0.327897  0.571538  1
  Tm  Tm5  1  0.671704  0.173450  0.431796  1
  Tm  Tm6  1  0.174879  0.327897  0.928462  1
  Tm  Tm7  1  0.325208  0.828033  0.569372  1
  Tm  Tm8  1  0.829695  0.671577  0.068592  1
  Th  Th9  1  0.348196  0.551882  0.250000  1
  Th  Th10  1  0.153491  0.049637  0.250000  1
  Th  Th11  1  0.845365  0.950085  0.750000  1
  Co  Co12  1  0.963872  0.372033  0.250000  1
  Co  Co13  1  0.464087  0.112422  0.750000  1
  Co  Co14  1  0.538544  0.872344  0.250000  1
  Co  Co15  1  0.041035  0.631745  0.750000  1
