# generated using pymatgen
data_Hf16Ir5Pd3C4
_symmetry_space_group_name_H-M   'P 1'
_cell_length_a   8.73328596
_cell_length_b   8.73328426
_cell_length_c   8.73328500
_cell_angle_alpha   60.07565197
_cell_angle_beta   60.07565837
_cell_angle_gamma   60.07565813
_symmetry_Int_Tables_number   1
_chemical_formula_structural   Hf16Ir5Pd3C4
_chemical_formula_sum   'Hf16 Ir5 Pd3 C4'
_cell_volume   471.80427336
_cell_formula_units_Z   1
loop_
 _symmetry_equiv_pos_site_id
 _symmetry_equiv_pos_as_xyz
  1  'x, y, z'
loop_
 _atom_site_type_symbol
 _atom_site_label
 _atom_site_symmetry_multiplicity
 _atom_site_fract_x
 _atom_site_fract_y
 _atom_site_fract_z
 _atom_site_occupancy
  Hf  Hf0  1  0.125018  0.624216  0.624216  1
  Hf  Hf1  1  0.624216  0.125018  0.624216  1
  Hf  Hf2  1  0.624216  0.624216  0.125018  1
  Hf  Hf3  1  0.627371  0.627371  0.627371  1
  Hf  Hf4  1  0.817873  0.817873  0.181764  1
  Hf  Hf5  1  0.183046  0.183046  0.815782  1
  Hf  Hf6  1  0.817873  0.181764  0.817873  1
  Hf  Hf7  1  0.183046  0.815782  0.183046  1
  Hf  Hf8  1  0.181764  0.817873  0.817873  1
  Hf  Hf9  1  0.815782  0.183046  0.183046  1
  Hf  Hf10  1  0.435232  0.435232  0.068339  1
  Hf  Hf11  1  0.064142  0.064142  0.435344  1
  Hf  Hf12  1  0.435232  0.068339  0.435232  1
  Hf  Hf13  1  0.064142  0.435344  0.064142  1
  Hf  Hf14  1  0.068339  0.435232  0.435232  1
  Hf  Hf15  1  0.435344  0.064142  0.064142  1
  Ir  Ir16  1  0.410070  0.410070  0.410070  1
  Ir  Ir17  1  0.486476  0.838755  0.838755  1
  Ir  Ir18  1  0.838755  0.486476  0.838755  1
  Ir  Ir19  1  0.838755  0.838755  0.486476  1
  Ir  Ir20  1  0.836775  0.836775  0.836775  1
  Pd  Pd21  1  0.761066  0.413839  0.413839  1
  Pd  Pd22  1  0.413839  0.761066  0.413839  1
  Pd  Pd23  1  0.413839  0.413839  0.761066  1
  C  C24  1  0.623494  0.124399  0.124399  1
  C  C25  1  0.124399  0.623494  0.124399  1
  C  C26  1  0.124399  0.124399  0.623494  1
  C  C27  1  0.125502  0.125502  0.125502  1
