# generated using pymatgen
data_Dy4(Zn3Cd)3
_symmetry_space_group_name_H-M   'P 1'
_cell_length_a   4.43519800
_cell_length_b   7.13074901
_cell_length_c   10.02910102
_cell_angle_alpha   89.99293059
_cell_angle_beta   90.00000000
_cell_angle_gamma   90.00000000
_symmetry_Int_Tables_number   1
_chemical_formula_structural   Dy4(Zn3Cd)3
_chemical_formula_sum   'Dy4 Zn9 Cd3'
_cell_volume   317.18319231
_cell_formula_units_Z   1
loop_
 _symmetry_equiv_pos_site_id
 _symmetry_equiv_pos_as_xyz
  1  'x, y, z'
loop_
 _atom_site_type_symbol
 _atom_site_label
 _atom_site_symmetry_multiplicity
 _atom_site_fract_x
 _atom_site_fract_y
 _atom_site_fract_z
 _atom_site_occupancy
  Dy  Dy0  1  0.250000  0.298991  0.671632  1
  Dy  Dy1  1  0.750000  0.701292  0.330567  1
  Dy  Dy2  1  0.250000  0.804630  0.823626  1
  Dy  Dy3  1  0.750000  0.197781  0.172624  1
  Zn  Zn4  1  0.750000  0.964789  0.599673  1
  Zn  Zn5  1  0.750000  0.298964  0.465824  1
  Zn  Zn6  1  0.250000  0.694585  0.538238  1
  Zn  Zn7  1  0.750000  0.813554  0.036663  1
  Zn  Zn8  1  0.250000  0.185137  0.961482  1
  Zn  Zn9  1  0.750000  0.591938  0.642337  1
  Zn  Zn10  1  0.250000  0.417196  0.359869  1
  Zn  Zn11  1  0.750000  0.085309  0.845669  1
  Zn  Zn12  1  0.250000  0.913932  0.145911  1
  Cd  Cd13  1  0.250000  0.530312  0.099539  1
  Cd  Cd14  1  0.750000  0.468753  0.899821  1
  Cd  Cd15  1  0.250000  0.032837  0.406525  1
