# generated using pymatgen
data_Dy10Y6Cd4TcNi3
_symmetry_space_group_name_H-M   'P 1'
_cell_length_a   9.60919030
_cell_length_b   9.60919155
_cell_length_c   9.60919105
_cell_angle_alpha   59.40541875
_cell_angle_beta   59.40541714
_cell_angle_gamma   59.40540987
_symmetry_Int_Tables_number   1
_chemical_formula_structural   Dy10Y6Cd4TcNi3
_chemical_formula_sum   'Dy10 Y6 Cd4 Tc1 Ni3'
_cell_volume   618.91253034
_cell_formula_units_Z   1
loop_
 _symmetry_equiv_pos_site_id
 _symmetry_equiv_pos_as_xyz
  1  'x, y, z'
loop_
 _atom_site_type_symbol
 _atom_site_label
 _atom_site_symmetry_multiplicity
 _atom_site_fract_x
 _atom_site_fract_y
 _atom_site_fract_z
 _atom_site_occupancy
  Dy  Dy0  1  0.597009  0.597009  0.597009  1
  Dy  Dy1  1  0.601432  0.601432  0.204635  1
  Dy  Dy2  1  0.601432  0.204635  0.601432  1
  Dy  Dy3  1  0.204635  0.601432  0.601432  1
  Dy  Dy4  1  0.061229  0.437652  0.437652  1
  Dy  Dy5  1  0.437465  0.060855  0.060855  1
  Dy  Dy6  1  0.437652  0.061229  0.437652  1
  Dy  Dy7  1  0.060855  0.437465  0.060855  1
  Dy  Dy8  1  0.437652  0.437652  0.061229  1
  Dy  Dy9  1  0.060855  0.060855  0.437465  1
  Y  Y10  1  0.186735  0.814810  0.814810  1
  Y  Y11  1  0.805278  0.189539  0.189539  1
  Y  Y12  1  0.814810  0.186735  0.814810  1
  Y  Y13  1  0.189539  0.805278  0.189539  1
  Y  Y14  1  0.814810  0.814810  0.186735  1
  Y  Y15  1  0.189539  0.189539  0.805278  1
  Cd  Cd16  1  0.829528  0.829528  0.829528  1
  Cd  Cd17  1  0.829528  0.829528  0.506054  1
  Cd  Cd18  1  0.829528  0.506054  0.829528  1
  Cd  Cd19  1  0.506054  0.829528  0.829528  1
  Tc  Tc20  1  0.393832  0.393832  0.393832  1
  Ni  Ni21  1  0.392469  0.392469  0.825662  1
  Ni  Ni22  1  0.392469  0.825662  0.392469  1
  Ni  Ni23  1  0.825662  0.392469  0.392469  1
