# generated using pymatgen
data_TaNb5Ga4(NiC)2
_symmetry_space_group_name_H-M   'P 1'
_cell_length_a   8.24518775
_cell_length_b   8.25470200
_cell_length_c   8.24519347
_cell_angle_alpha   59.97200641
_cell_angle_beta   60.08286796
_cell_angle_gamma   59.97195240
_symmetry_Int_Tables_number   1
_chemical_formula_structural   TaNb5Ga4(NiC)2
_chemical_formula_sum   'Ta2 Nb10 Ga8 Ni4 C4'
_cell_volume   396.89420067
_cell_formula_units_Z   2
loop_
 _symmetry_equiv_pos_site_id
 _symmetry_equiv_pos_as_xyz
  1  'x, y, z'
loop_
 _atom_site_type_symbol
 _atom_site_label
 _atom_site_symmetry_multiplicity
 _atom_site_fract_x
 _atom_site_fract_y
 _atom_site_fract_z
 _atom_site_occupancy
  Ta  Ta0  1  0.686017  0.313961  0.686017  1
  Ta  Ta1  1  0.935823  0.564131  0.935823  1
  Nb  Nb2  1  0.563352  0.936674  0.563352  1
  Nb  Nb3  1  0.312320  0.687606  0.688096  1
  Nb  Nb4  1  0.688140  0.311975  0.312333  1
  Nb  Nb5  1  0.313600  0.686418  0.313600  1
  Nb  Nb6  1  0.688096  0.687606  0.312319  1
  Nb  Nb7  1  0.312333  0.311975  0.688140  1
  Nb  Nb8  1  0.562433  0.561935  0.938013  1
  Nb  Nb9  1  0.938012  0.561935  0.562433  1
  Nb  Nb10  1  0.562437  0.937644  0.937994  1
  Nb  Nb11  1  0.937994  0.937644  0.562437  1
  Ga  Ga12  1  0.916450  0.916239  0.916449  1
  Ga  Ga13  1  0.999021  0.333728  0.333553  1
  Ga  Ga14  1  0.333773  0.998930  0.333774  1
  Ga  Ga15  1  0.333552  0.333728  0.999021  1
  Ga  Ga16  1  0.916425  0.250893  0.916424  1
  Ga  Ga17  1  0.916615  0.916128  0.251205  1
  Ga  Ga18  1  0.251205  0.916128  0.916614  1
  Ga  Ga19  1  0.333826  0.333436  0.333827  1
  Ni  Ni20  1  0.124003  0.127600  0.124003  1
  Ni  Ni21  1  0.625594  0.125974  0.122243  1
  Ni  Ni22  1  0.124050  0.624401  0.124050  1
  Ni  Ni23  1  0.122243  0.125974  0.625594  1
  C  C24  1  0.625666  0.623135  0.625666  1
  C  C25  1  0.124469  0.624332  0.626873  1
  C  C26  1  0.625678  0.125543  0.625678  1
  C  C27  1  0.626873  0.624332  0.124469  1
