# generated using pymatgen
data_Tb2TaIr3
_symmetry_space_group_name_H-M   'P 1'
_cell_length_a   5.26551428
_cell_length_b   5.66089342
_cell_length_c   5.66089300
_cell_angle_alpha   59.99999659
_cell_angle_beta   57.48337774
_cell_angle_gamma   57.48337724
_symmetry_Int_Tables_number   1
_chemical_formula_structural   Tb2TaIr3
_chemical_formula_sum   'Tb2 Ta1 Ir3'
_cell_volume   114.57316565
_cell_formula_units_Z   1
loop_
 _symmetry_equiv_pos_site_id
 _symmetry_equiv_pos_as_xyz
  1  'x, y, z'
loop_
 _atom_site_type_symbol
 _atom_site_label
 _atom_site_symmetry_multiplicity
 _atom_site_fract_x
 _atom_site_fract_y
 _atom_site_fract_z
 _atom_site_occupancy
  Tb  Tb0  1  0.748323  0.750559  0.750559  1
  Tb  Tb1  1  0.501677  0.499441  0.499441  1
  Ta  Ta2  1  0.625000  0.125000  0.125000  1
  Ir  Ir3  1  0.125000  0.625000  0.125000  1
  Ir  Ir4  1  0.125000  0.125000  0.625000  1
  Ir  Ir5  1  0.125000  0.125000  0.125000  1
