# generated using pymatgen
data_LiTa4O8
_symmetry_space_group_name_H-M   'P 1'
_cell_length_a   7.05072050
_cell_length_b   7.05072049
_cell_length_c   9.67003446
_cell_angle_alpha   86.23615056
_cell_angle_beta   86.23615269
_cell_angle_gamma   93.18258209
_symmetry_Int_Tables_number   1
_chemical_formula_structural   LiTa4O8
_chemical_formula_sum   'Li3 Ta12 O24'
_cell_volume   477.78678210
_cell_formula_units_Z   3
loop_
 _symmetry_equiv_pos_site_id
 _symmetry_equiv_pos_as_xyz
  1  'x, y, z'
loop_
 _atom_site_type_symbol
 _atom_site_label
 _atom_site_symmetry_multiplicity
 _atom_site_fract_x
 _atom_site_fract_y
 _atom_site_fract_z
 _atom_site_occupancy
  Li  Li0  1  0.868804  0.868804  0.158303  1
  Li  Li1  1  0.210636  0.210636  0.803068  1
  Li  Li2  1  0.626480  0.626480  0.346068  1
  Ta  Ta3  1  0.147607  0.147607  0.353825  1
  Ta  Ta4  1  0.644277  0.644277  0.854901  1
  Ta  Ta5  1  0.850599  0.850599  0.648396  1
  Ta  Ta6  1  0.348989  0.348989  0.150829  1
  Ta  Ta7  1  0.844205  0.410913  0.631922  1
  Ta  Ta8  1  0.355946  0.915399  0.138190  1
  Ta  Ta9  1  0.915399  0.355946  0.138190  1
  Ta  Ta10  1  0.410913  0.844205  0.631922  1
  Ta  Ta11  1  0.085167  0.651539  0.870800  1
  Ta  Ta12  1  0.580532  0.140683  0.365514  1
  Ta  Ta13  1  0.140683  0.580532  0.365514  1
  Ta  Ta14  1  0.651539  0.085167  0.870800  1
  O  O15  1  0.340285  0.063918  0.486138  1
  O  O16  1  0.840259  0.568985  0.986392  1
  O  O17  1  0.847255  0.118961  0.705811  1
  O  O18  1  0.350775  0.619144  0.210199  1
  O  O19  1  0.927558  0.656076  0.517329  1
  O  O20  1  0.428114  0.156528  0.015250  1
  O  O21  1  0.877573  0.145426  0.292651  1
  O  O22  1  0.376425  0.650709  0.798500  1
  O  O23  1  0.656076  0.927558  0.517329  1
  O  O24  1  0.156528  0.428114  0.015250  1
  O  O25  1  0.145426  0.877573  0.292651  1
  O  O26  1  0.650709  0.376425  0.798500  1
  O  O27  1  0.063918  0.340285  0.486138  1
  O  O28  1  0.568985  0.840259  0.986392  1
  O  O29  1  0.118961  0.847255  0.705811  1
  O  O30  1  0.619144  0.350775  0.210199  1
  O  O31  1  0.334357  0.666391  0.495855  1
  O  O32  1  0.831627  0.161091  0.006542  1
  O  O33  1  0.666391  0.334357  0.495855  1
  O  O34  1  0.161091  0.831627  0.006542  1
  O  O35  1  0.061740  0.429787  0.753922  1
  O  O36  1  0.585069  0.911165  0.251787  1
  O  O37  1  0.911165  0.585069  0.251787  1
  O  O38  1  0.429787  0.061740  0.753922  1
