# generated using pymatgen
data_Tb6AlSiOs
_symmetry_space_group_name_H-M   'P 1'
_cell_length_a   8.47779195
_cell_length_b   8.47779205
_cell_length_c   8.47779300
_cell_angle_alpha   104.55352317
_cell_angle_beta   110.80122939
_cell_angle_gamma   113.17796837
_symmetry_Int_Tables_number   1
_chemical_formula_structural   Tb6AlSiOs
_chemical_formula_sum   'Tb12 Al2 Si2 Os2'
_cell_volume   466.27551883
_cell_formula_units_Z   2
loop_
 _symmetry_equiv_pos_site_id
 _symmetry_equiv_pos_as_xyz
  1  'x, y, z'
loop_
 _atom_site_type_symbol
 _atom_site_label
 _atom_site_symmetry_multiplicity
 _atom_site_fract_x
 _atom_site_fract_y
 _atom_site_fract_z
 _atom_site_occupancy
  Tb  Tb0  1  0.695178  0.259175  0.954355  1
  Tb  Tb1  1  0.304822  0.740825  0.045645  1
  Tb  Tb2  1  0.695180  0.740825  0.436005  1
  Tb  Tb3  1  0.304820  0.259175  0.563995  1
  Tb  Tb4  1  0.809101  0.142103  0.333001  1
  Tb  Tb5  1  0.809107  0.476104  0.666996  1
  Tb  Tb6  1  0.190899  0.857897  0.666999  1
  Tb  Tb7  1  0.190893  0.523896  0.333004  1
  Tb  Tb8  1  0.588887  0.771616  0.817268  1
  Tb  Tb9  1  0.954346  0.771616  0.182729  1
  Tb  Tb10  1  0.045654  0.228384  0.817271  1
  Tb  Tb11  1  0.411113  0.228384  0.182732  1
  Al  Al12  1  0.500000  0.500000  0.000000  1
  Al  Al13  1  0.500000  0.000000  0.500000  1
  Si  Si14  1  0.000000  0.113676  0.113676  1
  Si  Si15  1  0.000000  0.886324  0.886324  1
  Os  Os16  1  0.831510  0.500000  0.331510  1
  Os  Os17  1  0.168490  0.500000  0.668490  1
