# generated using pymatgen
data_Yb10CdCu3HgRu
_symmetry_space_group_name_H-M   'P 1'
_cell_length_a   9.04080893
_cell_length_b   9.03648569
_cell_length_c   8.96781300
_cell_angle_alpha   129.41827721
_cell_angle_beta   129.43149971
_cell_angle_gamma   74.91935652
_symmetry_Int_Tables_number   1
_chemical_formula_structural   Yb10CdCu3HgRu
_chemical_formula_sum   'Yb10 Cd1 Cu3 Hg1 Ru1'
_cell_volume   424.39911643
_cell_formula_units_Z   1
loop_
 _symmetry_equiv_pos_site_id
 _symmetry_equiv_pos_as_xyz
  1  'x, y, z'
loop_
 _atom_site_type_symbol
 _atom_site_label
 _atom_site_symmetry_multiplicity
 _atom_site_fract_x
 _atom_site_fract_y
 _atom_site_fract_z
 _atom_site_occupancy
  Yb  Yb0  1  0.493940  0.501827  0.994496  1
  Yb  Yb1  1  0.000556  0.992670  0.994496  1
  Yb  Yb2  1  0.531706  0.035170  0.836731  1
  Yb  Yb3  1  0.191082  0.687263  0.145033  1
  Yb  Yb4  1  0.035775  0.208395  0.512495  1
  Yb  Yb5  1  0.704738  0.532208  0.505304  1
  Yb  Yb6  1  0.453951  0.957770  0.145033  1
  Yb  Yb7  1  0.805023  0.301560  0.836731  1
  Yb  Yb8  1  0.976721  0.804101  0.512495  1
  Yb  Yb9  1  0.300565  0.473096  0.505304  1
  Cd  Cd10  1  0.752644  0.752644  0.005285  1
  Cu  Cu11  1  0.881365  0.381365  0.262728  1
  Cu  Cu12  1  0.615485  0.882381  0.497843  1
  Cu  Cu13  1  0.382358  0.115462  0.497843  1
  Hg  Hg14  1  0.252037  0.252037  0.004073  1
  Ru  Ru15  1  0.122052  0.622052  0.744105  1
