# generated using pymatgen
data_Yb3Cd(GaPt)4
_symmetry_space_group_name_H-M   'P 1'
_cell_length_a   4.24630500
_cell_length_b   7.07812002
_cell_length_c   7.75100785
_cell_angle_alpha   92.35997723
_cell_angle_beta   90.00000000
_cell_angle_gamma   90.00000000
_symmetry_Int_Tables_number   1
_chemical_formula_structural   Yb3Cd(GaPt)4
_chemical_formula_sum   'Yb3 Cd1 Ga4 Pt4'
_cell_volume   232.76558863
_cell_formula_units_Z   1
loop_
 _symmetry_equiv_pos_site_id
 _symmetry_equiv_pos_as_xyz
  1  'x, y, z'
loop_
 _atom_site_type_symbol
 _atom_site_label
 _atom_site_symmetry_multiplicity
 _atom_site_fract_x
 _atom_site_fract_y
 _atom_site_fract_z
 _atom_site_occupancy
  Yb  Yb0  1  0.250000  0.481492  0.186425  1
  Yb  Yb1  1  0.750000  0.016609  0.668843  1
  Yb  Yb2  1  0.750000  0.523010  0.819251  1
  Cd  Cd3  1  0.250000  0.984052  0.326294  1
  Ga  Ga4  1  0.250000  0.344527  0.569104  1
  Ga  Ga5  1  0.250000  0.847232  0.935596  1
  Ga  Ga6  1  0.750000  0.648447  0.430488  1
  Ga  Ga7  1  0.750000  0.152073  0.064980  1
  Pt  Pt8  1  0.250000  0.216215  0.877845  1
  Pt  Pt9  1  0.250000  0.716433  0.613920  1
  Pt  Pt10  1  0.750000  0.791764  0.124035  1
  Pt  Pt11  1  0.750000  0.278146  0.383218  1
