# generated using pymatgen
data_Sc12Mn(PtBr8)2
_symmetry_space_group_name_H-M   'P 1'
_cell_length_a   8.89761583
_cell_length_b   11.60213466
_cell_length_c   12.34585400
_cell_angle_alpha   117.07938572
_cell_angle_beta   101.09314586
_cell_angle_gamma   100.76466901
_symmetry_Int_Tables_number   1
_chemical_formula_structural   Sc12Mn(PtBr8)2
_chemical_formula_sum   'Sc12 Mn1 Pt2 Br16'
_cell_volume   1057.23977060
_cell_formula_units_Z   1
loop_
 _symmetry_equiv_pos_site_id
 _symmetry_equiv_pos_as_xyz
  1  'x, y, z'
loop_
 _atom_site_type_symbol
 _atom_site_label
 _atom_site_symmetry_multiplicity
 _atom_site_fract_x
 _atom_site_fract_y
 _atom_site_fract_z
 _atom_site_occupancy
  Sc  Sc0  1  0.094304  0.272121  0.359069  1
  Sc  Sc1  1  0.913307  0.737231  0.645015  1
  Sc  Sc2  1  0.777292  0.537807  0.325113  1
  Sc  Sc3  1  0.225268  0.465539  0.670028  1
  Sc  Sc4  1  0.281340  0.728045  0.641251  1
  Sc  Sc5  1  0.719459  0.262463  0.354594  1
  Sc  Sc6  1  0.149266  0.534073  0.330642  1
  Sc  Sc7  1  0.854810  0.462627  0.674139  1
  Sc  Sc8  1  0.399794  0.359470  0.275169  1
  Sc  Sc9  1  0.588161  0.640435  0.724948  1
  Sc  Sc10  1  0.452860  0.312176  0.520332  1
  Sc  Sc11  1  0.533666  0.687693  0.479756  1
  Mn  Mn12  1  0.337426  0.499890  0.499596  1
  Pt  Pt13  1  0.997936  0.499998  0.500110  1
  Pt  Pt14  1  0.659489  0.500045  0.500270  1
  Br  Br15  1  0.390237  0.731831  0.870311  1
  Br  Br16  1  0.610149  0.270376  0.133470  1
  Br  Br17  1  0.184211  0.946904  0.773657  1
  Br  Br18  1  0.820115  0.052986  0.225865  1
  Br  Br19  1  0.346963  0.110906  0.262707  1
  Br  Br20  1  0.658469  0.889061  0.737487  1
  Br  Br21  1  0.559471  0.438057  0.786026  1
  Br  Br22  1  0.449288  0.561985  0.214359  1
  Br  Br23  1  0.303617  0.814780  0.465031  1
  Br  Br24  1  0.694372  0.185150  0.534481  1
  Br  Br25  1  0.167334  0.183998  0.532490  1
  Br  Br26  1  0.830525  0.816098  0.467834  1
  Br  Br27  1  0.930758  0.570930  0.171938  1
  Br  Br28  1  0.072754  0.429364  0.828307  1
  Br  Br29  1  0.916701  0.728894  0.866332  1
  Br  Br30  1  0.080658  0.269071  0.129671  1
