# generated using pymatgen
data_Tb3Er9Ga2Co3Ni
_symmetry_space_group_name_H-M   'P 1'
_cell_length_a   8.23163930
_cell_length_b   8.24308495
_cell_length_c   8.24308515
_cell_angle_alpha   112.55829998
_cell_angle_beta   109.30048106
_cell_angle_gamma   106.66117800
_symmetry_Int_Tables_number   1
_chemical_formula_structural   Tb3Er9Ga2Co3Ni
_chemical_formula_sum   'Tb3 Er9 Ga2 Co3 Ni1'
_cell_volume   429.14533881
_cell_formula_units_Z   1
loop_
 _symmetry_equiv_pos_site_id
 _symmetry_equiv_pos_as_xyz
  1  'x, y, z'
loop_
 _atom_site_type_symbol
 _atom_site_label
 _atom_site_symmetry_multiplicity
 _atom_site_fract_x
 _atom_site_fract_y
 _atom_site_fract_z
 _atom_site_occupancy
  Tb  Tb0  1  0.041123  0.738343  0.302780  1
  Tb  Tb1  1  0.957760  0.260771  0.696989  1
  Tb  Tb2  1  0.563720  0.260476  0.303243  1
  Er  Er3  1  0.436171  0.738440  0.697730  1
  Er  Er4  1  0.673058  0.860731  0.186452  1
  Er  Er5  1  0.331557  0.520956  0.190092  1
  Er  Er6  1  0.331557  0.141465  0.810601  1
  Er  Er7  1  0.673058  0.486604  0.812327  1
  Er  Er8  1  0.178765  0.219345  0.401229  1
  Er  Er9  1  0.817360  0.218404  0.039934  1
  Er  Er10  1  0.178765  0.777537  0.959421  1
  Er  Er11  1  0.817360  0.777426  0.598956  1
  Ga  Ga12  1  0.001329  0.500690  0.500638  1
  Ga  Ga13  1  0.499331  0.998666  0.500665  1
  Co  Co14  1  0.660878  0.498428  0.162450  1
  Co  Co15  1  0.336247  0.499052  0.837196  1
  Co  Co16  1  0.883496  0.884506  0.998990  1
  Ni  Ni17  1  0.118467  0.118160  0.000306  1
