# generated using pymatgen
data_Tb4VCo2ReB16
_symmetry_space_group_name_H-M   'P 1'
_cell_length_a   3.49036000
_cell_length_b   5.95178772
_cell_length_c   11.51644052
_cell_angle_alpha   90.18778728
_cell_angle_beta   90.00000000
_cell_angle_gamma   90.00000000
_symmetry_Int_Tables_number   1
_chemical_formula_structural   Tb4VCo2ReB16
_chemical_formula_sum   'Tb4 V1 Co2 Re1 B16'
_cell_volume   239.23988904
_cell_formula_units_Z   1
loop_
 _symmetry_equiv_pos_site_id
 _symmetry_equiv_pos_as_xyz
  1  'x, y, z'
loop_
 _atom_site_type_symbol
 _atom_site_label
 _atom_site_symmetry_multiplicity
 _atom_site_fract_x
 _atom_site_fract_y
 _atom_site_fract_z
 _atom_site_occupancy
  Tb  Tb0  1  0.000000  0.126081  0.153026  1
  Tb  Tb1  1  0.000000  0.873868  0.846398  1
  Tb  Tb2  1  0.000000  0.627139  0.353748  1
  Tb  Tb3  1  0.000000  0.372971  0.647609  1
  V  V4  1  0.000000  0.373174  0.915876  1
  Co  Co5  1  0.000000  0.135995  0.410803  1
  Co  Co6  1  0.000000  0.865427  0.587438  1
  Re  Re7  1  0.000000  0.626070  0.084810  1
  B  B8  1  0.500000  0.473655  0.193981  1
  B  B9  1  0.500000  0.525461  0.806150  1
  B  B10  1  0.500000  0.977837  0.311629  1
  B  B11  1  0.500000  0.022126  0.688835  1
  B  B12  1  0.500000  0.280988  0.318112  1
  B  B13  1  0.500000  0.719048  0.682103  1
  B  B14  1  0.500000  0.786112  0.187418  1
  B  B15  1  0.500000  0.214177  0.812150  1
  B  B16  1  0.500000  0.360440  0.468122  1
  B  B17  1  0.500000  0.639673  0.532680  1
  B  B18  1  0.500000  0.865603  0.032292  1
  B  B19  1  0.500000  0.134623  0.966940  1
  B  B20  1  0.500000  0.385439  0.046517  1
  B  B21  1  0.500000  0.613815  0.952918  1
  B  B22  1  0.500000  0.888697  0.454729  1
  B  B23  1  0.500000  0.111581  0.545715  1
