# generated using pymatgen
data_Tb10P9
_symmetry_space_group_name_H-M   'P 1'
_cell_length_a   8.93009755
_cell_length_b   6.91938793
_cell_length_c   10.56537400
_cell_angle_alpha   77.34357582
_cell_angle_beta   114.99599102
_cell_angle_gamma   130.22312958
_symmetry_Int_Tables_number   1
_chemical_formula_structural   Tb10P9
_chemical_formula_sum   'Tb10 P9'
_cell_volume   450.41515414
_cell_formula_units_Z   1
loop_
 _symmetry_equiv_pos_site_id
 _symmetry_equiv_pos_as_xyz
  1  'x, y, z'
loop_
 _atom_site_type_symbol
 _atom_site_label
 _atom_site_symmetry_multiplicity
 _atom_site_fract_x
 _atom_site_fract_y
 _atom_site_fract_z
 _atom_site_occupancy
  Tb  Tb0  1  0.420372  0.517051  0.331435  1
  Tb  Tb1  1  0.028094  0.630993  0.038466  1
  Tb  Tb2  1  0.235935  0.325370  0.934363  1
  Tb  Tb3  1  0.824624  0.914928  0.140404  1
  Tb  Tb4  1  0.617237  0.703873  0.727197  1
  Tb  Tb5  1  0.225804  0.818441  0.434082  1
  Tb  Tb6  1  0.021246  0.117697  0.532836  1
  Tb  Tb7  1  0.624352  0.217219  0.232348  1
  Tb  Tb8  1  0.820650  0.420855  0.623925  1
  Tb  Tb9  1  0.408825  0.008442  0.830992  1
  P  P10  1  0.020678  0.863531  0.784012  1
  P  P11  1  0.425317  0.267585  0.584776  1
  P  P12  1  0.823134  0.668104  0.382097  1
  P  P13  1  0.421666  0.766987  0.080063  1
  P  P14  1  0.623679  0.968635  0.484222  1
  P  P15  1  0.022399  0.366755  0.281351  1
  P  P16  1  0.222979  0.566900  0.685348  1
  P  P17  1  0.624150  0.470285  0.981196  1
  P  P18  1  0.220339  0.067682  0.180841  1
