# generated using pymatgen
data_Pr3TlIn2Ag2Rh
_symmetry_space_group_name_H-M   'P 1'
_cell_length_a   7.95205716
_cell_length_b   7.96623069
_cell_length_c   4.09260900
_cell_angle_alpha   90.00000000
_cell_angle_beta   90.00000000
_cell_angle_gamma   119.55453945
_symmetry_Int_Tables_number   1
_chemical_formula_structural   Pr3TlIn2Ag2Rh
_chemical_formula_sum   'Pr3 Tl1 In2 Ag2 Rh1'
_cell_volume   225.52529066
_cell_formula_units_Z   1
loop_
 _symmetry_equiv_pos_site_id
 _symmetry_equiv_pos_as_xyz
  1  'x, y, z'
loop_
 _atom_site_type_symbol
 _atom_site_label
 _atom_site_symmetry_multiplicity
 _atom_site_fract_x
 _atom_site_fract_y
 _atom_site_fract_z
 _atom_site_occupancy
  Pr  Pr0  1  0.975613  0.575115  0.500000  1
  Pr  Pr1  1  0.424385  0.400873  0.500000  1
  Pr  Pr2  1  0.600165  0.023191  0.500000  1
  Tl  Tl3  1  0.738709  0.739820  0.000000  1
  In  In4  1  0.002602  0.259919  0.000000  1
  In  In5  1  0.259372  0.002233  0.000000  1
  Ag  Ag6  1  0.326574  0.666433  0.000000  1
  Ag  Ag7  1  0.007384  0.007147  0.500000  1
  Rh  Rh8  1  0.665195  0.325270  0.000000  1
