# generated using pymatgen
data_Tb3Y16TmSn16
_symmetry_space_group_name_H-M   'P 1'
_cell_length_a   8.05043806
_cell_length_b   8.19701054
_cell_length_c   15.50153405
_cell_angle_alpha   90.00419216
_cell_angle_beta   90.00814022
_cell_angle_gamma   89.96062978
_symmetry_Int_Tables_number   1
_chemical_formula_structural   Tb3Y16TmSn16
_chemical_formula_sum   'Tb3 Y16 Tm1 Sn16'
_cell_volume   1022.93862379
_cell_formula_units_Z   1
loop_
 _symmetry_equiv_pos_site_id
 _symmetry_equiv_pos_as_xyz
  1  'x, y, z'
loop_
 _atom_site_type_symbol
 _atom_site_label
 _atom_site_symmetry_multiplicity
 _atom_site_fract_x
 _atom_site_fract_y
 _atom_site_fract_z
 _atom_site_occupancy
  Tb  Tb0  1  0.979918  0.820211  0.402299  1
  Tb  Tb1  1  0.519871  0.320688  0.597952  1
  Tb  Tb2  1  0.020352  0.179946  0.902029  1
  Y  Y3  1  0.367075  0.836149  0.877840  1
  Y  Y4  1  0.867837  0.663319  0.622113  1
  Y  Y5  1  0.632610  0.163706  0.378216  1
  Y  Y6  1  0.132622  0.336369  0.121440  1
  Y  Y7  1  0.632606  0.163652  0.121794  1
  Y  Y8  1  0.132651  0.336389  0.378530  1
  Y  Y9  1  0.367059  0.836194  0.622180  1
  Y  Y10  1  0.867819  0.663277  0.877860  1
  Y  Y11  1  0.520032  0.320765  0.901999  1
  Y  Y12  1  0.020489  0.179896  0.598029  1
  Y  Y13  1  0.479875  0.679615  0.402480  1
  Y  Y14  1  0.979779  0.820271  0.097740  1
  Y  Y15  1  0.479892  0.679646  0.097488  1
  Y  Y16  1  0.698621  0.997997  0.749963  1
  Y  Y17  1  0.801096  0.497703  0.250010  1
  Y  Y18  1  0.301074  0.002262  0.249946  1
  Tm  Tm19  1  0.199210  0.502629  0.750034  1
  Sn  Sn20  1  0.292643  0.035258  0.041677  1
  Sn  Sn21  1  0.792428  0.464311  0.458334  1
  Sn  Sn22  1  0.707396  0.964483  0.542126  1
  Sn  Sn23  1  0.207541  0.535244  0.957220  1
  Sn  Sn24  1  0.707410  0.964426  0.957913  1
  Sn  Sn25  1  0.207445  0.535299  0.542729  1
  Sn  Sn26  1  0.292636  0.035382  0.458388  1
  Sn  Sn27  1  0.792403  0.464268  0.041622  1
  Sn  Sn28  1  0.564107  0.618306  0.749964  1
  Sn  Sn29  1  0.065473  0.880432  0.750057  1
  Sn  Sn30  1  0.434534  0.381262  0.249991  1
  Sn  Sn31  1  0.934751  0.118822  0.250053  1
  Sn  Sn32  1  0.328190  0.148295  0.750033  1
  Sn  Sn33  1  0.829594  0.353982  0.749978  1
  Sn  Sn34  1  0.671335  0.853748  0.249993  1
  Sn  Sn35  1  0.171625  0.645800  0.249980  1
