# generated using pymatgen
data_Fe8Si4Mo9W3C2
_symmetry_space_group_name_H-M   'P 1'
_cell_length_a   7.76814088
_cell_length_b   7.77096258
_cell_length_c   7.77425784
_cell_angle_alpha   59.96718328
_cell_angle_beta   60.01482750
_cell_angle_gamma   60.04454869
_symmetry_Int_Tables_number   1
_chemical_formula_structural   Fe8Si4Mo9W3C2
_chemical_formula_sum   'Fe8 Si4 Mo9 W3 C2'
_cell_volume   331.91173701
_cell_formula_units_Z   1
loop_
 _symmetry_equiv_pos_site_id
 _symmetry_equiv_pos_as_xyz
  1  'x, y, z'
loop_
 _atom_site_type_symbol
 _atom_site_label
 _atom_site_symmetry_multiplicity
 _atom_site_fract_x
 _atom_site_fract_y
 _atom_site_fract_z
 _atom_site_occupancy
  Fe  Fe0  1  0.917668  0.246583  0.917497  1
  Fe  Fe1  1  0.331938  0.003409  0.332333  1
  Fe  Fe2  1  0.332348  0.332287  0.332075  1
  Fe  Fe3  1  0.003748  0.331732  0.332433  1
  Fe  Fe4  1  0.917789  0.917792  0.246309  1
  Fe  Fe5  1  0.246393  0.918046  0.917803  1
  Fe  Fe6  1  0.332402  0.332089  0.003719  1
  Fe  Fe7  1  0.917445  0.918164  0.917791  1
  Si  Si8  1  0.126045  0.125007  0.624879  1
  Si  Si9  1  0.125691  0.624813  0.124769  1
  Si  Si10  1  0.125243  0.125319  0.124342  1
  Si  Si11  1  0.624472  0.125399  0.125530  1
  Mo  Mo12  1  0.303074  0.696223  0.696360  1
  Mo  Mo13  1  0.304899  0.305179  0.694798  1
  Mo  Mo14  1  0.554064  0.945195  0.554565  1
  Mo  Mo15  1  0.945247  0.553778  0.554160  1
  Mo  Mo16  1  0.553629  0.945866  0.946227  1
  Mo  Mo17  1  0.695856  0.303374  0.304015  1
  Mo  Mo18  1  0.945386  0.553910  0.946294  1
  Mo  Mo19  1  0.304252  0.695090  0.305182  1
  Mo  Mo20  1  0.555233  0.555286  0.944409  1
  W  W21  1  0.695330  0.304020  0.695842  1
  W  W22  1  0.695242  0.695553  0.304480  1
  W  W23  1  0.944964  0.945402  0.554734  1
  C  C24  1  0.750691  0.750397  0.749603  1
  C  C25  1  0.500953  0.500088  0.499853  1
