# generated using pymatgen
data_Dy2HoPa(ReB6)2
_symmetry_space_group_name_H-M   'P 1'
_cell_length_a   3.70323300
_cell_length_b   9.17434365
_cell_length_c   11.54084917
_cell_angle_alpha   90.36443409
_cell_angle_beta   90.00000000
_cell_angle_gamma   90.00000000
_symmetry_Int_Tables_number   1
_chemical_formula_structural   Dy2HoPa(ReB6)2
_chemical_formula_sum   'Dy4 Ho2 Pa2 Re4 B24'
_cell_volume   392.08932806
_cell_formula_units_Z   2
loop_
 _symmetry_equiv_pos_site_id
 _symmetry_equiv_pos_as_xyz
  1  'x, y, z'
loop_
 _atom_site_type_symbol
 _atom_site_label
 _atom_site_symmetry_multiplicity
 _atom_site_fract_x
 _atom_site_fract_y
 _atom_site_fract_z
 _atom_site_occupancy
  Dy  Dy0  1  0.000000  0.823948  0.085623  1
  Dy  Dy1  1  0.000000  0.176052  0.914377  1
  Dy  Dy2  1  0.000000  0.944727  0.372518  1
  Dy  Dy3  1  0.000000  0.055273  0.627482  1
  Ho  Ho4  1  0.000000  0.443804  0.126526  1
  Ho  Ho5  1  0.000000  0.556196  0.873474  1
  Pa  Pa6  1  0.000000  0.321774  0.413094  1
  Pa  Pa7  1  0.000000  0.678226  0.586906  1
  Re  Re8  1  0.000000  0.634702  0.324768  1
  Re  Re9  1  0.000000  0.365298  0.675232  1
  Re  Re10  1  0.000000  0.140862  0.181554  1
  Re  Re11  1  0.000000  0.859138  0.818446  1
  B  B12  1  0.500000  0.553405  0.432959  1
  B  B13  1  0.500000  0.446595  0.567041  1
  B  B14  1  0.500000  0.053499  0.067399  1
  B  B15  1  0.500000  0.946501  0.932601  1
  B  B16  1  0.500000  0.747806  0.419601  1
  B  B17  1  0.500000  0.252194  0.580399  1
  B  B18  1  0.500000  0.248008  0.080394  1
  B  B19  1  0.500000  0.751992  0.919606  1
  B  B20  1  0.500000  0.791090  0.265622  1
  B  B21  1  0.500000  0.208910  0.734378  1
  B  B22  1  0.500000  0.292277  0.233784  1
  B  B23  1  0.500000  0.707723  0.766216  1
  B  B24  1  0.500000  0.631233  0.185495  1
  B  B25  1  0.500000  0.368767  0.814505  1
  B  B26  1  0.500000  0.132505  0.313907  1
  B  B27  1  0.500000  0.867495  0.686093  1
  B  B28  1  0.500000  0.982589  0.212098  1
  B  B29  1  0.500000  0.017411  0.787902  1
  B  B30  1  0.500000  0.482922  0.286589  1
  B  B31  1  0.500000  0.517078  0.713411  1
  B  B32  1  0.500000  0.604647  0.029339  1
  B  B33  1  0.500000  0.395353  0.970661  1
  B  B34  1  0.500000  0.111429  0.469202  1
  B  B35  1  0.500000  0.888571  0.530798  1
