# generated using pymatgen
data_KMn2(PO4)2
_symmetry_space_group_name_H-M   'P 1'
_cell_length_a   5.15223172
_cell_length_b   8.14511005
_cell_length_c   9.67666705
_cell_angle_alpha   91.75724342
_cell_angle_beta   90.01448663
_cell_angle_gamma   89.94581978
_symmetry_Int_Tables_number   1
_chemical_formula_structural   KMn2(PO4)2
_chemical_formula_sum   'K2 Mn4 P4 O16'
_cell_volume   405.89495153
_cell_formula_units_Z   2
loop_
 _symmetry_equiv_pos_site_id
 _symmetry_equiv_pos_as_xyz
  1  'x, y, z'
loop_
 _atom_site_type_symbol
 _atom_site_label
 _atom_site_symmetry_multiplicity
 _atom_site_fract_x
 _atom_site_fract_y
 _atom_site_fract_z
 _atom_site_occupancy
  K  K0  1  0.499954  0.000059  0.499997  1
  K  K1  1  0.000113  0.000093  0.999961  1
  Mn  Mn2  1  0.084284  0.336472  0.704800  1
  Mn  Mn3  1  0.915094  0.663329  0.295152  1
  Mn  Mn4  1  0.583834  0.663814  0.795114  1
  Mn  Mn5  1  0.415844  0.336134  0.204882  1
  P  P6  1  0.491363  0.727807  0.134677  1
  P  P7  1  0.990707  0.272384  0.365585  1
  P  P8  1  0.508862  0.272208  0.865330  1
  P  P9  1  0.009116  0.727566  0.634378  1
  O  O10  1  0.846058  0.839693  0.734434  1
  O  O11  1  0.345571  0.160470  0.764892  1
  O  O12  1  0.153623  0.160370  0.265410  1
  O  O13  1  0.654960  0.839465  0.235136  1
  O  O14  1  0.555677  0.769262  0.984415  1
  O  O15  1  0.055897  0.231328  0.516008  1
  O  O16  1  0.444524  0.230855  0.015615  1
  O  O17  1  0.944180  0.768536  0.483873  1
  O  O18  1  0.607013  0.551597  0.172355  1
  O  O19  1  0.105138  0.448860  0.327800  1
  O  O20  1  0.393411  0.448434  0.827642  1
  O  O21  1  0.894610  0.551202  0.672228  1
  O  O22  1  0.301498  0.736837  0.658336  1
  O  O23  1  0.801301  0.263133  0.841088  1
  O  O24  1  0.698254  0.263262  0.341736  1
  O  O25  1  0.199116  0.736832  0.159159  1
