# generated using pymatgen
data_Ti3Al2GaPt3
_symmetry_space_group_name_H-M   'P 1'
_cell_length_a   6.97748650
_cell_length_b   6.97748639
_cell_length_c   6.85768200
_cell_angle_alpha   90.00000000
_cell_angle_beta   90.00000000
_cell_angle_gamma   119.53893252
_symmetry_Int_Tables_number   1
_chemical_formula_structural   Ti3Al2GaPt3
_chemical_formula_sum   'Ti6 Al4 Ga2 Pt6'
_cell_volume   290.47250337
_cell_formula_units_Z   2
loop_
 _symmetry_equiv_pos_site_id
 _symmetry_equiv_pos_as_xyz
  1  'x, y, z'
loop_
 _atom_site_type_symbol
 _atom_site_label
 _atom_site_symmetry_multiplicity
 _atom_site_fract_x
 _atom_site_fract_y
 _atom_site_fract_z
 _atom_site_occupancy
  Ti  Ti0  1  0.417414  0.389098  0.250000  1
  Ti  Ti1  1  0.588980  0.972806  0.750000  1
  Ti  Ti2  1  0.389098  0.417414  0.750000  1
  Ti  Ti3  1  0.027910  0.614805  0.750000  1
  Ti  Ti4  1  0.972806  0.588980  0.250000  1
  Ti  Ti5  1  0.614805  0.027910  0.250000  1
  Al  Al6  1  0.270116  0.002995  0.999880  1
  Al  Al7  1  0.270116  0.002995  0.500120  1
  Al  Al8  1  0.002995  0.270116  0.499880  1
  Al  Al9  1  0.002995  0.270116  0.000120  1
  Ga  Ga10  1  0.725766  0.725766  0.000000  1
  Ga  Ga11  1  0.725766  0.725766  0.500000  1
  Pt  Pt12  1  0.665979  0.326769  0.536644  1
  Pt  Pt13  1  0.003154  0.002582  0.750000  1
  Pt  Pt14  1  0.665979  0.326769  0.963356  1
  Pt  Pt15  1  0.326769  0.665979  0.036644  1
  Pt  Pt16  1  0.326769  0.665979  0.463356  1
  Pt  Pt17  1  0.002582  0.003154  0.250000  1
