# generated using pymatgen
data_Li3Tb2YSi2Ge
_symmetry_space_group_name_H-M   'P 1'
_cell_length_a   7.02523751
_cell_length_b   7.02523672
_cell_length_c   4.25974300
_cell_angle_alpha   90.00000000
_cell_angle_beta   90.00000000
_cell_angle_gamma   119.81299056
_symmetry_Int_Tables_number   1
_chemical_formula_structural   Li3Tb2YSi2Ge
_chemical_formula_sum   'Li3 Tb2 Y1 Si2 Ge1'
_cell_volume   182.41112452
_cell_formula_units_Z   1
loop_
 _symmetry_equiv_pos_site_id
 _symmetry_equiv_pos_as_xyz
  1  'x, y, z'
loop_
 _atom_site_type_symbol
 _atom_site_label
 _atom_site_symmetry_multiplicity
 _atom_site_fract_x
 _atom_site_fract_y
 _atom_site_fract_z
 _atom_site_occupancy
  Li  Li0  1  0.234254  0.000334  0.500000  1
  Li  Li1  1  0.765705  0.765705  0.500000  1
  Li  Li2  1  0.000334  0.234254  0.500000  1
  Tb  Tb3  1  0.999824  0.573167  0.000000  1
  Tb  Tb4  1  0.573167  0.999824  0.000000  1
  Y  Y5  1  0.426081  0.426081  0.000000  1
  Si  Si6  1  0.333610  0.665583  0.500000  1
  Si  Si7  1  0.665583  0.333610  0.500000  1
  Ge  Ge8  1  0.001443  0.001443  0.000000  1
