# generated using pymatgen
data_Si12P12PtRh3
_symmetry_space_group_name_H-M   'P 1'
_cell_length_a   5.92883422
_cell_length_b   6.10669961
_cell_length_c   13.01810958
_cell_angle_alpha   90.04627376
_cell_angle_beta   90.07750212
_cell_angle_gamma   90.35859519
_symmetry_Int_Tables_number   1
_chemical_formula_structural   Si12P12PtRh3
_chemical_formula_sum   'Si12 P12 Pt1 Rh3'
_cell_volume   471.31877434
_cell_formula_units_Z   1
loop_
 _symmetry_equiv_pos_site_id
 _symmetry_equiv_pos_as_xyz
  1  'x, y, z'
loop_
 _atom_site_type_symbol
 _atom_site_label
 _atom_site_symmetry_multiplicity
 _atom_site_fract_x
 _atom_site_fract_y
 _atom_site_fract_z
 _atom_site_occupancy
  Si  Si0  1  0.959818  0.152925  0.318680  1
  Si  Si1  1  0.466043  0.839179  0.681569  1
  Si  Si2  1  0.927227  0.632216  0.211320  1
  Si  Si3  1  0.431849  0.372617  0.786121  1
  Si  Si4  1  0.340339  0.915130  0.949912  1
  Si  Si5  1  0.839873  0.084231  0.049413  1
  Si  Si6  1  0.913178  0.532318  0.673643  1
  Si  Si7  1  0.419773  0.467419  0.325499  1
  Si  Si8  1  0.993541  0.061944  0.570897  1
  Si  Si9  1  0.500639  0.936512  0.429811  1
  Si  Si10  1  0.910874  0.626593  0.928021  1
  Si  Si11  1  0.410107  0.372760  0.072090  1
  P  P12  1  0.579667  0.030185  0.825088  1
  P  P13  1  0.080550  0.972039  0.174740  1
  P  P14  1  0.520087  0.563216  0.930547  1
  P  P15  1  0.020897  0.436189  0.070185  1
  P  P16  1  0.610164  0.112286  0.573993  1
  P  P17  1  0.113614  0.892628  0.426767  1
  P  P18  1  0.543209  0.644529  0.181022  1
  P  P19  1  0.045417  0.357527  0.818618  1
  P  P20  1  0.575973  0.132152  0.288379  1
  P  P21  1  0.079439  0.868441  0.710903  1
  P  P22  1  0.154292  0.400730  0.555710  1
  P  P23  1  0.649936  0.597865  0.447778  1
  Pt  Pt24  1  0.037852  0.514822  0.380083  1
  Rh  Rh25  1  0.966042  0.987027  0.879528  1
  Rh  Rh26  1  0.465805  0.012915  0.120486  1
  Rh  Rh27  1  0.537595  0.483601  0.619199  1
