# generated using pymatgen
data_Zr8Ti12Si9As7
_symmetry_space_group_name_H-M   'P 1'
_cell_length_a   6.85422325
_cell_length_b   6.86981619
_cell_length_c   13.12526480
_cell_angle_alpha   89.98636294
_cell_angle_beta   89.82322445
_cell_angle_gamma   90.02313459
_symmetry_Int_Tables_number   1
_chemical_formula_structural   Zr8Ti12Si9As7
_chemical_formula_sum   'Zr8 Ti12 Si9 As7'
_cell_volume   618.02966573
_cell_formula_units_Z   1
loop_
 _symmetry_equiv_pos_site_id
 _symmetry_equiv_pos_as_xyz
  1  'x, y, z'
loop_
 _atom_site_type_symbol
 _atom_site_label
 _atom_site_symmetry_multiplicity
 _atom_site_fract_x
 _atom_site_fract_y
 _atom_site_fract_z
 _atom_site_occupancy
  Zr  Zr0  1  0.483885  0.675684  0.096603  1
  Zr  Zr1  1  0.981548  0.820676  0.400605  1
  Zr  Zr2  1  0.517187  0.320348  0.599219  1
  Zr  Zr3  1  0.015276  0.180395  0.900874  1
  Zr  Zr4  1  0.509903  0.323866  0.903624  1
  Zr  Zr5  1  0.017742  0.180313  0.599451  1
  Zr  Zr6  1  0.482360  0.679218  0.400992  1
  Zr  Zr7  1  0.986969  0.820619  0.098337  1
  Ti  Ti8  1  0.321971  0.005279  0.250020  1
  Ti  Ti9  1  0.822551  0.494850  0.249767  1
  Ti  Ti10  1  0.677961  0.994465  0.750108  1
  Ti  Ti11  1  0.176874  0.504907  0.751471  1
  Ti  Ti12  1  0.651409  0.166837  0.124079  1
  Ti  Ti13  1  0.149857  0.336308  0.375493  1
  Ti  Ti14  1  0.351646  0.836547  0.625053  1
  Ti  Ti15  1  0.850532  0.665912  0.873590  1
  Ti  Ti16  1  0.346304  0.832594  0.876363  1
  Ti  Ti17  1  0.850118  0.663687  0.624834  1
  Ti  Ti18  1  0.648989  0.163327  0.375077  1
  Ti  Ti19  1  0.153330  0.333837  0.125428  1
  Si  Si20  1  0.690057  0.866582  0.248473  1
  Si  Si21  1  0.191631  0.633049  0.249439  1
  Si  Si22  1  0.309666  0.132709  0.751131  1
  Si  Si23  1  0.807217  0.367238  0.750808  1
  Si  Si24  1  0.186371  0.541180  0.959625  1
  Si  Si25  1  0.448420  0.378701  0.250132  1
  Si  Si26  1  0.946574  0.121652  0.249806  1
  Si  Si27  1  0.551512  0.621313  0.750601  1
  Si  Si28  1  0.053817  0.878532  0.749530  1
  As  As29  1  0.695340  0.958674  0.958643  1
  As  As30  1  0.197124  0.541357  0.541669  1
  As  As31  1  0.302911  0.040810  0.458581  1
  As  As32  1  0.817430  0.459675  0.039407  1
  As  As33  1  0.305455  0.041124  0.040955  1
  As  As34  1  0.802790  0.458557  0.458626  1
  As  As35  1  0.697271  0.959177  0.541587  1
