# generated using pymatgen
data_V3Si2Tc6Mo
_symmetry_space_group_name_H-M   'P 1'
_cell_length_a   4.27106700
_cell_length_b   6.07241700
_cell_length_c   12.84460401
_cell_angle_alpha   90.00000000
_cell_angle_beta   89.99638691
_cell_angle_gamma   90.00000000
_symmetry_Int_Tables_number   1
_chemical_formula_structural   V3Si2Tc6Mo
_chemical_formula_sum   'V6 Si4 Tc12 Mo2'
_cell_volume   333.13379382
_cell_formula_units_Z   2
loop_
 _symmetry_equiv_pos_site_id
 _symmetry_equiv_pos_as_xyz
  1  'x, y, z'
loop_
 _atom_site_type_symbol
 _atom_site_label
 _atom_site_symmetry_multiplicity
 _atom_site_fract_x
 _atom_site_fract_y
 _atom_site_fract_z
 _atom_site_occupancy
  V  V0  1  0.999964  0.500000  0.994586  1
  V  V1  1  0.499870  0.000000  0.172099  1
  V  V2  1  0.999835  0.500000  0.341891  1
  V  V3  1  0.500004  0.000000  0.501565  1
  V  V4  1  0.000194  0.500000  0.665081  1
  V  V5  1  0.500122  0.000000  0.824792  1
  Si  Si6  1  0.999833  0.000000  0.337113  1
  Si  Si7  1  0.499994  0.500000  0.501277  1
  Si  Si8  1  0.000171  0.000000  0.665422  1
  Si  Si9  1  0.500154  0.500000  0.829492  1
  Tc  Tc10  1  0.499996  0.253793  0.997995  1
  Tc  Tc11  1  0.499996  0.746207  0.997995  1
  Tc  Tc12  1  0.999882  0.245924  0.168713  1
  Tc  Tc13  1  0.999882  0.754076  0.168713  1
  Tc  Tc14  1  0.499867  0.248409  0.335077  1
  Tc  Tc15  1  0.499867  0.751591  0.335077  1
  Tc  Tc16  1  0.000000  0.251831  0.501062  1
  Tc  Tc17  1  0.000000  0.748169  0.501062  1
  Tc  Tc18  1  0.500138  0.248197  0.665642  1
  Tc  Tc19  1  0.500138  0.751803  0.665642  1
  Tc  Tc20  1  0.000123  0.251391  0.831502  1
  Tc  Tc21  1  0.000123  0.748609  0.831502  1
  Mo  Mo22  1  0.999991  0.000000  0.997656  1
  Mo  Mo23  1  0.499854  0.500000  0.169045  1
