# generated using pymatgen
data_YbNp5O12
_symmetry_space_group_name_H-M   'P 1'
_cell_length_a   6.56621148
_cell_length_b   6.56621228
_cell_length_c   6.54865978
_cell_angle_alpha   80.38034345
_cell_angle_beta   80.38034617
_cell_angle_gamma   120.00492217
_symmetry_Int_Tables_number   1
_chemical_formula_structural   YbNp5O12
_chemical_formula_sum   'Yb1 Np5 O12'
_cell_volume   230.44501659
_cell_formula_units_Z   1
loop_
 _symmetry_equiv_pos_site_id
 _symmetry_equiv_pos_as_xyz
  1  'x, y, z'
loop_
 _atom_site_type_symbol
 _atom_site_label
 _atom_site_symmetry_multiplicity
 _atom_site_fract_x
 _atom_site_fract_y
 _atom_site_fract_z
 _atom_site_occupancy
  Yb  Yb0  1  0.500000  0.500000  0.500000  1
  Np  Np1  1  0.833111  0.166889  0.500000  1
  Np  Np2  1  0.166889  0.833111  0.500000  1
  Np  Np3  1  0.664400  0.335600  0.000000  1
  Np  Np4  1  0.000000  0.000000  0.000000  1
  Np  Np5  1  0.335600  0.664400  0.000000  1
  O  O6  1  0.110208  0.110208  0.633846  1
  O  O7  1  0.706846  0.042628  0.879428  1
  O  O8  1  0.957372  0.293154  0.120572  1
  O  O9  1  0.367891  0.367891  0.888528  1
  O  O10  1  0.042628  0.706846  0.879428  1
  O  O11  1  0.542752  0.199966  0.366919  1
  O  O12  1  0.889792  0.889792  0.366154  1
  O  O13  1  0.457248  0.800034  0.633081  1
  O  O14  1  0.632109  0.632109  0.111472  1
  O  O15  1  0.293154  0.957372  0.120572  1
  O  O16  1  0.800034  0.457248  0.633081  1
  O  O17  1  0.199966  0.542752  0.366919  1
