# generated using pymatgen
data_La8Zn8Pd3Rh5
_symmetry_space_group_name_H-M   'P 1'
_cell_length_a   4.07732300
_cell_length_b   7.55971210
_cell_length_c   16.77179637
_cell_angle_alpha   89.77105236
_cell_angle_beta   90.00000000
_cell_angle_gamma   90.00000000
_symmetry_Int_Tables_number   1
_chemical_formula_structural   La8Zn8Pd3Rh5
_chemical_formula_sum   'La8 Zn8 Pd3 Rh5'
_cell_volume   516.95946007
_cell_formula_units_Z   1
loop_
 _symmetry_equiv_pos_site_id
 _symmetry_equiv_pos_as_xyz
  1  'x, y, z'
loop_
 _atom_site_type_symbol
 _atom_site_label
 _atom_site_symmetry_multiplicity
 _atom_site_fract_x
 _atom_site_fract_y
 _atom_site_fract_z
 _atom_site_occupancy
  La  La0  1  0.750000  0.328435  0.445306  1
  La  La1  1  0.250000  0.043958  0.713429  1
  La  La2  1  0.250000  0.554441  0.778876  1
  La  La3  1  0.250000  0.674744  0.558382  1
  La  La4  1  0.750000  0.827120  0.064203  1
  La  La5  1  0.250000  0.175168  0.945953  1
  La  La6  1  0.750000  0.455183  0.213794  1
  La  La7  1  0.750000  0.943346  0.283738  1
  Zn  Zn8  1  0.250000  0.125433  0.148830  1
  Zn  Zn9  1  0.250000  0.997202  0.440676  1
  Zn  Zn10  1  0.750000  0.873243  0.848309  1
  Zn  Zn11  1  0.750000  0.000564  0.559308  1
  Zn  Zn12  1  0.250000  0.497926  0.061162  1
  Zn  Zn13  1  0.750000  0.373684  0.648115  1
  Zn  Zn14  1  0.750000  0.501038  0.940682  1
  Zn  Zn15  1  0.250000  0.629330  0.350723  1
  Pd  Pd16  1  0.750000  0.253609  0.814038  1
  Pd  Pd17  1  0.250000  0.246262  0.313892  1
  Pd  Pd18  1  0.250000  0.740329  0.934028  1
  Rh  Rh19  1  0.250000  0.240591  0.565591  1
  Rh  Rh20  1  0.250000  0.748326  0.184898  1
  Rh  Rh21  1  0.750000  0.759003  0.434298  1
  Rh  Rh22  1  0.750000  0.259849  0.065078  1
  Rh  Rh23  1  0.750000  0.751217  0.686690  1
