# generated using pymatgen
data_Nd10CuSnBi5As
_symmetry_space_group_name_H-M   'P 1'
_cell_length_a   9.63303953
_cell_length_b   9.63303987
_cell_length_c   6.62628542
_cell_angle_alpha   89.96234130
_cell_angle_beta   89.96234814
_cell_angle_gamma   119.86171644
_symmetry_Int_Tables_number   1
_chemical_formula_structural   Nd10CuSnBi5As
_chemical_formula_sum   'Nd10 Cu1 Sn1 Bi5 As1'
_cell_volume   533.24964409
_cell_formula_units_Z   1
loop_
 _symmetry_equiv_pos_site_id
 _symmetry_equiv_pos_as_xyz
  1  'x, y, z'
loop_
 _atom_site_type_symbol
 _atom_site_label
 _atom_site_symmetry_multiplicity
 _atom_site_fract_x
 _atom_site_fract_y
 _atom_site_fract_z
 _atom_site_occupancy
  Nd  Nd0  1  0.664273  0.333993  0.998408  1
  Nd  Nd1  1  0.333993  0.664273  0.998408  1
  Nd  Nd2  1  0.333169  0.664632  0.501516  1
  Nd  Nd3  1  0.664632  0.333169  0.501516  1
  Nd  Nd4  1  0.744877  0.744877  0.750594  1
  Nd  Nd5  1  0.254931  0.004075  0.750832  1
  Nd  Nd6  1  0.004075  0.254931  0.750832  1
  Nd  Nd7  1  0.253820  0.253820  0.249324  1
  Nd  Nd8  1  0.747040  0.000043  0.249102  1
  Nd  Nd9  1  0.000043  0.747040  0.249102  1
  Cu  Cu10  1  0.000348  0.000348  0.500462  1
  Sn  Sn11  1  0.388464  0.388464  0.748098  1
  Bi  Bi12  1  0.612635  0.000085  0.748159  1
  Bi  Bi13  1  0.000085  0.612635  0.748159  1
  Bi  Bi14  1  0.611091  0.611091  0.252325  1
  Bi  Bi15  1  0.387654  0.999529  0.251626  1
  Bi  Bi16  1  0.999529  0.387654  0.251626  1
  As  As17  1  0.999341  0.999341  0.999913  1
