# generated using pymatgen
data_HoEr6Tm13Pb16
_symmetry_space_group_name_H-M   'P 1'
_cell_length_a   8.14104833
_cell_length_b   8.20448045
_cell_length_c   15.47924422
_cell_angle_alpha   89.99883852
_cell_angle_beta   90.04166869
_cell_angle_gamma   89.97503666
_symmetry_Int_Tables_number   1
_chemical_formula_structural   HoEr6Tm13Pb16
_chemical_formula_sum   'Ho1 Er6 Tm13 Pb16'
_cell_volume   1033.90590061
_cell_formula_units_Z   1
loop_
 _symmetry_equiv_pos_site_id
 _symmetry_equiv_pos_as_xyz
  1  'x, y, z'
loop_
 _atom_site_type_symbol
 _atom_site_label
 _atom_site_symmetry_multiplicity
 _atom_site_fract_x
 _atom_site_fract_y
 _atom_site_fract_z
 _atom_site_occupancy
  Ho  Ho0  1  0.036309  0.176562  0.599828  1
  Er  Er1  1  0.463620  0.676507  0.400210  1
  Er  Er2  1  0.963455  0.823629  0.099783  1
  Er  Er3  1  0.463489  0.676371  0.099727  1
  Er  Er4  1  0.963595  0.823494  0.400209  1
  Er  Er5  1  0.536380  0.323592  0.599776  1
  Er  Er6  1  0.036507  0.176499  0.900172  1
  Tm  Tm7  1  0.377415  0.841185  0.878822  1
  Tm  Tm8  1  0.877303  0.658802  0.621206  1
  Tm  Tm9  1  0.622693  0.158779  0.378815  1
  Tm  Tm10  1  0.122467  0.341107  0.121174  1
  Tm  Tm11  1  0.622494  0.158900  0.121094  1
  Tm  Tm12  1  0.122681  0.341214  0.378747  1
  Tm  Tm13  1  0.377392  0.841168  0.621223  1
  Tm  Tm14  1  0.877393  0.658785  0.878834  1
  Tm  Tm15  1  0.536739  0.323672  0.900117  1
  Tm  Tm16  1  0.208778  0.504296  0.750115  1
  Tm  Tm17  1  0.708504  0.995599  0.750113  1
  Tm  Tm18  1  0.791341  0.495639  0.249957  1
  Tm  Tm19  1  0.291385  0.004352  0.249969  1
  Pb  Pb20  1  0.281143  0.033143  0.042510  1
  Pb  Pb21  1  0.781222  0.466786  0.457511  1
  Pb  Pb22  1  0.718695  0.966694  0.542452  1
  Pb  Pb23  1  0.219261  0.532821  0.957492  1
  Pb  Pb24  1  0.718636  0.967056  0.957530  1
  Pb  Pb25  1  0.218797  0.533303  0.542453  1
  Pb  Pb26  1  0.281271  0.033176  0.457478  1
  Pb  Pb27  1  0.780995  0.466584  0.042289  1
  Pb  Pb28  1  0.571600  0.627213  0.750006  1
  Pb  Pb29  1  0.071630  0.872648  0.750015  1
  Pb  Pb30  1  0.428360  0.372700  0.249983  1
  Pb  Pb31  1  0.928361  0.127363  0.249997  1
  Pb  Pb32  1  0.348334  0.154089  0.750247  1
  Pb  Pb33  1  0.847752  0.346327  0.750163  1
  Pb  Pb34  1  0.652026  0.846135  0.249987  1
  Pb  Pb35  1  0.151971  0.653814  0.249994  1
