# generated using pymatgen
data_Li3Sc5Re11Si16Ru
_symmetry_space_group_name_H-M   'P 1'
_cell_length_a   6.65391752
_cell_length_b   6.65272250
_cell_length_c   12.08703149
_cell_angle_alpha   89.88934344
_cell_angle_beta   90.13899312
_cell_angle_gamma   90.02525848
_symmetry_Int_Tables_number   1
_chemical_formula_structural   Li3Sc5Re11Si16Ru
_chemical_formula_sum   'Li3 Sc5 Re11 Si16 Ru1'
_cell_volume   535.04997256
_cell_formula_units_Z   1
loop_
 _symmetry_equiv_pos_site_id
 _symmetry_equiv_pos_as_xyz
  1  'x, y, z'
loop_
 _atom_site_type_symbol
 _atom_site_label
 _atom_site_symmetry_multiplicity
 _atom_site_fract_x
 _atom_site_fract_y
 _atom_site_fract_z
 _atom_site_occupancy
  Li  Li0  1  0.990648  0.664084  0.018971  1
  Li  Li1  1  0.009499  0.333822  0.517704  1
  Li  Li2  1  0.332613  0.009738  0.481773  1
  Sc  Sc3  1  0.158703  0.496102  0.779060  1
  Sc  Sc4  1  0.841156  0.499287  0.281432  1
  Sc  Sc5  1  0.497020  0.159100  0.220091  1
  Sc  Sc6  1  0.499806  0.839372  0.720476  1
  Sc  Sc7  1  0.658704  0.998274  0.971668  1
  Re  Re8  1  0.173593  0.832428  0.251321  1
  Re  Re9  1  0.331075  0.321520  0.001191  1
  Re  Re10  1  0.017896  0.834063  0.627769  1
  Re  Re11  1  0.978576  0.165838  0.130627  1
  Re  Re12  1  0.836109  0.016389  0.372404  1
  Re  Re13  1  0.339586  0.484211  0.372599  1
  Re  Re14  1  0.664935  0.519382  0.875281  1
  Re  Re15  1  0.483679  0.338676  0.625157  1
  Re  Re16  1  0.518192  0.665340  0.128214  1
  Re  Re17  1  0.171885  0.979772  0.869893  1
  Re  Re18  1  0.830672  0.170307  0.752398  1
  Si  Si19  1  0.036741  0.707365  0.436297  1
  Si  Si20  1  0.633192  0.304238  0.436966  1
  Si  Si21  1  0.362074  0.687886  0.938086  1
  Si  Si22  1  0.191305  0.135902  0.677932  1
  Si  Si23  1  0.306840  0.633689  0.561950  1
  Si  Si24  1  0.697945  0.374658  0.066521  1
  Si  Si25  1  0.808335  0.862434  0.183305  1
  Si  Si26  1  0.136981  0.193990  0.321204  1
  Si  Si27  1  0.967269  0.293968  0.936289  1
  Si  Si28  1  0.708312  0.036189  0.564790  1
  Si  Si29  1  0.199110  0.473980  0.177273  1
  Si  Si30  1  0.799396  0.525058  0.675844  1
  Si  Si31  1  0.465616  0.209423  0.816647  1
  Si  Si32  1  0.527691  0.802239  0.325824  1
  Si  Si33  1  0.279530  0.957884  0.067193  1
  Si  Si34  1  0.872141  0.800706  0.815497  1
  Ru  Ru35  1  0.673177  0.672686  0.500351  1
