# generated using pymatgen
data_Tb13Dy3InHg3Rh4
_symmetry_space_group_name_H-M   'P 1'
_cell_length_a   9.63610904
_cell_length_b   9.63527090
_cell_length_c   9.63557360
_cell_angle_alpha   59.99507372
_cell_angle_beta   59.99978022
_cell_angle_gamma   60.01387434
_symmetry_Int_Tables_number   1
_chemical_formula_structural   Tb13Dy3InHg3Rh4
_chemical_formula_sum   'Tb13 Dy3 In1 Hg3 Rh4'
_cell_volume   632.64026825
_cell_formula_units_Z   1
loop_
 _symmetry_equiv_pos_site_id
 _symmetry_equiv_pos_as_xyz
  1  'x, y, z'
loop_
 _atom_site_type_symbol
 _atom_site_label
 _atom_site_symmetry_multiplicity
 _atom_site_fract_x
 _atom_site_fract_y
 _atom_site_fract_z
 _atom_site_occupancy
  Tb  Tb0  1  0.689537  0.310634  0.310940  1
  Tb  Tb1  1  0.689951  0.690060  0.310853  1
  Tb  Tb2  1  0.310710  0.689589  0.311002  1
  Tb  Tb3  1  0.936102  0.936174  0.561249  1
  Tb  Tb4  1  0.148165  0.148068  0.552780  1
  Tb  Tb5  1  0.562450  0.937121  0.562571  1
  Tb  Tb6  1  0.149735  0.149575  0.149495  1
  Tb  Tb7  1  0.310971  0.310952  0.689545  1
  Tb  Tb8  1  0.937050  0.562509  0.562679  1
  Tb  Tb9  1  0.562559  0.562505  0.936992  1
  Tb  Tb10  1  0.561065  0.936315  0.936071  1
  Tb  Tb11  1  0.936202  0.561153  0.936027  1
  Tb  Tb12  1  0.148379  0.552648  0.147943  1
  Dy  Dy13  1  0.310739  0.689811  0.690013  1
  Dy  Dy14  1  0.689888  0.310611  0.690194  1
  Dy  Dy15  1  0.552453  0.148386  0.148041  1
  In  In16  1  0.919326  0.919971  0.919711  1
  Hg  Hg17  1  0.914840  0.915087  0.255455  1
  Hg  Hg18  1  0.255523  0.914944  0.914965  1
  Hg  Hg19  1  0.914774  0.255507  0.915047  1
  Rh  Rh20  1  0.357613  0.357013  0.356961  1
  Rh  Rh21  1  0.927171  0.356921  0.357291  1
  Rh  Rh22  1  0.357581  0.357000  0.927169  1
  Rh  Rh23  1  0.357216  0.927446  0.357005  1
