# generated using pymatgen
data_Dy3B4Ru10W3
_symmetry_space_group_name_H-M   'P 1'
_cell_length_a   9.60897040
_cell_length_b   9.60897032
_cell_length_c   3.05764500
_cell_angle_alpha   90.00000000
_cell_angle_beta   90.00000000
_cell_angle_gamma   89.69780186
_symmetry_Int_Tables_number   1
_chemical_formula_structural   Dy3B4Ru10W3
_chemical_formula_sum   'Dy3 B4 Ru10 W3'
_cell_volume   282.31550320
_cell_formula_units_Z   1
loop_
 _symmetry_equiv_pos_site_id
 _symmetry_equiv_pos_as_xyz
  1  'x, y, z'
loop_
 _atom_site_type_symbol
 _atom_site_label
 _atom_site_symmetry_multiplicity
 _atom_site_fract_x
 _atom_site_fract_y
 _atom_site_fract_z
 _atom_site_occupancy
  Dy  Dy0  1  0.175005  0.824995  0.000000  1
  Dy  Dy1  1  0.324324  0.323220  0.000000  1
  Dy  Dy2  1  0.676780  0.675676  0.000000  1
  B  B3  1  0.624193  0.375807  0.000000  1
  B  B4  1  0.382857  0.617143  0.000000  1
  B  B5  1  0.117491  0.122482  0.000000  1
  B  B6  1  0.877518  0.882509  0.000000  1
  Ru  Ru7  1  0.504646  0.495354  0.500000  1
  Ru  Ru8  1  0.988630  0.011370  0.500000  1
  Ru  Ru9  1  0.584123  0.210417  0.500000  1
  Ru  Ru10  1  0.432820  0.782327  0.500000  1
  Ru  Ru11  1  0.055837  0.281906  0.500000  1
  Ru  Ru12  1  0.930222  0.720769  0.500000  1
  Ru  Ru13  1  0.279231  0.069778  0.500000  1
  Ru  Ru14  1  0.718094  0.944163  0.500000  1
  Ru  Ru15  1  0.217673  0.567180  0.500000  1
  Ru  Ru16  1  0.789583  0.415877  0.500000  1
  W  W17  1  0.495573  0.997245  0.000000  1
  W  W18  1  0.002755  0.504427  0.000000  1
  W  W19  1  0.822645  0.177355  0.000000  1
