# generated using pymatgen
data_TbHoSc3Ga4
_symmetry_space_group_name_H-M   'P 1'
_cell_length_a   7.27821108
_cell_length_b   7.57515706
_cell_length_c   14.46319205
_cell_angle_alpha   89.99975558
_cell_angle_beta   90.00962316
_cell_angle_gamma   90.01412585
_symmetry_Int_Tables_number   1
_chemical_formula_structural   TbHoSc3Ga4
_chemical_formula_sum   'Tb4 Ho4 Sc12 Ga16'
_cell_volume   797.40769460
_cell_formula_units_Z   4
loop_
 _symmetry_equiv_pos_site_id
 _symmetry_equiv_pos_as_xyz
  1  'x, y, z'
loop_
 _atom_site_type_symbol
 _atom_site_label
 _atom_site_symmetry_multiplicity
 _atom_site_fract_x
 _atom_site_fract_y
 _atom_site_fract_z
 _atom_site_occupancy
  Tb  Tb0  1  0.011036  0.180194  0.094399  1
  Tb  Tb1  1  0.988963  0.819933  0.905594  1
  Tb  Tb2  1  0.488921  0.680027  0.905728  1
  Tb  Tb3  1  0.988965  0.819945  0.594330  1
  Ho  Ho4  1  0.511072  0.319623  0.094488  1
  Ho  Ho5  1  0.011038  0.180421  0.405465  1
  Ho  Ho6  1  0.511074  0.319618  0.405586  1
  Ho  Ho7  1  0.488900  0.680231  0.594374  1
  Sc  Sc8  1  0.162315  0.502909  0.749934  1
  Sc  Sc9  1  0.837660  0.496847  0.250067  1
  Sc  Sc10  1  0.337915  0.003147  0.250064  1
  Sc  Sc11  1  0.662046  0.997142  0.749938  1
  Sc  Sc12  1  0.329757  0.172298  0.624563  1
  Sc  Sc13  1  0.670329  0.827798  0.375363  1
  Sc  Sc14  1  0.170487  0.672217  0.375341  1
  Sc  Sc15  1  0.670264  0.827739  0.124736  1
  Sc  Sc16  1  0.829572  0.327752  0.624557  1
  Sc  Sc17  1  0.329796  0.172282  0.875378  1
  Sc  Sc18  1  0.829640  0.327702  0.875352  1
  Sc  Sc19  1  0.170459  0.672203  0.124736  1
  Ga  Ga20  1  0.030246  0.116561  0.749996  1
  Ga  Ga21  1  0.969754  0.883594  0.250065  1
  Ga  Ga22  1  0.469773  0.616273  0.250014  1
  Ga  Ga23  1  0.530227  0.383551  0.749942  1
  Ga  Ga24  1  0.283381  0.871087  0.749879  1
  Ga  Ga25  1  0.716634  0.129146  0.250116  1
  Ga  Ga26  1  0.216995  0.370980  0.250123  1
  Ga  Ga27  1  0.783021  0.628784  0.749886  1
  Ga  Ga28  1  0.162442  0.464810  0.540490  1
  Ga  Ga29  1  0.837601  0.534674  0.459369  1
  Ga  Ga30  1  0.337863  0.965127  0.459417  1
  Ga  Ga31  1  0.837631  0.534961  0.040601  1
  Ga  Ga32  1  0.661971  0.035077  0.540469  1
  Ga  Ga33  1  0.162202  0.464821  0.959510  1
  Ga  Ga34  1  0.661940  0.035377  0.959555  1
  Ga  Ga35  1  0.338107  0.965150  0.040579  1
