# generated using pymatgen
data_Ca5Yb(LuBi3)2
_symmetry_space_group_name_H-M   'P 1'
_cell_length_a   8.13134151
_cell_length_b   8.34379850
_cell_length_c   8.34511538
_cell_angle_alpha   109.98312950
_cell_angle_beta   108.95717517
_cell_angle_gamma   108.94831610
_symmetry_Int_Tables_number   1
_chemical_formula_structural   Ca5Yb(LuBi3)2
_chemical_formula_sum   'Ca5 Yb1 Lu2 Bi6'
_cell_volume   438.61521307
_cell_formula_units_Z   1
loop_
 _symmetry_equiv_pos_site_id
 _symmetry_equiv_pos_as_xyz
  1  'x, y, z'
loop_
 _atom_site_type_symbol
 _atom_site_label
 _atom_site_symmetry_multiplicity
 _atom_site_fract_x
 _atom_site_fract_y
 _atom_site_fract_z
 _atom_site_occupancy
  Ca  Ca0  1  0.501061  0.000097  0.646856  1
  Ca  Ca1  1  0.354064  0.353143  0.353344  1
  Ca  Ca2  1  0.501278  0.000119  0.146985  1
  Ca  Ca3  1  0.000972  0.646746  0.500014  1
  Ca  Ca4  1  0.854044  0.853115  0.853159  1
  Yb  Yb5  1  0.000968  0.146778  0.499840  1
  Lu  Lu6  1  0.142588  0.499828  0.999774  1
  Lu  Lu7  1  0.642740  0.500001  0.999954  1
  Bi  Bi8  1  0.376958  0.621134  0.758961  1
  Bi  Bi9  1  0.877375  0.259148  0.121777  1
  Bi  Bi10  1  0.618422  0.741270  0.362462  1
  Bi  Bi11  1  0.118009  0.862559  0.241068  1
  Bi  Bi12  1  0.255600  0.137674  0.878235  1
  Bi  Bi13  1  0.755921  0.378389  0.637572  1
