# generated using pymatgen
data_Dy16Al4RuRh3
_symmetry_space_group_name_H-M   'P 1'
_cell_length_a   9.54467860
_cell_length_b   9.54467938
_cell_length_c   9.54467973
_cell_angle_alpha   59.87569212
_cell_angle_beta   59.87569050
_cell_angle_gamma   59.87569327
_symmetry_Int_Tables_number   1
_chemical_formula_structural   Dy16Al4RuRh3
_chemical_formula_sum   'Dy16 Al4 Ru1 Rh3'
_cell_volume   613.11554393
_cell_formula_units_Z   1
loop_
 _symmetry_equiv_pos_site_id
 _symmetry_equiv_pos_as_xyz
  1  'x, y, z'
loop_
 _atom_site_type_symbol
 _atom_site_label
 _atom_site_symmetry_multiplicity
 _atom_site_fract_x
 _atom_site_fract_y
 _atom_site_fract_z
 _atom_site_occupancy
  Dy  Dy0  1  0.691233  0.307932  0.307932  1
  Dy  Dy1  1  0.693056  0.693056  0.309920  1
  Dy  Dy2  1  0.307932  0.691233  0.307932  1
  Dy  Dy3  1  0.935544  0.935544  0.564825  1
  Dy  Dy4  1  0.147386  0.147386  0.555315  1
  Dy  Dy5  1  0.561789  0.939752  0.561789  1
  Dy  Dy6  1  0.149270  0.149270  0.149270  1
  Dy  Dy7  1  0.307932  0.307932  0.691233  1
  Dy  Dy8  1  0.939752  0.561789  0.561789  1
  Dy  Dy9  1  0.561789  0.561789  0.939752  1
  Dy  Dy10  1  0.564825  0.935544  0.935544  1
  Dy  Dy11  1  0.935544  0.564825  0.935544  1
  Dy  Dy12  1  0.147386  0.555315  0.147386  1
  Dy  Dy13  1  0.309920  0.693056  0.693056  1
  Dy  Dy14  1  0.693056  0.309920  0.693056  1
  Dy  Dy15  1  0.555315  0.147386  0.147386  1
  Al  Al16  1  0.923657  0.923657  0.231000  1
  Al  Al17  1  0.231000  0.923657  0.923657  1
  Al  Al18  1  0.923657  0.231000  0.923657  1
  Al  Al19  1  0.922879  0.922879  0.922879  1
  Ru  Ru20  1  0.356953  0.356953  0.356953  1
  Rh  Rh21  1  0.924999  0.357563  0.357563  1
  Rh  Rh22  1  0.357563  0.357563  0.924999  1
  Rh  Rh23  1  0.357563  0.924999  0.357563  1
