# generated using pymatgen
data_Hf5ZrSn6Ir5Au
_symmetry_space_group_name_H-M   'P 1'
_cell_length_a   7.32239542
_cell_length_b   7.34409556
_cell_length_c   7.53362603
_cell_angle_alpha   90.00014691
_cell_angle_beta   89.92688041
_cell_angle_gamma   119.84473143
_symmetry_Int_Tables_number   1
_chemical_formula_structural   Hf5ZrSn6Ir5Au
_chemical_formula_sum   'Hf5 Zr1 Sn6 Ir5 Au1'
_cell_volume   351.40107494
_cell_formula_units_Z   1
loop_
 _symmetry_equiv_pos_site_id
 _symmetry_equiv_pos_as_xyz
  1  'x, y, z'
loop_
 _atom_site_type_symbol
 _atom_site_label
 _atom_site_symmetry_multiplicity
 _atom_site_fract_x
 _atom_site_fract_y
 _atom_site_fract_z
 _atom_site_occupancy
  Hf  Hf0  1  0.399044  0.011919  0.241946  1
  Hf  Hf1  1  0.586324  0.622934  0.756467  1
  Hf  Hf2  1  0.613304  0.600802  0.241400  1
  Hf  Hf3  1  0.987550  0.386540  0.241397  1
  Hf  Hf4  1  0.035984  0.412818  0.756577  1
  Zr  Zr5  1  0.377180  0.963584  0.755307  1
  Sn  Sn6  1  0.265554  0.266626  0.495424  1
  Sn  Sn7  1  0.269791  0.264986  0.997159  1
  Sn  Sn8  1  0.733866  0.004513  0.997944  1
  Sn  Sn9  1  0.002050  0.734822  0.495289  1
  Sn  Sn10  1  0.732009  0.998297  0.494757  1
  Sn  Sn11  1  0.996274  0.730786  0.997151  1
  Ir  Ir12  1  0.668771  0.335793  0.973057  1
  Ir  Ir13  1  0.333346  0.665204  0.044246  1
  Ir  Ir14  1  0.333201  0.664700  0.464076  1
  Ir  Ir15  1  0.997227  0.999894  0.746693  1
  Ir  Ir16  1  0.999834  0.999961  0.245500  1
  Au  Au17  1  0.668694  0.335819  0.555614  1
