# generated using pymatgen
data_CePrY2(ReB6)2
_symmetry_space_group_name_H-M   'P 1'
_cell_length_a   3.73412900
_cell_length_b   9.25807293
_cell_length_c   11.67563667
_cell_angle_alpha   89.76055223
_cell_angle_beta   90.00000000
_cell_angle_gamma   90.00000000
_symmetry_Int_Tables_number   1
_chemical_formula_structural   CePrY2(ReB6)2
_chemical_formula_sum   'Ce2 Pr2 Y4 Re4 B24'
_cell_volume   403.63302651
_cell_formula_units_Z   2
loop_
 _symmetry_equiv_pos_site_id
 _symmetry_equiv_pos_as_xyz
  1  'x, y, z'
loop_
 _atom_site_type_symbol
 _atom_site_label
 _atom_site_symmetry_multiplicity
 _atom_site_fract_x
 _atom_site_fract_y
 _atom_site_fract_z
 _atom_site_occupancy
  Ce  Ce0  1  0.000000  0.822663  0.085619  1
  Ce  Ce1  1  0.000000  0.177337  0.914381  1
  Pr  Pr2  1  0.000000  0.323304  0.414056  1
  Pr  Pr3  1  0.000000  0.676696  0.585944  1
  Y  Y4  1  0.000000  0.443301  0.128298  1
  Y  Y5  1  0.000000  0.556699  0.871702  1
  Y  Y6  1  0.000000  0.942811  0.369696  1
  Y  Y7  1  0.000000  0.057189  0.630304  1
  Re  Re8  1  0.000000  0.136476  0.176427  1
  Re  Re9  1  0.000000  0.863524  0.823573  1
  Re  Re10  1  0.000000  0.640922  0.316829  1
  Re  Re11  1  0.000000  0.359078  0.683171  1
  B  B12  1  0.500000  0.053992  0.067921  1
  B  B13  1  0.500000  0.946008  0.932080  1
  B  B14  1  0.500000  0.555549  0.429651  1
  B  B15  1  0.500000  0.444451  0.570348  1
  B  B16  1  0.500000  0.247945  0.081657  1
  B  B17  1  0.500000  0.752055  0.918343  1
  B  B18  1  0.500000  0.749023  0.415023  1
  B  B19  1  0.500000  0.250977  0.584977  1
  B  B20  1  0.500000  0.289620  0.231931  1
  B  B21  1  0.500000  0.710380  0.768069  1
  B  B22  1  0.500000  0.791359  0.264141  1
  B  B23  1  0.500000  0.208641  0.735859  1
  B  B24  1  0.500000  0.129051  0.311919  1
  B  B25  1  0.500000  0.870949  0.688081  1
  B  B26  1  0.500000  0.631996  0.184857  1
  B  B27  1  0.500000  0.368004  0.815143  1
  B  B28  1  0.500000  0.485377  0.285759  1
  B  B29  1  0.500000  0.514623  0.714241  1
  B  B30  1  0.500000  0.983166  0.211389  1
  B  B31  1  0.500000  0.016834  0.788611  1
  B  B32  1  0.500000  0.096923  0.472740  1
  B  B33  1  0.500000  0.903077  0.527260  1
  B  B34  1  0.500000  0.605140  0.028901  1
  B  B35  1  0.500000  0.394860  0.971099  1
