# generated using pymatgen
data_Tb9Y7(ZnCo)4
_symmetry_space_group_name_H-M   'P 1'
_cell_length_a   9.38924213
_cell_length_b   9.38853355
_cell_length_c   9.37972302
_cell_angle_alpha   60.02974537
_cell_angle_beta   60.03220391
_cell_angle_gamma   60.17941731
_symmetry_Int_Tables_number   1
_chemical_formula_structural   Tb9Y7(ZnCo)4
_chemical_formula_sum   'Tb9 Y7 Zn4 Co4'
_cell_volume   585.72324723
_cell_formula_units_Z   1
loop_
 _symmetry_equiv_pos_site_id
 _symmetry_equiv_pos_as_xyz
  1  'x, y, z'
loop_
 _atom_site_type_symbol
 _atom_site_label
 _atom_site_symmetry_multiplicity
 _atom_site_fract_x
 _atom_site_fract_y
 _atom_site_fract_z
 _atom_site_occupancy
  Tb  Tb0  1  0.599498  0.599508  0.599011  1
  Tb  Tb1  1  0.599494  0.599503  0.201991  1
  Tb  Tb2  1  0.600928  0.199958  0.599552  1
  Tb  Tb3  1  0.199799  0.600956  0.599619  1
  Tb  Tb4  1  0.058114  0.440296  0.441740  1
  Tb  Tb5  1  0.440266  0.058067  0.059907  1
  Tb  Tb6  1  0.440265  0.058066  0.441762  1
  Tb  Tb7  1  0.058117  0.440297  0.059850  1
  Tb  Tb8  1  0.441031  0.441089  0.058939  1
  Y  Y9  1  0.058715  0.058590  0.441351  1
  Y  Y10  1  0.188945  0.811532  0.812212  1
  Y  Y11  1  0.811557  0.188830  0.187245  1
  Y  Y12  1  0.811542  0.188837  0.812369  1
  Y  Y13  1  0.188940  0.811540  0.187308  1
  Y  Y14  1  0.811983  0.812134  0.187942  1
  Y  Y15  1  0.188507  0.188442  0.811531  1
  Zn  Zn16  1  0.826944  0.827003  0.826728  1
  Zn  Zn17  1  0.826947  0.827004  0.519325  1
  Zn  Zn18  1  0.827165  0.517923  0.827458  1
  Zn  Zn19  1  0.518011  0.827181  0.827407  1
  Co  Co20  1  0.391941  0.391949  0.390232  1
  Co  Co21  1  0.391939  0.391945  0.825877  1
  Co  Co22  1  0.394177  0.825168  0.390324  1
  Co  Co23  1  0.825174  0.394186  0.390319  1
