# generated using pymatgen
data_Hf9Th8Ta3Si16
_symmetry_space_group_name_H-M   'P 1'
_cell_length_a   7.33990445
_cell_length_b   7.33990445
_cell_length_c   13.56403453
_cell_angle_alpha   90.07916568
_cell_angle_beta   89.92083432
_cell_angle_gamma   89.92190406
_symmetry_Int_Tables_number   1
_chemical_formula_structural   Hf9Th8Ta3Si16
_chemical_formula_sum   'Hf9 Th8 Ta3 Si16'
_cell_volume   730.74939605
_cell_formula_units_Z   1
loop_
 _symmetry_equiv_pos_site_id
 _symmetry_equiv_pos_as_xyz
  1  'x, y, z'
loop_
 _atom_site_type_symbol
 _atom_site_label
 _atom_site_symmetry_multiplicity
 _atom_site_fract_x
 _atom_site_fract_y
 _atom_site_fract_z
 _atom_site_occupancy
  Hf  Hf0  1  0.170968  0.170968  0.000000  1
  Hf  Hf1  1  0.156378  0.994541  0.374656  1
  Hf  Hf2  1  0.841891  0.005002  0.872453  1
  Hf  Hf3  1  0.505638  0.656152  0.623770  1
  Hf  Hf4  1  0.344298  0.496049  0.874127  1
  Hf  Hf5  1  0.496049  0.344298  0.125873  1
  Hf  Hf6  1  0.656152  0.505638  0.376230  1
  Hf  Hf7  1  0.994541  0.156378  0.625344  1
  Hf  Hf8  1  0.005002  0.841891  0.127547  1
  Th  Th9  1  0.998597  0.340285  0.217624  1
  Th  Th10  1  0.999799  0.660450  0.716433  1
  Th  Th11  1  0.160360  0.500026  0.466971  1
  Th  Th12  1  0.501694  0.838868  0.032913  1
  Th  Th13  1  0.838868  0.501694  0.967087  1
  Th  Th14  1  0.500026  0.160360  0.533029  1
  Th  Th15  1  0.340285  0.998597  0.782376  1
  Th  Th16  1  0.660450  0.999799  0.283567  1
  Ta  Ta17  1  0.829157  0.829157  0.500000  1
  Ta  Ta18  1  0.329695  0.671222  0.250773  1
  Ta  Ta19  1  0.671222  0.329695  0.749227  1
  Si  Si20  1  0.293530  0.039963  0.185225  1
  Si  Si21  1  0.707619  0.958017  0.683791  1
  Si  Si22  1  0.457800  0.792779  0.434463  1
  Si  Si23  1  0.207821  0.543876  0.066398  1
  Si  Si24  1  0.543876  0.207821  0.933602  1
  Si  Si25  1  0.792779  0.457800  0.565537  1
  Si  Si26  1  0.039963  0.293530  0.814775  1
  Si  Si27  1  0.958017  0.707619  0.316209  1
  Si  Si28  1  0.369896  0.300619  0.316083  1
  Si  Si29  1  0.630209  0.699687  0.815754  1
  Si  Si30  1  0.199568  0.870150  0.565445  1
  Si  Si31  1  0.129768  0.797628  0.934457  1
  Si  Si32  1  0.797628  0.129768  0.065543  1
  Si  Si33  1  0.870150  0.199568  0.434555  1
  Si  Si34  1  0.300619  0.369896  0.683917  1
  Si  Si35  1  0.699687  0.630209  0.184246  1
