# generated using pymatgen
data_Er10In8Pd2PtRh
_symmetry_space_group_name_H-M   'P 1'
_cell_length_a   3.61102200
_cell_length_b   8.08148936
_cell_length_c   18.14054573
_cell_angle_alpha   90.00703952
_cell_angle_beta   90.00000000
_cell_angle_gamma   90.00000000
_symmetry_Int_Tables_number   1
_chemical_formula_structural   Er10In8Pd2PtRh
_chemical_formula_sum   'Er10 In8 Pd2 Pt1 Rh1'
_cell_volume   529.38530828
_cell_formula_units_Z   1
loop_
 _symmetry_equiv_pos_site_id
 _symmetry_equiv_pos_as_xyz
  1  'x, y, z'
loop_
 _atom_site_type_symbol
 _atom_site_label
 _atom_site_symmetry_multiplicity
 _atom_site_fract_x
 _atom_site_fract_y
 _atom_site_fract_z
 _atom_site_occupancy
  Er  Er0  1  0.000000  0.117821  0.415563  1
  Er  Er1  1  0.000000  0.881973  0.584864  1
  Er  Er2  1  0.000000  0.384024  0.912940  1
  Er  Er3  1  0.000000  0.617698  0.085157  1
  Er  Er4  1  0.000000  0.247464  0.220112  1
  Er  Er5  1  0.000000  0.746776  0.780333  1
  Er  Er6  1  0.000000  0.264699  0.721453  1
  Er  Er7  1  0.000000  0.738774  0.279220  1
  Er  Er8  1  0.000000  0.999805  0.999861  1
  Er  Er9  1  0.000000  0.499949  0.500169  1
  In  In10  1  0.500000  0.421871  0.351879  1
  In  In11  1  0.500000  0.576223  0.649165  1
  In  In12  1  0.500000  0.075561  0.850405  1
  In  In13  1  0.500000  0.925877  0.149385  1
  In  In14  1  0.500000  0.291771  0.066302  1
  In  In15  1  0.500000  0.707390  0.932178  1
  In  In16  1  0.500000  0.207407  0.567765  1
  In  In17  1  0.500000  0.792736  0.432460  1
  Pd  Pd18  1  0.500000  0.024608  0.304075  1
  Pd  Pd19  1  0.500000  0.976259  0.696124  1
  Pt  Pt20  1  0.500000  0.525026  0.195971  1
  Rh  Rh21  1  0.500000  0.476286  0.804620  1
