# generated using pymatgen
data_Na3Li2CrAs3
_symmetry_space_group_name_H-M   'P 1'
_cell_length_a   9.63187873
_cell_length_b   9.63187898
_cell_length_c   13.61055600
_cell_angle_alpha   90.00000000
_cell_angle_beta   90.00000000
_cell_angle_gamma   143.46380619
_symmetry_Int_Tables_number   1
_chemical_formula_structural   Na3Li2CrAs3
_chemical_formula_sum   'Na12 Li8 Cr4 As12'
_cell_volume   751.71981461
_cell_formula_units_Z   4
loop_
 _symmetry_equiv_pos_site_id
 _symmetry_equiv_pos_as_xyz
  1  'x, y, z'
loop_
 _atom_site_type_symbol
 _atom_site_label
 _atom_site_symmetry_multiplicity
 _atom_site_fract_x
 _atom_site_fract_y
 _atom_site_fract_z
 _atom_site_occupancy
  Na  Na0  1  0.601716  0.942493  0.827250  1
  Na  Na1  1  0.276693  0.276693  0.322400  1
  Na  Na2  1  0.223307  0.223307  0.822400  1
  Na  Na3  1  0.723307  0.723307  0.677600  1
  Na  Na4  1  0.442493  0.101716  0.672750  1
  Na  Na5  1  0.898284  0.557507  0.327250  1
  Na  Na6  1  0.057507  0.398284  0.172750  1
  Na  Na7  1  0.398284  0.057507  0.172750  1
  Na  Na8  1  0.557507  0.898284  0.327250  1
  Na  Na9  1  0.101716  0.442493  0.672750  1
  Na  Na10  1  0.942493  0.601716  0.827250  1
  Na  Na11  1  0.776693  0.776693  0.177600  1
  Li  Li12  1  0.082603  0.917397  0.000000  1
  Li  Li13  1  0.582603  0.417397  0.500000  1
  Li  Li14  1  0.917397  0.082603  0.000000  1
  Li  Li15  1  0.751684  0.248316  0.000000  1
  Li  Li16  1  0.748316  0.251684  0.500000  1
  Li  Li17  1  0.248316  0.751684  0.000000  1
  Li  Li18  1  0.251684  0.748316  0.500000  1
  Li  Li19  1  0.417397  0.582603  0.500000  1
  Cr  Cr20  1  0.086032  0.913968  0.500000  1
  Cr  Cr21  1  0.413968  0.586032  0.000000  1
  Cr  Cr22  1  0.913968  0.086032  0.500000  1
  Cr  Cr23  1  0.586032  0.413968  0.000000  1
  As  As24  1  0.065204  0.386343  0.395997  1
  As  As25  1  0.886343  0.565204  0.104003  1
  As  As26  1  0.434796  0.113657  0.895997  1
  As  As27  1  0.613657  0.934796  0.604003  1
  As  As28  1  0.934796  0.613657  0.604003  1
  As  As29  1  0.113657  0.434796  0.895997  1
  As  As30  1  0.565204  0.886343  0.104003  1
  As  As31  1  0.386343  0.065204  0.395997  1
  As  As32  1  0.217302  0.217302  0.597036  1
  As  As33  1  0.717302  0.717302  0.902964  1
  As  As34  1  0.282698  0.282698  0.097036  1
  As  As35  1  0.782698  0.782698  0.402964  1
