# generated using pymatgen
data_Tb10InSb5
_symmetry_space_group_name_H-M   'P 1'
_cell_length_a   6.40457900
_cell_length_b   9.06633989
_cell_length_c   9.04379214
_cell_angle_alpha   120.08251147
_cell_angle_beta   90.00003498
_cell_angle_gamma   89.99992359
_symmetry_Int_Tables_number   1
_chemical_formula_structural   Tb10InSb5
_chemical_formula_sum   'Tb10 In1 Sb5'
_cell_volume   454.40394871
_cell_formula_units_Z   1
loop_
 _symmetry_equiv_pos_site_id
 _symmetry_equiv_pos_as_xyz
  1  'x, y, z'
loop_
 _atom_site_type_symbol
 _atom_site_label
 _atom_site_symmetry_multiplicity
 _atom_site_fract_x
 _atom_site_fract_y
 _atom_site_fract_z
 _atom_site_occupancy
  Tb  Tb0  1  0.499103  0.334343  0.668230  1
  Tb  Tb1  1  0.499103  0.666113  0.331770  1
  Tb  Tb2  1  0.000892  0.666114  0.331768  1
  Tb  Tb3  1  0.000892  0.334346  0.668232  1
  Tb  Tb4  1  0.750000  0.244691  0.000000  1
  Tb  Tb5  1  0.750001  0.754007  0.757199  1
  Tb  Tb6  1  0.750001  0.996807  0.242801  1
  Tb  Tb7  1  0.249998  0.756705  0.000000  1
  Tb  Tb8  1  0.249999  0.246784  0.245170  1
  Tb  Tb9  1  0.249999  0.001614  0.754830  1
  In  In10  1  0.750015  0.606713  0.000000  1
  Sb  Sb11  1  0.750002  0.388762  0.389592  1
  Sb  Sb12  1  0.750002  0.999168  0.610408  1
  Sb  Sb13  1  0.249999  0.391018  0.000000  1
  Sb  Sb14  1  0.250000  0.611711  0.610609  1
  Sb  Sb15  1  0.250000  0.001103  0.389391  1
