# generated using pymatgen
data_Er4Al15(GaIr2)3
_symmetry_space_group_name_H-M   'P 1'
_cell_length_a   7.53223595
_cell_length_b   7.53426913
_cell_length_c   9.50509700
_cell_angle_alpha   90.00000000
_cell_angle_beta   90.00000000
_cell_angle_gamma   119.79435572
_symmetry_Int_Tables_number   1
_chemical_formula_structural   Er4Al15(GaIr2)3
_chemical_formula_sum   'Er4 Al15 Ga3 Ir6'
_cell_volume   468.11057715
_cell_formula_units_Z   1
loop_
 _symmetry_equiv_pos_site_id
 _symmetry_equiv_pos_as_xyz
  1  'x, y, z'
loop_
 _atom_site_type_symbol
 _atom_site_label
 _atom_site_symmetry_multiplicity
 _atom_site_fract_x
 _atom_site_fract_y
 _atom_site_fract_z
 _atom_site_occupancy
  Er  Er0  1  0.994563  0.666728  0.750000  1
  Er  Er1  1  0.003218  0.332824  0.250000  1
  Er  Er2  1  0.669842  0.999516  0.750000  1
  Er  Er3  1  0.332939  0.004237  0.250000  1
  Al  Al4  1  0.126489  0.125292  0.750000  1
  Al  Al5  1  0.874543  0.874571  0.250000  1
  Al  Al6  1  0.001555  0.334072  0.573566  1
  Al  Al7  1  0.998750  0.666087  0.427250  1
  Al  Al8  1  0.998750  0.666087  0.072750  1
  Al  Al9  1  0.333774  0.000312  0.926801  1
  Al  Al10  1  0.001555  0.334072  0.926434  1
  Al  Al11  1  0.666159  0.998435  0.072865  1
  Al  Al12  1  0.666159  0.998435  0.427135  1
  Al  Al13  1  0.333774  0.000312  0.573199  1
  Al  Al14  1  0.333618  0.333591  0.054111  1
  Al  Al15  1  0.666473  0.666723  0.942936  1
  Al  Al16  1  0.666473  0.666723  0.557064  1
  Al  Al17  1  0.333618  0.333591  0.445889  1
  Al  Al18  1  0.338892  0.548385  0.750000  1
  Ga  Ga19  1  0.660716  0.454295  0.250000  1
  Ga  Ga20  1  0.543287  0.338431  0.750000  1
  Ga  Ga21  1  0.454568  0.661182  0.250000  1
  Ir  Ir22  1  0.672629  0.327156  0.499760  1
  Ir  Ir23  1  0.327689  0.671292  0.502146  1
  Ir  Ir24  1  0.327689  0.671292  0.997854  1
  Ir  Ir25  1  0.672629  0.327156  0.000240  1
  Ir  Ir26  1  0.999824  0.999602  0.499813  1
  Ir  Ir27  1  0.999824  0.999602  0.000187  1
