# generated using pymatgen
data_La5(RuO6)2
_symmetry_space_group_name_H-M   'P 1'
_cell_length_a   7.17883172
_cell_length_b   7.17883211
_cell_length_c   7.84060203
_cell_angle_alpha   74.14139330
_cell_angle_beta   74.14139204
_cell_angle_gamma   49.90088465
_symmetry_Int_Tables_number   1
_chemical_formula_structural   La5(RuO6)2
_chemical_formula_sum   'La5 Ru2 O12'
_cell_volume   294.71363208
_cell_formula_units_Z   1
loop_
 _symmetry_equiv_pos_site_id
 _symmetry_equiv_pos_as_xyz
  1  'x, y, z'
loop_
 _atom_site_type_symbol
 _atom_site_label
 _atom_site_symmetry_multiplicity
 _atom_site_fract_x
 _atom_site_fract_y
 _atom_site_fract_z
 _atom_site_occupancy
  La  La0  1  0.307622  0.307622  0.356633  1
  La  La1  1  0.692378  0.692378  0.643367  1
  La  La2  1  0.690104  0.690104  0.167382  1
  La  La3  1  0.309896  0.309896  0.832618  1
  La  La4  1  0.000000  0.000000  0.500000  1
  Ru  Ru5  1  0.765012  0.234988  0.000000  1
  Ru  Ru6  1  0.234988  0.765012  0.000000  1
  O  O7  1  0.094709  0.595118  0.578053  1
  O  O8  1  0.999128  0.999128  0.182651  1
  O  O9  1  0.404882  0.905291  0.421947  1
  O  O10  1  0.499968  0.499968  0.168728  1
  O  O11  1  0.096564  0.587625  0.077847  1
  O  O12  1  0.905291  0.404882  0.421947  1
  O  O13  1  0.000872  0.000872  0.817349  1
  O  O14  1  0.595118  0.094708  0.578053  1
  O  O15  1  0.500032  0.500032  0.831272  1
  O  O16  1  0.587625  0.096564  0.077847  1
  O  O17  1  0.412375  0.903436  0.922153  1
  O  O18  1  0.903436  0.412375  0.922153  1
