# generated using pymatgen
data_Y6Tm4(InSb)3
_symmetry_space_group_name_H-M   'P 1'
_cell_length_a   6.48736200
_cell_length_b   8.94771897
_cell_length_c   8.94771906
_cell_angle_alpha   59.98744431
_cell_angle_beta   90.00013379
_cell_angle_gamma   89.99986521
_symmetry_Int_Tables_number   1
_chemical_formula_structural   Y6Tm4(InSb)3
_chemical_formula_sum   'Y6 Tm4 In3 Sb3'
_cell_volume   449.74721084
_cell_formula_units_Z   1
loop_
 _symmetry_equiv_pos_site_id
 _symmetry_equiv_pos_as_xyz
  1  'x, y, z'
loop_
 _atom_site_type_symbol
 _atom_site_label
 _atom_site_symmetry_multiplicity
 _atom_site_fract_x
 _atom_site_fract_y
 _atom_site_fract_z
 _atom_site_occupancy
  Y  Y0  1  0.749983  0.238653  0.761347  1
  Y  Y1  1  0.750024  0.761455  0.999982  1
  Y  Y2  1  0.750024  0.000018  0.238545  1
  Y  Y3  1  0.250037  0.760946  0.239054  1
  Y  Y4  1  0.249999  0.239094  0.999998  1
  Y  Y5  1  0.249999  0.000002  0.760906  1
  Tm  Tm6  1  0.502610  0.333366  0.333254  1
  Tm  Tm7  1  0.502610  0.666746  0.666634  1
  Tm  Tm8  1  0.997371  0.666673  0.666603  1
  Tm  Tm9  1  0.997371  0.333397  0.333327  1
  In  In10  1  0.749931  0.605351  0.394649  1
  In  In11  1  0.750021  0.394512  0.000077  1
  In  In12  1  0.750021  0.999923  0.605488  1
  Sb  Sb13  1  0.250048  0.396229  0.603771  1
  Sb  Sb14  1  0.249975  0.603772  0.000136  1
  Sb  Sb15  1  0.249975  0.999864  0.396228  1
