# generated using pymatgen
data_Tb2Er(AgGe)3
_symmetry_space_group_name_H-M   'P 1'
_cell_length_a   7.19632617
_cell_length_b   7.20802459
_cell_length_c   4.21599700
_cell_angle_alpha   90.00000000
_cell_angle_beta   90.00000000
_cell_angle_gamma   120.05378850
_symmetry_Int_Tables_number   1
_chemical_formula_structural   Tb2Er(AgGe)3
_chemical_formula_sum   'Tb2 Er1 Ag3 Ge3'
_cell_volume   189.28769258
_cell_formula_units_Z   1
loop_
 _symmetry_equiv_pos_site_id
 _symmetry_equiv_pos_as_xyz
  1  'x, y, z'
loop_
 _atom_site_type_symbol
 _atom_site_label
 _atom_site_symmetry_multiplicity
 _atom_site_fract_x
 _atom_site_fract_y
 _atom_site_fract_z
 _atom_site_occupancy
  Tb  Tb0  1  0.584202  0.000387  0.000000  1
  Tb  Tb1  1  0.415798  0.416184  0.000000  1
  Er  Er2  1  0.000000  0.584386  0.000000  1
  Ag  Ag3  1  0.749039  0.748730  0.500000  1
  Ag  Ag4  1  0.250961  0.999690  0.500000  1
  Ag  Ag5  1  0.000000  0.251852  0.500000  1
  Ge  Ge6  1  0.000000  0.998330  0.000000  1
  Ge  Ge7  1  0.669167  0.334804  0.500000  1
  Ge  Ge8  1  0.330833  0.665637  0.500000  1
