# generated using pymatgen
data_Tb7Tm5Ru4
_symmetry_space_group_name_H-M   'P 1'
_cell_length_a   6.28817953
_cell_length_b   7.29548857
_cell_length_c   9.15444801
_cell_angle_alpha   89.84979216
_cell_angle_beta   89.74062379
_cell_angle_gamma   89.96819101
_symmetry_Int_Tables_number   1
_chemical_formula_structural   Tb7Tm5Ru4
_chemical_formula_sum   'Tb7 Tm5 Ru4'
_cell_volume   419.95762371
_cell_formula_units_Z   1
loop_
 _symmetry_equiv_pos_site_id
 _symmetry_equiv_pos_as_xyz
  1  'x, y, z'
loop_
 _atom_site_type_symbol
 _atom_site_label
 _atom_site_symmetry_multiplicity
 _atom_site_fract_x
 _atom_site_fract_y
 _atom_site_fract_z
 _atom_site_occupancy
  Tb  Tb0  1  0.633009  0.040006  0.252757  1
  Tb  Tb1  1  0.365809  0.959198  0.747452  1
  Tb  Tb2  1  0.134037  0.459798  0.747563  1
  Tb  Tb3  1  0.867096  0.541173  0.252200  1
  Tb  Tb4  1  0.170503  0.177360  0.065912  1
  Tb  Tb5  1  0.830019  0.822527  0.934595  1
  Tb  Tb6  1  0.668837  0.323566  0.934786  1
  Tm  Tm7  1  0.830488  0.823873  0.563629  1
  Tm  Tm8  1  0.330896  0.676472  0.066515  1
  Tm  Tm9  1  0.169269  0.175490  0.436419  1
  Tm  Tm10  1  0.331153  0.676248  0.435284  1
  Tm  Tm11  1  0.668727  0.324368  0.563680  1
  Ru  Ru12  1  0.459358  0.386464  0.252533  1
  Ru  Ru13  1  0.539497  0.614427  0.748144  1
  Ru  Ru14  1  0.959299  0.113933  0.745820  1
  Ru  Ru15  1  0.042004  0.885098  0.252711  1
