# generated using pymatgen
data_LiHo2AgAs4
_symmetry_space_group_name_H-M   'P 1'
_cell_length_a   3.91252200
_cell_length_b   3.91598300
_cell_length_c   20.83475500
_cell_angle_alpha   90.00000000
_cell_angle_beta   90.00000000
_cell_angle_gamma   90.00000000
_symmetry_Int_Tables_number   1
_chemical_formula_structural   LiHo2AgAs4
_chemical_formula_sum   'Li2 Ho4 Ag2 As8'
_cell_volume   319.21698270
_cell_formula_units_Z   2
loop_
 _symmetry_equiv_pos_site_id
 _symmetry_equiv_pos_as_xyz
  1  'x, y, z'
loop_
 _atom_site_type_symbol
 _atom_site_label
 _atom_site_symmetry_multiplicity
 _atom_site_fract_x
 _atom_site_fract_y
 _atom_site_fract_z
 _atom_site_occupancy
  Li  Li0  1  0.250000  0.761929  0.750059  1
  Li  Li1  1  0.250000  0.738071  0.250059  1
  Ho  Ho2  1  0.250000  0.261096  0.613008  1
  Ho  Ho3  1  0.250000  0.238904  0.113008  1
  Ho  Ho4  1  0.750000  0.739610  0.387023  1
  Ho  Ho5  1  0.750000  0.760390  0.887023  1
  Ag  Ag6  1  0.750000  0.238062  0.249916  1
  Ag  Ag7  1  0.750000  0.261938  0.749916  1
  As  As8  1  0.250000  0.261240  0.839296  1
  As  As9  1  0.250000  0.238760  0.339296  1
  As  As10  1  0.750000  0.738518  0.160661  1
  As  As11  1  0.750000  0.761482  0.660661  1
  As  As12  1  0.250000  0.760711  0.500172  1
  As  As13  1  0.250000  0.739289  0.000172  1
  As  As14  1  0.750000  0.239243  0.499865  1
  As  As15  1  0.750000  0.260757  0.999865  1
