# generated using pymatgen
data_Lu3Sc3Al6PtAu5
_symmetry_space_group_name_H-M   'P 1'
_cell_length_a   7.18669500
_cell_length_b   7.18669660
_cell_length_c   7.78783200
_cell_angle_alpha   90.00000000
_cell_angle_beta   90.00000000
_cell_angle_gamma   119.99999723
_symmetry_Int_Tables_number   1
_chemical_formula_structural   Lu3Sc3Al6PtAu5
_chemical_formula_sum   'Lu3 Sc3 Al6 Pt1 Au5'
_cell_volume   348.34192130
_cell_formula_units_Z   1
loop_
 _symmetry_equiv_pos_site_id
 _symmetry_equiv_pos_as_xyz
  1  'x, y, z'
loop_
 _atom_site_type_symbol
 _atom_site_label
 _atom_site_symmetry_multiplicity
 _atom_site_fract_x
 _atom_site_fract_y
 _atom_site_fract_z
 _atom_site_occupancy
  Lu  Lu0  1  0.580459  0.991841  0.750000  1
  Lu  Lu1  1  0.008159  0.588619  0.750000  1
  Lu  Lu2  1  0.411381  0.419541  0.750000  1
  Sc  Sc3  1  0.989625  0.591759  0.250000  1
  Sc  Sc4  1  0.602135  0.010375  0.250000  1
  Sc  Sc5  1  0.408241  0.397865  0.250000  1
  Al  Al6  1  0.751468  0.752688  0.011794  1
  Al  Al7  1  0.247312  0.998780  0.011794  1
  Al  Al8  1  0.001220  0.248532  0.011794  1
  Al  Al9  1  0.751468  0.752688  0.488206  1
  Al  Al10  1  0.247312  0.998780  0.488206  1
  Al  Al11  1  0.001220  0.248532  0.488206  1
  Pt  Pt12  1  0.000000  0.000000  0.250000  1
  Au  Au13  1  0.000000  0.000000  0.750000  1
  Au  Au14  1  0.666667  0.333333  0.998934  1
  Au  Au15  1  0.666667  0.333333  0.501066  1
  Au  Au16  1  0.333333  0.666667  0.476874  1
  Au  Au17  1  0.333333  0.666667  0.023126  1
