# generated using pymatgen
data_Dy4LuRuRh
_symmetry_space_group_name_H-M   'P 1'
_cell_length_a   6.35842451
_cell_length_b   7.21756984
_cell_length_c   8.52269258
_cell_angle_alpha   96.70444667
_cell_angle_beta   112.22454712
_cell_angle_gamma   90.07310319
_symmetry_Int_Tables_number   1
_chemical_formula_structural   Dy4LuRuRh
_chemical_formula_sum   'Dy8 Lu2 Ru2 Rh2'
_cell_volume   359.15391093
_cell_formula_units_Z   2
loop_
 _symmetry_equiv_pos_site_id
 _symmetry_equiv_pos_as_xyz
  1  'x, y, z'
loop_
 _atom_site_type_symbol
 _atom_site_label
 _atom_site_symmetry_multiplicity
 _atom_site_fract_x
 _atom_site_fract_y
 _atom_site_fract_z
 _atom_site_occupancy
  Dy  Dy0  1  0.522437  0.080901  0.815645  1
  Dy  Dy1  1  0.477563  0.919099  0.184355  1
  Dy  Dy2  1  0.711002  0.415612  0.187588  1
  Dy  Dy3  1  0.288998  0.584388  0.812412  1
  Dy  Dy4  1  0.292102  0.310209  0.432456  1
  Dy  Dy5  1  0.707898  0.689791  0.567544  1
  Dy  Dy6  1  0.863091  0.186340  0.565689  1
  Dy  Dy7  1  0.136909  0.813660  0.434311  1
  Lu  Lu8  1  0.075011  0.247097  0.998854  1
  Lu  Lu9  1  0.924989  0.752903  0.001146  1
  Ru  Ru10  1  0.101939  0.924522  0.784192  1
  Ru  Ru11  1  0.898061  0.075478  0.215808  1
  Rh  Rh12  1  0.317768  0.573684  0.218430  1
  Rh  Rh13  1  0.682232  0.426316  0.781570  1
