# generated using pymatgen
data_Tb4DyY11(CdNi)4
_symmetry_space_group_name_H-M   'P 1'
_cell_length_a   9.58351367
_cell_length_b   9.58633396
_cell_length_c   9.58633302
_cell_angle_alpha   60.07457803
_cell_angle_beta   60.00973048
_cell_angle_gamma   60.00973132
_symmetry_Int_Tables_number   1
_chemical_formula_structural   Tb4DyY11(CdNi)4
_chemical_formula_sum   'Tb4 Dy1 Y11 Cd4 Ni4'
_cell_volume   623.19354991
_cell_formula_units_Z   1
loop_
 _symmetry_equiv_pos_site_id
 _symmetry_equiv_pos_as_xyz
  1  'x, y, z'
loop_
 _atom_site_type_symbol
 _atom_site_label
 _atom_site_symmetry_multiplicity
 _atom_site_fract_x
 _atom_site_fract_y
 _atom_site_fract_z
 _atom_site_occupancy
  Tb  Tb0  1  0.597665  0.598128  0.598128  1
  Tb  Tb1  1  0.598967  0.599695  0.202370  1
  Tb  Tb2  1  0.598967  0.202370  0.599695  1
  Tb  Tb3  1  0.206077  0.598128  0.598128  1
  Dy  Dy4  1  0.060146  0.439854  0.439854  1
  Y  Y5  1  0.438209  0.061791  0.061791  1
  Y  Y6  1  0.439104  0.061189  0.439401  1
  Y  Y7  1  0.060305  0.439401  0.061189  1
  Y  Y8  1  0.439104  0.439401  0.061189  1
  Y  Y9  1  0.060305  0.061189  0.439401  1
  Y  Y10  1  0.186079  0.813921  0.813921  1
  Y  Y11  1  0.812940  0.187060  0.187060  1
  Y  Y12  1  0.813850  0.187216  0.812538  1
  Y  Y13  1  0.186397  0.812538  0.187216  1
  Y  Y14  1  0.813850  0.812538  0.187216  1
  Y  Y15  1  0.186397  0.187216  0.812538  1
  Cd  Cd16  1  0.831287  0.830645  0.830645  1
  Cd  Cd17  1  0.831322  0.830848  0.506507  1
  Cd  Cd18  1  0.831322  0.506507  0.830848  1
  Cd  Cd19  1  0.507421  0.830645  0.830645  1
  Ni  Ni20  1  0.392894  0.393192  0.393192  1
  Ni  Ni21  1  0.393333  0.392757  0.820578  1
  Ni  Ni22  1  0.393333  0.820578  0.392757  1
  Ni  Ni23  1  0.820723  0.393192  0.393192  1
