# generated using pymatgen
data_Cs12MnNb3S16
_symmetry_space_group_name_H-M   'P 1'
_cell_length_a   10.01127668
_cell_length_b   10.06421593
_cell_length_c   11.83911300
_cell_angle_alpha   90.00000000
_cell_angle_beta   90.00000000
_cell_angle_gamma   89.92832795
_symmetry_Int_Tables_number   1
_chemical_formula_structural   Cs12MnNb3S16
_chemical_formula_sum   'Cs12 Mn1 Nb3 S16'
_cell_volume   1192.85659447
_cell_formula_units_Z   1
loop_
 _symmetry_equiv_pos_site_id
 _symmetry_equiv_pos_as_xyz
  1  'x, y, z'
loop_
 _atom_site_type_symbol
 _atom_site_label
 _atom_site_symmetry_multiplicity
 _atom_site_fract_x
 _atom_site_fract_y
 _atom_site_fract_z
 _atom_site_occupancy
  Cs  Cs0  1  0.548512  0.212358  0.044476  1
  Cs  Cs1  1  0.042810  0.292887  0.455692  1
  Cs  Cs2  1  0.454964  0.789492  0.541073  1
  Cs  Cs3  1  0.952621  0.707730  0.959685  1
  Cs  Cs4  1  0.454964  0.789492  0.958927  1
  Cs  Cs5  1  0.952621  0.707730  0.540315  1
  Cs  Cs6  1  0.548512  0.212358  0.455524  1
  Cs  Cs7  1  0.042810  0.292887  0.044308  1
  Cs  Cs8  1  0.648486  0.411972  0.750000  1
  Cs  Cs9  1  0.148016  0.087294  0.750000  1
  Cs  Cs10  1  0.354243  0.584965  0.250000  1
  Cs  Cs11  1  0.850434  0.912651  0.250000  1
  Mn  Mn12  1  0.777722  0.482615  0.250000  1
  Nb  Nb13  1  0.722516  0.982858  0.750000  1
  Nb  Nb14  1  0.222985  0.516947  0.750000  1
  Nb  Nb15  1  0.277242  0.016527  0.250000  1
  S  S16  1  0.832556  0.048691  0.589558  1
  S  S17  1  0.333538  0.451712  0.910675  1
  S  S18  1  0.167039  0.950416  0.089764  1
  S  S19  1  0.675617  0.544470  0.397594  1
  S  S20  1  0.167039  0.950416  0.410236  1
  S  S21  1  0.675617  0.544470  0.102406  1
  S  S22  1  0.832556  0.048691  0.910442  1
  S  S23  1  0.333538  0.451712  0.589325  1
  S  S24  1  0.510074  0.069996  0.750000  1
  S  S25  1  0.010471  0.430095  0.750000  1
  S  S26  1  0.490181  0.929813  0.250000  1
  S  S27  1  0.973816  0.563379  0.250000  1
  S  S28  1  0.708870  0.754768  0.750000  1
  S  S29  1  0.209047  0.744525  0.750000  1
  S  S30  1  0.290409  0.244291  0.250000  1
  S  S31  1  0.790171  0.271789  0.250000  1
