# generated using pymatgen
data_YPa2Cu3Sn4
_symmetry_space_group_name_H-M   'P 1'
_cell_length_a   8.30965563
_cell_length_b   8.31534703
_cell_length_c   8.30598300
_cell_angle_alpha   109.62029654
_cell_angle_beta   109.38946190
_cell_angle_gamma   109.42210196
_symmetry_Int_Tables_number   1
_chemical_formula_structural   YPa2Cu3Sn4
_chemical_formula_sum   'Y2 Pa4 Cu6 Sn8'
_cell_volume   441.70612814
_cell_formula_units_Z   2
loop_
 _symmetry_equiv_pos_site_id
 _symmetry_equiv_pos_as_xyz
  1  'x, y, z'
loop_
 _atom_site_type_symbol
 _atom_site_label
 _atom_site_symmetry_multiplicity
 _atom_site_fract_x
 _atom_site_fract_y
 _atom_site_fract_z
 _atom_site_occupancy
  Y  Y0  1  0.877738  0.751543  0.125919  1
  Y  Y1  1  0.122279  0.373768  0.248172  1
  Pa  Pa2  1  0.626396  0.252143  0.374644  1
  Pa  Pa3  1  0.750467  0.873501  0.626891  1
  Pa  Pa4  1  0.373654  0.125585  0.748199  1
  Pa  Pa5  1  0.249469  0.622997  0.876356  1
  Cu  Cu6  1  0.743764  0.370404  0.122545  1
  Cu  Cu7  1  0.624562  0.878336  0.251926  1
  Cu  Cu8  1  0.256214  0.126659  0.378844  1
  Cu  Cu9  1  0.375470  0.753806  0.627265  1
  Cu  Cu10  1  0.873885  0.621821  0.746411  1
  Cu  Cu11  1  0.126040  0.247831  0.872413  1
  Sn  Sn12  1  0.169417  0.000537  0.000454  1
  Sn  Sn13  1  0.665843  0.999154  0.999122  1
  Sn  Sn14  1  0.501634  0.501233  0.168700  1
  Sn  Sn15  1  0.334094  0.833281  0.333300  1
  Sn  Sn16  1  0.001432  0.668991  0.501074  1
  Sn  Sn17  1  0.998603  0.167614  0.499590  1
  Sn  Sn18  1  0.498516  0.499691  0.667128  1
  Sn  Sn19  1  0.830524  0.331109  0.831049  1
