# generated using pymatgen
data_Tm11Sc(Si3Os)4
_symmetry_space_group_name_H-M   'P 1'
_cell_length_a   4.13536900
_cell_length_b   10.64634576
_cell_length_c   12.14205405
_cell_angle_alpha   89.87901761
_cell_angle_beta   90.00000000
_cell_angle_gamma   90.00000000
_symmetry_Int_Tables_number   1
_chemical_formula_structural   Tm11Sc(Si3Os)4
_chemical_formula_sum   'Tm11 Sc1 Si12 Os4'
_cell_volume   534.57177922
_cell_formula_units_Z   1
loop_
 _symmetry_equiv_pos_site_id
 _symmetry_equiv_pos_as_xyz
  1  'x, y, z'
loop_
 _atom_site_type_symbol
 _atom_site_label
 _atom_site_symmetry_multiplicity
 _atom_site_fract_x
 _atom_site_fract_y
 _atom_site_fract_z
 _atom_site_occupancy
  Tm  Tm0  1  0.250000  0.880661  0.018938  1
  Tm  Tm1  1  0.250000  0.619685  0.519848  1
  Tm  Tm2  1  0.750000  0.120141  0.977969  1
  Tm  Tm3  1  0.750000  0.377871  0.482038  1
  Tm  Tm4  1  0.250000  0.922434  0.605678  1
  Tm  Tm5  1  0.250000  0.579234  0.105095  1
  Tm  Tm6  1  0.750000  0.078463  0.396315  1
  Tm  Tm7  1  0.750000  0.419671  0.893530  1
  Tm  Tm8  1  0.250000  0.660326  0.799576  1
  Tm  Tm9  1  0.250000  0.840046  0.299970  1
  Tm  Tm10  1  0.750000  0.338010  0.200129  1
  Sc  Sc11  1  0.750000  0.160883  0.702001  1
  Si  Si12  1  0.250000  0.014442  0.819912  1
  Si  Si13  1  0.250000  0.487361  0.321364  1
  Si  Si14  1  0.750000  0.989048  0.178524  1
  Si  Si15  1  0.750000  0.512607  0.678803  1
  Si  Si16  1  0.250000  0.247303  0.837685  1
  Si  Si17  1  0.250000  0.250083  0.343917  1
  Si  Si18  1  0.750000  0.751311  0.157960  1
  Si  Si19  1  0.750000  0.749291  0.657697  1
  Si  Si20  1  0.250000  0.198765  0.550933  1
  Si  Si21  1  0.250000  0.299073  0.042676  1
  Si  Si22  1  0.750000  0.799583  0.456004  1
  Si  Si23  1  0.750000  0.700872  0.955201  1
  Os  Os24  1  0.250000  0.389691  0.679799  1
  Os  Os25  1  0.250000  0.111029  0.180471  1
  Os  Os26  1  0.750000  0.610340  0.319914  1
  Os  Os27  1  0.750000  0.891778  0.818052  1
