# generated using pymatgen
data_Sm3Cd3PdPt2
_symmetry_space_group_name_H-M   'P 1'
_cell_length_a   7.71883800
_cell_length_b   7.71883818
_cell_length_c   3.95812400
_cell_angle_alpha   90.00000000
_cell_angle_beta   90.00000000
_cell_angle_gamma   119.99999924
_symmetry_Int_Tables_number   1
_chemical_formula_structural   Sm3Cd3PdPt2
_chemical_formula_sum   'Sm3 Cd3 Pd1 Pt2'
_cell_volume   204.23204831
_cell_formula_units_Z   1
loop_
 _symmetry_equiv_pos_site_id
 _symmetry_equiv_pos_as_xyz
  1  'x, y, z'
loop_
 _atom_site_type_symbol
 _atom_site_label
 _atom_site_symmetry_multiplicity
 _atom_site_fract_x
 _atom_site_fract_y
 _atom_site_fract_z
 _atom_site_occupancy
  Sm  Sm0  1  0.408353  0.408353  0.500000  1
  Sm  Sm1  1  0.591647  0.000000  0.500000  1
  Sm  Sm2  1  0.000000  0.591647  0.500000  1
  Cd  Cd3  1  0.745284  0.745284  0.000000  1
  Cd  Cd4  1  0.254716  0.000000  0.000000  1
  Cd  Cd5  1  0.000000  0.254716  0.000000  1
  Pd  Pd6  1  0.000000  0.000000  0.500000  1
  Pt  Pt7  1  0.666667  0.333333  0.000000  1
  Pt  Pt8  1  0.333333  0.666667  0.000000  1
