# generated using pymatgen
data_Nb9B4P2W
_symmetry_space_group_name_H-M   'P 1'
_cell_length_a   7.27001813
_cell_length_b   7.27001901
_cell_length_c   7.27001930
_cell_angle_alpha   129.59879109
_cell_angle_beta   129.59880081
_cell_angle_gamma   74.04896897
_symmetry_Int_Tables_number   1
_chemical_formula_structural   Nb9B4P2W
_chemical_formula_sum   'Nb9 B4 P2 W1'
_cell_volume   222.46605976
_cell_formula_units_Z   1
loop_
 _symmetry_equiv_pos_site_id
 _symmetry_equiv_pos_as_xyz
  1  'x, y, z'
loop_
 _atom_site_type_symbol
 _atom_site_label
 _atom_site_symmetry_multiplicity
 _atom_site_fract_x
 _atom_site_fract_y
 _atom_site_fract_z
 _atom_site_occupancy
  Nb  Nb0  1  0.526850  0.690287  0.497168  1
  Nb  Nb1  1  0.193119  0.029682  0.502832  1
  Nb  Nb2  1  0.029682  0.526850  0.836563  1
  Nb  Nb3  1  0.690287  0.193119  0.163437  1
  Nb  Nb4  1  0.473150  0.309713  0.502832  1
  Nb  Nb5  1  0.806881  0.970318  0.497168  1
  Nb  Nb6  1  0.970318  0.473150  0.163437  1
  Nb  Nb7  1  0.309713  0.806881  0.836563  1
  Nb  Nb8  1  0.000000  0.000000  0.000000  1
  B  B9  1  0.882661  0.614004  0.496664  1
  B  B10  1  0.117339  0.385996  0.503336  1
  B  B11  1  0.385996  0.882661  0.268657  1
  B  B12  1  0.614004  0.117339  0.731343  1
  P  P13  1  0.247725  0.247725  0.000000  1
  P  P14  1  0.752275  0.752275  0.000000  1
  W  W15  1  0.500000  0.500000  0.000000  1
