# generated using pymatgen
data_Zr5Sc3Si16Mo5W7
_symmetry_space_group_name_H-M   'P 1'
_cell_length_a   6.60218733
_cell_length_b   6.76283636
_cell_length_c   12.73275617
_cell_angle_alpha   89.99130010
_cell_angle_beta   90.01378662
_cell_angle_gamma   89.96649904
_symmetry_Int_Tables_number   1
_chemical_formula_structural   Zr5Sc3Si16Mo5W7
_chemical_formula_sum   'Zr5 Sc3 Si16 Mo5 W7'
_cell_volume   568.51123647
_cell_formula_units_Z   1
loop_
 _symmetry_equiv_pos_site_id
 _symmetry_equiv_pos_as_xyz
  1  'x, y, z'
loop_
 _atom_site_type_symbol
 _atom_site_label
 _atom_site_symmetry_multiplicity
 _atom_site_fract_x
 _atom_site_fract_y
 _atom_site_fract_z
 _atom_site_occupancy
  Zr  Zr0  1  0.495862  0.669146  0.592905  1
  Zr  Zr1  1  0.995364  0.828893  0.907023  1
  Zr  Zr2  1  0.505582  0.329279  0.093030  1
  Zr  Zr3  1  0.003984  0.172021  0.407321  1
  Zr  Zr4  1  0.503907  0.329215  0.407011  1
  Sc  Sc5  1  0.005652  0.169211  0.091686  1
  Sc  Sc6  1  0.494239  0.670254  0.908257  1
  Sc  Sc7  1  0.994197  0.830926  0.592208  1
  Si  Si8  1  0.667486  0.958229  0.457493  1
  Si  Si9  1  0.167352  0.539458  0.043130  1
  Si  Si10  1  0.332995  0.039449  0.956999  1
  Si  Si11  1  0.833128  0.459956  0.543495  1
  Si  Si12  1  0.330835  0.039311  0.542742  1
  Si  Si13  1  0.831217  0.459395  0.957043  1
  Si  Si14  1  0.668892  0.959472  0.042812  1
  Si  Si15  1  0.166778  0.543455  0.457504  1
  Si  Si16  1  0.464486  0.380070  0.750729  1
  Si  Si17  1  0.964453  0.120987  0.749788  1
  Si  Si18  1  0.535598  0.622618  0.249750  1
  Si  Si19  1  0.035988  0.878944  0.250463  1
  Si  Si20  1  0.698018  0.858285  0.749823  1
  Si  Si21  1  0.198312  0.641741  0.750382  1
  Si  Si22  1  0.300127  0.139838  0.248675  1
  Si  Si23  1  0.802976  0.358779  0.249328  1
  Mo  Mo24  1  0.664867  0.164032  0.623857  1
  Mo  Mo25  1  0.165634  0.335569  0.876284  1
  Mo  Mo26  1  0.334509  0.835819  0.123972  1
  Mo  Mo27  1  0.833653  0.663396  0.376491  1
  Mo  Mo28  1  0.336258  0.836752  0.375331  1
  W  W29  1  0.835493  0.663519  0.125029  1
  W  W30  1  0.664775  0.163294  0.874924  1
  W  W31  1  0.165960  0.336405  0.624812  1
  W  W32  1  0.833408  0.505608  0.750559  1
  W  W33  1  0.333597  0.995639  0.749979  1
  W  W34  1  0.166516  0.494003  0.250144  1
  W  W35  1  0.667899  0.007030  0.249023  1
