# generated using pymatgen
data_Ho7Lu3AlSb5
_symmetry_space_group_name_H-M   'P 1'
_cell_length_a   8.82888496
_cell_length_b   8.84754752
_cell_length_c   6.30430030
_cell_angle_alpha   89.96430259
_cell_angle_beta   90.01704786
_cell_angle_gamma   119.87987220
_symmetry_Int_Tables_number   1
_chemical_formula_structural   Ho7Lu3AlSb5
_chemical_formula_sum   'Ho7 Lu3 Al1 Sb5'
_cell_volume   426.99288441
_cell_formula_units_Z   1
loop_
 _symmetry_equiv_pos_site_id
 _symmetry_equiv_pos_as_xyz
  1  'x, y, z'
loop_
 _atom_site_type_symbol
 _atom_site_label
 _atom_site_symmetry_multiplicity
 _atom_site_fract_x
 _atom_site_fract_y
 _atom_site_fract_z
 _atom_site_occupancy
  Ho  Ho0  1  0.334537  0.673361  0.500979  1
  Ho  Ho1  1  0.753161  0.000148  0.749969  1
  Ho  Ho2  1  0.754397  0.756173  0.249850  1
  Ho  Ho3  1  0.998806  0.243726  0.249851  1
  Ho  Ho4  1  0.010157  0.763736  0.750107  1
  Ho  Ho5  1  0.247419  0.237468  0.750384  1
  Ho  Ho6  1  0.241719  0.999746  0.249648  1
  Lu  Lu7  1  0.334320  0.673773  0.998270  1
  Lu  Lu8  1  0.660806  0.325417  0.501690  1
  Lu  Lu9  1  0.661178  0.326177  0.998347  1
  Al  Al10  1  0.397760  0.000439  0.751461  1
  Sb  Sb11  1  0.390859  0.392409  0.249090  1
  Sb  Sb12  1  0.995388  0.605928  0.249260  1
  Sb  Sb13  1  0.000875  0.391357  0.751510  1
  Sb  Sb14  1  0.612424  0.609041  0.750987  1
  Sb  Sb15  1  0.606189  0.001100  0.248600  1
