# generated using pymatgen
data_YTm3(Si2Rh)2
_symmetry_space_group_name_H-M   'P 1'
_cell_length_a   5.64847464
_cell_length_b   5.64847445
_cell_length_c   9.98504380
_cell_angle_alpha   63.76570402
_cell_angle_beta   63.76570767
_cell_angle_gamma   43.44264143
_symmetry_Int_Tables_number   1
_chemical_formula_structural   YTm3(Si2Rh)2
_chemical_formula_sum   'Y1 Tm3 Si4 Rh2'
_cell_volume   192.67279754
_cell_formula_units_Z   1
loop_
 _symmetry_equiv_pos_site_id
 _symmetry_equiv_pos_as_xyz
  1  'x, y, z'
loop_
 _atom_site_type_symbol
 _atom_site_label
 _atom_site_symmetry_multiplicity
 _atom_site_fract_x
 _atom_site_fract_y
 _atom_site_fract_z
 _atom_site_occupancy
  Y  Y0  1  0.814316  0.814316  0.108197  1
  Tm  Tm1  1  0.000485  0.000485  0.326317  1
  Tm  Tm2  1  0.185338  0.185338  0.889505  1
  Tm  Tm3  1  0.998528  0.998528  0.674575  1
  Si  Si4  1  0.361879  0.361879  0.565774  1
  Si  Si5  1  0.488942  0.488942  0.877918  1
  Si  Si6  1  0.637551  0.637551  0.435772  1
  Si  Si7  1  0.513063  0.513063  0.120276  1
  Rh  Rh8  1  0.726228  0.726228  0.628874  1
  Rh  Rh9  1  0.273671  0.273671  0.372792  1
