# generated using pymatgen
data_Zr5NbTe8
_symmetry_space_group_name_H-M   'P 1'
_cell_length_a   11.15490053
_cell_length_b   10.94541408
_cell_length_c   3.92527500
_cell_angle_alpha   90.00000000
_cell_angle_beta   90.00000000
_cell_angle_gamma   119.32522751
_symmetry_Int_Tables_number   1
_chemical_formula_structural   Zr5NbTe8
_chemical_formula_sum   'Zr5 Nb1 Te8'
_cell_volume   417.84153410
_cell_formula_units_Z   1
loop_
 _symmetry_equiv_pos_site_id
 _symmetry_equiv_pos_as_xyz
  1  'x, y, z'
loop_
 _atom_site_type_symbol
 _atom_site_label
 _atom_site_symmetry_multiplicity
 _atom_site_fract_x
 _atom_site_fract_y
 _atom_site_fract_z
 _atom_site_occupancy
  Zr  Zr0  1  0.124205  0.636599  0.750000  1
  Zr  Zr1  1  0.364550  0.487813  0.750000  1
  Zr  Zr2  1  0.508544  0.887771  0.750000  1
  Zr  Zr3  1  0.873359  0.362963  0.250000  1
  Zr  Zr4  1  0.634334  0.505069  0.250000  1
  Nb  Nb5  1  0.493815  0.118648  0.250000  1
  Te  Te6  1  0.663691  0.324639  0.750000  1
  Te  Te7  1  0.334031  0.671133  0.250000  1
  Te  Te8  1  0.291546  0.957032  0.750000  1
  Te  Te9  1  0.056038  0.343617  0.750000  1
  Te  Te10  1  0.651284  0.708637  0.750000  1
  Te  Te11  1  0.712826  0.052952  0.250000  1
  Te  Te12  1  0.943621  0.657742  0.250000  1
  Te  Te13  1  0.348155  0.285384  0.250000  1
