# generated using pymatgen
data_YLu(ZrIr)2
_symmetry_space_group_name_H-M   'P 1'
_cell_length_a   4.54931600
_cell_length_b   7.10044800
_cell_length_c   8.28328000
_cell_angle_alpha   90.00000000
_cell_angle_beta   90.00000000
_cell_angle_gamma   90.00000000
_symmetry_Int_Tables_number   1
_chemical_formula_structural   YLu(ZrIr)2
_chemical_formula_sum   'Y2 Lu2 Zr4 Ir4'
_cell_volume   267.56801558
_cell_formula_units_Z   2
loop_
 _symmetry_equiv_pos_site_id
 _symmetry_equiv_pos_as_xyz
  1  'x, y, z'
loop_
 _atom_site_type_symbol
 _atom_site_label
 _atom_site_symmetry_multiplicity
 _atom_site_fract_x
 _atom_site_fract_y
 _atom_site_fract_z
 _atom_site_occupancy
  Y  Y0  1  0.750000  0.015041  0.675334  1
  Y  Y1  1  0.750000  0.515041  0.824666  1
  Lu  Lu2  1  0.250000  0.983972  0.325020  1
  Lu  Lu3  1  0.250000  0.483972  0.174980  1
  Zr  Zr4  1  0.250000  0.356391  0.573007  1
  Zr  Zr5  1  0.250000  0.856391  0.926993  1
  Zr  Zr6  1  0.750000  0.643852  0.422424  1
  Zr  Zr7  1  0.750000  0.143852  0.077576  1
  Ir  Ir8  1  0.250000  0.233828  0.908814  1
  Ir  Ir9  1  0.250000  0.733828  0.591186  1
  Ir  Ir10  1  0.750000  0.766914  0.095555  1
  Ir  Ir11  1  0.750000  0.266914  0.404445  1
