# generated using pymatgen
data_DyY15Cd3AgIr3Pt
_symmetry_space_group_name_H-M   'P 1'
_cell_length_a   9.67955201
_cell_length_b   9.67955216
_cell_length_c   9.67955200
_cell_angle_alpha   60.10490300
_cell_angle_beta   60.10490249
_cell_angle_gamma   60.10490281
_symmetry_Int_Tables_number   1
_chemical_formula_structural   DyY15Cd3AgIr3Pt
_chemical_formula_sum   'Dy1 Y15 Cd3 Ag1 Ir3 Pt1'
_cell_volume   642.80878180
_cell_formula_units_Z   1
loop_
 _symmetry_equiv_pos_site_id
 _symmetry_equiv_pos_as_xyz
  1  'x, y, z'
loop_
 _atom_site_type_symbol
 _atom_site_label
 _atom_site_symmetry_multiplicity
 _atom_site_fract_x
 _atom_site_fract_y
 _atom_site_fract_z
 _atom_site_occupancy
  Dy  Dy0  1  0.347103  0.347103  0.347103  1
  Y  Y1  1  0.352902  0.352902  0.947740  1
  Y  Y2  1  0.352902  0.947740  0.352902  1
  Y  Y3  1  0.947740  0.352902  0.352902  1
  Y  Y4  1  0.805601  0.190910  0.190910  1
  Y  Y5  1  0.187920  0.810335  0.810335  1
  Y  Y6  1  0.190910  0.805601  0.190910  1
  Y  Y7  1  0.810335  0.187920  0.810335  1
  Y  Y8  1  0.190910  0.190910  0.805601  1
  Y  Y9  1  0.810335  0.810335  0.187920  1
  Y  Y10  1  0.936638  0.562420  0.562420  1
  Y  Y11  1  0.564417  0.936810  0.936810  1
  Y  Y12  1  0.562420  0.936638  0.562420  1
  Y  Y13  1  0.936810  0.564417  0.936810  1
  Y  Y14  1  0.562420  0.562420  0.936638  1
  Y  Y15  1  0.936810  0.936810  0.564417  1
  Cd  Cd16  1  0.580935  0.580935  0.258046  1
  Cd  Cd17  1  0.580935  0.258046  0.580935  1
  Cd  Cd18  1  0.258046  0.580935  0.580935  1
  Ag  Ag19  1  0.582461  0.582461  0.582461  1
  Ir  Ir20  1  0.142185  0.142185  0.574419  1
  Ir  Ir21  1  0.142185  0.574419  0.142185  1
  Ir  Ir22  1  0.574419  0.142185  0.142185  1
  Pt  Pt23  1  0.142658  0.142658  0.142658  1
