# generated using pymatgen
data_Rb6InSe4Cl
_symmetry_space_group_name_H-M   'P 1'
_cell_length_a   11.13104700
_cell_length_b   11.13104684
_cell_length_c   8.19324300
_cell_angle_alpha   90.00000000
_cell_angle_beta   90.00000000
_cell_angle_gamma   120.00000345
_symmetry_Int_Tables_number   1
_chemical_formula_structural   Rb6InSe4Cl
_chemical_formula_sum   'Rb12 In2 Se8 Cl2'
_cell_volume   879.14088785
_cell_formula_units_Z   2
loop_
 _symmetry_equiv_pos_site_id
 _symmetry_equiv_pos_as_xyz
  1  'x, y, z'
loop_
 _atom_site_type_symbol
 _atom_site_label
 _atom_site_symmetry_multiplicity
 _atom_site_fract_x
 _atom_site_fract_y
 _atom_site_fract_z
 _atom_site_occupancy
  Rb  Rb0  1  0.131679  0.868321  0.515886  1
  Rb  Rb1  1  0.736641  0.868321  0.515886  1
  Rb  Rb2  1  0.949452  0.474726  0.319985  1
  Rb  Rb3  1  0.525274  0.474726  0.319985  1
  Rb  Rb4  1  0.868321  0.736641  0.015886  1
  Rb  Rb5  1  0.263359  0.131679  0.015886  1
  Rb  Rb6  1  0.525274  0.050548  0.319985  1
  Rb  Rb7  1  0.131679  0.263359  0.515886  1
  Rb  Rb8  1  0.868321  0.131679  0.015886  1
  Rb  Rb9  1  0.050548  0.525274  0.819985  1
  Rb  Rb10  1  0.474726  0.949452  0.819985  1
  Rb  Rb11  1  0.474726  0.525274  0.819985  1
  In  In12  1  0.666667  0.333333  0.707432  1
  In  In13  1  0.333333  0.666667  0.207432  1
  Se  Se14  1  0.407476  0.203738  0.606128  1
  Se  Se15  1  0.592524  0.796262  0.106128  1
  Se  Se16  1  0.666667  0.333333  0.032814  1
  Se  Se17  1  0.796262  0.592524  0.606128  1
  Se  Se18  1  0.203738  0.407476  0.106128  1
  Se  Se19  1  0.333333  0.666667  0.532814  1
  Se  Se20  1  0.203738  0.796262  0.106128  1
  Se  Se21  1  0.796262  0.203738  0.606128  1
  Cl  Cl22  1  0.000000  0.000000  0.274358  1
  Cl  Cl23  1  0.000000  0.000000  0.774358  1
