# generated using pymatgen
data_Ca3Pr(NiSn)4
_symmetry_space_group_name_H-M   'P 1'
_cell_length_a   4.60619300
_cell_length_b   7.53441794
_cell_length_c   7.40678096
_cell_angle_alpha   89.94214439
_cell_angle_beta   90.00000000
_cell_angle_gamma   90.00000000
_symmetry_Int_Tables_number   1
_chemical_formula_structural   Ca3Pr(NiSn)4
_chemical_formula_sum   'Ca3 Pr1 Ni4 Sn4'
_cell_volume   257.05207769
_cell_formula_units_Z   1
loop_
 _symmetry_equiv_pos_site_id
 _symmetry_equiv_pos_as_xyz
  1  'x, y, z'
loop_
 _atom_site_type_symbol
 _atom_site_label
 _atom_site_symmetry_multiplicity
 _atom_site_fract_x
 _atom_site_fract_y
 _atom_site_fract_z
 _atom_site_occupancy
  Ca  Ca0  1  0.250000  0.810535  0.480907  1
  Ca  Ca1  1  0.750000  0.192160  0.519921  1
  Ca  Ca2  1  0.750000  0.305265  0.018367  1
  Pr  Pr3  1  0.250000  0.688430  0.979876  1
  Ni  Ni4  1  0.750000  0.583567  0.310494  1
  Ni  Ni5  1  0.750000  0.914847  0.818332  1
  Ni  Ni6  1  0.250000  0.084946  0.185013  1
  Ni  Ni7  1  0.250000  0.415868  0.687734  1
  Sn  Sn8  1  0.750000  0.590967  0.676842  1
  Sn  Sn9  1  0.750000  0.912833  0.185530  1
  Sn  Sn10  1  0.250000  0.092353  0.816849  1
  Sn  Sn11  1  0.250000  0.408229  0.320133  1
