# generated using pymatgen
data_Er6Lu2Ti11Si16Mo
_symmetry_space_group_name_H-M   'P 1'
_cell_length_a   7.00205256
_cell_length_b   7.00129055
_cell_length_c   12.86303770
_cell_angle_alpha   89.99245987
_cell_angle_beta   90.06092886
_cell_angle_gamma   90.01592604
_symmetry_Int_Tables_number   1
_chemical_formula_structural   Er6Lu2Ti11Si16Mo
_chemical_formula_sum   'Er6 Lu2 Ti11 Si16 Mo1'
_cell_volume   630.58951256
_cell_formula_units_Z   1
loop_
 _symmetry_equiv_pos_site_id
 _symmetry_equiv_pos_as_xyz
  1  'x, y, z'
loop_
 _atom_site_type_symbol
 _atom_site_label
 _atom_site_symmetry_multiplicity
 _atom_site_fract_x
 _atom_site_fract_y
 _atom_site_fract_z
 _atom_site_occupancy
  Er  Er0  1  0.500645  0.159190  0.215727  1
  Er  Er1  1  0.840226  0.497303  0.282520  1
  Er  Er2  1  0.159514  0.500908  0.784346  1
  Er  Er3  1  0.657522  0.998724  0.967006  1
  Er  Er4  1  0.003069  0.340716  0.532898  1
  Er  Er5  1  0.998836  0.657695  0.032763  1
  Lu  Lu6  1  0.341401  0.001887  0.467252  1
  Lu  Lu7  1  0.498127  0.840815  0.717333  1
  Ti  Ti8  1  0.173910  0.827515  0.249684  1
  Ti  Ti9  1  0.826986  0.173478  0.750393  1
  Ti  Ti10  1  0.672607  0.673514  0.500221  1
  Ti  Ti11  1  0.153293  0.007792  0.875835  1
  Ti  Ti12  1  0.492494  0.651518  0.124195  1
  Ti  Ti13  1  0.506206  0.349499  0.625989  1
  Ti  Ti14  1  0.651039  0.492548  0.875557  1
  Ti  Ti15  1  0.349161  0.506796  0.374141  1
  Ti  Ti16  1  0.848822  0.992933  0.375694  1
  Ti  Ti17  1  0.008414  0.152933  0.123885  1
  Ti  Ti18  1  0.993121  0.848933  0.624414  1
  Si  Si19  1  0.204039  0.130516  0.683307  1
  Si  Si20  1  0.369426  0.702469  0.933127  1
  Si  Si21  1  0.630539  0.296082  0.433556  1
  Si  Si22  1  0.702236  0.369323  0.066445  1
  Si  Si23  1  0.297798  0.633098  0.566902  1
  Si  Si24  1  0.797022  0.869095  0.183576  1
  Si  Si25  1  0.132040  0.202352  0.316962  1
  Si  Si26  1  0.867856  0.797224  0.816207  1
  Si  Si27  1  0.291001  0.953314  0.064594  1
  Si  Si28  1  0.545692  0.792794  0.315171  1
  Si  Si29  1  0.453165  0.206943  0.814853  1
  Si  Si30  1  0.791601  0.546848  0.685312  1
  Si  Si31  1  0.208028  0.452713  0.184825  1
  Si  Si32  1  0.706470  0.046269  0.565041  1
  Si  Si33  1  0.953223  0.290920  0.935336  1
  Si  Si34  1  0.047801  0.708885  0.435134  1
  Mo  Mo35  1  0.326671  0.326463  0.999801  1
