# generated using pymatgen
data_Li8Tb3ScIn4
_symmetry_space_group_name_H-M   'P 1'
_cell_length_a   4.73710886
_cell_length_b   6.70750610
_cell_length_c   9.48563300
_cell_angle_alpha   89.96854821
_cell_angle_beta   90.05082359
_cell_angle_gamma   90.00919350
_symmetry_Int_Tables_number   1
_chemical_formula_structural   Li8Tb3ScIn4
_chemical_formula_sum   'Li8 Tb3 Sc1 In4'
_cell_volume   301.39810495
_cell_formula_units_Z   1
loop_
 _symmetry_equiv_pos_site_id
 _symmetry_equiv_pos_as_xyz
  1  'x, y, z'
loop_
 _atom_site_type_symbol
 _atom_site_label
 _atom_site_symmetry_multiplicity
 _atom_site_fract_x
 _atom_site_fract_y
 _atom_site_fract_z
 _atom_site_occupancy
  Li  Li0  1  0.750636  0.496191  0.119401  1
  Li  Li1  1  0.749912  0.004072  0.120090  1
  Li  Li2  1  0.248794  0.998820  0.375623  1
  Li  Li3  1  0.248795  0.501258  0.375677  1
  Li  Li4  1  0.750357  0.004206  0.628833  1
  Li  Li5  1  0.750633  0.495569  0.629016  1
  Li  Li6  1  0.250795  0.009265  0.875512  1
  Li  Li7  1  0.250244  0.490417  0.875672  1
  Tb  Tb8  1  0.250304  0.750118  0.124814  1
  Tb  Tb9  1  0.748704  0.250322  0.374274  1
  Tb  Tb10  1  0.250458  0.749848  0.626515  1
  Sc  Sc11  1  0.750688  0.249811  0.874292  1
  In  In12  1  0.249807  0.249966  0.122715  1
  In  In13  1  0.749500  0.750092  0.375026  1
  In  In14  1  0.250063  0.249920  0.627556  1
  In  In15  1  0.750304  0.750129  0.874987  1
