# generated using pymatgen
data_Ti10ZnCu(SnSb)3
_symmetry_space_group_name_H-M   'P 1'
_cell_length_a   8.21426400
_cell_length_b   8.21426511
_cell_length_c   5.53787000
_cell_angle_alpha   90.00000000
_cell_angle_beta   90.00000000
_cell_angle_gamma   120.00000359
_symmetry_Int_Tables_number   1
_chemical_formula_structural   Ti10ZnCu(SnSb)3
_chemical_formula_sum   'Ti10 Zn1 Cu1 Sn3 Sb3'
_cell_volume   323.60166272
_cell_formula_units_Z   1
loop_
 _symmetry_equiv_pos_site_id
 _symmetry_equiv_pos_as_xyz
  1  'x, y, z'
loop_
 _atom_site_type_symbol
 _atom_site_label
 _atom_site_symmetry_multiplicity
 _atom_site_fract_x
 _atom_site_fract_y
 _atom_site_fract_z
 _atom_site_occupancy
  Ti  Ti0  1  0.666667  0.333333  0.499943  1
  Ti  Ti1  1  0.333333  0.666667  0.499943  1
  Ti  Ti2  1  0.333333  0.666667  0.000008  1
  Ti  Ti3  1  0.666667  0.333333  0.000008  1
  Ti  Ti4  1  0.729508  0.729508  0.252141  1
  Ti  Ti5  1  0.270492  0.000000  0.252141  1
  Ti  Ti6  1  0.000000  0.270492  0.252141  1
  Ti  Ti7  1  0.268474  0.268474  0.747810  1
  Ti  Ti8  1  0.731526  0.000000  0.747810  1
  Ti  Ti9  1  0.000000  0.731526  0.747810  1
  Zn  Zn10  1  0.000000  0.000000  0.003087  1
  Cu  Cu11  1  0.000000  0.000000  0.496155  1
  Sn  Sn12  1  0.382393  0.382393  0.250007  1
  Sn  Sn13  1  0.617607  0.000000  0.250007  1
  Sn  Sn14  1  0.000000  0.617607  0.250007  1
  Sb  Sb15  1  0.615238  0.615238  0.750329  1
  Sb  Sb16  1  0.384762  0.000000  0.750329  1
  Sb  Sb17  1  0.000000  0.384762  0.750329  1
