# generated using pymatgen
data_TbNd(ZnGa)2
_symmetry_space_group_name_H-M   'P 1'
_cell_length_a   4.47478000
_cell_length_b   4.47477986
_cell_length_c   7.38236900
_cell_angle_alpha   90.00000000
_cell_angle_beta   90.00000000
_cell_angle_gamma   120.00000100
_symmetry_Int_Tables_number   1
_chemical_formula_structural   TbNd(ZnGa)2
_chemical_formula_sum   'Tb1 Nd1 Zn2 Ga2'
_cell_volume   128.01761738
_cell_formula_units_Z   1
loop_
 _symmetry_equiv_pos_site_id
 _symmetry_equiv_pos_as_xyz
  1  'x, y, z'
loop_
 _atom_site_type_symbol
 _atom_site_label
 _atom_site_symmetry_multiplicity
 _atom_site_fract_x
 _atom_site_fract_y
 _atom_site_fract_z
 _atom_site_occupancy
  Tb  Tb0  1  0.000000  0.000000  0.998819  1
  Nd  Nd1  1  0.000000  0.000000  0.497970  1
  Zn  Zn2  1  0.666667  0.333333  0.202041  1
  Zn  Zn3  1  0.333333  0.666667  0.732620  1
  Ga  Ga4  1  0.666667  0.333333  0.789237  1
  Ga  Ga5  1  0.333333  0.666667  0.266913  1
