# generated using pymatgen
data_Pr3(Hg2Au)2
_symmetry_space_group_name_H-M   'P 1'
_cell_length_a   8.20123700
_cell_length_b   8.20123747
_cell_length_c   3.95641200
_cell_angle_alpha   90.00000000
_cell_angle_beta   90.00000000
_cell_angle_gamma   120.00115260
_symmetry_Int_Tables_number   1
_chemical_formula_structural   Pr3(Hg2Au)2
_chemical_formula_sum   'Pr3 Hg4 Au2'
_cell_volume   230.45484741
_cell_formula_units_Z   1
loop_
 _symmetry_equiv_pos_site_id
 _symmetry_equiv_pos_as_xyz
  1  'x, y, z'
loop_
 _atom_site_type_symbol
 _atom_site_label
 _atom_site_symmetry_multiplicity
 _atom_site_fract_x
 _atom_site_fract_y
 _atom_site_fract_z
 _atom_site_occupancy
  Pr  Pr0  1  0.405197  0.405197  0.500000  1
  Pr  Pr1  1  0.594852  0.999969  0.500000  1
  Pr  Pr2  1  0.999969  0.594852  0.500000  1
  Hg  Hg3  1  0.000004  0.000004  0.500000  1
  Hg  Hg4  1  0.722415  0.722415  0.000000  1
  Hg  Hg5  1  0.277570  0.999997  0.000000  1
  Hg  Hg6  1  0.999997  0.277570  0.000000  1
  Au  Au7  1  0.666661  0.333334  0.000000  1
  Au  Au8  1  0.333334  0.666661  0.000000  1
