# generated using pymatgen
data_Be(TcB)2
_symmetry_space_group_name_H-M   'P 1'
_cell_length_a   5.59944800
_cell_length_b   5.59944800
_cell_length_c   3.04190600
_cell_angle_alpha   90.00000000
_cell_angle_beta   90.00000000
_cell_angle_gamma   90.00000000
_symmetry_Int_Tables_number   1
_chemical_formula_structural   Be(TcB)2
_chemical_formula_sum   'Be2 Tc4 B4'
_cell_volume   95.37536681
_cell_formula_units_Z   2
loop_
 _symmetry_equiv_pos_site_id
 _symmetry_equiv_pos_as_xyz
  1  'x, y, z'
loop_
 _atom_site_type_symbol
 _atom_site_label
 _atom_site_symmetry_multiplicity
 _atom_site_fract_x
 _atom_site_fract_y
 _atom_site_fract_z
 _atom_site_occupancy
  Be  Be0  1  0.000000  0.000000  0.000000  1
  Be  Be1  1  0.500000  0.500000  0.000000  1
  Tc  Tc2  1  0.676842  0.176842  0.500000  1
  Tc  Tc3  1  0.176842  0.323158  0.500000  1
  Tc  Tc4  1  0.823157  0.676842  0.500000  1
  Tc  Tc5  1  0.323158  0.823157  0.500000  1
  B  B6  1  0.382759  0.117241  0.000000  1
  B  B7  1  0.882758  0.382759  0.000000  1
  B  B8  1  0.117241  0.617240  0.000000  1
  B  B9  1  0.617240  0.882758  0.000000  1
