# generated using pymatgen
data_Hf9Zr2Ta9Si16
_symmetry_space_group_name_H-M   'P 1'
_cell_length_a   6.91271760
_cell_length_b   6.90501407
_cell_length_c   12.73047036
_cell_angle_alpha   90.06745493
_cell_angle_beta   89.81389806
_cell_angle_gamma   89.99112429
_symmetry_Int_Tables_number   1
_chemical_formula_structural   Hf9Zr2Ta9Si16
_chemical_formula_sum   'Hf9 Zr2 Ta9 Si16'
_cell_volume   607.65242574
_cell_formula_units_Z   1
loop_
 _symmetry_equiv_pos_site_id
 _symmetry_equiv_pos_as_xyz
  1  'x, y, z'
loop_
 _atom_site_type_symbol
 _atom_site_label
 _atom_site_symmetry_multiplicity
 _atom_site_fract_x
 _atom_site_fract_y
 _atom_site_fract_z
 _atom_site_occupancy
  Hf  Hf0  1  0.500458  0.351067  0.623012  1
  Hf  Hf1  1  0.501971  0.649334  0.123978  1
  Hf  Hf2  1  0.147158  0.998801  0.874317  1
  Hf  Hf3  1  0.001477  0.654992  0.032424  1
  Hf  Hf4  1  0.998300  0.343455  0.529670  1
  Hf  Hf5  1  0.658739  0.000300  0.969824  1
  Hf  Hf6  1  0.154318  0.498179  0.780914  1
  Hf  Hf7  1  0.844115  0.501210  0.280745  1
  Hf  Hf8  1  0.500607  0.158777  0.220365  1
  Zr  Zr9  1  0.501187  0.841658  0.718722  1
  Zr  Zr10  1  0.341364  0.001244  0.468479  1
  Ta  Ta11  1  0.348257  0.507400  0.376150  1
  Ta  Ta12  1  0.851526  0.998872  0.373314  1
  Ta  Ta13  1  0.006806  0.151989  0.126153  1
  Ta  Ta14  1  0.992530  0.849005  0.626794  1
  Ta  Ta15  1  0.651377  0.491748  0.876490  1
  Ta  Ta16  1  0.670791  0.672474  0.498790  1
  Ta  Ta17  1  0.827627  0.169993  0.750059  1
  Ta  Ta18  1  0.171997  0.832255  0.250992  1
  Ta  Ta19  1  0.330660  0.327284  0.000486  1
  Si  Si20  1  0.043063  0.701259  0.436059  1
  Si  Si21  1  0.955668  0.301247  0.936345  1
  Si  Si22  1  0.701928  0.045027  0.562465  1
  Si  Si23  1  0.200426  0.455134  0.186410  1
  Si  Si24  1  0.801119  0.544482  0.685617  1
  Si  Si25  1  0.454688  0.198594  0.814667  1
  Si  Si26  1  0.547569  0.802191  0.314266  1
  Si  Si27  1  0.302685  0.956109  0.064923  1
  Si  Si28  1  0.856298  0.788947  0.823033  1
  Si  Si29  1  0.138040  0.210345  0.323044  1
  Si  Si30  1  0.798806  0.863967  0.177848  1
  Si  Si31  1  0.288369  0.641648  0.572526  1
  Si  Si32  1  0.710002  0.355777  0.072993  1
  Si  Si33  1  0.638016  0.295054  0.424559  1
  Si  Si34  1  0.361600  0.700947  0.926962  1
  Si  Si35  1  0.200460  0.139233  0.676601  1
