# generated using pymatgen
data_TmSc(SiTc2)4
_symmetry_space_group_name_H-M   'P 1'
_cell_length_a   7.28884715
_cell_length_b   7.28884715
_cell_length_c   4.13746300
_cell_angle_alpha   90.00000000
_cell_angle_beta   90.00000000
_cell_angle_gamma   88.57174399
_symmetry_Int_Tables_number   1
_chemical_formula_structural   TmSc(SiTc2)4
_chemical_formula_sum   'Tm1 Sc1 Si4 Tc8'
_cell_volume   219.74391661
_cell_formula_units_Z   1
loop_
 _symmetry_equiv_pos_site_id
 _symmetry_equiv_pos_as_xyz
  1  'x, y, z'
loop_
 _atom_site_type_symbol
 _atom_site_label
 _atom_site_symmetry_multiplicity
 _atom_site_fract_x
 _atom_site_fract_y
 _atom_site_fract_z
 _atom_site_occupancy
  Tm  Tm0  1  0.500000  0.500000  0.000000  1
  Sc  Sc1  1  0.000000  0.000000  0.500000  1
  Si  Si2  1  0.711306  0.711306  0.500000  1
  Si  Si3  1  0.288694  0.288694  0.500000  1
  Si  Si4  1  0.200878  0.799122  0.000000  1
  Si  Si5  1  0.799122  0.200878  0.000000  1
  Tc  Tc6  1  0.601935  0.152220  0.500000  1
  Tc  Tc7  1  0.398065  0.847780  0.500000  1
  Tc  Tc8  1  0.091270  0.341034  0.000000  1
  Tc  Tc9  1  0.908730  0.658966  0.000000  1
  Tc  Tc10  1  0.152220  0.601935  0.500000  1
  Tc  Tc11  1  0.847780  0.398065  0.500000  1
  Tc  Tc12  1  0.341034  0.091270  0.000000  1
  Tc  Tc13  1  0.658966  0.908730  0.000000  1
