# generated using pymatgen
data_PrP12IrOs3
_symmetry_space_group_name_H-M   'P 1'
_cell_length_a   7.04624696
_cell_length_b   7.05895923
_cell_length_c   7.04624643
_cell_angle_alpha   109.50777988
_cell_angle_beta   109.43464516
_cell_angle_gamma   109.50776674
_symmetry_Int_Tables_number   1
_chemical_formula_structural   PrP12IrOs3
_chemical_formula_sum   'Pr1 P12 Ir1 Os3'
_cell_volume   269.67354730
_cell_formula_units_Z   1
loop_
 _symmetry_equiv_pos_site_id
 _symmetry_equiv_pos_as_xyz
  1  'x, y, z'
loop_
 _atom_site_type_symbol
 _atom_site_label
 _atom_site_symmetry_multiplicity
 _atom_site_fract_x
 _atom_site_fract_y
 _atom_site_fract_z
 _atom_site_occupancy
  Pr  Pr0  1  0.000000  0.000000  0.000000  1
  P  P1  1  0.355522  0.212119  0.857051  1
  P  P2  1  0.644478  0.787881  0.142949  1
  P  P3  1  0.641973  0.501720  0.855938  1
  P  P4  1  0.358027  0.498280  0.144062  1
  P  P5  1  0.213965  0.859747  0.358027  1
  P  P6  1  0.786035  0.140253  0.641973  1
  P  P7  1  0.501528  0.856596  0.644478  1
  P  P8  1  0.498472  0.143404  0.355522  1
  P  P9  1  0.855938  0.354218  0.213965  1
  P  P10  1  0.144062  0.645782  0.786035  1
  P  P11  1  0.857051  0.644932  0.501528  1
  P  P12  1  0.142949  0.355068  0.498472  1
  Ir  Ir13  1  0.000000  0.500000  0.000000  1
  Os  Os14  1  0.000000  0.000000  0.500000  1
  Os  Os15  1  0.500000  0.000000  0.000000  1
  Os  Os16  1  0.500000  0.500000  0.500000  1
