# generated using pymatgen
data_La10Mg3HgRu6
_symmetry_space_group_name_H-M   'P 1'
_cell_length_a   8.76915077
_cell_length_b   8.76915042
_cell_length_c   8.69380900
_cell_angle_alpha   109.29726947
_cell_angle_beta   109.29726867
_cell_angle_gamma   109.64461425
_symmetry_Int_Tables_number   1
_chemical_formula_structural   La10Mg3HgRu6
_chemical_formula_sum   'La10 Mg3 Hg1 Ru6'
_cell_volume   515.74031707
_cell_formula_units_Z   1
loop_
 _symmetry_equiv_pos_site_id
 _symmetry_equiv_pos_as_xyz
  1  'x, y, z'
loop_
 _atom_site_type_symbol
 _atom_site_label
 _atom_site_symmetry_multiplicity
 _atom_site_fract_x
 _atom_site_fract_y
 _atom_site_fract_z
 _atom_site_occupancy
  La  La0  1  0.252901  0.685585  0.434456  1
  La  La1  1  0.746160  0.816905  0.065386  1
  La  La2  1  0.432684  0.247099  0.681553  1
  La  La3  1  0.683095  0.429256  0.248481  1
  La  La4  1  0.070745  0.753840  0.819227  1
  La  La5  1  0.814415  0.067317  0.748870  1
  La  La6  1  0.209537  0.212332  0.210763  1
  La  La7  1  0.500001  0.000000  0.286817  1
  La  La8  1  0.287668  0.497205  0.998431  1
  La  La9  1  0.002796  0.290463  0.501227  1
  Mg  Mg10  1  0.594021  0.592181  0.592205  1
  Mg  Mg11  1  0.907819  0.501841  0.000023  1
  Mg  Mg12  1  0.998160  0.905979  0.498184  1
  Hg  Hg13  1  0.500001  0.000000  0.904046  1
  Ru  Ru14  1  0.239425  0.131951  0.882803  1
  Ru  Ru15  1  0.746268  0.364920  0.614829  1
  Ru  Ru16  1  0.892527  0.260577  0.143378  1
  Ru  Ru17  1  0.135079  0.881349  0.249910  1
  Ru  Ru18  1  0.618650  0.753732  0.368561  1
  Ru  Ru19  1  0.368048  0.607472  0.750851  1
