# generated using pymatgen
data_Tb6Dy2Hf12Si15Ge
_symmetry_space_group_name_H-M   'P 1'
_cell_length_a   7.29719265
_cell_length_b   7.30281200
_cell_length_c   13.42129002
_cell_angle_alpha   89.92071016
_cell_angle_beta   89.98773624
_cell_angle_gamma   89.93206498
_symmetry_Int_Tables_number   1
_chemical_formula_structural   Tb6Dy2Hf12Si15Ge
_chemical_formula_sum   'Tb6 Dy2 Hf12 Si15 Ge1'
_cell_volume   715.21969149
_cell_formula_units_Z   1
loop_
 _symmetry_equiv_pos_site_id
 _symmetry_equiv_pos_as_xyz
  1  'x, y, z'
loop_
 _atom_site_type_symbol
 _atom_site_label
 _atom_site_symmetry_multiplicity
 _atom_site_fract_x
 _atom_site_fract_y
 _atom_site_fract_z
 _atom_site_occupancy
  Tb  Tb0  1  0.154810  0.497533  0.466218  1
  Tb  Tb1  1  0.504644  0.843436  0.034331  1
  Tb  Tb2  1  0.844195  0.504234  0.965117  1
  Tb  Tb3  1  0.496329  0.155399  0.535538  1
  Tb  Tb4  1  0.343708  0.995851  0.784958  1
  Tb  Tb5  1  0.657070  0.003055  0.284688  1
  Dy  Dy6  1  0.994906  0.344188  0.214518  1
  Dy  Dy7  1  0.004055  0.655927  0.715095  1
  Hf  Hf8  1  0.174495  0.174838  0.999922  1
  Hf  Hf9  1  0.825411  0.825572  0.500197  1
  Hf  Hf10  1  0.325437  0.677011  0.249504  1
  Hf  Hf11  1  0.674782  0.325560  0.749987  1
  Hf  Hf12  1  0.148289  0.994269  0.374184  1
  Hf  Hf13  1  0.850626  0.004046  0.874364  1
  Hf  Hf14  1  0.504250  0.649617  0.624153  1
  Hf  Hf15  1  0.350213  0.495743  0.875874  1
  Hf  Hf16  1  0.495530  0.350304  0.123111  1
  Hf  Hf17  1  0.652031  0.506431  0.376644  1
  Hf  Hf18  1  0.995711  0.149499  0.625756  1
  Hf  Hf19  1  0.003521  0.850105  0.125309  1
  Si  Si20  1  0.637166  0.705106  0.816772  1
  Si  Si21  1  0.204731  0.863141  0.566971  1
  Si  Si22  1  0.136903  0.794902  0.932993  1
  Si  Si23  1  0.795048  0.137205  0.066769  1
  Si  Si24  1  0.863071  0.204724  0.433198  1
  Si  Si25  1  0.294929  0.363181  0.683117  1
  Si  Si26  1  0.704671  0.636493  0.183057  1
  Si  Si27  1  0.294689  0.045929  0.183799  1
  Si  Si28  1  0.705238  0.950890  0.685654  1
  Si  Si29  1  0.451207  0.795088  0.435572  1
  Si  Si30  1  0.204928  0.548521  0.064549  1
  Si  Si31  1  0.548808  0.204968  0.935311  1
  Si  Si32  1  0.794816  0.451320  0.564793  1
  Si  Si33  1  0.048706  0.295152  0.814331  1
  Si  Si34  1  0.951468  0.704424  0.314283  1
  Ge  Ge35  1  0.363609  0.296341  0.319364  1
