# generated using pymatgen
data_Hf5ZrCoTe2
_symmetry_space_group_name_H-M   'P 1'
_cell_length_a   3.59438000
_cell_length_b   7.74924299
_cell_length_c   7.73825360
_cell_angle_alpha   120.04699153
_cell_angle_beta   90.00000000
_cell_angle_gamma   90.00000000
_symmetry_Int_Tables_number   1
_chemical_formula_structural   Hf5ZrCoTe2
_chemical_formula_sum   'Hf5 Zr1 Co1 Te2'
_cell_volume   186.57395488
_cell_formula_units_Z   1
loop_
 _symmetry_equiv_pos_site_id
 _symmetry_equiv_pos_as_xyz
  1  'x, y, z'
loop_
 _atom_site_type_symbol
 _atom_site_label
 _atom_site_symmetry_multiplicity
 _atom_site_fract_x
 _atom_site_fract_y
 _atom_site_fract_z
 _atom_site_occupancy
  Hf  Hf0  1  0.500000  0.763489  0.762231  1
  Hf  Hf1  1  0.500000  0.001258  0.237769  1
  Hf  Hf2  1  0.500000  0.237286  0.000000  1
  Hf  Hf3  1  0.000000  0.400781  0.400233  1
  Hf  Hf4  1  0.000000  0.000548  0.599767  1
  Zr  Zr5  1  0.000000  0.595142  0.000000  1
  Co  Co6  1  0.000000  0.001009  0.000000  1
  Te  Te7  1  0.500000  0.667526  0.334564  1
  Te  Te8  1  0.500000  0.332962  0.665436  1
