# generated using pymatgen
data_YVCo(PRh)3
_symmetry_space_group_name_H-M   'P 1'
_cell_length_a   3.80714800
_cell_length_b   10.74740600
_cell_length_c   12.39405300
_cell_angle_alpha   90.00000000
_cell_angle_beta   90.00000000
_cell_angle_gamma   90.00000000
_symmetry_Int_Tables_number   1
_chemical_formula_structural   YVCo(PRh)3
_chemical_formula_sum   'Y4 V4 Co4 P12 Rh12'
_cell_volume   507.12703601
_cell_formula_units_Z   4
loop_
 _symmetry_equiv_pos_site_id
 _symmetry_equiv_pos_as_xyz
  1  'x, y, z'
loop_
 _atom_site_type_symbol
 _atom_site_label
 _atom_site_symmetry_multiplicity
 _atom_site_fract_x
 _atom_site_fract_y
 _atom_site_fract_z
 _atom_site_occupancy
  Y  Y0  1  0.250000  0.917282  0.207567  1
  Y  Y1  1  0.750000  0.082718  0.792433  1
  Y  Y2  1  0.750000  0.417282  0.292433  1
  Y  Y3  1  0.250000  0.582718  0.707567  1
  V  V4  1  0.250000  0.795766  0.486625  1
  V  V5  1  0.750000  0.204234  0.513375  1
  V  V6  1  0.750000  0.295766  0.013375  1
  V  V7  1  0.250000  0.704234  0.986625  1
  Co  Co8  1  0.250000  0.034272  0.437480  1
  Co  Co9  1  0.750000  0.965728  0.562520  1
  Co  Co10  1  0.750000  0.534272  0.062520  1
  Co  Co11  1  0.250000  0.465728  0.937480  1
  P  P12  1  0.250000  0.078846  0.607610  1
  P  P13  1  0.750000  0.921154  0.392390  1
  P  P14  1  0.750000  0.578846  0.892390  1
  P  P15  1  0.250000  0.421154  0.107610  1
  P  P16  1  0.250000  0.229286  0.373726  1
  P  P17  1  0.750000  0.770714  0.626274  1
  P  P18  1  0.750000  0.729286  0.126274  1
  P  P19  1  0.250000  0.270714  0.873726  1
  P  P20  1  0.250000  0.898070  0.891345  1
  P  P21  1  0.750000  0.101930  0.108655  1
  P  P22  1  0.750000  0.398070  0.608655  1
  P  P23  1  0.250000  0.601930  0.391345  1
  Rh  Rh24  1  0.250000  0.095563  0.986055  1
  Rh  Rh25  1  0.750000  0.904437  0.013945  1
  Rh  Rh26  1  0.750000  0.595563  0.513945  1
  Rh  Rh27  1  0.250000  0.404437  0.486055  1
  Rh  Rh28  1  0.250000  0.272289  0.680078  1
  Rh  Rh29  1  0.750000  0.727711  0.319922  1
  Rh  Rh30  1  0.750000  0.772289  0.819922  1
  Rh  Rh31  1  0.250000  0.227711  0.180078  1
  Rh  Rh32  1  0.250000  0.610336  0.196721  1
  Rh  Rh33  1  0.750000  0.389664  0.803279  1
  Rh  Rh34  1  0.750000  0.110336  0.303279  1
  Rh  Rh35  1  0.250000  0.889664  0.696721  1
