# generated using pymatgen
data_Y5PaNi20P13
_symmetry_space_group_name_H-M   'P 1'
_cell_length_a   12.68655808
_cell_length_b   12.69975522
_cell_length_c   3.77172700
_cell_angle_alpha   90.00000000
_cell_angle_beta   90.00000000
_cell_angle_gamma   120.15333529
_symmetry_Int_Tables_number   1
_chemical_formula_structural   Y5PaNi20P13
_chemical_formula_sum   'Y5 Pa1 Ni20 P13'
_cell_volume   525.45670348
_cell_formula_units_Z   1
loop_
 _symmetry_equiv_pos_site_id
 _symmetry_equiv_pos_as_xyz
  1  'x, y, z'
loop_
 _atom_site_type_symbol
 _atom_site_label
 _atom_site_symmetry_multiplicity
 _atom_site_fract_x
 _atom_site_fract_y
 _atom_site_fract_z
 _atom_site_occupancy
  Y  Y0  1  0.718119  0.530653  0.000000  1
  Y  Y1  1  0.813376  0.282611  0.000000  1
  Y  Y2  1  0.530113  0.812104  0.500000  1
  Y  Y3  1  0.281822  0.469166  0.500000  1
  Y  Y4  1  0.187929  0.718518  0.500000  1
  Pa  Pa5  1  0.472536  0.189640  0.000000  1
  Ni  Ni6  1  0.333000  0.666478  0.000000  1
  Ni  Ni7  1  0.663269  0.330376  0.500000  1
  Ni  Ni8  1  0.196101  0.090779  0.000000  1
  Ni  Ni9  1  0.895534  0.804192  0.000000  1
  Ni  Ni10  1  0.909527  0.104879  0.000000  1
  Ni  Ni11  1  0.849848  0.927456  0.500000  1
  Ni  Ni12  1  0.077835  0.150419  0.500000  1
  Ni  Ni13  1  0.071425  0.922992  0.500000  1
  Ni  Ni14  1  0.437472  0.414897  0.000000  1
  Ni  Ni15  1  0.978051  0.561879  0.000000  1
  Ni  Ni16  1  0.583282  0.021853  0.000000  1
  Ni  Ni17  1  0.565984  0.589117  0.500000  1
  Ni  Ni18  1  0.022272  0.434679  0.500000  1
  Ni  Ni19  1  0.412128  0.977896  0.500000  1
  Ni  Ni20  1  0.078295  0.320107  0.000000  1
  Ni  Ni21  1  0.242078  0.922293  0.000000  1
  Ni  Ni22  1  0.680733  0.759233  0.000000  1
  Ni  Ni23  1  0.928661  0.682864  0.500000  1
  Ni  Ni24  1  0.755056  0.070663  0.500000  1
  Ni  Ni25  1  0.317457  0.246451  0.500000  1
  P  P26  1  0.233423  0.281301  0.000000  1
  P  P27  1  0.047135  0.764895  0.000000  1
  P  P28  1  0.717991  0.952593  0.000000  1
  P  P29  1  0.768269  0.722265  0.500000  1
  P  P30  1  0.954757  0.232352  0.500000  1
  P  P31  1  0.277236  0.045469  0.500000  1
  P  P32  1  0.477214  0.614375  0.000000  1
  P  P33  1  0.136694  0.522652  0.000000  1
  P  P34  1  0.385362  0.862620  0.000000  1
  P  P35  1  0.523302  0.389231  0.500000  1
  P  P36  1  0.862346  0.475782  0.500000  1
  P  P37  1  0.614390  0.134278  0.500000  1
  P  P38  1  0.999982  0.999991  0.000000  1
