# generated using pymatgen
data_LiNbV(Co10B3)2
_symmetry_space_group_name_H-M   'P 1'
_cell_length_a   7.37849689
_cell_length_b   7.37849639
_cell_length_c   7.37849600
_cell_angle_alpha   60.00000176
_cell_angle_beta   60.00000397
_cell_angle_gamma   59.99999785
_symmetry_Int_Tables_number   1
_chemical_formula_structural   LiNbV(Co10B3)2
_chemical_formula_sum   'Li1 Nb1 V1 Co20 B6'
_cell_volume   284.04596724
_cell_formula_units_Z   1
loop_
 _symmetry_equiv_pos_site_id
 _symmetry_equiv_pos_as_xyz
  1  'x, y, z'
loop_
 _atom_site_type_symbol
 _atom_site_label
 _atom_site_symmetry_multiplicity
 _atom_site_fract_x
 _atom_site_fract_y
 _atom_site_fract_z
 _atom_site_occupancy
  Li  Li0  1  0.000000  0.000000  0.000000  1
  Nb  Nb1  1  0.750000  0.750000  0.750000  1
  V  V2  1  0.250000  0.250000  0.250000  1
  Co  Co3  1  0.614411  0.614411  0.156767  1
  Co  Co4  1  0.614411  0.156767  0.614411  1
  Co  Co5  1  0.156767  0.614411  0.614411  1
  Co  Co6  1  0.614411  0.614411  0.614411  1
  Co  Co7  1  0.378541  0.378541  0.864377  1
  Co  Co8  1  0.378541  0.864377  0.378541  1
  Co  Co9  1  0.864377  0.378541  0.378541  1
  Co  Co10  1  0.378541  0.378541  0.378541  1
  Co  Co11  1  0.000606  0.000606  0.340070  1
  Co  Co12  1  0.658717  0.000606  0.340070  1
  Co  Co13  1  0.000606  0.658717  0.340070  1
  Co  Co14  1  0.658717  0.340070  0.000606  1
  Co  Co15  1  0.000606  0.340070  0.000606  1
  Co  Co16  1  0.000606  0.340070  0.658717  1
  Co  Co17  1  0.340070  0.658717  0.000606  1
  Co  Co18  1  0.340070  0.000606  0.658717  1
  Co  Co19  1  0.340070  0.000606  0.000606  1
  Co  Co20  1  0.000606  0.000606  0.658717  1
  Co  Co21  1  0.000606  0.658717  0.000606  1
  Co  Co22  1  0.658717  0.000606  0.000606  1
  B  B23  1  0.727356  0.727356  0.272644  1
  B  B24  1  0.272644  0.727356  0.272644  1
  B  B25  1  0.727356  0.272644  0.272644  1
  B  B26  1  0.272644  0.272644  0.727356  1
  B  B27  1  0.727356  0.272644  0.727356  1
  B  B28  1  0.272644  0.727356  0.727356  1
