# generated using pymatgen
data_Dy4HoCoRu
_symmetry_space_group_name_H-M   'P 1'
_cell_length_a   6.29042526
_cell_length_b   7.10022797
_cell_length_c   8.51374625
_cell_angle_alpha   96.40255949
_cell_angle_beta   111.68031862
_cell_angle_gamma   90.00000832
_symmetry_Int_Tables_number   1
_chemical_formula_structural   Dy4HoCoRu
_chemical_formula_sum   'Dy8 Ho2 Co2 Ru2'
_cell_volume   350.80053263
_cell_formula_units_Z   2
loop_
 _symmetry_equiv_pos_site_id
 _symmetry_equiv_pos_as_xyz
  1  'x, y, z'
loop_
 _atom_site_type_symbol
 _atom_site_label
 _atom_site_symmetry_multiplicity
 _atom_site_fract_x
 _atom_site_fract_y
 _atom_site_fract_z
 _atom_site_occupancy
  Dy  Dy0  1  0.976749  0.911544  0.189031  1
  Dy  Dy1  1  0.787718  0.588456  0.810969  1
  Dy  Dy2  1  0.013482  0.082924  0.814731  1
  Dy  Dy3  1  0.198752  0.417076  0.185269  1
  Dy  Dy4  1  0.648135  0.811744  0.432630  1
  Dy  Dy5  1  0.215505  0.688256  0.567370  1
  Dy  Dy6  1  0.358080  0.181299  0.565730  1
  Dy  Dy7  1  0.792350  0.318701  0.434270  1
  Ho  Ho8  1  0.428088  0.750000  0.000000  1
  Ho  Ho9  1  0.577242  0.250000  0.000000  1
  Co  Co10  1  0.825382  0.576166  0.222028  1
  Co  Co11  1  0.603354  0.923834  0.777972  1
  Ru  Ru12  1  0.177108  0.428038  0.779052  1
  Ru  Ru13  1  0.398055  0.071962  0.220948  1
