# generated using pymatgen
data_Nb12Al5Ga11(Cu3Ir)2
_symmetry_space_group_name_H-M   'P 1'
_cell_length_a   8.79352808
_cell_length_b   8.85307999
_cell_length_c   8.17627800
_cell_angle_alpha   90.00000000
_cell_angle_beta   90.00000000
_cell_angle_gamma   121.05069328
_symmetry_Int_Tables_number   1
_chemical_formula_structural   Nb12Al5Ga11(Cu3Ir)2
_chemical_formula_sum   'Nb12 Al5 Ga11 Cu6 Ir2'
_cell_volume   545.31529201
_cell_formula_units_Z   1
loop_
 _symmetry_equiv_pos_site_id
 _symmetry_equiv_pos_as_xyz
  1  'x, y, z'
loop_
 _atom_site_type_symbol
 _atom_site_label
 _atom_site_symmetry_multiplicity
 _atom_site_fract_x
 _atom_site_fract_y
 _atom_site_fract_z
 _atom_site_occupancy
  Nb  Nb0  1  0.329281  0.992423  0.069124  1
  Nb  Nb1  1  0.670758  0.007447  0.930689  1
  Nb  Nb2  1  0.997611  0.333494  0.070691  1
  Nb  Nb3  1  0.670758  0.007447  0.569311  1
  Nb  Nb4  1  0.997611  0.333494  0.429309  1
  Nb  Nb5  1  0.002308  0.667478  0.929724  1
  Nb  Nb6  1  0.329281  0.992423  0.430876  1
  Nb  Nb7  1  0.002308  0.667478  0.570276  1
  Nb  Nb8  1  0.666128  0.664208  0.069173  1
  Nb  Nb9  1  0.332481  0.334908  0.931438  1
  Nb  Nb10  1  0.332481  0.334908  0.568562  1
  Nb  Nb11  1  0.666128  0.664208  0.430827  1
  Al  Al12  1  0.822345  0.992262  0.250000  1
  Al  Al13  1  0.009112  0.178829  0.750000  1
  Al  Al14  1  0.990240  0.820678  0.250000  1
  Al  Al15  1  0.825508  0.834317  0.750000  1
  Al  Al16  1  0.174384  0.165523  0.250000  1
  Ga  Ga17  1  0.342850  0.847847  0.750000  1
  Ga  Ga18  1  0.655094  0.508111  0.750000  1
  Ga  Ga19  1  0.659089  0.152341  0.250000  1
  Ga  Ga20  1  0.344559  0.491446  0.250000  1
  Ga  Ga21  1  0.845808  0.339361  0.750000  1
  Ga  Ga22  1  0.154616  0.661704  0.250000  1
  Ga  Ga23  1  0.340254  0.665342  0.504607  1
  Ga  Ga24  1  0.659516  0.334787  0.495282  1
  Ga  Ga25  1  0.659516  0.334787  0.004718  1
  Ga  Ga26  1  0.340254  0.665342  0.995393  1
  Ga  Ga27  1  0.180543  0.008424  0.750000  1
  Cu  Cu28  1  0.168834  0.497118  0.750000  1
  Cu  Cu29  1  0.830457  0.502603  0.250000  1
  Cu  Cu30  1  0.507029  0.673266  0.750000  1
  Cu  Cu31  1  0.503451  0.171268  0.750000  1
  Cu  Cu32  1  0.492385  0.325057  0.250000  1
  Cu  Cu33  1  0.499518  0.829896  0.250000  1
  Ir  Ir34  1  0.998753  0.999889  0.498992  1
  Ir  Ir35  1  0.998753  0.999889  0.001008  1
