# generated using pymatgen
data_U(Si2Rh3)2
_symmetry_space_group_name_H-M   'P 1'
_cell_length_a   7.05333500
_cell_length_b   7.05333450
_cell_length_c   3.77639000
_cell_angle_alpha   90.00000000
_cell_angle_beta   90.00000000
_cell_angle_gamma   119.99999767
_symmetry_Int_Tables_number   1
_chemical_formula_structural   U(Si2Rh3)2
_chemical_formula_sum   'U1 Si4 Rh6'
_cell_volume   162.70334155
_cell_formula_units_Z   1
loop_
 _symmetry_equiv_pos_site_id
 _symmetry_equiv_pos_as_xyz
  1  'x, y, z'
loop_
 _atom_site_type_symbol
 _atom_site_label
 _atom_site_symmetry_multiplicity
 _atom_site_fract_x
 _atom_site_fract_y
 _atom_site_fract_z
 _atom_site_occupancy
  U  U0  1  0.000000  0.000000  0.000000  1
  Si  Si1  1  0.333333  0.666667  0.000000  1
  Si  Si2  1  0.402161  0.201081  0.500000  1
  Si  Si3  1  0.798918  0.201081  0.500000  1
  Si  Si4  1  0.798919  0.597838  0.500000  1
  Rh  Rh5  1  0.532359  0.064719  0.000000  1
  Rh  Rh6  1  0.532358  0.467640  0.000000  1
  Rh  Rh7  1  0.935280  0.467640  0.000000  1
  Rh  Rh8  1  0.196123  0.392246  0.500000  1
  Rh  Rh9  1  0.196124  0.803877  0.500000  1
  Rh  Rh10  1  0.607754  0.803877  0.500000  1
