# generated using pymatgen
data_UCrCl10
_symmetry_space_group_name_H-M   'P 1'
_cell_length_a   6.75810893
_cell_length_b   7.39366301
_cell_length_c   11.69784326
_cell_angle_alpha   97.57309509
_cell_angle_beta   92.35943009
_cell_angle_gamma   114.64212171
_symmetry_Int_Tables_number   1
_chemical_formula_structural   UCrCl10
_chemical_formula_sum   'U1 Cr1 Cl10'
_cell_volume   523.63762872
_cell_formula_units_Z   1
loop_
 _symmetry_equiv_pos_site_id
 _symmetry_equiv_pos_as_xyz
  1  'x, y, z'
loop_
 _atom_site_type_symbol
 _atom_site_label
 _atom_site_symmetry_multiplicity
 _atom_site_fract_x
 _atom_site_fract_y
 _atom_site_fract_z
 _atom_site_occupancy
  U  U0  1  0.897541  0.789824  0.791163  1
  Cr  Cr1  1  0.143542  0.293895  0.292228  1
  Cl  Cl2  1  0.954748  0.209062  0.432148  1
  Cl  Cl3  1  0.068309  0.830459  0.607663  1
  Cl  Cl4  1  0.200850  0.106760  0.889369  1
  Cl  Cl5  1  0.733462  0.754030  0.976573  1
  Cl  Cl6  1  0.100990  0.596582  0.842941  1
  Cl  Cl7  1  0.947306  0.328290  0.159131  1
  Cl  Cl8  1  0.692414  0.980464  0.736973  1
  Cl  Cl9  1  0.246239  0.066816  0.234839  1
  Cl  Cl10  1  0.590344  0.473361  0.695055  1
  Cl  Cl11  1  0.424254  0.570458  0.341916  1
