# generated using pymatgen
data_Ac6CdSn9
_symmetry_space_group_name_H-M   'P 1'
_cell_length_a   6.91874365
_cell_length_b   6.91874428
_cell_length_c   10.96748494
_cell_angle_alpha   90.06833019
_cell_angle_beta   90.06833157
_cell_angle_gamma   102.65082471
_symmetry_Int_Tables_number   1
_chemical_formula_structural   Ac6CdSn9
_chemical_formula_sum   'Ac6 Cd1 Sn9'
_cell_volume   512.25624330
_cell_formula_units_Z   1
loop_
 _symmetry_equiv_pos_site_id
 _symmetry_equiv_pos_as_xyz
  1  'x, y, z'
loop_
 _atom_site_type_symbol
 _atom_site_label
 _atom_site_symmetry_multiplicity
 _atom_site_fract_x
 _atom_site_fract_y
 _atom_site_fract_z
 _atom_site_occupancy
  Ac  Ac0  1  0.797865  0.204464  0.998564  1
  Ac  Ac1  1  0.204464  0.797865  0.998564  1
  Ac  Ac2  1  0.203646  0.796470  0.499939  1
  Ac  Ac3  1  0.796470  0.203646  0.499939  1
  Ac  Ac4  1  0.634644  0.634644  0.251345  1
  Ac  Ac5  1  0.367010  0.367010  0.750476  1
  Cd  Cd6  1  0.308719  0.308719  0.048874  1
  Sn  Sn7  1  0.078458  0.486941  0.248024  1
  Sn  Sn8  1  0.923092  0.512887  0.750774  1
  Sn  Sn9  1  0.486941  0.078457  0.248024  1
  Sn  Sn10  1  0.512887  0.923092  0.750774  1
  Sn  Sn11  1  0.032953  0.032953  0.250362  1
  Sn  Sn12  1  0.969703  0.969703  0.750761  1
  Sn  Sn13  1  0.684650  0.684650  0.951828  1
  Sn  Sn14  1  0.686416  0.686416  0.552594  1
  Sn  Sn15  1  0.312083  0.312083  0.449158  1
