# generated using pymatgen
data_Y4ScPt3
_symmetry_space_group_name_H-M   'P 1'
_cell_length_a   10.90651800
_cell_length_b   10.90651800
_cell_length_c   6.43956000
_cell_angle_alpha   90.00000000
_cell_angle_beta   90.00000000
_cell_angle_gamma   90.00000000
_symmetry_Int_Tables_number   1
_chemical_formula_structural   Y4ScPt3
_chemical_formula_sum   'Y16 Sc4 Pt12'
_cell_volume   765.99940972
_cell_formula_units_Z   4
loop_
 _symmetry_equiv_pos_site_id
 _symmetry_equiv_pos_as_xyz
  1  'x, y, z'
loop_
 _atom_site_type_symbol
 _atom_site_label
 _atom_site_symmetry_multiplicity
 _atom_site_fract_x
 _atom_site_fract_y
 _atom_site_fract_z
 _atom_site_occupancy
  Y  Y0  1  0.288289  0.086751  0.378649  1
  Y  Y1  1  0.288289  0.913249  0.878649  1
  Y  Y2  1  0.711711  0.086751  0.878649  1
  Y  Y3  1  0.711711  0.913249  0.378649  1
  Y  Y4  1  0.586751  0.788289  0.878649  1
  Y  Y5  1  0.586751  0.211711  0.378649  1
  Y  Y6  1  0.413249  0.788289  0.378649  1
  Y  Y7  1  0.413249  0.211711  0.878649  1
  Y  Y8  1  0.211711  0.413249  0.621351  1
  Y  Y9  1  0.211711  0.586751  0.121351  1
  Y  Y10  1  0.788289  0.413249  0.121351  1
  Y  Y11  1  0.788289  0.586751  0.621351  1
  Y  Y12  1  0.913249  0.711711  0.121351  1
  Y  Y13  1  0.913249  0.288289  0.621351  1
  Y  Y14  1  0.086751  0.711711  0.621351  1
  Y  Y15  1  0.086751  0.288289  0.121351  1
  Sc  Sc16  1  0.000000  0.000000  0.500000  1
  Sc  Sc17  1  0.000000  0.000000  0.000000  1
  Sc  Sc18  1  0.500000  0.500000  0.000000  1
  Sc  Sc19  1  0.500000  0.500000  0.500000  1
  Pt  Pt20  1  0.853402  0.146598  0.250000  1
  Pt  Pt21  1  0.853402  0.853402  0.750000  1
  Pt  Pt22  1  0.146598  0.146598  0.750000  1
  Pt  Pt23  1  0.146598  0.853402  0.250000  1
  Pt  Pt24  1  0.646598  0.353402  0.750000  1
  Pt  Pt25  1  0.646598  0.646598  0.250000  1
  Pt  Pt26  1  0.353402  0.353402  0.250000  1
  Pt  Pt27  1  0.353402  0.646598  0.750000  1
  Pt  Pt28  1  0.500000  0.000000  0.121575  1
  Pt  Pt29  1  0.500000  0.000000  0.621575  1
  Pt  Pt30  1  0.000000  0.500000  0.878425  1
  Pt  Pt31  1  0.000000  0.500000  0.378425  1
