# generated using pymatgen
data_Hf8Nb11Si16Tc
_symmetry_space_group_name_H-M   'P 1'
_cell_length_a   6.64213333
_cell_length_b   6.84179834
_cell_length_c   13.06885600
_cell_angle_alpha   90.00000000
_cell_angle_beta   90.00000000
_cell_angle_gamma   90.29169451
_symmetry_Int_Tables_number   1
_chemical_formula_structural   Hf8Nb11Si16Tc
_chemical_formula_sum   'Hf8 Nb11 Si16 Tc1'
_cell_volume   593.89518381
_cell_formula_units_Z   1
loop_
 _symmetry_equiv_pos_site_id
 _symmetry_equiv_pos_as_xyz
  1  'x, y, z'
loop_
 _atom_site_type_symbol
 _atom_site_label
 _atom_site_symmetry_multiplicity
 _atom_site_fract_x
 _atom_site_fract_y
 _atom_site_fract_z
 _atom_site_occupancy
  Hf  Hf0  1  0.493110  0.674163  0.592486  1
  Hf  Hf1  1  0.998610  0.828583  0.908107  1
  Hf  Hf2  1  0.503119  0.327698  0.093198  1
  Hf  Hf3  1  0.003341  0.174436  0.405910  1
  Hf  Hf4  1  0.503119  0.327698  0.406802  1
  Hf  Hf5  1  0.003341  0.174436  0.094090  1
  Hf  Hf6  1  0.493110  0.674163  0.907514  1
  Hf  Hf7  1  0.998610  0.828583  0.591893  1
  Nb  Nb8  1  0.667069  0.167089  0.625337  1
  Nb  Nb9  1  0.167105  0.328234  0.875368  1
  Nb  Nb10  1  0.334582  0.828502  0.123621  1
  Nb  Nb11  1  0.835001  0.670156  0.378400  1
  Nb  Nb12  1  0.334582  0.828502  0.376379  1
  Nb  Nb13  1  0.835001  0.670156  0.121600  1
  Nb  Nb14  1  0.667069  0.167089  0.874663  1
  Nb  Nb15  1  0.167105  0.328234  0.624632  1
  Nb  Nb16  1  0.339473  0.997023  0.750000  1
  Nb  Nb17  1  0.161920  0.502872  0.250000  1
  Nb  Nb18  1  0.661597  0.997915  0.250000  1
  Si  Si19  1  0.671579  0.964951  0.461181  1
  Si  Si20  1  0.170638  0.535484  0.037700  1
  Si  Si21  1  0.329639  0.036415  0.960991  1
  Si  Si22  1  0.828489  0.464501  0.543667  1
  Si  Si23  1  0.329639  0.036415  0.539009  1
  Si  Si24  1  0.828489  0.464501  0.956333  1
  Si  Si25  1  0.671579  0.964951  0.038819  1
  Si  Si26  1  0.170638  0.535484  0.462300  1
  Si  Si27  1  0.470992  0.391085  0.750000  1
  Si  Si28  1  0.963270  0.112638  0.750000  1
  Si  Si29  1  0.537759  0.612043  0.250000  1
  Si  Si30  1  0.035632  0.887156  0.250000  1
  Si  Si31  1  0.707506  0.851762  0.750000  1
  Si  Si32  1  0.195387  0.635604  0.750000  1
  Si  Si33  1  0.295376  0.139868  0.250000  1
  Si  Si34  1  0.794564  0.361048  0.250000  1
  Tc  Tc35  1  0.831967  0.510562  0.750000  1
