# generated using pymatgen
data_Sc2Be4Ru5
_symmetry_space_group_name_H-M   'P 1'
_cell_length_a   3.18547900
_cell_length_b   8.70436654
_cell_length_c   10.13384256
_cell_angle_alpha   90.01160279
_cell_angle_beta   90.00000000
_cell_angle_gamma   90.00000000
_symmetry_Int_Tables_number   1
_chemical_formula_structural   Sc2Be4Ru5
_chemical_formula_sum   'Sc4 Be8 Ru10'
_cell_volume   280.98689253
_cell_formula_units_Z   2
loop_
 _symmetry_equiv_pos_site_id
 _symmetry_equiv_pos_as_xyz
  1  'x, y, z'
loop_
 _atom_site_type_symbol
 _atom_site_label
 _atom_site_symmetry_multiplicity
 _atom_site_fract_x
 _atom_site_fract_y
 _atom_site_fract_z
 _atom_site_occupancy
  Sc  Sc0  1  0.500000  0.833801  0.184524  1
  Sc  Sc1  1  0.500000  0.166199  0.815476  1
  Sc  Sc2  1  0.500000  0.665778  0.684959  1
  Sc  Sc3  1  0.500000  0.334222  0.315041  1
  Be  Be4  1  0.500000  0.963557  0.594380  1
  Be  Be5  1  0.500000  0.036443  0.405620  1
  Be  Be6  1  0.500000  0.837568  0.906636  1
  Be  Be7  1  0.500000  0.162432  0.093364  1
  Be  Be8  1  0.500000  0.662341  0.406499  1
  Be  Be9  1  0.500000  0.337659  0.593501  1
  Be  Be10  1  0.500000  0.463632  0.905529  1
  Be  Be11  1  0.500000  0.536368  0.094471  1
  Ru  Ru12  1  0.000000  0.656955  0.954340  1
  Ru  Ru13  1  0.000000  0.343045  0.045660  1
  Ru  Ru14  1  0.000000  0.843099  0.454205  1
  Ru  Ru15  1  0.000000  0.156901  0.545795  1
  Ru  Ru16  1  0.000000  0.000000  0.000000  1
  Ru  Ru17  1  0.000000  0.410802  0.752826  1
  Ru  Ru18  1  0.000000  0.589198  0.247174  1
  Ru  Ru19  1  0.000000  0.500000  0.500000  1
  Ru  Ru20  1  0.000000  0.910924  0.747153  1
  Ru  Ru21  1  0.000000  0.089076  0.252847  1
