# generated using pymatgen
data_ErTa3MoN6
_symmetry_space_group_name_H-M   'P 1'
_cell_length_a   5.24832205
_cell_length_b   5.24724541
_cell_length_c   10.74161200
_cell_angle_alpha   90.01558171
_cell_angle_beta   89.99220528
_cell_angle_gamma   119.99322278
_symmetry_Int_Tables_number   1
_chemical_formula_structural   ErTa3MoN6
_chemical_formula_sum   'Er2 Ta6 Mo2 N12'
_cell_volume   256.20145038
_cell_formula_units_Z   2
loop_
 _symmetry_equiv_pos_site_id
 _symmetry_equiv_pos_as_xyz
  1  'x, y, z'
loop_
 _atom_site_type_symbol
 _atom_site_label
 _atom_site_symmetry_multiplicity
 _atom_site_fract_x
 _atom_site_fract_y
 _atom_site_fract_z
 _atom_site_occupancy
  Er  Er0  1  0.666196  0.333840  0.000730  1
  Er  Er1  1  0.333804  0.667645  0.000730  1
  Ta  Ta2  1  0.000000  0.323982  0.741038  1
  Ta  Ta3  1  0.324362  0.324745  0.260920  1
  Ta  Ta4  1  0.675638  0.000382  0.260920  1
  Ta  Ta5  1  0.000000  0.675345  0.260763  1
  Ta  Ta6  1  0.333033  0.668204  0.492801  1
  Ta  Ta7  1  0.666967  0.335169  0.492801  1
  Mo  Mo8  1  0.674110  0.672626  0.739543  1
  Mo  Mo9  1  0.325890  0.998516  0.739543  1
  N  N10  1  0.666886  0.667961  0.386793  1
  N  N11  1  0.333114  0.001074  0.386793  1
  N  N12  1  0.000000  0.333094  0.386295  1
  N  N13  1  0.346144  0.346423  0.617616  1
  N  N14  1  0.653856  0.000279  0.617616  1
  N  N15  1  0.000000  0.651978  0.618015  1
  N  N16  1  0.337674  0.337871  0.856796  1
  N  N17  1  0.662326  0.000197  0.856796  1
  N  N18  1  0.000000  0.659661  0.856749  1
  N  N19  1  0.658175  0.658417  0.142199  1
  N  N20  1  0.341825  0.000242  0.142199  1
  N  N21  1  0.000000  0.342345  0.142343  1
