# generated using pymatgen
data_Ac9Sm7(HoSn4)4
_symmetry_space_group_name_H-M   'P 1'
_cell_length_a   8.33009200
_cell_length_b   8.60291114
_cell_length_c   16.48806100
_cell_angle_alpha   90.12458957
_cell_angle_beta   90.14038357
_cell_angle_gamma   89.97503932
_symmetry_Int_Tables_number   1
_chemical_formula_structural   Ac9Sm7(HoSn4)4
_chemical_formula_sum   'Ac9 Sm7 Ho4 Sn16'
_cell_volume   1181.57814617
_cell_formula_units_Z   1
loop_
 _symmetry_equiv_pos_site_id
 _symmetry_equiv_pos_as_xyz
  1  'x, y, z'
loop_
 _atom_site_type_symbol
 _atom_site_label
 _atom_site_symmetry_multiplicity
 _atom_site_fract_x
 _atom_site_fract_y
 _atom_site_fract_z
 _atom_site_occupancy
  Ac  Ac0  1  0.153881  0.332078  0.619930  1
  Ac  Ac1  1  0.495186  0.678513  0.598071  1
  Ac  Ac2  1  0.996759  0.821933  0.906077  1
  Ac  Ac3  1  0.503289  0.322223  0.096539  1
  Ac  Ac4  1  0.002054  0.179734  0.401328  1
  Ac  Ac5  1  0.504340  0.323470  0.401483  1
  Ac  Ac6  1  0.003290  0.178250  0.096691  1
  Ac  Ac7  1  0.497340  0.678373  0.905253  1
  Ac  Ac8  1  0.996024  0.819888  0.596319  1
  Sm  Sm9  1  0.655828  0.167431  0.625842  1
  Sm  Sm10  1  0.155117  0.331859  0.876882  1
  Sm  Sm11  1  0.344524  0.833498  0.124563  1
  Sm  Sm12  1  0.846312  0.666210  0.375371  1
  Sm  Sm13  1  0.346941  0.833988  0.371625  1
  Sm  Sm14  1  0.844388  0.668051  0.124033  1
  Sm  Sm15  1  0.655746  0.166255  0.877846  1
  Ho  Ho16  1  0.818915  0.500200  0.751623  1
  Ho  Ho17  1  0.321326  0.999229  0.752690  1
  Ho  Ho18  1  0.180468  0.501065  0.249039  1
  Ho  Ho19  1  0.679765  0.998839  0.249078  1
  Sn  Sn20  1  0.679975  0.958875  0.458382  1
  Sn  Sn21  1  0.180501  0.541454  0.042320  1
  Sn  Sn22  1  0.319079  0.041208  0.958833  1
  Sn  Sn23  1  0.802537  0.459554  0.539770  1
  Sn  Sn24  1  0.330530  0.031694  0.538059  1
  Sn  Sn25  1  0.820245  0.458261  0.958685  1
  Sn  Sn26  1  0.680438  0.959324  0.042863  1
  Sn  Sn27  1  0.184034  0.547536  0.450910  1
  Sn  Sn28  1  0.461672  0.374282  0.754970  1
  Sn  Sn29  1  0.954554  0.120068  0.753285  1
  Sn  Sn30  1  0.543566  0.626892  0.248618  1
  Sn  Sn31  1  0.040659  0.873468  0.249638  1
  Sn  Sn32  1  0.689583  0.862234  0.751722  1
  Sn  Sn33  1  0.191171  0.642274  0.753434  1
  Sn  Sn34  1  0.309655  0.137483  0.248828  1
  Sn  Sn35  1  0.810307  0.364306  0.249397  1
