# generated using pymatgen
data_Er8Ga12CoCu3
_symmetry_space_group_name_H-M   'P 1'
_cell_length_a   6.93269800
_cell_length_b   8.76250171
_cell_length_c   8.76250200
_cell_angle_alpha   120.00000109
_cell_angle_beta   90.00000000
_cell_angle_gamma   90.00000000
_symmetry_Int_Tables_number   1
_chemical_formula_structural   Er8Ga12CoCu3
_chemical_formula_sum   'Er8 Ga12 Co1 Cu3'
_cell_volume   460.98750586
_cell_formula_units_Z   1
loop_
 _symmetry_equiv_pos_site_id
 _symmetry_equiv_pos_as_xyz
  1  'x, y, z'
loop_
 _atom_site_type_symbol
 _atom_site_label
 _atom_site_symmetry_multiplicity
 _atom_site_fract_x
 _atom_site_fract_y
 _atom_site_fract_z
 _atom_site_occupancy
  Er  Er0  1  0.746107  0.000000  0.000000  1
  Er  Er1  1  0.251037  0.000000  0.000000  1
  Er  Er2  1  0.750053  0.483720  0.516280  1
  Er  Er3  1  0.256470  0.523098  0.476902  1
  Er  Er4  1  0.750053  0.032559  0.516280  1
  Er  Er5  1  0.256470  0.953803  0.476902  1
  Er  Er6  1  0.750053  0.483720  0.967441  1
  Er  Er7  1  0.256470  0.523098  0.046197  1
  Ga  Ga8  1  0.960687  0.831224  0.168776  1
  Ga  Ga9  1  0.041580  0.170352  0.829648  1
  Ga  Ga10  1  0.960687  0.337554  0.168776  1
  Ga  Ga11  1  0.461356  0.169839  0.830161  1
  Ga  Ga12  1  0.041580  0.659294  0.829648  1
  Ga  Ga13  1  0.542754  0.826781  0.173219  1
  Ga  Ga14  1  0.960687  0.831224  0.662446  1
  Ga  Ga15  1  0.461356  0.660320  0.830161  1
  Ga  Ga16  1  0.041580  0.170352  0.340706  1
  Ga  Ga17  1  0.542754  0.346438  0.173219  1
  Ga  Ga18  1  0.461356  0.169839  0.339680  1
  Ga  Ga19  1  0.542754  0.826781  0.653562  1
  Co  Co20  1  0.517386  0.666667  0.333333  1
  Cu  Cu21  1  0.945406  0.666667  0.333333  1
  Cu  Cu22  1  0.048358  0.333333  0.666667  1
  Cu  Cu23  1  0.453005  0.333333  0.666667  1
