# generated using pymatgen
data_LiHf2(SnRh2)3
_symmetry_space_group_name_H-M   'P 1'
_cell_length_a   4.35832500
_cell_length_b   7.03988700
_cell_length_c   12.97902900
_cell_angle_alpha   90.00080866
_cell_angle_beta   90.00201435
_cell_angle_gamma   89.99955676
_symmetry_Int_Tables_number   1
_chemical_formula_structural   LiHf2(SnRh2)3
_chemical_formula_sum   'Li2 Hf4 Sn6 Rh12'
_cell_volume   398.22406683
_cell_formula_units_Z   2
loop_
 _symmetry_equiv_pos_site_id
 _symmetry_equiv_pos_as_xyz
  1  'x, y, z'
loop_
 _atom_site_type_symbol
 _atom_site_label
 _atom_site_symmetry_multiplicity
 _atom_site_fract_x
 _atom_site_fract_y
 _atom_site_fract_z
 _atom_site_occupancy
  Li  Li0  1  0.000103  0.000001  0.664445  1
  Li  Li1  1  0.500116  0.500004  0.835609  1
  Hf  Hf2  1  0.000010  0.000005  0.995212  1
  Hf  Hf3  1  0.499972  0.500004  0.161614  1
  Hf  Hf4  1  0.999949  0.999990  0.338352  1
  Hf  Hf5  1  0.499998  0.500003  0.504790  1
  Sn  Sn6  1  0.000038  0.500001  0.985143  1
  Sn  Sn7  1  0.499934  0.000005  0.166847  1
  Sn  Sn8  1  0.999728  0.499980  0.332848  1
  Sn  Sn9  1  0.500027  0.000007  0.515152  1
  Sn  Sn10  1  0.000033  0.500001  0.679382  1
  Sn  Sn11  1  0.500012  0.000000  0.820511  1
  Rh  Rh12  1  0.500049  0.244005  0.999587  1
  Rh  Rh13  1  0.499986  0.756000  0.999594  1
  Rh  Rh14  1  0.999954  0.248521  0.165885  1
  Rh  Rh15  1  0.999939  0.751478  0.165902  1
  Rh  Rh16  1  0.499935  0.250790  0.334147  1
  Rh  Rh17  1  0.499932  0.749204  0.334143  1
  Rh  Rh18  1  0.999961  0.256253  0.500217  1
  Rh  Rh19  1  0.000031  0.743733  0.500201  1
  Rh  Rh20  1  0.500012  0.263998  0.667477  1
  Rh  Rh21  1  0.500130  0.736001  0.667467  1
  Rh  Rh22  1  0.000113  0.236081  0.832740  1
  Rh  Rh23  1  0.000031  0.763924  0.832739  1
