# generated using pymatgen
data_Y2Er6B24MoOs3
_symmetry_space_group_name_H-M   'P 1'
_cell_length_a   3.64161400
_cell_length_b   9.14745515
_cell_length_c   11.53706003
_cell_angle_alpha   89.89908511
_cell_angle_beta   90.00000000
_cell_angle_gamma   90.00000000
_symmetry_Int_Tables_number   1
_chemical_formula_structural   Y2Er6B24MoOs3
_chemical_formula_sum   'Y2 Er6 B24 Mo1 Os3'
_cell_volume   384.31618726
_cell_formula_units_Z   1
loop_
 _symmetry_equiv_pos_site_id
 _symmetry_equiv_pos_as_xyz
  1  'x, y, z'
loop_
 _atom_site_type_symbol
 _atom_site_label
 _atom_site_symmetry_multiplicity
 _atom_site_fract_x
 _atom_site_fract_y
 _atom_site_fract_z
 _atom_site_occupancy
  Y  Y0  1  0.000000  0.322021  0.413100  1
  Y  Y1  1  0.000000  0.677471  0.584926  1
  Er  Er2  1  0.000000  0.820536  0.087366  1
  Er  Er3  1  0.000000  0.177574  0.914605  1
  Er  Er4  1  0.000000  0.945070  0.372523  1
  Er  Er5  1  0.000000  0.057413  0.628589  1
  Er  Er6  1  0.000000  0.443369  0.126599  1
  Er  Er7  1  0.000000  0.556776  0.871574  1
  B  B8  1  0.500000  0.551415  0.435044  1
  B  B9  1  0.500000  0.445903  0.568369  1
  B  B10  1  0.500000  0.053294  0.066722  1
  B  B11  1  0.500000  0.946502  0.933434  1
  B  B12  1  0.500000  0.751075  0.421052  1
  B  B13  1  0.500000  0.251720  0.581663  1
  B  B14  1  0.500000  0.248281  0.080004  1
  B  B15  1  0.500000  0.751497  0.919302  1
  B  B16  1  0.500000  0.794612  0.264373  1
  B  B17  1  0.500000  0.208327  0.734727  1
  B  B18  1  0.500000  0.290719  0.232355  1
  B  B19  1  0.500000  0.709489  0.766463  1
  B  B20  1  0.500000  0.631964  0.182919  1
  B  B21  1  0.500000  0.367989  0.815273  1
  B  B22  1  0.500000  0.130989  0.313350  1
  B  B23  1  0.500000  0.869752  0.686106  1
  B  B24  1  0.500000  0.982901  0.212478  1
  B  B25  1  0.500000  0.017594  0.788252  1
  B  B26  1  0.500000  0.478930  0.285990  1
  B  B27  1  0.500000  0.516117  0.713490  1
  B  B28  1  0.500000  0.605886  0.027930  1
  B  B29  1  0.500000  0.393586  0.969855  1
  B  B30  1  0.500000  0.105685  0.471298  1
  B  B31  1  0.500000  0.896929  0.530051  1
  Mo  Mo32  1  0.000000  0.638098  0.320682  1
  Os  Os33  1  0.000000  0.360393  0.681035  1
  Os  Os34  1  0.000000  0.137256  0.176868  1
  Os  Os35  1  0.000000  0.862869  0.821633  1
