# generated using pymatgen
data_LiY6Ir3Rh2
_symmetry_space_group_name_H-M   'P 1'
_cell_length_a   4.82283000
_cell_length_b   7.07673900
_cell_length_c   14.53163300
_cell_angle_alpha   90.00000000
_cell_angle_beta   90.00003953
_cell_angle_gamma   90.00000000
_symmetry_Int_Tables_number   1
_chemical_formula_structural   LiY6Ir3Rh2
_chemical_formula_sum   'Li2 Y12 Ir6 Rh4'
_cell_volume   495.96331411
_cell_formula_units_Z   2
loop_
 _symmetry_equiv_pos_site_id
 _symmetry_equiv_pos_as_xyz
  1  'x, y, z'
loop_
 _atom_site_type_symbol
 _atom_site_label
 _atom_site_symmetry_multiplicity
 _atom_site_fract_x
 _atom_site_fract_y
 _atom_site_fract_z
 _atom_site_occupancy
  Li  Li0  1  0.000008  0.000000  0.998961  1
  Li  Li1  1  0.499900  0.500000  0.167667  1
  Y  Y2  1  0.500000  0.254363  0.996114  1
  Y  Y3  1  0.500000  0.745636  0.996114  1
  Y  Y4  1  0.999957  0.245615  0.170438  1
  Y  Y5  1  0.999957  0.754385  0.170438  1
  Y  Y6  1  0.499965  0.246006  0.337817  1
  Y  Y7  1  0.499965  0.753994  0.337817  1
  Y  Y8  1  0.000000  0.250436  0.501077  1
  Y  Y9  1  0.000000  0.749564  0.501077  1
  Y  Y10  1  0.500036  0.249561  0.665687  1
  Y  Y11  1  0.500036  0.750439  0.665687  1
  Y  Y12  1  0.000041  0.253994  0.828841  1
  Y  Y13  1  0.000041  0.746006  0.828841  1
  Ir  Ir14  1  0.000010  0.500000  0.002820  1
  Ir  Ir15  1  0.499959  0.000000  0.163779  1
  Ir  Ir16  1  0.999972  0.500000  0.329116  1
  Ir  Ir17  1  0.499985  0.000000  0.500814  1
  Ir  Ir18  1  0.000050  0.500000  0.665902  1
  Ir  Ir19  1  0.500031  0.000000  0.837544  1
  Rh  Rh20  1  0.999925  0.000000  0.335980  1
  Rh  Rh21  1  0.499994  0.500000  0.500784  1
  Rh  Rh22  1  0.000065  0.000000  0.665990  1
  Rh  Rh23  1  0.500104  0.500000  0.830699  1
