# generated using pymatgen
data_Ho4MgP12Ru19
_symmetry_space_group_name_H-M   'P 1'
_cell_length_a   12.46320961
_cell_length_b   12.49390824
_cell_length_c   3.98607900
_cell_angle_alpha   90.00000000
_cell_angle_beta   90.00000000
_cell_angle_gamma   120.08151222
_symmetry_Int_Tables_number   1
_chemical_formula_structural   Ho4MgP12Ru19
_chemical_formula_sum   'Ho4 Mg1 P12 Ru19'
_cell_volume   537.09046389
_cell_formula_units_Z   1
loop_
 _symmetry_equiv_pos_site_id
 _symmetry_equiv_pos_as_xyz
  1  'x, y, z'
loop_
 _atom_site_type_symbol
 _atom_site_label
 _atom_site_symmetry_multiplicity
 _atom_site_fract_x
 _atom_site_fract_y
 _atom_site_fract_z
 _atom_site_occupancy
  Ho  Ho0  1  0.183852  0.184741  0.500000  1
  Ho  Ho1  1  0.816148  0.000889  0.500000  1
  Ho  Ho2  1  0.327096  0.667269  0.000000  1
  Ho  Ho3  1  0.672904  0.340172  0.000000  1
  Mg  Mg4  1  0.000000  0.813116  0.500000  1
  P  P5  1  0.806485  0.819804  0.000000  1
  P  P6  1  0.193515  0.013319  0.000000  1
  P  P7  1  0.000000  0.173616  0.000000  1
  P  P8  1  0.170006  0.475257  0.500000  1
  P  P9  1  0.519145  0.693042  0.500000  1
  P  P10  1  0.301130  0.830367  0.500000  1
  P  P11  1  0.698870  0.529238  0.500000  1
  P  P12  1  0.829994  0.305252  0.500000  1
  P  P13  1  0.480855  0.173897  0.500000  1
  P  P14  1  0.375291  0.373824  0.000000  1
  P  P15  1  0.624709  0.998533  0.000000  1
  P  P16  1  0.000000  0.618556  0.000000  1
  Ru  Ru17  1  0.561534  0.553905  0.000000  1
  Ru  Ru18  1  0.438466  0.992371  0.000000  1
  Ru  Ru19  1  0.000000  0.439333  0.000000  1
  Ru  Ru20  1  0.717627  0.721072  0.500000  1
  Ru  Ru21  1  0.282373  0.003446  0.500000  1
  Ru  Ru22  1  0.000000  0.278249  0.500000  1
  Ru  Ru23  1  0.185111  0.372656  0.000000  1
  Ru  Ru24  1  0.615635  0.804956  0.000000  1
  Ru  Ru25  1  0.173711  0.816928  0.000000  1
  Ru  Ru26  1  0.826289  0.643216  0.000000  1
  Ru  Ru27  1  0.814889  0.187545  0.000000  1
  Ru  Ru28  1  0.384365  0.189321  0.000000  1
  Ru  Ru29  1  0.367074  0.491239  0.500000  1
  Ru  Ru30  1  0.502735  0.871964  0.500000  1
  Ru  Ru31  1  0.126262  0.634915  0.500000  1
  Ru  Ru32  1  0.873738  0.508653  0.500000  1
  Ru  Ru33  1  0.632926  0.124165  0.500000  1
  Ru  Ru34  1  0.497265  0.369229  0.500000  1
  Ru  Ru35  1  0.000000  0.985946  0.000000  1
