# generated using pymatgen
data_Sc4FeCo15(MoP3)4
_symmetry_space_group_name_H-M   'P 1'
_cell_length_a   3.65380300
_cell_length_b   10.31577105
_cell_length_c   11.76314306
_cell_angle_alpha   90.01104161
_cell_angle_beta   90.00000000
_cell_angle_gamma   90.00000000
_symmetry_Int_Tables_number   1
_chemical_formula_structural   Sc4FeCo15(MoP3)4
_chemical_formula_sum   'Sc4 Fe1 Co15 Mo4 P12'
_cell_volume   443.37397071
_cell_formula_units_Z   1
loop_
 _symmetry_equiv_pos_site_id
 _symmetry_equiv_pos_as_xyz
  1  'x, y, z'
loop_
 _atom_site_type_symbol
 _atom_site_label
 _atom_site_symmetry_multiplicity
 _atom_site_fract_x
 _atom_site_fract_y
 _atom_site_fract_z
 _atom_site_occupancy
  Sc  Sc0  1  0.250000  0.581555  0.704233  1
  Sc  Sc1  1  0.250000  0.917508  0.205650  1
  Sc  Sc2  1  0.750000  0.417417  0.296127  1
  Sc  Sc3  1  0.750000  0.082763  0.794296  1
  Fe  Fe4  1  0.250000  0.407049  0.487134  1
  Co  Co5  1  0.250000  0.092392  0.986300  1
  Co  Co6  1  0.750000  0.594300  0.514445  1
  Co  Co7  1  0.750000  0.907614  0.013417  1
  Co  Co8  1  0.250000  0.221355  0.178314  1
  Co  Co9  1  0.250000  0.277201  0.678532  1
  Co  Co10  1  0.750000  0.778361  0.821887  1
  Co  Co11  1  0.750000  0.722125  0.321307  1
  Co  Co12  1  0.250000  0.887402  0.701586  1
  Co  Co13  1  0.250000  0.613034  0.201632  1
  Co  Co14  1  0.750000  0.112634  0.298537  1
  Co  Co15  1  0.750000  0.387887  0.797674  1
  Co  Co16  1  0.250000  0.465155  0.932347  1
  Co  Co17  1  0.250000  0.034829  0.431801  1
  Co  Co18  1  0.750000  0.534901  0.067743  1
  Co  Co19  1  0.750000  0.964321  0.567772  1
  Mo  Mo20  1  0.250000  0.710623  0.987422  1
  Mo  Mo21  1  0.250000  0.789350  0.487211  1
  Mo  Mo22  1  0.750000  0.289413  0.012389  1
  Mo  Mo23  1  0.750000  0.209885  0.512765  1
  P  P24  1  0.250000  0.420658  0.118579  1
  P  P25  1  0.250000  0.079107  0.617691  1
  P  P26  1  0.750000  0.579161  0.881753  1
  P  P27  1  0.750000  0.920757  0.381886  1
  P  P28  1  0.250000  0.264413  0.863766  1
  P  P29  1  0.250000  0.237379  0.364908  1
  P  P30  1  0.750000  0.735679  0.136111  1
  P  P31  1  0.750000  0.764359  0.636191  1
  P  P32  1  0.250000  0.591060  0.389778  1
  P  P33  1  0.250000  0.907638  0.888940  1
  P  P34  1  0.750000  0.408080  0.608768  1
  P  P35  1  0.750000  0.092637  0.111108  1
