# generated using pymatgen
data_Rb4Yb(TaS4)2
_symmetry_space_group_name_H-M   'P 1'
_cell_length_a   9.56895661
_cell_length_b   9.69078518
_cell_length_c   11.72763700
_cell_angle_alpha   105.65742037
_cell_angle_beta   104.29579308
_cell_angle_gamma   93.06640120
_symmetry_Int_Tables_number   1
_chemical_formula_structural   Rb4Yb(TaS4)2
_chemical_formula_sum   'Rb8 Yb2 Ta4 S16'
_cell_volume   1006.28505459
_cell_formula_units_Z   2
loop_
 _symmetry_equiv_pos_site_id
 _symmetry_equiv_pos_as_xyz
  1  'x, y, z'
loop_
 _atom_site_type_symbol
 _atom_site_label
 _atom_site_symmetry_multiplicity
 _atom_site_fract_x
 _atom_site_fract_y
 _atom_site_fract_z
 _atom_site_occupancy
  Rb  Rb0  1  0.943663  0.530799  0.263269  1
  Rb  Rb1  1  0.056337  0.469201  0.736731  1
  Rb  Rb2  1  0.764071  0.001473  0.470337  1
  Rb  Rb3  1  0.235929  0.998527  0.529663  1
  Rb  Rb4  1  0.605555  0.743697  0.020940  1
  Rb  Rb5  1  0.394445  0.256303  0.979060  1
  Rb  Rb6  1  0.620928  0.679812  0.616244  1
  Rb  Rb7  1  0.379072  0.320188  0.383756  1
  Yb  Yb8  1  0.851592  0.139827  0.925233  1
  Yb  Yb9  1  0.148408  0.860173  0.074767  1
  Ta  Ta10  1  0.951988  0.111500  0.231609  1
  Ta  Ta11  1  0.048012  0.888500  0.768391  1
  Ta  Ta12  1  0.377667  0.685326  0.259397  1
  Ta  Ta13  1  0.622333  0.314674  0.740603  1
  S  S14  1  0.959332  0.875890  0.232039  1
  S  S15  1  0.040668  0.124110  0.767961  1
  S  S16  1  0.589727  0.072771  0.728782  1
  S  S17  1  0.410273  0.927229  0.271218  1
  S  S18  1  0.297972  0.657476  0.420507  1
  S  S19  1  0.702028  0.342524  0.579493  1
  S  S20  1  0.795613  0.420621  0.923156  1
  S  S21  1  0.204387  0.579379  0.076844  1
  S  S22  1  0.024034  0.257648  0.426832  1
  S  S23  1  0.975966  0.742352  0.573168  1
  S  S24  1  0.111813  0.162393  0.125199  1
  S  S25  1  0.888187  0.837607  0.874801  1
  S  S26  1  0.728110  0.142615  0.123227  1
  S  S27  1  0.271890  0.857385  0.876773  1
  S  S28  1  0.586341  0.583891  0.260558  1
  S  S29  1  0.413659  0.416109  0.739442  1
