# generated using pymatgen
data_La10Co2RhAu3
_symmetry_space_group_name_H-M   'P 1'
_cell_length_a   8.85624449
_cell_length_b   8.29948093
_cell_length_c   12.09255600
_cell_angle_alpha   90.21062741
_cell_angle_beta   89.92067054
_cell_angle_gamma   90.62152496
_symmetry_Int_Tables_number   1
_chemical_formula_structural   La10Co2RhAu3
_chemical_formula_sum   'La20 Co4 Rh2 Au6'
_cell_volume   888.77075568
_cell_formula_units_Z   2
loop_
 _symmetry_equiv_pos_site_id
 _symmetry_equiv_pos_as_xyz
  1  'x, y, z'
loop_
 _atom_site_type_symbol
 _atom_site_label
 _atom_site_symmetry_multiplicity
 _atom_site_fract_x
 _atom_site_fract_y
 _atom_site_fract_z
 _atom_site_occupancy
  La  La0  1  0.831079  0.739420  0.798500  1
  La  La1  1  0.168921  0.260580  0.201500  1
  La  La2  1  0.345532  0.257741  0.712758  1
  La  La3  1  0.654468  0.742259  0.287242  1
  La  La4  1  0.390553  0.743894  0.701533  1
  La  La5  1  0.609447  0.256106  0.298467  1
  La  La6  1  0.881106  0.251088  0.801488  1
  La  La7  1  0.118894  0.748912  0.198512  1
  La  La8  1  0.954038  0.749901  0.489656  1
  La  La9  1  0.045962  0.250099  0.510344  1
  La  La10  1  0.467545  0.275418  0.004410  1
  La  La11  1  0.532455  0.724582  0.995590  1
  La  La12  1  0.674219  0.031371  0.570905  1
  La  La13  1  0.325781  0.968629  0.429095  1
  La  La14  1  0.176555  0.971288  0.927382  1
  La  La15  1  0.328575  0.535914  0.418827  1
  La  La16  1  0.823445  0.028712  0.072618  1
  La  La17  1  0.671425  0.464086  0.581173  1
  La  La18  1  0.824607  0.459574  0.073825  1
  La  La19  1  0.175393  0.540426  0.926175  1
  Co  Co20  1  0.561298  0.751925  0.508214  1
  Co  Co21  1  0.438702  0.248075  0.491786  1
  Co  Co22  1  0.058135  0.251565  0.988079  1
  Co  Co23  1  0.941865  0.748435  0.011921  1
  Rh  Rh24  1  0.570287  0.474201  0.822836  1
  Rh  Rh25  1  0.429713  0.525799  0.177164  1
  Au  Au26  1  0.078652  0.533568  0.673988  1
  Au  Au27  1  0.418803  0.974239  0.169539  1
  Au  Au28  1  0.921348  0.466432  0.326012  1
  Au  Au29  1  0.581197  0.025761  0.830461  1
  Au  Au30  1  0.921347  0.033371  0.324017  1
  Au  Au31  1  0.078653  0.966629  0.675983  1
