# generated using pymatgen
data_LiTb2Cu3O8
_symmetry_space_group_name_H-M   'P 1'
_cell_length_a   6.29057048
_cell_length_b   6.38728286
_cell_length_c   6.08995466
_cell_angle_alpha   125.40533007
_cell_angle_beta   125.39386841
_cell_angle_gamma   81.50138439
_symmetry_Int_Tables_number   1
_chemical_formula_structural   LiTb2Cu3O8
_chemical_formula_sum   'Li1 Tb2 Cu3 O8'
_cell_volume   155.95578667
_cell_formula_units_Z   1
loop_
 _symmetry_equiv_pos_site_id
 _symmetry_equiv_pos_as_xyz
  1  'x, y, z'
loop_
 _atom_site_type_symbol
 _atom_site_label
 _atom_site_symmetry_multiplicity
 _atom_site_fract_x
 _atom_site_fract_y
 _atom_site_fract_z
 _atom_site_occupancy
  Li  Li0  1  0.875000  0.625000  0.250000  1
  Tb  Tb1  1  0.991790  0.010823  0.999566  1
  Tb  Tb2  1  0.758210  0.239177  0.500434  1
  Cu  Cu3  1  0.375000  0.125000  0.750000  1
  Cu  Cu4  1  0.375000  0.625000  0.250000  1
  Cu  Cu5  1  0.375000  0.625000  0.750000  1
  O  O6  1  0.157656  0.601860  0.857257  1
  O  O7  1  0.732573  0.279735  0.133344  1
  O  O8  1  0.592344  0.648140  0.642743  1
  O  O9  1  0.017427  0.970265  0.366656  1
  O  O10  1  0.331902  0.966824  0.908771  1
  O  O11  1  0.071191  0.400436  0.067760  1
  O  O12  1  0.678809  0.849564  0.432240  1
  O  O13  1  0.418098  0.283176  0.591229  1
