# generated using pymatgen
data_Tb15Er5Sn16
_symmetry_space_group_name_H-M   'P 1'
_cell_length_a   8.04305333
_cell_length_b   8.19662634
_cell_length_c   15.50978908
_cell_angle_alpha   90.00911593
_cell_angle_beta   90.00761143
_cell_angle_gamma   90.03198643
_symmetry_Int_Tables_number   1
_chemical_formula_structural   Tb15Er5Sn16
_chemical_formula_sum   'Tb15 Er5 Sn16'
_cell_volume   1022.49666671
_cell_formula_units_Z   1
loop_
 _symmetry_equiv_pos_site_id
 _symmetry_equiv_pos_as_xyz
  1  'x, y, z'
loop_
 _atom_site_type_symbol
 _atom_site_label
 _atom_site_symmetry_multiplicity
 _atom_site_fract_x
 _atom_site_fract_y
 _atom_site_fract_z
 _atom_site_occupancy
  Tb  Tb0  1  0.867524  0.664171  0.621790  1
  Tb  Tb1  1  0.632329  0.164064  0.378357  1
  Tb  Tb2  1  0.132472  0.335822  0.121345  1
  Tb  Tb3  1  0.632423  0.164221  0.121693  1
  Tb  Tb4  1  0.132338  0.335851  0.378358  1
  Tb  Tb5  1  0.367663  0.835880  0.621758  1
  Tb  Tb6  1  0.867774  0.664085  0.878449  1
  Tb  Tb7  1  0.520058  0.319653  0.902314  1
  Tb  Tb8  1  0.020145  0.180113  0.597805  1
  Tb  Tb9  1  0.479919  0.680214  0.402294  1
  Tb  Tb10  1  0.979736  0.819720  0.097751  1
  Tb  Tb11  1  0.479788  0.680287  0.097430  1
  Tb  Tb12  1  0.979901  0.819841  0.402254  1
  Tb  Tb13  1  0.520056  0.319844  0.597835  1
  Tb  Tb14  1  0.020271  0.180041  0.902221  1
  Er  Er15  1  0.367482  0.836068  0.878159  1
  Er  Er16  1  0.198580  0.502570  0.750267  1
  Er  Er17  1  0.698149  0.997538  0.750173  1
  Er  Er18  1  0.801737  0.497752  0.249983  1
  Er  Er19  1  0.301705  0.002223  0.249872  1
  Sn  Sn20  1  0.292535  0.033672  0.041632  1
  Sn  Sn21  1  0.792354  0.465558  0.457585  1
  Sn  Sn22  1  0.707708  0.965525  0.542421  1
  Sn  Sn23  1  0.208542  0.535790  0.957346  1
  Sn  Sn24  1  0.706273  0.965190  0.957383  1
  Sn  Sn25  1  0.207595  0.534474  0.542431  1
  Sn  Sn26  1  0.292322  0.034438  0.457552  1
  Sn  Sn27  1  0.792280  0.465619  0.042432  1
  Sn  Sn28  1  0.564313  0.619436  0.750375  1
  Sn  Sn29  1  0.065473  0.881094  0.750459  1
  Sn  Sn30  1  0.435192  0.381275  0.249955  1
  Sn  Sn31  1  0.935207  0.118692  0.249985  1
  Sn  Sn32  1  0.328317  0.146246  0.750297  1
  Sn  Sn33  1  0.828136  0.353235  0.750043  1
  Sn  Sn34  1  0.671909  0.853235  0.249976  1
  Sn  Sn35  1  0.171795  0.646563  0.250019  1
