# generated using pymatgen
data_Rb6NaLiPb8
_symmetry_space_group_name_H-M   'P 1'
_cell_length_a   9.20942649
_cell_length_b   9.20942583
_cell_length_c   10.99805556
_cell_angle_alpha   88.90338492
_cell_angle_beta   91.09661512
_cell_angle_gamma   134.99019106
_symmetry_Int_Tables_number   1
_chemical_formula_structural   Rb6NaLiPb8
_chemical_formula_sum   'Rb6 Na1 Li1 Pb8'
_cell_volume   659.54917286
_cell_formula_units_Z   1
loop_
 _symmetry_equiv_pos_site_id
 _symmetry_equiv_pos_as_xyz
  1  'x, y, z'
loop_
 _atom_site_type_symbol
 _atom_site_label
 _atom_site_symmetry_multiplicity
 _atom_site_fract_x
 _atom_site_fract_y
 _atom_site_fract_z
 _atom_site_occupancy
  Rb  Rb0  1  0.230393  0.769607  0.249028  1
  Rb  Rb1  1  0.769607  0.230393  0.750972  1
  Rb  Rb2  1  0.613802  0.386198  0.046737  1
  Rb  Rb3  1  0.386198  0.613802  0.953263  1
  Rb  Rb4  1  0.385320  0.614680  0.552154  1
  Rb  Rb5  1  0.614680  0.385320  0.447846  1
  Na  Na6  1  0.000000  0.000000  0.000000  1
  Li  Li7  1  0.000000  0.000000  0.500000  1
  Pb  Pb8  1  0.196222  0.282175  0.258192  1
  Pb  Pb9  1  0.803778  0.717825  0.741808  1
  Pb  Pb10  1  0.717825  0.803778  0.258192  1
  Pb  Pb11  1  0.282175  0.196222  0.741808  1
  Pb  Pb12  1  0.827121  0.172879  0.116551  1
  Pb  Pb13  1  0.172879  0.827121  0.883449  1
  Pb  Pb14  1  0.167795  0.832205  0.602577  1
  Pb  Pb15  1  0.832205  0.167795  0.397423  1
