# generated using pymatgen
data_Y4Al18Co5Pd
_symmetry_space_group_name_H-M   'P 1'
_cell_length_a   7.42403118
_cell_length_b   7.42403069
_cell_length_c   9.36060366
_cell_angle_alpha   89.85429530
_cell_angle_beta   89.85429194
_cell_angle_gamma   119.17103064
_symmetry_Int_Tables_number   1
_chemical_formula_structural   Y4Al18Co5Pd
_chemical_formula_sum   'Y4 Al18 Co5 Pd1'
_cell_volume   450.48055415
_cell_formula_units_Z   1
loop_
 _symmetry_equiv_pos_site_id
 _symmetry_equiv_pos_as_xyz
  1  'x, y, z'
loop_
 _atom_site_type_symbol
 _atom_site_label
 _atom_site_symmetry_multiplicity
 _atom_site_fract_x
 _atom_site_fract_y
 _atom_site_fract_z
 _atom_site_occupancy
  Y  Y0  1  0.994069  0.673522  0.251708  1
  Y  Y1  1  0.005931  0.326478  0.748292  1
  Y  Y2  1  0.673522  0.994069  0.251708  1
  Y  Y3  1  0.326478  0.005931  0.748292  1
  Al  Al4  1  0.130564  0.130564  0.258404  1
  Al  Al5  1  0.869436  0.869436  0.741596  1
  Al  Al6  1  0.332338  0.332338  0.541689  1
  Al  Al7  1  0.660162  0.660162  0.046086  1
  Al  Al8  1  0.339838  0.339838  0.953914  1
  Al  Al9  1  0.667662  0.667662  0.458311  1
  Al  Al10  1  0.339111  0.554680  0.251129  1
  Al  Al11  1  0.660889  0.445320  0.748871  1
  Al  Al12  1  0.554680  0.339111  0.251129  1
  Al  Al13  1  0.445320  0.660889  0.748871  1
  Al  Al14  1  0.999490  0.343836  0.074015  1
  Al  Al15  1  0.002753  0.664671  0.570237  1
  Al  Al16  1  0.335329  0.997247  0.429763  1
  Al  Al17  1  0.656164  0.000510  0.925985  1
  Al  Al18  1  0.000510  0.656164  0.925985  1
  Al  Al19  1  0.997247  0.335329  0.429763  1
  Al  Al20  1  0.664671  0.002753  0.570237  1
  Al  Al21  1  0.343836  0.999490  0.074015  1
  Co  Co22  1  0.000000  0.000000  0.500000  1
  Co  Co23  1  0.670912  0.329088  0.000000  1
  Co  Co24  1  0.329059  0.670941  0.500000  1
  Co  Co25  1  0.329088  0.670912  0.000000  1
  Co  Co26  1  0.670941  0.329059  0.500000  1
  Pd  Pd27  1  0.000000  0.000000  0.000000  1
