# generated using pymatgen
data_Tb14Ho6IrRh11
_symmetry_space_group_name_H-M   'P 1'
_cell_length_a   10.92296264
_cell_length_b   10.93272970
_cell_length_c   6.38741972
_cell_angle_alpha   90.09587181
_cell_angle_beta   90.05330052
_cell_angle_gamma   90.10774872
_symmetry_Int_Tables_number   1
_chemical_formula_structural   Tb14Ho6IrRh11
_chemical_formula_sum   'Tb14 Ho6 Ir1 Rh11'
_cell_volume   762.76885017
_cell_formula_units_Z   1
loop_
 _symmetry_equiv_pos_site_id
 _symmetry_equiv_pos_as_xyz
  1  'x, y, z'
loop_
 _atom_site_type_symbol
 _atom_site_label
 _atom_site_symmetry_multiplicity
 _atom_site_fract_x
 _atom_site_fract_y
 _atom_site_fract_z
 _atom_site_occupancy
  Tb  Tb0  1  0.289366  0.089889  0.380883  1
  Tb  Tb1  1  0.290156  0.908211  0.880972  1
  Tb  Tb2  1  0.709489  0.088557  0.881081  1
  Tb  Tb3  1  0.708727  0.910374  0.380974  1
  Tb  Tb4  1  0.587301  0.789538  0.881305  1
  Tb  Tb5  1  0.589248  0.209419  0.381239  1
  Tb  Tb6  1  0.409481  0.790063  0.382678  1
  Tb  Tb7  1  0.410149  0.208412  0.881096  1
  Tb  Tb8  1  0.210471  0.412662  0.618906  1
  Tb  Tb9  1  0.210055  0.589940  0.117695  1
  Tb  Tb10  1  0.790891  0.410916  0.118181  1
  Tb  Tb11  1  0.791815  0.589505  0.619107  1
  Tb  Tb12  1  0.911355  0.710142  0.118268  1
  Tb  Tb13  1  0.912091  0.290367  0.618560  1
  Ho  Ho14  1  0.091254  0.708167  0.617450  1
  Ho  Ho15  1  0.089109  0.292271  0.117905  1
  Ho  Ho16  1  0.999297  0.998977  0.501240  1
  Ho  Ho17  1  0.000573  0.001479  0.000751  1
  Ho  Ho18  1  0.499542  0.499044  0.999940  1
  Ho  Ho19  1  0.500836  0.500423  0.499692  1
  Ir  Ir20  1  0.346455  0.652335  0.749340  1
  Rh  Rh21  1  0.848263  0.153559  0.249209  1
  Rh  Rh22  1  0.846684  0.847404  0.750844  1
  Rh  Rh23  1  0.152125  0.154105  0.750964  1
  Rh  Rh24  1  0.151873  0.847816  0.251892  1
  Rh  Rh25  1  0.653149  0.347002  0.749764  1
  Rh  Rh26  1  0.654256  0.652626  0.249853  1
  Rh  Rh27  1  0.346292  0.345759  0.249829  1
  Rh  Rh28  1  0.499649  0.000418  0.128572  1
  Rh  Rh29  1  0.499893  0.000717  0.627701  1
  Rh  Rh30  1  0.999904  0.499967  0.872469  1
  Rh  Rh31  1  0.000255  0.499933  0.371641  1
