# generated using pymatgen
data_KRb7ThAs4
_symmetry_space_group_name_H-M   'P 1'
_cell_length_a   11.68718337
_cell_length_b   11.68725088
_cell_length_c   11.72113500
_cell_angle_alpha   59.90405038
_cell_angle_beta   59.90385857
_cell_angle_gamma   59.78278912
_symmetry_Int_Tables_number   1
_chemical_formula_structural   KRb7ThAs4
_chemical_formula_sum   'K2 Rb14 Th2 As8'
_cell_volume   1128.57118899
_cell_formula_units_Z   2
loop_
 _symmetry_equiv_pos_site_id
 _symmetry_equiv_pos_as_xyz
  1  'x, y, z'
loop_
 _atom_site_type_symbol
 _atom_site_label
 _atom_site_symmetry_multiplicity
 _atom_site_fract_x
 _atom_site_fract_y
 _atom_site_fract_z
 _atom_site_occupancy
  K  K0  1  0.625000  0.125000  0.625000  1
  K  K1  1  0.125000  0.625000  0.625000  1
  Rb  Rb2  1  0.625000  0.625000  0.125000  1
  Rb  Rb3  1  0.625000  0.625000  0.625000  1
  Rb  Rb4  1  0.029532  0.029526  0.470471  1
  Rb  Rb5  1  0.780135  0.219306  0.221014  1
  Rb  Rb6  1  0.219309  0.780132  0.779543  1
  Rb  Rb7  1  0.780140  0.780128  0.219866  1
  Rb  Rb8  1  0.780135  0.219306  0.779545  1
  Rb  Rb9  1  0.219309  0.780132  0.221016  1
  Rb  Rb10  1  0.469865  0.030694  0.470455  1
  Rb  Rb11  1  0.469865  0.030694  0.028986  1
  Rb  Rb12  1  0.030691  0.469868  0.470457  1
  Rb  Rb13  1  0.030691  0.469868  0.028984  1
  Rb  Rb14  1  0.220468  0.220474  0.779529  1
  Rb  Rb15  1  0.469860  0.469872  0.030134  1
  Th  Th16  1  0.750543  0.750547  0.749456  1
  Th  Th17  1  0.499457  0.499453  0.500544  1
  As  As18  1  0.396091  0.804162  0.399874  1
  As  As19  1  0.852530  0.852531  0.446254  1
  As  As20  1  0.445836  0.853913  0.850126  1
  As  As21  1  0.852530  0.852531  0.848684  1
  As  As22  1  0.804164  0.396087  0.399874  1
  As  As23  1  0.397470  0.397469  0.401316  1
  As  As24  1  0.397470  0.397469  0.803746  1
  As  As25  1  0.853909  0.445838  0.850126  1
