# generated using pymatgen
data_AcPr(Ge2Pt)2
_symmetry_space_group_name_H-M   'P 1'
_cell_length_a   9.82158660
_cell_length_b   9.82158635
_cell_length_c   9.82158554
_cell_angle_alpha   153.26448042
_cell_angle_beta   125.60075845
_cell_angle_gamma   61.62590380
_symmetry_Int_Tables_number   1
_chemical_formula_structural   AcPr(Ge2Pt)2
_chemical_formula_sum   'Ac2 Pr2 Ge8 Pt4'
_cell_volume   343.96292902
_cell_formula_units_Z   2
loop_
 _symmetry_equiv_pos_site_id
 _symmetry_equiv_pos_as_xyz
  1  'x, y, z'
loop_
 _atom_site_type_symbol
 _atom_site_label
 _atom_site_symmetry_multiplicity
 _atom_site_fract_x
 _atom_site_fract_y
 _atom_site_fract_z
 _atom_site_occupancy
  Ac  Ac0  1  0.741419  0.000000  0.741419  1
  Ac  Ac1  1  0.258581  0.000000  0.258581  1
  Pr  Pr2  1  0.296570  0.796570  0.500000  1
  Pr  Pr3  1  0.703430  0.203430  0.500000  1
  Ge  Ge4  1  0.925086  0.425086  0.500000  1
  Ge  Ge5  1  0.074914  0.574914  0.500000  1
  Ge  Ge6  1  0.423366  0.423366  0.000000  1
  Ge  Ge7  1  0.576634  0.576634  0.000000  1
  Ge  Ge8  1  0.350534  0.200232  0.150302  1
  Ge  Ge9  1  0.649466  0.799768  0.849698  1
  Ge  Ge10  1  0.049929  0.200232  0.849698  1
  Ge  Ge11  1  0.950071  0.799768  0.150302  1
  Pt  Pt12  1  0.602875  0.348039  0.254835  1
  Pt  Pt13  1  0.397125  0.651961  0.745165  1
  Pt  Pt14  1  0.093204  0.348039  0.745165  1
  Pt  Pt15  1  0.906796  0.651961  0.254835  1
