# generated using pymatgen
data_LiTh2Si3
_symmetry_space_group_name_H-M   'P 1'
_cell_length_a   4.29961634
_cell_length_b   7.94590689
_cell_length_c   7.80073224
_cell_angle_alpha   104.52813504
_cell_angle_beta   105.99298197
_cell_angle_gamma   90.01124863
_symmetry_Int_Tables_number   1
_chemical_formula_structural   LiTh2Si3
_chemical_formula_sum   'Li2 Th4 Si6'
_cell_volume   247.31118070
_cell_formula_units_Z   2
loop_
 _symmetry_equiv_pos_site_id
 _symmetry_equiv_pos_as_xyz
  1  'x, y, z'
loop_
 _atom_site_type_symbol
 _atom_site_label
 _atom_site_symmetry_multiplicity
 _atom_site_fract_x
 _atom_site_fract_y
 _atom_site_fract_z
 _atom_site_occupancy
  Li  Li0  1  0.210782  0.232558  0.421808  1
  Li  Li1  1  0.789218  0.767442  0.578192  1
  Th  Th2  1  0.616042  0.930822  0.233170  1
  Th  Th3  1  0.384057  0.564000  0.766086  1
  Th  Th4  1  0.383958  0.069178  0.766830  1
  Th  Th5  1  0.615943  0.436000  0.233914  1
  Si  Si6  1  0.786946  0.268103  0.574369  1
  Si  Si7  1  0.954580  0.852480  0.907820  1
  Si  Si8  1  0.045420  0.147520  0.092180  1
  Si  Si9  1  0.955436  0.352437  0.909209  1
  Si  Si10  1  0.213054  0.731897  0.425631  1
  Si  Si11  1  0.044564  0.647563  0.090791  1
