# generated using pymatgen
data_Th2As4Rh3
_symmetry_space_group_name_H-M   'P 1'
_cell_length_a   4.38404100
_cell_length_b   10.43827800
_cell_length_c   15.43206700
_cell_angle_alpha   90.00000000
_cell_angle_beta   90.00000000
_cell_angle_gamma   90.00000000
_symmetry_Int_Tables_number   1
_chemical_formula_structural   Th2As4Rh3
_chemical_formula_sum   'Th8 As16 Rh12'
_cell_volume   706.19976119
_cell_formula_units_Z   4
loop_
 _symmetry_equiv_pos_site_id
 _symmetry_equiv_pos_as_xyz
  1  'x, y, z'
loop_
 _atom_site_type_symbol
 _atom_site_label
 _atom_site_symmetry_multiplicity
 _atom_site_fract_x
 _atom_site_fract_y
 _atom_site_fract_z
 _atom_site_occupancy
  Th  Th0  1  0.250000  0.583685  0.751585  1
  Th  Th1  1  0.250000  0.916315  0.251585  1
  Th  Th2  1  0.750000  0.416315  0.248415  1
  Th  Th3  1  0.750000  0.083685  0.748415  1
  Th  Th4  1  0.250000  0.749832  0.502339  1
  Th  Th5  1  0.250000  0.750168  0.002339  1
  Th  Th6  1  0.750000  0.250168  0.497661  1
  Th  Th7  1  0.750000  0.249832  0.997661  1
  As  As8  1  0.250000  0.442936  0.930832  1
  As  As9  1  0.250000  0.057064  0.430832  1
  As  As10  1  0.750000  0.557064  0.069168  1
  As  As11  1  0.750000  0.942936  0.569168  1
  As  As12  1  0.250000  0.264498  0.649530  1
  As  As13  1  0.250000  0.235502  0.149530  1
  As  As14  1  0.750000  0.735502  0.350470  1
  As  As15  1  0.750000  0.764498  0.850470  1
  As  As16  1  0.250000  0.882645  0.710355  1
  As  As17  1  0.250000  0.617355  0.210355  1
  As  As18  1  0.750000  0.117355  0.289645  1
  As  As19  1  0.750000  0.382645  0.789645  1
  As  As20  1  0.250000  0.066810  0.896947  1
  As  As21  1  0.250000  0.433190  0.396947  1
  As  As22  1  0.750000  0.933190  0.103053  1
  As  As23  1  0.750000  0.566810  0.603053  1
  Rh  Rh24  1  0.250000  0.276976  0.816380  1
  Rh  Rh25  1  0.250000  0.223024  0.316380  1
  Rh  Rh26  1  0.750000  0.723024  0.183620  1
  Rh  Rh27  1  0.750000  0.776976  0.683620  1
  Rh  Rh28  1  0.250000  0.044403  0.590655  1
  Rh  Rh29  1  0.250000  0.455597  0.090655  1
  Rh  Rh30  1  0.750000  0.955597  0.409345  1
  Rh  Rh31  1  0.750000  0.544403  0.909345  1
  Rh  Rh32  1  0.250000  0.464151  0.558445  1
  Rh  Rh33  1  0.250000  0.035849  0.058445  1
  Rh  Rh34  1  0.750000  0.535849  0.441555  1
  Rh  Rh35  1  0.750000  0.964151  0.941555  1
