# generated using pymatgen
data_Ac8Ho8Sc4Si15Rh
_symmetry_space_group_name_H-M   'P 1'
_cell_length_a   7.57006411
_cell_length_b   8.01181209
_cell_length_c   14.88986500
_cell_angle_alpha   90.00000000
_cell_angle_beta   90.00000000
_cell_angle_gamma   89.68433305
_symmetry_Int_Tables_number   1
_chemical_formula_structural   Ac8Ho8Sc4Si15Rh
_chemical_formula_sum   'Ac8 Ho8 Sc4 Si15 Rh1'
_cell_volume   903.05558082
_cell_formula_units_Z   1
loop_
 _symmetry_equiv_pos_site_id
 _symmetry_equiv_pos_as_xyz
  1  'x, y, z'
loop_
 _atom_site_type_symbol
 _atom_site_label
 _atom_site_symmetry_multiplicity
 _atom_site_fract_x
 _atom_site_fract_y
 _atom_site_fract_z
 _atom_site_occupancy
  Ac  Ac0  1  0.015272  0.178266  0.099110  1
  Ac  Ac1  1  0.986378  0.829089  0.900093  1
  Ac  Ac2  1  0.487284  0.671439  0.902683  1
  Ac  Ac3  1  0.986378  0.829089  0.599907  1
  Ac  Ac4  1  0.515790  0.328035  0.098208  1
  Ac  Ac5  1  0.015272  0.178266  0.400890  1
  Ac  Ac6  1  0.515790  0.328035  0.401792  1
  Ac  Ac7  1  0.487284  0.671439  0.597317  1
  Ho  Ho8  1  0.307607  0.170668  0.628512  1
  Ho  Ho9  1  0.681215  0.829346  0.374102  1
  Ho  Ho10  1  0.182282  0.676133  0.375419  1
  Ho  Ho11  1  0.681215  0.829346  0.125898  1
  Ho  Ho12  1  0.827862  0.316038  0.629382  1
  Ho  Ho13  1  0.307607  0.170668  0.871488  1
  Ho  Ho14  1  0.827862  0.316038  0.870618  1
  Ho  Ho15  1  0.182282  0.676133  0.124581  1
  Sc  Sc16  1  0.153873  0.505966  0.750000  1
  Sc  Sc17  1  0.851108  0.506608  0.250000  1
  Sc  Sc18  1  0.348937  0.001028  0.250000  1
  Sc  Sc19  1  0.653598  0.004821  0.750000  1
  Si  Si20  1  0.983676  0.870409  0.250000  1
  Si  Si21  1  0.483681  0.629338  0.250000  1
  Si  Si22  1  0.516772  0.374934  0.750000  1
  Si  Si23  1  0.289701  0.877129  0.750000  1
  Si  Si24  1  0.705596  0.121590  0.250000  1
  Si  Si25  1  0.208747  0.381942  0.250000  1
  Si  Si26  1  0.786900  0.613599  0.750000  1
  Si  Si27  1  0.144419  0.466998  0.541023  1
  Si  Si28  1  0.857653  0.537475  0.461385  1
  Si  Si29  1  0.356866  0.966457  0.460173  1
  Si  Si30  1  0.857653  0.537475  0.038615  1
  Si  Si31  1  0.640382  0.034812  0.540551  1
  Si  Si32  1  0.144419  0.466998  0.958977  1
  Si  Si33  1  0.640382  0.034812  0.959449  1
  Si  Si34  1  0.356866  0.966457  0.039827  1
  Rh  Rh35  1  0.011389  0.103121  0.750000  1
