# generated using pymatgen
data_HoTm4Bi3
_symmetry_space_group_name_H-M   'P 1'
_cell_length_a   8.18704900
_cell_length_b   9.45533700
_cell_length_c   11.90840500
_cell_angle_alpha   90.00000000
_cell_angle_beta   90.00000000
_cell_angle_gamma   90.00000000
_symmetry_Int_Tables_number   1
_chemical_formula_structural   HoTm4Bi3
_chemical_formula_sum   'Ho4 Tm16 Bi12'
_cell_volume   921.84519927
_cell_formula_units_Z   4
loop_
 _symmetry_equiv_pos_site_id
 _symmetry_equiv_pos_as_xyz
  1  'x, y, z'
loop_
 _atom_site_type_symbol
 _atom_site_label
 _atom_site_symmetry_multiplicity
 _atom_site_fract_x
 _atom_site_fract_y
 _atom_site_fract_z
 _atom_site_occupancy
  Ho  Ho0  1  0.313885  0.250000  0.218121  1
  Ho  Ho1  1  0.813885  0.250000  0.281879  1
  Ho  Ho2  1  0.686115  0.750000  0.781879  1
  Ho  Ho3  1  0.186115  0.750000  0.718121  1
  Tm  Tm4  1  0.353584  0.750000  0.217311  1
  Tm  Tm5  1  0.853584  0.750000  0.282689  1
  Tm  Tm6  1  0.646416  0.250000  0.782689  1
  Tm  Tm7  1  0.146416  0.250000  0.717311  1
  Tm  Tm8  1  0.692390  0.565713  0.059488  1
  Tm  Tm9  1  0.192390  0.934287  0.440512  1
  Tm  Tm10  1  0.307610  0.065713  0.940512  1
  Tm  Tm11  1  0.807610  0.434287  0.559488  1
  Tm  Tm12  1  0.307610  0.434287  0.940512  1
  Tm  Tm13  1  0.807610  0.065713  0.559488  1
  Tm  Tm14  1  0.692390  0.934287  0.059488  1
  Tm  Tm15  1  0.192390  0.565713  0.440512  1
  Tm  Tm16  1  0.476902  0.250000  0.489430  1
  Tm  Tm17  1  0.976902  0.250000  0.010570  1
  Tm  Tm18  1  0.523098  0.750000  0.510570  1
  Tm  Tm19  1  0.023098  0.750000  0.989430  1
  Bi  Bi20  1  0.404455  0.750000  0.958197  1
  Bi  Bi21  1  0.904455  0.750000  0.541803  1
  Bi  Bi22  1  0.595545  0.250000  0.041803  1
  Bi  Bi23  1  0.095545  0.250000  0.458197  1
  Bi  Bi24  1  0.566064  0.995539  0.325869  1
  Bi  Bi25  1  0.066064  0.504461  0.174131  1
  Bi  Bi26  1  0.433936  0.495539  0.674131  1
  Bi  Bi27  1  0.933936  0.004461  0.825869  1
  Bi  Bi28  1  0.433936  0.004461  0.674131  1
  Bi  Bi29  1  0.933936  0.495539  0.825869  1
  Bi  Bi30  1  0.566064  0.504461  0.325869  1
  Bi  Bi31  1  0.066064  0.995539  0.174131  1
