# generated using pymatgen
data_Ce2CdPdPt
_symmetry_space_group_name_H-M   'P 1'
_cell_length_a   7.86435600
_cell_length_b   7.86765600
_cell_length_c   3.79120500
_cell_angle_alpha   90.00000000
_cell_angle_beta   90.00000000
_cell_angle_gamma   90.00000000
_symmetry_Int_Tables_number   1
_chemical_formula_structural   Ce2CdPdPt
_chemical_formula_sum   'Ce4 Cd2 Pd2 Pt2'
_cell_volume   234.57719889
_cell_formula_units_Z   2
loop_
 _symmetry_equiv_pos_site_id
 _symmetry_equiv_pos_as_xyz
  1  'x, y, z'
loop_
 _atom_site_type_symbol
 _atom_site_label
 _atom_site_symmetry_multiplicity
 _atom_site_fract_x
 _atom_site_fract_y
 _atom_site_fract_z
 _atom_site_occupancy
  Ce  Ce0  1  0.170008  0.325176  0.500000  1
  Ce  Ce1  1  0.329295  0.834376  0.500000  1
  Ce  Ce2  1  0.829295  0.665624  0.500000  1
  Ce  Ce3  1  0.670008  0.174824  0.500000  1
  Cd  Cd4  1  0.497937  0.502437  0.000000  1
  Cd  Cd5  1  0.997937  0.997563  0.000000  1
  Pd  Pd6  1  0.632809  0.866847  0.000000  1
  Pd  Pd7  1  0.132809  0.633153  0.000000  1
  Pt  Pt8  1  0.869952  0.370342  0.000000  1
  Pt  Pt9  1  0.369952  0.129658  0.000000  1
