# generated using pymatgen
data_Hf18Re8RhSe
_symmetry_space_group_name_H-M   'P 1'
_cell_length_a   8.63478300
_cell_length_b   8.63473486
_cell_length_c   8.60169400
_cell_angle_alpha   90.00000000
_cell_angle_beta   90.00000000
_cell_angle_gamma   120.00089902
_symmetry_Int_Tables_number   1
_chemical_formula_structural   Hf18Re8RhSe
_chemical_formula_sum   'Hf18 Re8 Rh1 Se1'
_cell_volume   555.40670766
_cell_formula_units_Z   1
loop_
 _symmetry_equiv_pos_site_id
 _symmetry_equiv_pos_as_xyz
  1  'x, y, z'
loop_
 _atom_site_type_symbol
 _atom_site_label
 _atom_site_symmetry_multiplicity
 _atom_site_fract_x
 _atom_site_fract_y
 _atom_site_fract_z
 _atom_site_occupancy
  Hf  Hf0  1  0.195218  0.804781  0.445874  1
  Hf  Hf1  1  0.195214  0.390436  0.445874  1
  Hf  Hf2  1  0.609561  0.804782  0.445882  1
  Hf  Hf3  1  0.808177  0.191826  0.548242  1
  Hf  Hf4  1  0.808176  0.616348  0.548240  1
  Hf  Hf5  1  0.383652  0.191825  0.548241  1
  Hf  Hf6  1  0.808177  0.191826  0.951758  1
  Hf  Hf7  1  0.808176  0.616348  0.951760  1
  Hf  Hf8  1  0.383652  0.191825  0.951759  1
  Hf  Hf9  1  0.195218  0.804781  0.054126  1
  Hf  Hf10  1  0.195214  0.390436  0.054126  1
  Hf  Hf11  1  0.609561  0.804782  0.054118  1
  Hf  Hf12  1  0.542339  0.457671  0.250000  1
  Hf  Hf13  1  0.542340  0.084675  0.250000  1
  Hf  Hf14  1  0.915331  0.457662  0.250000  1
  Hf  Hf15  1  0.455632  0.544377  0.750000  1
  Hf  Hf16  1  0.455629  0.911257  0.750000  1
  Hf  Hf17  1  0.088746  0.544372  0.750000  1
  Re  Re18  1  0.889271  0.110713  0.250000  1
  Re  Re19  1  0.889278  0.778555  0.250000  1
  Re  Re20  1  0.221451  0.110722  0.250000  1
  Re  Re21  1  0.110133  0.889866  0.750000  1
  Re  Re22  1  0.110133  0.220273  0.750000  1
  Re  Re23  1  0.779722  0.889861  0.750000  1
  Re  Re24  1  0.000001  0.000000  0.499452  1
  Re  Re25  1  0.000001  0.000000  0.000548  1
  Rh  Rh26  1  0.333332  0.666664  0.250000  1
  Se  Se27  1  0.666663  0.333333  0.750000  1
