# generated using pymatgen
data_Dy5YReBi2
_symmetry_space_group_name_H-M   'P 1'
_cell_length_a   4.34498100
_cell_length_b   8.29212506
_cell_length_c   8.29212488
_cell_angle_alpha   119.86346993
_cell_angle_beta   90.00000000
_cell_angle_gamma   90.00000000
_symmetry_Int_Tables_number   1
_chemical_formula_structural   Dy5YReBi2
_chemical_formula_sum   'Dy5 Y1 Re1 Bi2'
_cell_volume   259.08724716
_cell_formula_units_Z   1
loop_
 _symmetry_equiv_pos_site_id
 _symmetry_equiv_pos_as_xyz
  1  'x, y, z'
loop_
 _atom_site_type_symbol
 _atom_site_label
 _atom_site_symmetry_multiplicity
 _atom_site_fract_x
 _atom_site_fract_y
 _atom_site_fract_z
 _atom_site_occupancy
  Dy  Dy0  1  0.500000  0.767914  0.767914  1
  Dy  Dy1  1  0.500000  0.999767  0.232213  1
  Dy  Dy2  1  0.500000  0.232213  0.999767  1
  Dy  Dy3  1  0.000000  0.999966  0.610630  1
  Dy  Dy4  1  0.000000  0.610630  0.999966  1
  Y  Y5  1  0.000000  0.389808  0.389808  1
  Re  Re6  1  0.000000  0.999620  0.999620  1
  Bi  Bi7  1  0.500000  0.666683  0.333400  1
  Bi  Bi8  1  0.500000  0.333400  0.666683  1
