# generated using pymatgen
data_Sc2TaCo3
_symmetry_space_group_name_H-M   'P 1'
_cell_length_a   5.19839300
_cell_length_b   5.19839291
_cell_length_c   7.74507000
_cell_angle_alpha   90.00000000
_cell_angle_beta   90.00000000
_cell_angle_gamma   120.00000696
_symmetry_Int_Tables_number   1
_chemical_formula_structural   Sc2TaCo3
_chemical_formula_sum   'Sc4 Ta2 Co6'
_cell_volume   181.25673765
_cell_formula_units_Z   2
loop_
 _symmetry_equiv_pos_site_id
 _symmetry_equiv_pos_as_xyz
  1  'x, y, z'
loop_
 _atom_site_type_symbol
 _atom_site_label
 _atom_site_symmetry_multiplicity
 _atom_site_fract_x
 _atom_site_fract_y
 _atom_site_fract_z
 _atom_site_occupancy
  Sc  Sc0  1  0.333333  0.666667  0.562555  1
  Sc  Sc1  1  0.666667  0.333333  0.437445  1
  Sc  Sc2  1  0.666667  0.333333  0.062555  1
  Sc  Sc3  1  0.333333  0.666667  0.937445  1
  Ta  Ta4  1  0.000000  0.000000  0.500000  1
  Ta  Ta5  1  0.000000  0.000000  0.000000  1
  Co  Co6  1  0.821826  0.178174  0.750000  1
  Co  Co7  1  0.643652  0.821826  0.250000  1
  Co  Co8  1  0.178174  0.821826  0.250000  1
  Co  Co9  1  0.821826  0.643652  0.750000  1
  Co  Co10  1  0.178174  0.356348  0.250000  1
  Co  Co11  1  0.356348  0.178174  0.750000  1
