# generated using pymatgen
data_Dy4Hf3ZrPt4
_symmetry_space_group_name_H-M   'P 1'
_cell_length_a   4.66280200
_cell_length_b   7.16740924
_cell_length_c   8.19640847
_cell_angle_alpha   90.09377572
_cell_angle_beta   90.00000000
_cell_angle_gamma   90.00000000
_symmetry_Int_Tables_number   1
_chemical_formula_structural   Dy4Hf3ZrPt4
_chemical_formula_sum   'Dy4 Hf3 Zr1 Pt4'
_cell_volume   273.92532654
_cell_formula_units_Z   1
loop_
 _symmetry_equiv_pos_site_id
 _symmetry_equiv_pos_as_xyz
  1  'x, y, z'
loop_
 _atom_site_type_symbol
 _atom_site_label
 _atom_site_symmetry_multiplicity
 _atom_site_fract_x
 _atom_site_fract_y
 _atom_site_fract_z
 _atom_site_occupancy
  Dy  Dy0  1  0.250000  0.478598  0.178057  1
  Dy  Dy1  1  0.750000  0.518956  0.823184  1
  Dy  Dy2  1  0.750000  0.018160  0.675334  1
  Dy  Dy3  1  0.250000  0.981352  0.322025  1
  Hf  Hf4  1  0.250000  0.854029  0.923578  1
  Hf  Hf5  1  0.750000  0.142522  0.076918  1
  Hf  Hf6  1  0.750000  0.647438  0.422507  1
  Zr  Zr7  1  0.250000  0.355653  0.578431  1
  Pt  Pt8  1  0.250000  0.731459  0.596470  1
  Pt  Pt9  1  0.750000  0.275824  0.398859  1
  Pt  Pt10  1  0.750000  0.771363  0.096221  1
  Pt  Pt11  1  0.250000  0.224650  0.908418  1
