# generated using pymatgen
data_Hf2Fe10P7Ru2
_symmetry_space_group_name_H-M   'P 1'
_cell_length_a   8.94189700
_cell_length_b   8.96376931
_cell_length_c   3.64134600
_cell_angle_alpha   90.00000000
_cell_angle_beta   90.00000000
_cell_angle_gamma   119.85338846
_symmetry_Int_Tables_number   1
_chemical_formula_structural   Hf2Fe10P7Ru2
_chemical_formula_sum   'Hf2 Fe10 P7 Ru2'
_cell_volume   253.13525011
_cell_formula_units_Z   1
loop_
 _symmetry_equiv_pos_site_id
 _symmetry_equiv_pos_as_xyz
  1  'x, y, z'
loop_
 _atom_site_type_symbol
 _atom_site_label
 _atom_site_symmetry_multiplicity
 _atom_site_fract_x
 _atom_site_fract_y
 _atom_site_fract_z
 _atom_site_occupancy
  Hf  Hf0  1  0.667100  0.331957  0.500000  1
  Hf  Hf1  1  0.335055  0.667614  0.000000  1
  Fe  Fe2  1  0.721575  0.877619  0.000000  1
  Fe  Fe3  1  0.935429  0.368854  0.000000  1
  Fe  Fe4  1  0.159291  0.281111  0.000000  1
  Fe  Fe5  1  0.387948  0.442504  0.500000  1
  Fe  Fe6  1  0.117282  0.839376  0.000000  1
  Fe  Fe7  1  0.431822  0.063632  0.000000  1
  Fe  Fe8  1  0.052707  0.613858  0.500000  1
  Fe  Fe9  1  0.558289  0.943943  0.500000  1
  Fe  Fe10  1  0.632815  0.569548  0.000000  1
  Fe  Fe11  1  0.876236  0.776770  0.500000  1
  P  P12  1  0.418604  0.303734  0.000000  1
  P  P13  1  0.287878  0.877739  0.500000  1
  P  P14  1  0.696604  0.113741  0.000000  1
  P  P15  1  0.593875  0.711518  0.500000  1
  P  P16  1  0.884361  0.583539  0.000000  1
  P  P17  1  0.121825  0.412855  0.500000  1
  P  P18  1  0.999306  0.998003  0.000000  1
  Ru  Ru19  1  0.218657  0.098481  0.500000  1
  Ru  Ru20  1  0.903342  0.123602  0.500000  1
