# generated using pymatgen
data_Pr2Th2P7Ir8
_symmetry_space_group_name_H-M   'P 1'
_cell_length_a   4.00540800
_cell_length_b   12.87439444
_cell_length_c   13.34260662
_cell_angle_alpha   99.29329988
_cell_angle_beta   90.00000000
_cell_angle_gamma   90.00000000
_symmetry_Int_Tables_number   1
_chemical_formula_structural   Pr2Th2P7Ir8
_chemical_formula_sum   'Pr4 Th4 P14 Ir16'
_cell_volume   679.01009042
_cell_formula_units_Z   2
loop_
 _symmetry_equiv_pos_site_id
 _symmetry_equiv_pos_as_xyz
  1  'x, y, z'
loop_
 _atom_site_type_symbol
 _atom_site_label
 _atom_site_symmetry_multiplicity
 _atom_site_fract_x
 _atom_site_fract_y
 _atom_site_fract_z
 _atom_site_occupancy
  Pr  Pr0  1  0.750000  0.280492  0.902048  1
  Pr  Pr1  1  0.250000  0.719508  0.097952  1
  Pr  Pr2  1  0.750000  0.104412  0.210808  1
  Pr  Pr3  1  0.250000  0.895588  0.789192  1
  Th  Th4  1  0.750000  0.207982  0.559653  1
  Th  Th5  1  0.250000  0.792018  0.440347  1
  Th  Th6  1  0.750000  0.516605  0.708669  1
  Th  Th7  1  0.250000  0.483395  0.291331  1
  P  P8  1  0.750000  0.743384  0.918449  1
  P  P9  1  0.250000  0.256616  0.081551  1
  P  P10  1  0.750000  0.909397  0.594783  1
  P  P11  1  0.250000  0.090603  0.405217  1
  P  P12  1  0.750000  0.530602  0.126262  1
  P  P13  1  0.250000  0.469398  0.873738  1
  P  P14  1  0.750000  0.842608  0.281231  1
  P  P15  1  0.250000  0.157392  0.718769  1
  P  P16  1  0.750000  0.607255  0.438931  1
  P  P17  1  0.250000  0.392745  0.561069  1
  P  P18  1  0.750000  0.314388  0.310431  1
  P  P19  1  0.250000  0.685612  0.689569  1
  P  P20  1  0.750000  0.051594  0.900729  1
  P  P21  1  0.250000  0.948406  0.099271  1
  Ir  Ir22  1  0.750000  0.342098  0.141318  1
  Ir  Ir23  1  0.250000  0.657902  0.858682  1
  Ir  Ir24  1  0.750000  0.728088  0.604298  1
  Ir  Ir25  1  0.250000  0.271912  0.395702  1
  Ir  Ir26  1  0.750000  0.916913  0.004404  1
  Ir  Ir27  1  0.250000  0.083087  0.995596  1
  Ir  Ir28  1  0.750000  0.424385  0.471621  1
  Ir  Ir29  1  0.250000  0.575615  0.528379  1
  Ir  Ir30  1  0.750000  0.064205  0.727039  1
  Ir  Ir31  1  0.250000  0.935795  0.272961  1
  Ir  Ir32  1  0.750000  0.549029  0.950027  1
  Ir  Ir33  1  0.250000  0.450971  0.049973  1
  Ir  Ir34  1  0.750000  0.661348  0.275326  1
  Ir  Ir35  1  0.250000  0.338652  0.724674  1
  Ir  Ir36  1  0.750000  0.990440  0.423411  1
  Ir  Ir37  1  0.250000  0.009560  0.576589  1
