# generated using pymatgen
data_Er7Lu9(In3Co)2
_symmetry_space_group_name_H-M   'P 1'
_cell_length_a   10.17444800
_cell_length_b   10.17856135
_cell_length_c   6.91122400
_cell_angle_alpha   89.99000911
_cell_angle_beta   90.00000000
_cell_angle_gamma   119.98663923
_symmetry_Int_Tables_number   1
_chemical_formula_structural   Er7Lu9(In3Co)2
_chemical_formula_sum   'Er7 Lu9 In6 Co2'
_cell_volume   619.92807047
_cell_formula_units_Z   1
loop_
 _symmetry_equiv_pos_site_id
 _symmetry_equiv_pos_as_xyz
  1  'x, y, z'
loop_
 _atom_site_type_symbol
 _atom_site_label
 _atom_site_symmetry_multiplicity
 _atom_site_fract_x
 _atom_site_fract_y
 _atom_site_fract_z
 _atom_site_occupancy
  Er  Er0  1  0.534253  0.068506  0.521126  1
  Er  Er1  1  0.930560  0.465517  0.521578  1
  Er  Er2  1  0.534956  0.465517  0.521578  1
  Er  Er3  1  0.465576  0.931151  0.021366  1
  Er  Er4  1  0.068823  0.535023  0.022042  1
  Er  Er5  1  0.466201  0.535023  0.022042  1
  Er  Er6  1  0.178264  0.356528  0.728413  1
  Lu  Lu7  1  0.642105  0.820872  0.727254  1
  Lu  Lu8  1  0.178767  0.820872  0.727254  1
  Lu  Lu9  1  0.821147  0.642295  0.227880  1
  Lu  Lu10  1  0.357793  0.179125  0.227943  1
  Lu  Lu11  1  0.821332  0.179125  0.227943  1
  Lu  Lu12  1  0.666676  0.333352  0.913821  1
  Lu  Lu13  1  0.333445  0.666889  0.412821  1
  Lu  Lu14  1  0.999888  0.999777  0.508417  1
  Lu  Lu15  1  0.999698  0.999395  0.009197  1
  In  In16  1  0.837130  0.674260  0.771017  1
  In  In17  1  0.326443  0.162179  0.771146  1
  In  In18  1  0.835735  0.162179  0.771146  1
  In  In19  1  0.162805  0.325609  0.269768  1
  In  In20  1  0.675453  0.838051  0.269759  1
  In  In21  1  0.162598  0.838051  0.269759  1
  Co  Co22  1  0.666702  0.333404  0.296229  1
  Co  Co23  1  0.333651  0.667301  0.796182  1
