# generated using pymatgen
data_Cs6DyTmSb4
_symmetry_space_group_name_H-M   'P 1'
_cell_length_a   10.54027803
_cell_length_b   10.54027739
_cell_length_c   10.54027818
_cell_angle_alpha   127.66106268
_cell_angle_beta   70.23364751
_cell_angle_gamma   136.65183846
_symmetry_Int_Tables_number   1
_chemical_formula_structural   Cs6DyTmSb4
_chemical_formula_sum   'Cs6 Dy1 Tm1 Sb4'
_cell_volume   624.07314394
_cell_formula_units_Z   1
loop_
 _symmetry_equiv_pos_site_id
 _symmetry_equiv_pos_as_xyz
  1  'x, y, z'
loop_
 _atom_site_type_symbol
 _atom_site_label
 _atom_site_symmetry_multiplicity
 _atom_site_fract_x
 _atom_site_fract_y
 _atom_site_fract_z
 _atom_site_occupancy
  Cs  Cs0  1  0.315950  0.703981  0.019787  1
  Cs  Cs1  1  0.184050  0.203837  0.388031  1
  Cs  Cs2  1  0.750000  0.250000  0.500000  1
  Cs  Cs3  1  0.250000  0.749999  0.499999  1
  Cs  Cs4  1  0.815806  0.796020  0.611970  1
  Cs  Cs5  1  0.684194  0.296164  0.980214  1
  Dy  Dy6  1  0.250000  0.250000  0.000000  1
  Tm  Tm7  1  0.750000  0.750000  0.000000  1
  Sb  Sb8  1  0.905056  0.182836  0.090031  1
  Sb  Sb9  1  0.594945  0.684977  0.277781  1
  Sb  Sb10  1  0.407195  0.317163  0.722218  1
  Sb  Sb11  1  0.092805  0.815023  0.909968  1
