# generated using pymatgen
data_Ta12Al3Ga5(CuC)4
_symmetry_space_group_name_H-M   'P 1'
_cell_length_a   8.28353598
_cell_length_b   8.28523055
_cell_length_c   8.28353601
_cell_angle_alpha   60.01939817
_cell_angle_beta   60.02448708
_cell_angle_gamma   60.01939716
_symmetry_Int_Tables_number   1
_chemical_formula_structural   Ta12Al3Ga5(CuC)4
_chemical_formula_sum   'Ta12 Al3 Ga5 Cu4 C4'
_cell_volume   402.18767033
_cell_formula_units_Z   1
loop_
 _symmetry_equiv_pos_site_id
 _symmetry_equiv_pos_as_xyz
  1  'x, y, z'
loop_
 _atom_site_type_symbol
 _atom_site_label
 _atom_site_symmetry_multiplicity
 _atom_site_fract_x
 _atom_site_fract_y
 _atom_site_fract_z
 _atom_site_occupancy
  Ta  Ta0  1  0.566813  0.933430  0.566813  1
  Ta  Ta1  1  0.317434  0.683146  0.682776  1
  Ta  Ta2  1  0.682604  0.316519  0.317399  1
  Ta  Ta3  1  0.316616  0.683065  0.316616  1
  Ta  Ta4  1  0.682776  0.683146  0.317434  1
  Ta  Ta5  1  0.317399  0.316519  0.682604  1
  Ta  Ta6  1  0.566673  0.567036  0.933530  1
  Ta  Ta7  1  0.933530  0.567036  0.566673  1
  Ta  Ta8  1  0.566752  0.932914  0.932992  1
  Ta  Ta9  1  0.932992  0.932914  0.566752  1
  Ta  Ta10  1  0.682836  0.317017  0.682836  1
  Ta  Ta11  1  0.932814  0.567001  0.932814  1
  Al  Al12  1  0.915546  0.916994  0.250641  1
  Al  Al13  1  0.250641  0.916994  0.915546  1
  Al  Al14  1  0.333496  0.333144  0.333496  1
  Ga  Ga15  1  0.915943  0.915024  0.915943  1
  Ga  Ga16  1  0.996147  0.334950  0.334250  1
  Ga  Ga17  1  0.334749  0.995609  0.334749  1
  Ga  Ga18  1  0.334250  0.334950  0.996147  1
  Ga  Ga19  1  0.915544  0.253501  0.915544  1
  Cu  Cu20  1  0.124932  0.122061  0.124932  1
  Cu  Cu21  1  0.624225  0.125849  0.126667  1
  Cu  Cu22  1  0.126576  0.626087  0.126576  1
  Cu  Cu23  1  0.126667  0.125849  0.624225  1
  C  C24  1  0.625430  0.624103  0.625430  1
  C  C25  1  0.124996  0.625056  0.625946  1
  C  C26  1  0.625672  0.125022  0.625672  1
  C  C27  1  0.625946  0.625056  0.124996  1
