# generated using pymatgen
data_Tb2Y2Er(SiB4)2
_symmetry_space_group_name_H-M   'P 1'
_cell_length_a   7.23449602
_cell_length_b   7.23455003
_cell_length_c   8.09474901
_cell_angle_alpha   89.99447553
_cell_angle_beta   90.00000022
_cell_angle_gamma   90.00902854
_symmetry_Int_Tables_number   1
_chemical_formula_structural   Tb2Y2Er(SiB4)2
_chemical_formula_sum   'Tb4 Y4 Er2 Si4 B16'
_cell_volume   423.66558445
_cell_formula_units_Z   2
loop_
 _symmetry_equiv_pos_site_id
 _symmetry_equiv_pos_as_xyz
  1  'x, y, z'
loop_
 _atom_site_type_symbol
 _atom_site_label
 _atom_site_symmetry_multiplicity
 _atom_site_fract_x
 _atom_site_fract_y
 _atom_site_fract_z
 _atom_site_occupancy
  Tb  Tb0  1  0.680263  0.180236  0.224947  1
  Tb  Tb1  1  0.319654  0.819698  0.774885  1
  Tb  Tb2  1  0.319765  0.819741  0.225050  1
  Tb  Tb3  1  0.819647  0.680330  0.224856  1
  Y  Y4  1  0.819654  0.680346  0.775499  1
  Y  Y5  1  0.680227  0.180267  0.775399  1
  Y  Y6  1  0.180333  0.319662  0.775585  1
  Y  Y7  1  0.180262  0.319720  0.224350  1
  Er  Er8  1  0.999974  0.000064  0.500134  1
  Er  Er9  1  0.499943  0.499947  0.500120  1
  Si  Si10  1  0.115254  0.615067  0.500133  1
  Si  Si11  1  0.884781  0.384596  0.500133  1
  Si  Si12  1  0.384705  0.115484  0.500113  1
  Si  Si13  1  0.615338  0.884855  0.500147  1
  B  B14  1  0.172424  0.039101  0.999869  1
  B  B15  1  0.827622  0.960955  0.999933  1
  B  B16  1  0.960869  0.172402  0.999911  1
  B  B17  1  0.327668  0.539073  0.999858  1
  B  B18  1  0.039069  0.827708  0.999893  1
  B  B19  1  0.672362  0.460870  0.999943  1
  B  B20  1  0.539035  0.672348  0.999901  1
  B  B21  1  0.460896  0.327545  0.999902  1
  B  B22  1  0.089919  0.589870  0.999944  1
  B  B23  1  0.910192  0.410143  0.000052  1
  B  B24  1  0.410160  0.089886  0.999947  1
  B  B25  1  0.589950  0.910095  0.000049  1
  B  B26  1  0.000026  0.000116  0.162062  1
  B  B27  1  0.999991  0.000094  0.837663  1
  B  B28  1  0.500034  0.499851  0.837662  1
  B  B29  1  0.499982  0.499933  0.162061  1
