# generated using pymatgen
data_HoMnSi2Os
_symmetry_space_group_name_H-M   'P 1'
_cell_length_a   5.84679788
_cell_length_b   5.84679826
_cell_length_c   5.84679784
_cell_angle_alpha   140.08336180
_cell_angle_beta   140.08337024
_cell_angle_gamma   57.72674369
_symmetry_Int_Tables_number   1
_chemical_formula_structural   HoMnSi2Os
_chemical_formula_sum   'Ho1 Mn1 Si2 Os1'
_cell_volume   81.57765587
_cell_formula_units_Z   1
loop_
 _symmetry_equiv_pos_site_id
 _symmetry_equiv_pos_as_xyz
  1  'x, y, z'
loop_
 _atom_site_type_symbol
 _atom_site_label
 _atom_site_symmetry_multiplicity
 _atom_site_fract_x
 _atom_site_fract_y
 _atom_site_fract_z
 _atom_site_occupancy
  Ho  Ho0  1  0.000000  0.000000  0.000000  1
  Mn  Mn1  1  0.750000  0.250000  0.500000  1
  Si  Si2  1  0.619265  0.619265  0.000000  1
  Si  Si3  1  0.380735  0.380735  0.000000  1
  Os  Os4  1  0.250000  0.750000  0.500000  1
