# generated using pymatgen
data_Er10In3BiPb2
_symmetry_space_group_name_H-M   'P 1'
_cell_length_a   8.94872909
_cell_length_b   8.97592165
_cell_length_c   6.59463100
_cell_angle_alpha   90.00000000
_cell_angle_beta   90.00000000
_cell_angle_gamma   119.90669769
_symmetry_Int_Tables_number   1
_chemical_formula_structural   Er10In3BiPb2
_chemical_formula_sum   'Er10 In3 Bi1 Pb2'
_cell_volume   459.16533277
_cell_formula_units_Z   1
loop_
 _symmetry_equiv_pos_site_id
 _symmetry_equiv_pos_as_xyz
  1  'x, y, z'
loop_
 _atom_site_type_symbol
 _atom_site_label
 _atom_site_symmetry_multiplicity
 _atom_site_fract_x
 _atom_site_fract_y
 _atom_site_fract_z
 _atom_site_occupancy
  Er  Er0  1  0.666044  0.330198  0.003526  1
  Er  Er1  1  0.338665  0.674492  0.003773  1
  Er  Er2  1  0.338665  0.674492  0.496227  1
  Er  Er3  1  0.666044  0.330198  0.496474  1
  Er  Er4  1  0.763985  0.769109  0.750000  1
  Er  Er5  1  0.237592  0.995621  0.750000  1
  Er  Er6  1  0.991282  0.232624  0.750000  1
  Er  Er7  1  0.240175  0.235768  0.250000  1
  Er  Er8  1  0.759462  0.996329  0.250000  1
  Er  Er9  1  0.000987  0.764866  0.250000  1
  In  In10  1  0.599765  0.000722  0.750000  1
  In  In11  1  0.604529  0.602672  0.250000  1
  In  In12  1  0.398354  0.001131  0.250000  1
  Bi  Bi13  1  0.392449  0.394494  0.750000  1
  Pb  Pb14  1  0.998757  0.602812  0.750000  1
  Pb  Pb15  1  0.003242  0.394474  0.250000  1
