# generated using pymatgen
data_Dy6Zn18Ag5P
_symmetry_space_group_name_H-M   'P 1'
_cell_length_a   9.12006425
_cell_length_b   9.13005176
_cell_length_c   9.13005200
_cell_angle_alpha   59.99999913
_cell_angle_beta   59.96376642
_cell_angle_gamma   59.96377558
_symmetry_Int_Tables_number   1
_chemical_formula_structural   Dy6Zn18Ag5P
_chemical_formula_sum   'Dy6 Zn18 Ag5 P1'
_cell_volume   537.26846511
_cell_formula_units_Z   1
loop_
 _symmetry_equiv_pos_site_id
 _symmetry_equiv_pos_as_xyz
  1  'x, y, z'
loop_
 _atom_site_type_symbol
 _atom_site_label
 _atom_site_symmetry_multiplicity
 _atom_site_fract_x
 _atom_site_fract_y
 _atom_site_fract_z
 _atom_site_occupancy
  Dy  Dy0  1  0.711490  0.288427  0.288432  1
  Dy  Dy1  1  0.711501  0.288436  0.711641  1
  Dy  Dy2  1  0.711497  0.711643  0.288440  1
  Dy  Dy3  1  0.289892  0.710547  0.710545  1
  Dy  Dy4  1  0.289880  0.710534  0.289030  1
  Dy  Dy5  1  0.289880  0.289027  0.710532  1
  Zn  Zn6  1  0.876551  0.367885  0.877801  1
  Zn  Zn7  1  0.876553  0.877804  0.367882  1
  Zn  Zn8  1  0.876567  0.877797  0.877794  1
  Zn  Zn9  1  0.504597  0.998889  0.998894  1
  Zn  Zn10  1  0.504633  0.998884  0.497596  1
  Zn  Zn11  1  0.504637  0.497596  0.998882  1
  Zn  Zn12  1  0.998550  0.501765  0.501762  1
  Zn  Zn13  1  0.998564  0.501764  0.997911  1
  Zn  Zn14  1  0.998562  0.997913  0.501763  1
  Zn  Zn15  1  0.995967  0.001338  0.001339  1
  Zn  Zn16  1  0.012867  0.329045  0.329056  1
  Zn  Zn17  1  0.329179  0.012950  0.328938  1
  Zn  Zn18  1  0.329191  0.328933  0.012935  1
  Zn  Zn19  1  0.329159  0.328937  0.328943  1
  Zn  Zn20  1  0.985276  0.671573  0.671564  1
  Zn  Zn21  1  0.670593  0.986859  0.671269  1
  Zn  Zn22  1  0.670581  0.671277  0.986867  1
  Zn  Zn23  1  0.670616  0.671268  0.671261  1
  Ag  Ag24  1  0.640791  0.119737  0.119742  1
  Ag  Ag25  1  0.120200  0.639132  0.120325  1
  Ag  Ag26  1  0.120197  0.120320  0.639140  1
  Ag  Ag27  1  0.120184  0.120331  0.120335  1
  Ag  Ag28  1  0.360351  0.879886  0.879882  1
  P  P29  1  0.501492  0.499502  0.499502  1
