# generated using pymatgen
data_Tm8B24Rh3W
_symmetry_space_group_name_H-M   'P 1'
_cell_length_a   3.62050200
_cell_length_b   9.11965773
_cell_length_c   11.48007006
_cell_angle_alpha   90.24946094
_cell_angle_beta   90.00000000
_cell_angle_gamma   90.00000000
_symmetry_Int_Tables_number   1
_chemical_formula_structural   Tm8B24Rh3W
_chemical_formula_sum   'Tm8 B24 Rh3 W1'
_cell_volume   379.04236455
_cell_formula_units_Z   1
loop_
 _symmetry_equiv_pos_site_id
 _symmetry_equiv_pos_as_xyz
  1  'x, y, z'
loop_
 _atom_site_type_symbol
 _atom_site_label
 _atom_site_symmetry_multiplicity
 _atom_site_fract_x
 _atom_site_fract_y
 _atom_site_fract_z
 _atom_site_occupancy
  Tm  Tm0  1  0.500000  0.318551  0.410620  1
  Tm  Tm1  1  0.500000  0.676912  0.585005  1
  Tm  Tm2  1  0.500000  0.179018  0.916586  1
  Tm  Tm3  1  0.500000  0.823217  0.086664  1
  Tm  Tm4  1  0.500000  0.445710  0.125465  1
  Tm  Tm5  1  0.500000  0.557294  0.871545  1
  Tm  Tm6  1  0.500000  0.055849  0.629087  1
  Tm  Tm7  1  0.500000  0.944422  0.374760  1
  B  B8  1  0.000000  0.106247  0.472995  1
  B  B9  1  0.000000  0.892206  0.530594  1
  B  B10  1  0.000000  0.396015  0.969139  1
  B  B11  1  0.000000  0.608319  0.028220  1
  B  B12  1  0.000000  0.131986  0.317789  1
  B  B13  1  0.000000  0.866641  0.683729  1
  B  B14  1  0.000000  0.368575  0.816159  1
  B  B15  1  0.000000  0.633162  0.183440  1
  B  B16  1  0.000000  0.051364  0.064144  1
  B  B17  1  0.000000  0.946606  0.933278  1
  B  B18  1  0.000000  0.445075  0.565061  1
  B  B19  1  0.000000  0.552629  0.434102  1
  B  B20  1  0.000000  0.483159  0.287382  1
  B  B21  1  0.000000  0.517550  0.711772  1
  B  B22  1  0.000000  0.017847  0.787752  1
  B  B23  1  0.000000  0.978931  0.214259  1
  B  B24  1  0.000000  0.251967  0.077832  1
  B  B25  1  0.000000  0.751271  0.919836  1
  B  B26  1  0.000000  0.249930  0.579194  1
  B  B27  1  0.000000  0.748555  0.421506  1
  B  B28  1  0.000000  0.296273  0.236260  1
  B  B29  1  0.000000  0.705975  0.763115  1
  B  B30  1  0.000000  0.207517  0.736445  1
  B  B31  1  0.000000  0.792044  0.266100  1
  Rh  Rh32  1  0.500000  0.860983  0.820782  1
  Rh  Rh33  1  0.500000  0.361099  0.678953  1
  Rh  Rh34  1  0.500000  0.638831  0.321297  1
  W  W35  1  0.500000  0.138270  0.179134  1
