# generated using pymatgen
data_ErSc6CoSn23Os5
_symmetry_space_group_name_H-M   'P 1'
_cell_length_a   9.71906661
_cell_length_b   9.76337694
_cell_length_c   9.90689929
_cell_angle_alpha   89.99999864
_cell_angle_beta   90.05597469
_cell_angle_gamma   120.15094083
_symmetry_Int_Tables_number   1
_chemical_formula_structural   ErSc6CoSn23Os5
_chemical_formula_sum   'Er1 Sc6 Co1 Sn23 Os5'
_cell_volume   812.88695393
_cell_formula_units_Z   1
loop_
 _symmetry_equiv_pos_site_id
 _symmetry_equiv_pos_as_xyz
  1  'x, y, z'
loop_
 _atom_site_type_symbol
 _atom_site_label
 _atom_site_symmetry_multiplicity
 _atom_site_fract_x
 _atom_site_fract_y
 _atom_site_fract_z
 _atom_site_occupancy
  Er  Er0  1  0.014295  0.007147  0.008090  1
  Sc  Sc1  1  0.490304  0.508909  0.301780  1
  Sc  Sc2  1  0.508561  0.487230  0.695251  1
  Sc  Sc3  1  0.490304  0.981396  0.301780  1
  Sc  Sc4  1  0.508561  0.021330  0.695251  1
  Sc  Sc5  1  0.018112  0.509057  0.302199  1
  Sc  Sc6  1  0.976997  0.488498  0.696606  1
  Co  Co7  1  0.654437  0.827218  0.796316  1
  Sn  Sn8  1  0.119315  0.879466  0.284716  1
  Sn  Sn9  1  0.874024  0.112345  0.722115  1
  Sn  Sn10  1  0.119315  0.239849  0.284716  1
  Sn  Sn11  1  0.874024  0.761680  0.722115  1
  Sn  Sn12  1  0.751413  0.875706  0.277938  1
  Sn  Sn13  1  0.245776  0.122888  0.721175  1
  Sn  Sn14  1  0.776851  0.224146  0.468190  1
  Sn  Sn15  1  0.222917  0.773827  0.532354  1
  Sn  Sn16  1  0.776851  0.552705  0.468190  1
  Sn  Sn17  1  0.222917  0.449090  0.532354  1
  Sn  Sn18  1  0.448212  0.224107  0.466076  1
  Sn  Sn19  1  0.556210  0.778105  0.539252  1
  Sn  Sn20  1  0.354257  0.998535  0.999806  1
  Sn  Sn21  1  0.652839  0.996520  0.993421  1
  Sn  Sn22  1  0.000442  0.350906  0.000185  1
  Sn  Sn23  1  0.000442  0.649536  0.000185  1
  Sn  Sn24  1  0.652839  0.656319  0.993421  1
  Sn  Sn25  1  0.354257  0.355722  0.999806  1
  Sn  Sn26  1  0.334988  0.667495  0.145396  1
  Sn  Sn27  1  0.664749  0.332374  0.854249  1
  Sn  Sn28  1  0.335873  0.667937  0.825548  1
  Sn  Sn29  1  0.666535  0.333267  0.170437  1
  Sn  Sn30  1  0.997607  0.998804  0.502257  1
  Os  Os31  1  0.826706  0.169573  0.203980  1
  Os  Os32  1  0.170743  0.828631  0.794452  1
  Os  Os33  1  0.826706  0.657133  0.203980  1
  Os  Os34  1  0.170743  0.342110  0.794452  1
  Os  Os35  1  0.340876  0.170439  0.201961  1
