# generated using pymatgen
data_Y2Lu2ReI4
_symmetry_space_group_name_H-M   'P 1'
_cell_length_a   11.33487323
_cell_length_b   11.33487375
_cell_length_c   6.13235800
_cell_angle_alpha   90.04324401
_cell_angle_beta   90.04325413
_cell_angle_gamma   88.33411843
_symmetry_Int_Tables_number   1
_chemical_formula_structural   Y2Lu2ReI4
_chemical_formula_sum   'Y4 Lu4 Re2 I8'
_cell_volume   787.54797736
_cell_formula_units_Z   2
loop_
 _symmetry_equiv_pos_site_id
 _symmetry_equiv_pos_as_xyz
  1  'x, y, z'
loop_
 _atom_site_type_symbol
 _atom_site_label
 _atom_site_symmetry_multiplicity
 _atom_site_fract_x
 _atom_site_fract_y
 _atom_site_fract_z
 _atom_site_occupancy
  Y  Y0  1  0.922186  0.800399  0.999316  1
  Y  Y1  1  0.914259  0.202224  0.500369  1
  Y  Y2  1  0.202224  0.914259  0.000369  1
  Y  Y3  1  0.800399  0.922186  0.499316  1
  Lu  Lu4  1  0.808357  0.081450  0.998709  1
  Lu  Lu5  1  0.081450  0.808357  0.498709  1
  Lu  Lu6  1  0.078199  0.189510  0.000262  1
  Lu  Lu7  1  0.189510  0.078199  0.500262  1
  Re  Re8  1  0.999808  0.000009  0.249718  1
  Re  Re9  1  0.000009  0.999808  0.749718  1
  I  I10  1  0.641487  0.154514  0.509156  1
  I  I11  1  0.860255  0.647443  0.504672  1
  I  I12  1  0.350870  0.145528  0.994395  1
  I  I13  1  0.145528  0.350870  0.494395  1
  I  I14  1  0.647443  0.860255  0.004672  1
  I  I15  1  0.354159  0.849342  0.493403  1
  I  I16  1  0.154514  0.641487  0.009156  1
  I  I17  1  0.849342  0.354159  0.993403  1
