# generated using pymatgen
data_ThPa3(Al8Pt3)3
_symmetry_space_group_name_H-M   'P 1'
_cell_length_a   7.59827627
_cell_length_b   7.61308024
_cell_length_c   13.17569060
_cell_angle_alpha   84.48929899
_cell_angle_beta   78.96028427
_cell_angle_gamma   59.94783413
_symmetry_Int_Tables_number   1
_chemical_formula_structural   ThPa3(Al8Pt3)3
_chemical_formula_sum   'Th1 Pa3 Al24 Pt9'
_cell_volume   647.49873322
_cell_formula_units_Z   1
loop_
 _symmetry_equiv_pos_site_id
 _symmetry_equiv_pos_as_xyz
  1  'x, y, z'
loop_
 _atom_site_type_symbol
 _atom_site_label
 _atom_site_symmetry_multiplicity
 _atom_site_fract_x
 _atom_site_fract_y
 _atom_site_fract_z
 _atom_site_occupancy
  Th  Th0  1  0.395107  0.167602  0.807951  1
  Pa  Pa1  1  0.606370  0.830607  0.194987  1
  Pa  Pa2  1  0.734568  0.498245  0.804803  1
  Pa  Pa3  1  0.265035  0.503384  0.195072  1
  Al  Al4  1  0.686337  0.830731  0.949823  1
  Al  Al5  1  0.315650  0.166361  0.058458  1
  Al  Al6  1  0.146027  0.833632  0.560079  1
  Al  Al7  1  0.853854  0.166638  0.439058  1
  Al  Al8  1  0.481728  0.166778  0.556954  1
  Al  Al9  1  0.518656  0.833557  0.441786  1
  Al  Al10  1  0.213788  0.165655  0.331367  1
  Al  Al11  1  0.787719  0.833457  0.665609  1
  Al  Al12  1  0.436090  0.510060  0.665936  1
  Al  Al13  1  0.564636  0.490668  0.331406  1
  Al  Al14  1  0.110957  0.156967  0.664588  1
  Al  Al15  1  0.889203  0.843018  0.332883  1
  Al  Al16  1  0.350689  0.502927  0.949551  1
  Al  Al17  1  0.647599  0.501732  0.052242  1
  Al  Al18  1  0.012571  0.166626  0.955330  1
  Al  Al19  1  0.983880  0.831361  0.049127  1
  Al  Al20  1  0.186472  0.499775  0.441839  1
  Al  Al21  1  0.813908  0.499735  0.557477  1
  Al  Al22  1  0.734528  0.164802  0.182068  1
  Al  Al23  1  0.265251  0.830693  0.816744  1
  Al  Al24  1  0.056496  0.635743  0.815958  1
  Al  Al25  1  0.936920  0.369318  0.183457  1
  Al  Al26  1  0.860495  0.040489  0.816971  1
  Al  Al27  1  0.143295  0.960036  0.182890  1
  Pt  Pt28  1  0.120421  0.491272  0.638799  1
  Pt  Pt29  1  0.880386  0.507873  0.360603  1
  Pt  Pt30  1  0.657991  0.170455  0.999576  1
  Pt  Pt31  1  0.340162  0.832894  0.999379  1
  Pt  Pt32  1  0.536946  0.167110  0.360158  1
  Pt  Pt33  1  0.462934  0.833104  0.638515  1
  Pt  Pt34  1  0.778420  0.175183  0.637946  1
  Pt  Pt35  1  0.221344  0.825047  0.361450  1
  Pt  Pt36  1  0.003566  0.496467  0.999158  1
