# generated using pymatgen
data_Sc5Tl2Tc
_symmetry_space_group_name_H-M   'P 1'
_cell_length_a   5.97289200
_cell_length_b   8.48089040
_cell_length_c   8.48089052
_cell_angle_alpha   121.33633788
_cell_angle_beta   90.00000000
_cell_angle_gamma   90.00000000
_symmetry_Int_Tables_number   1
_chemical_formula_structural   Sc5Tl2Tc
_chemical_formula_sum   'Sc10 Tl4 Tc2'
_cell_volume   366.93667738
_cell_formula_units_Z   2
loop_
 _symmetry_equiv_pos_site_id
 _symmetry_equiv_pos_as_xyz
  1  'x, y, z'
loop_
 _atom_site_type_symbol
 _atom_site_label
 _atom_site_symmetry_multiplicity
 _atom_site_fract_x
 _atom_site_fract_y
 _atom_site_fract_z
 _atom_site_occupancy
  Sc  Sc0  1  0.750000  0.743860  0.743860  1
  Sc  Sc1  1  0.250000  0.256140  0.256140  1
  Sc  Sc2  1  0.750000  0.038772  0.257504  1
  Sc  Sc3  1  0.250000  0.961228  0.742496  1
  Sc  Sc4  1  0.750000  0.257504  0.038772  1
  Sc  Sc5  1  0.250000  0.742496  0.961228  1
  Sc  Sc6  1  0.000000  0.643733  0.356267  1
  Sc  Sc7  1  0.000000  0.356267  0.643733  1
  Sc  Sc8  1  0.500000  0.356267  0.643733  1
  Sc  Sc9  1  0.500000  0.643733  0.356267  1
  Tl  Tl10  1  0.750000  0.021603  0.615245  1
  Tl  Tl11  1  0.250000  0.978397  0.384755  1
  Tl  Tl12  1  0.750000  0.615245  0.021603  1
  Tl  Tl13  1  0.250000  0.384755  0.978397  1
  Tc  Tc14  1  0.750000  0.398838  0.398838  1
  Tc  Tc15  1  0.250000  0.601162  0.601162  1
