# generated using pymatgen
data_Ho3InF10
_symmetry_space_group_name_H-M   'P 1'
_cell_length_a   8.24887276
_cell_length_b   8.24887290
_cell_length_c   8.24887200
_cell_angle_alpha   59.99999558
_cell_angle_beta   59.99999501
_cell_angle_gamma   59.99999261
_symmetry_Int_Tables_number   1
_chemical_formula_structural   Ho3InF10
_chemical_formula_sum   'Ho6 In2 F20'
_cell_volume   396.88869425
_cell_formula_units_Z   2
loop_
 _symmetry_equiv_pos_site_id
 _symmetry_equiv_pos_as_xyz
  1  'x, y, z'
loop_
 _atom_site_type_symbol
 _atom_site_label
 _atom_site_symmetry_multiplicity
 _atom_site_fract_x
 _atom_site_fract_y
 _atom_site_fract_z
 _atom_site_occupancy
  Ho  Ho0  1  0.758946  0.241054  0.241054  1
  Ho  Ho1  1  0.241054  0.758946  0.758946  1
  Ho  Ho2  1  0.241054  0.758946  0.241054  1
  Ho  Ho3  1  0.758946  0.241054  0.758946  1
  Ho  Ho4  1  0.241054  0.241054  0.758946  1
  Ho  Ho5  1  0.758946  0.758946  0.241054  1
  In  In6  1  0.250000  0.250000  0.250000  1
  In  In7  1  0.750000  0.750000  0.750000  1
  F  F8  1  0.829804  0.500000  0.500000  1
  F  F9  1  0.170196  0.500000  0.500000  1
  F  F10  1  0.500000  0.829804  0.170196  1
  F  F11  1  0.500000  0.170196  0.829804  1
  F  F12  1  0.500000  0.829804  0.500000  1
  F  F13  1  0.170196  0.500000  0.829804  1
  F  F14  1  0.500000  0.170196  0.500000  1
  F  F15  1  0.829804  0.500000  0.170196  1
  F  F16  1  0.500000  0.500000  0.829804  1
  F  F17  1  0.500000  0.500000  0.170196  1
  F  F18  1  0.170196  0.829804  0.500000  1
  F  F19  1  0.829804  0.170196  0.500000  1
  F  F20  1  0.110927  0.110927  0.110927  1
  F  F21  1  0.889073  0.889073  0.889073  1
  F  F22  1  0.110927  0.110927  0.667219  1
  F  F23  1  0.110927  0.667219  0.110927  1
  F  F24  1  0.889073  0.889073  0.332781  1
  F  F25  1  0.889073  0.332781  0.889073  1
  F  F26  1  0.667219  0.110927  0.110927  1
  F  F27  1  0.332781  0.889073  0.889073  1
