# generated using pymatgen
data_Tb4Ho4Sc12Si15Sn
_symmetry_space_group_name_H-M   'P 1'
_cell_length_a   7.12481991
_cell_length_b   7.41367872
_cell_length_c   14.06065303
_cell_angle_alpha   90.01228774
_cell_angle_beta   89.58992665
_cell_angle_gamma   90.05516150
_symmetry_Int_Tables_number   1
_chemical_formula_structural   Tb4Ho4Sc12Si15Sn
_chemical_formula_sum   'Tb4 Ho4 Sc12 Si15 Sn1'
_cell_volume   742.68013967
_cell_formula_units_Z   1
loop_
 _symmetry_equiv_pos_site_id
 _symmetry_equiv_pos_as_xyz
  1  'x, y, z'
loop_
 _atom_site_type_symbol
 _atom_site_label
 _atom_site_symmetry_multiplicity
 _atom_site_fract_x
 _atom_site_fract_y
 _atom_site_fract_z
 _atom_site_occupancy
  Tb  Tb0  1  0.011507  0.175941  0.096488  1
  Tb  Tb1  1  0.988317  0.824945  0.904429  1
  Tb  Tb2  1  0.489164  0.675766  0.904530  1
  Tb  Tb3  1  0.989221  0.830403  0.598245  1
  Ho  Ho4  1  0.510887  0.323792  0.096957  1
  Ho  Ho5  1  0.005858  0.169715  0.398844  1
  Ho  Ho6  1  0.512991  0.320189  0.399451  1
  Ho  Ho7  1  0.501259  0.684440  0.600067  1
  Sc  Sc8  1  0.162600  0.502167  0.755026  1
  Sc  Sc9  1  0.836908  0.497561  0.249202  1
  Sc  Sc10  1  0.337307  0.002772  0.249382  1
  Sc  Sc11  1  0.664079  0.997481  0.751740  1
  Sc  Sc12  1  0.343428  0.162643  0.630777  1
  Sc  Sc13  1  0.663813  0.825093  0.372582  1
  Sc  Sc14  1  0.163492  0.683307  0.369193  1
  Sc  Sc15  1  0.667582  0.822975  0.124260  1
  Sc  Sc16  1  0.823204  0.323810  0.626582  1
  Sc  Sc17  1  0.330855  0.175912  0.875551  1
  Sc  Sc18  1  0.831229  0.323455  0.875634  1
  Sc  Sc19  1  0.168734  0.676454  0.125106  1
  Si  Si20  1  0.035161  0.119025  0.751225  1
  Si  Si21  1  0.963032  0.884956  0.246978  1
  Si  Si22  1  0.465269  0.615185  0.248569  1
  Si  Si23  1  0.533241  0.385413  0.752092  1
  Si  Si24  1  0.287111  0.870325  0.752255  1
  Si  Si25  1  0.711848  0.126849  0.247660  1
  Si  Si26  1  0.212158  0.372696  0.249263  1
  Si  Si27  1  0.789419  0.627630  0.751426  1
  Si  Si28  1  0.829972  0.538670  0.458535  1
  Si  Si29  1  0.338307  0.964151  0.460214  1
  Si  Si30  1  0.841838  0.534543  0.039549  1
  Si  Si31  1  0.661884  0.037398  0.537754  1
  Si  Si32  1  0.156911  0.464630  0.961636  1
  Si  Si33  1  0.656667  0.035814  0.960973  1
  Si  Si34  1  0.342140  0.965551  0.039847  1
  Sn  Sn35  1  0.172609  0.458344  0.537980  1
