# generated using pymatgen
data_CaSmPa2(Al3Rh)6
_symmetry_space_group_name_H-M   'P 1'
_cell_length_a   7.62262233
_cell_length_b   7.61803222
_cell_length_c   9.43008300
_cell_angle_alpha   90.00000000
_cell_angle_beta   90.00000000
_cell_angle_gamma   119.51891693
_symmetry_Int_Tables_number   1
_chemical_formula_structural   CaSmPa2(Al3Rh)6
_chemical_formula_sum   'Ca1 Sm1 Pa2 Al18 Rh6'
_cell_volume   476.51693804
_cell_formula_units_Z   1
loop_
 _symmetry_equiv_pos_site_id
 _symmetry_equiv_pos_as_xyz
  1  'x, y, z'
loop_
 _atom_site_type_symbol
 _atom_site_label
 _atom_site_symmetry_multiplicity
 _atom_site_fract_x
 _atom_site_fract_y
 _atom_site_fract_z
 _atom_site_occupancy
  Ca  Ca0  1  0.671310  0.993960  0.250000  1
  Sm  Sm1  1  0.330301  0.006253  0.750000  1
  Pa  Pa2  1  0.997146  0.672216  0.250000  1
  Pa  Pa3  1  0.002506  0.327553  0.750000  1
  Al  Al4  1  0.130773  0.126191  0.250000  1
  Al  Al5  1  0.868585  0.872473  0.750000  1
  Al  Al6  1  0.999935  0.332617  0.077735  1
  Al  Al7  1  0.998372  0.666174  0.923456  1
  Al  Al8  1  0.998372  0.666174  0.576544  1
  Al  Al9  1  0.338493  0.002799  0.423274  1
  Al  Al10  1  0.999935  0.332617  0.422265  1
  Al  Al11  1  0.662930  0.996941  0.573559  1
  Al  Al12  1  0.662930  0.996941  0.926441  1
  Al  Al13  1  0.338493  0.002799  0.076726  1
  Al  Al14  1  0.334615  0.333997  0.550610  1
  Al  Al15  1  0.665163  0.666792  0.448175  1
  Al  Al16  1  0.665163  0.666792  0.051825  1
  Al  Al17  1  0.334615  0.333997  0.949390  1
  Al  Al18  1  0.337960  0.548428  0.250000  1
  Al  Al19  1  0.661561  0.452891  0.750000  1
  Al  Al20  1  0.551524  0.345703  0.250000  1
  Al  Al21  1  0.450340  0.656686  0.750000  1
  Rh  Rh22  1  0.674998  0.330574  0.998786  1
  Rh  Rh23  1  0.323655  0.668962  0.999615  1
  Rh  Rh24  1  0.323655  0.668962  0.500385  1
  Rh  Rh25  1  0.674998  0.330574  0.501214  1
  Rh  Rh26  1  0.000836  0.999969  0.999503  1
  Rh  Rh27  1  0.000836  0.999969  0.500497  1
