# generated using pymatgen
data_Ba4Sc2US9
_symmetry_space_group_name_H-M   'P 1'
_cell_length_a   12.31487600
_cell_length_b   12.31486254
_cell_length_c   9.90763300
_cell_angle_alpha   90.00000000
_cell_angle_beta   89.99977202
_cell_angle_gamma   119.99996095
_symmetry_Int_Tables_number   1
_chemical_formula_structural   Ba4Sc2US9
_chemical_formula_sum   'Ba12 Sc6 U3 S27'
_cell_volume   1301.24875013
_cell_formula_units_Z   3
loop_
 _symmetry_equiv_pos_site_id
 _symmetry_equiv_pos_as_xyz
  1  'x, y, z'
loop_
 _atom_site_type_symbol
 _atom_site_label
 _atom_site_symmetry_multiplicity
 _atom_site_fract_x
 _atom_site_fract_y
 _atom_site_fract_z
 _atom_site_occupancy
  Ba  Ba0  1  0.683971  0.000000  0.000002  1
  Ba  Ba1  1  0.316030  0.316028  0.999998  1
  Ba  Ba2  1  0.000000  0.683963  0.000000  1
  Ba  Ba3  1  0.042305  0.340076  0.251064  1
  Ba  Ba4  1  0.297777  0.957696  0.251055  1
  Ba  Ba5  1  0.659921  0.702227  0.251057  1
  Ba  Ba6  1  0.000000  0.627262  0.500000  1
  Ba  Ba7  1  0.372743  0.372741  0.500001  1
  Ba  Ba8  1  0.627257  0.999997  0.499999  1
  Ba  Ba9  1  0.702224  0.659919  0.748944  1
  Ba  Ba10  1  0.340079  0.042306  0.748944  1
  Ba  Ba11  1  0.957696  0.297773  0.748936  1
  Sc  Sc12  1  0.333337  0.666666  0.081457  1
  Sc  Sc13  1  0.000005  0.000002  0.157820  1
  Sc  Sc14  1  0.333333  0.666666  0.399087  1
  Sc  Sc15  1  0.666667  0.333334  0.600914  1
  Sc  Sc16  1  0.999995  0.999997  0.842180  1
  Sc  Sc17  1  0.666663  0.333328  0.918544  1
  U  U18  1  0.666661  0.333329  0.256756  1
  U  U19  1  0.000000  0.000001  0.500000  1
  U  U20  1  0.333338  0.666667  0.743244  1
  S  S21  1  0.164637  0.000000  0.000000  1
  S  S22  1  0.000000  0.164643  0.000000  1
  S  S23  1  0.835363  0.835361  0.000000  1
  S  S24  1  0.495072  0.180380  0.077431  1
  S  S25  1  0.685307  0.504930  0.077429  1
  S  S26  1  0.819624  0.314695  0.077429  1
  S  S27  1  0.155015  0.644971  0.238793  1
  S  S28  1  0.355026  0.510048  0.238794  1
  S  S29  1  0.489952  0.844980  0.238794  1
  S  S30  1  0.170841  0.159207  0.317167  1
  S  S31  1  0.840794  0.011633  0.317169  1
  S  S32  1  0.988370  0.829163  0.317168  1
  S  S33  1  0.822910  0.314599  0.443176  1
  S  S34  1  0.685406  0.508311  0.443177  1
  S  S35  1  0.491698  0.177099  0.443180  1
  S  S36  1  0.508302  0.685401  0.556820  1
  S  S37  1  0.314594  0.822905  0.556824  1
  S  S38  1  0.177090  0.491689  0.556824  1
  S  S39  1  0.159207  0.170840  0.682830  1
  S  S40  1  0.011630  0.840793  0.682833  1
  S  S41  1  0.829158  0.988365  0.682834  1
  S  S42  1  0.510048  0.355027  0.761206  1
  S  S43  1  0.644974  0.155022  0.761207  1
  S  S44  1  0.844986  0.489955  0.761207  1
  S  S45  1  0.180376  0.495071  0.922572  1
  S  S46  1  0.314693  0.819623  0.922571  1
  S  S47  1  0.504927  0.685308  0.922569  1
