# generated using pymatgen
data_Ga9Ni9Ir4
_symmetry_space_group_name_H-M   'P 1'
_cell_length_a   8.06118849
_cell_length_b   8.06118871
_cell_length_c   8.71222662
_cell_angle_alpha   134.12423852
_cell_angle_beta   45.87576160
_cell_angle_gamma   120.20678601
_symmetry_Int_Tables_number   1
_chemical_formula_structural   Ga9Ni9Ir4
_chemical_formula_sum   'Ga9 Ni9 Ir4'
_cell_volume   291.53825421
_cell_formula_units_Z   1
loop_
 _symmetry_equiv_pos_site_id
 _symmetry_equiv_pos_as_xyz
  1  'x, y, z'
loop_
 _atom_site_type_symbol
 _atom_site_label
 _atom_site_symmetry_multiplicity
 _atom_site_fract_x
 _atom_site_fract_y
 _atom_site_fract_z
 _atom_site_occupancy
  Ga  Ga0  1  0.176009  0.252307  0.762910  1
  Ga  Ga1  1  0.252306  0.176009  0.237090  1
  Ga  Ga2  1  0.823992  0.747694  0.237090  1
  Ga  Ga3  1  0.747694  0.823992  0.762910  1
  Ga  Ga4  1  0.175486  0.824512  0.766256  1
  Ga  Ga5  1  0.824512  0.175486  0.233744  1
  Ga  Ga6  1  0.713724  0.286274  0.741926  1
  Ga  Ga7  1  0.286272  0.713726  0.258077  1
  Ga  Ga8  1  0.499999  0.499999  0.500000  1
  Ni  Ni9  1  0.499999  0.000000  0.500000  1
  Ni  Ni10  1  0.000001  0.500001  0.500000  1
  Ni  Ni11  1  0.999999  0.999999  0.500000  1
  Ni  Ni12  1  0.068837  0.453756  0.720644  1
  Ni  Ni13  1  0.453755  0.068838  0.279358  1
  Ni  Ni14  1  0.931162  0.546245  0.279358  1
  Ni  Ni15  1  0.546244  0.931163  0.720644  1
  Ni  Ni16  1  0.440408  0.559590  0.295363  1
  Ni  Ni17  1  0.559588  0.440409  0.704639  1
  Ir  Ir18  1  0.259545  0.259545  0.000000  1
  Ir  Ir19  1  0.740455  0.740455  0.000000  1
  Ir  Ir20  1  0.259400  0.740598  0.992859  1
  Ir  Ir21  1  0.740598  0.259400  0.007141  1
