# generated using pymatgen
data_Pr2ZnAg3
_symmetry_space_group_name_H-M   'P 1'
_cell_length_a   5.97244819
_cell_length_b   5.92797020
_cell_length_c   5.92796945
_cell_angle_alpha   132.03086027
_cell_angle_beta   105.29419519
_cell_angle_gamma   93.68281075
_symmetry_Int_Tables_number   1
_chemical_formula_structural   Pr2ZnAg3
_chemical_formula_sum   'Pr2 Zn1 Ag3'
_cell_volume   141.62210430
_cell_formula_units_Z   1
loop_
 _symmetry_equiv_pos_site_id
 _symmetry_equiv_pos_as_xyz
  1  'x, y, z'
loop_
 _atom_site_type_symbol
 _atom_site_label
 _atom_site_symmetry_multiplicity
 _atom_site_fract_x
 _atom_site_fract_y
 _atom_site_fract_z
 _atom_site_occupancy
  Pr  Pr0  1  0.209357  0.462679  0.746678  1
  Pr  Pr1  1  0.789598  0.539426  0.250172  1
  Zn  Zn2  1  0.376640  0.831240  0.545400  1
  Ag  Ag3  1  0.617343  0.154525  0.462818  1
  Ag  Ag4  1  0.216788  0.175712  0.041076  1
  Ag  Ag5  1  0.790274  0.836418  0.953856  1
