# generated using pymatgen
data_ZnNiSb2(WO6)2
_symmetry_space_group_name_H-M   'P 1'
_cell_length_a   4.69900311
_cell_length_b   10.61498977
_cell_length_c   9.39780823
_cell_angle_alpha   63.70362839
_cell_angle_beta   90.00849502
_cell_angle_gamma   90.02390364
_symmetry_Int_Tables_number   1
_chemical_formula_structural   ZnNiSb2(WO6)2
_chemical_formula_sum   'Zn2 Ni2 Sb4 W4 O24'
_cell_volume   420.25139599
_cell_formula_units_Z   2
loop_
 _symmetry_equiv_pos_site_id
 _symmetry_equiv_pos_as_xyz
  1  'x, y, z'
loop_
 _atom_site_type_symbol
 _atom_site_label
 _atom_site_symmetry_multiplicity
 _atom_site_fract_x
 _atom_site_fract_y
 _atom_site_fract_z
 _atom_site_occupancy
  Zn  Zn0  1  0.500108  0.498269  0.000838  1
  Zn  Zn1  1  0.000029  0.998216  0.501008  1
  Ni  Ni2  1  0.500125  0.499012  0.500455  1
  Ni  Ni3  1  0.999981  0.998946  0.000418  1
  Sb  Sb4  1  0.499804  0.833236  0.834140  1
  Sb  Sb5  1  0.500113  0.832356  0.333081  1
  Sb  Sb6  1  0.000352  0.333286  0.334159  1
  Sb  Sb7  1  0.999954  0.332425  0.832905  1
  W  W8  1  0.500245  0.164652  0.167040  1
  W  W9  1  0.499966  0.165820  0.667648  1
  W  W10  1  0.000621  0.665583  0.168181  1
  W  W11  1  0.999204  0.664678  0.666772  1
  O  O12  1  0.188275  0.499561  0.844648  1
  O  O13  1  0.191964  0.500667  0.345450  1
  O  O14  1  0.811847  0.500327  0.155448  1
  O  O15  1  0.807936  0.499861  0.654264  1
  O  O16  1  0.311457  0.999669  0.344698  1
  O  O17  1  0.308689  0.000504  0.845181  1
  O  O18  1  0.691564  0.999708  0.154655  1
  O  O19  1  0.688274  0.000582  0.655186  1
  O  O20  1  0.202405  0.172364  0.014050  1
  O  O21  1  0.202813  0.174725  0.514864  1
  O  O22  1  0.795940  0.175038  0.311154  1
  O  O23  1  0.799064  0.172050  0.812754  1
  O  O24  1  0.297022  0.674614  0.015005  1
  O  O25  1  0.297029  0.672709  0.514207  1
  O  O26  1  0.703874  0.674935  0.811163  1
  O  O27  1  0.701011  0.671787  0.313040  1
  O  O28  1  0.801050  0.828774  0.987057  1
  O  O29  1  0.800289  0.827200  0.485808  1
  O  O30  1  0.200623  0.826661  0.686314  1
  O  O31  1  0.197703  0.829313  0.184960  1
  O  O32  1  0.699616  0.327111  0.985722  1
  O  O33  1  0.698865  0.328896  0.487065  1
  O  O34  1  0.299318  0.326887  0.186195  1
  O  O35  1  0.302872  0.329584  0.684467  1
