# generated using pymatgen
data_Pr3NdMo2(SeO5)4
_symmetry_space_group_name_H-M   'P 1'
_cell_length_a   5.47724499
_cell_length_b   7.00457395
_cell_length_c   12.84055468
_cell_angle_alpha   85.47504384
_cell_angle_beta   83.74448093
_cell_angle_gamma   69.99286386
_symmetry_Int_Tables_number   1
_chemical_formula_structural   Pr3NdMo2(SeO5)4
_chemical_formula_sum   'Pr3 Nd1 Mo2 Se4 O20'
_cell_volume   459.69395703
_cell_formula_units_Z   1
loop_
 _symmetry_equiv_pos_site_id
 _symmetry_equiv_pos_as_xyz
  1  'x, y, z'
loop_
 _atom_site_type_symbol
 _atom_site_label
 _atom_site_symmetry_multiplicity
 _atom_site_fract_x
 _atom_site_fract_y
 _atom_site_fract_z
 _atom_site_occupancy
  Pr  Pr0  1  0.168007  0.697049  0.047284  1
  Pr  Pr1  1  0.085170  0.886909  0.352191  1
  Pr  Pr2  1  0.914981  0.113196  0.647937  1
  Nd  Nd3  1  0.831880  0.303724  0.952578  1
  Mo  Mo4  1  0.363203  0.278860  0.441094  1
  Mo  Mo5  1  0.636920  0.721133  0.559052  1
  Se  Se6  1  0.394070  0.103911  0.130533  1
  Se  Se7  1  0.738331  0.576664  0.222452  1
  Se  Se8  1  0.261186  0.421984  0.777969  1
  Se  Se9  1  0.606110  0.896152  0.868630  1
  O  O10  1  0.182174  0.061190  0.044749  1
  O  O11  1  0.441269  0.331499  0.080228  1
  O  O12  1  0.856346  0.507778  0.095272  1
  O  O13  1  0.414020  0.716694  0.202559  1
  O  O14  1  0.879512  0.766667  0.219361  1
  O  O15  1  0.183075  0.165416  0.240721  1
  O  O16  1  0.643078  0.161477  0.353335  1
  O  O17  1  0.171072  0.525474  0.394043  1
  O  O18  1  0.520594  0.711093  0.435193  1
  O  O19  1  0.150442  0.123975  0.470044  1
  O  O20  1  0.849571  0.876060  0.529957  1
  O  O21  1  0.479301  0.288742  0.565046  1
  O  O22  1  0.829051  0.474456  0.606101  1
  O  O23  1  0.356995  0.838635  0.646761  1
  O  O24  1  0.817988  0.835195  0.758681  1
  O  O25  1  0.119631  0.232033  0.781540  1
  O  O26  1  0.585566  0.283324  0.798474  1
  O  O27  1  0.141416  0.491264  0.904869  1
  O  O28  1  0.563512  0.666922  0.919071  1
  O  O29  1  0.815519  0.942521  0.954276  1
