# generated using pymatgen
data_Tb12Dy4In4Pt3Rh
_symmetry_space_group_name_H-M   'P 1'
_cell_length_a   9.73599559
_cell_length_b   9.71649791
_cell_length_c   9.73089533
_cell_angle_alpha   60.11646410
_cell_angle_beta   60.17329995
_cell_angle_gamma   60.14850577
_symmetry_Int_Tables_number   1
_chemical_formula_structural   Tb12Dy4In4Pt3Rh
_chemical_formula_sum   'Tb12 Dy4 In4 Pt3 Rh1'
_cell_volume   653.07415531
_cell_formula_units_Z   1
loop_
 _symmetry_equiv_pos_site_id
 _symmetry_equiv_pos_as_xyz
  1  'x, y, z'
loop_
 _atom_site_type_symbol
 _atom_site_label
 _atom_site_symmetry_multiplicity
 _atom_site_fract_x
 _atom_site_fract_y
 _atom_site_fract_z
 _atom_site_occupancy
  Tb  Tb0  1  0.690600  0.309019  0.309093  1
  Tb  Tb1  1  0.687467  0.693688  0.308918  1
  Tb  Tb2  1  0.309171  0.692461  0.309857  1
  Tb  Tb3  1  0.936571  0.935286  0.564985  1
  Tb  Tb4  1  0.149962  0.145745  0.552849  1
  Tb  Tb5  1  0.561648  0.937685  0.561845  1
  Tb  Tb6  1  0.152921  0.148560  0.152779  1
  Tb  Tb7  1  0.309061  0.309804  0.690098  1
  Tb  Tb8  1  0.939223  0.559793  0.560935  1
  Tb  Tb9  1  0.560619  0.559685  0.939557  1
  Tb  Tb10  1  0.564644  0.935795  0.936464  1
  Tb  Tb11  1  0.936776  0.563888  0.936367  1
  Dy  Dy12  1  0.147438  0.556620  0.147426  1
  Dy  Dy13  1  0.308647  0.693452  0.687893  1
  Dy  Dy14  1  0.690841  0.308016  0.691085  1
  Dy  Dy15  1  0.552711  0.145938  0.149757  1
  In  In16  1  0.916675  0.917923  0.248423  1
  In  In17  1  0.248500  0.917783  0.916799  1
  In  In18  1  0.917318  0.247947  0.917496  1
  In  In19  1  0.915912  0.917338  0.916324  1
  Pt  Pt20  1  0.356719  0.357196  0.355271  1
  Pt  Pt21  1  0.927782  0.359700  0.358788  1
  Pt  Pt22  1  0.359295  0.360023  0.927698  1
  Rh  Rh23  1  0.359496  0.926653  0.359295  1
