# generated using pymatgen
data_Er8Tl2PdRh
_symmetry_space_group_name_H-M   'P 1'
_cell_length_a   9.61400258
_cell_length_b   9.60989777
_cell_length_c   9.60989700
_cell_angle_alpha   59.96841493
_cell_angle_beta   59.98587313
_cell_angle_gamma   59.98587010
_symmetry_Int_Tables_number   1
_chemical_formula_structural   Er8Tl2PdRh
_chemical_formula_sum   'Er16 Tl4 Pd2 Rh2'
_cell_volume   627.52384026
_cell_formula_units_Z   2
loop_
 _symmetry_equiv_pos_site_id
 _symmetry_equiv_pos_as_xyz
  1  'x, y, z'
loop_
 _atom_site_type_symbol
 _atom_site_label
 _atom_site_symmetry_multiplicity
 _atom_site_fract_x
 _atom_site_fract_y
 _atom_site_fract_z
 _atom_site_occupancy
  Er  Er0  1  0.192612  0.184751  0.811095  1
  Er  Er1  1  0.438346  0.061654  0.061654  1
  Er  Er2  1  0.436303  0.063066  0.438861  1
  Er  Er3  1  0.061770  0.438861  0.063066  1
  Er  Er4  1  0.647868  0.051534  0.652730  1
  Er  Er5  1  0.188067  0.811933  0.811933  1
  Er  Er6  1  0.061770  0.063066  0.438861  1
  Er  Er7  1  0.810710  0.189290  0.189290  1
  Er  Er8  1  0.811542  0.811095  0.184751  1
  Er  Er9  1  0.647868  0.652730  0.051534  1
  Er  Er10  1  0.644639  0.650619  0.650619  1
  Er  Er11  1  0.062911  0.437089  0.437089  1
  Er  Er12  1  0.054123  0.650619  0.650619  1
  Er  Er13  1  0.811542  0.184751  0.811095  1
  Er  Er14  1  0.436303  0.438861  0.063066  1
  Er  Er15  1  0.192612  0.811095  0.184751  1
  Tl  Tl16  1  0.414648  0.755997  0.414707  1
  Tl  Tl17  1  0.414648  0.414707  0.755997  1
  Tl  Tl18  1  0.756843  0.414390  0.414390  1
  Tl  Tl19  1  0.414378  0.414390  0.414390  1
  Pd  Pd20  1  0.856888  0.430171  0.856052  1
  Pd  Pd21  1  0.856888  0.856052  0.430171  1
  Rh  Rh22  1  0.429606  0.856640  0.856640  1
  Rh  Rh23  1  0.857114  0.856640  0.856640  1
