# generated using pymatgen
data_Nd15YMgCo4Hg3
_symmetry_space_group_name_H-M   'P 1'
_cell_length_a   9.76827303
_cell_length_b   9.81258736
_cell_length_c   9.81258860
_cell_angle_alpha   60.08394058
_cell_angle_beta   59.96158771
_cell_angle_gamma   59.96159287
_symmetry_Int_Tables_number   1
_chemical_formula_structural   Nd15YMgCo4Hg3
_chemical_formula_sum   'Nd15 Y1 Mg1 Co4 Hg3'
_cell_volume   665.10769135
_cell_formula_units_Z   1
loop_
 _symmetry_equiv_pos_site_id
 _symmetry_equiv_pos_as_xyz
  1  'x, y, z'
loop_
 _atom_site_type_symbol
 _atom_site_label
 _atom_site_symmetry_multiplicity
 _atom_site_fract_x
 _atom_site_fract_y
 _atom_site_fract_z
 _atom_site_occupancy
  Nd  Nd0  1  0.558851  0.939789  0.561980  1
  Nd  Nd1  1  0.187183  0.185496  0.811284  1
  Nd  Nd2  1  0.558851  0.561980  0.939789  1
  Nd  Nd3  1  0.951548  0.350504  0.350504  1
  Nd  Nd4  1  0.810524  0.187584  0.808943  1
  Nd  Nd5  1  0.187183  0.811284  0.185496  1
  Nd  Nd6  1  0.345500  0.348534  0.960740  1
  Nd  Nd7  1  0.345500  0.960740  0.348534  1
  Nd  Nd8  1  0.941451  0.938467  0.559417  1
  Nd  Nd9  1  0.940116  0.562660  0.562660  1
  Nd  Nd10  1  0.345190  0.345931  0.345931  1
  Nd  Nd11  1  0.810524  0.808943  0.187584  1
  Nd  Nd12  1  0.806638  0.191368  0.191368  1
  Nd  Nd13  1  0.559096  0.939978  0.939978  1
  Nd  Nd14  1  0.941451  0.559417  0.938467  1
  Y  Y15  1  0.187555  0.810210  0.810210  1
  Mg  Mg16  1  0.289025  0.570588  0.570588  1
  Co  Co17  1  0.139728  0.579845  0.141716  1
  Co  Co18  1  0.575355  0.142849  0.142849  1
  Co  Co19  1  0.139728  0.141716  0.579845  1
  Co  Co20  1  0.137372  0.142191  0.142191  1
  Hg  Hg21  1  0.579817  0.585856  0.585856  1
  Hg  Hg22  1  0.580910  0.247597  0.586477  1
  Hg  Hg23  1  0.580910  0.586477  0.247597  1
