# generated using pymatgen
data_KGePRh2
_symmetry_space_group_name_H-M   'P 1'
_cell_length_a   7.30378975
_cell_length_b   7.30378956
_cell_length_c   7.30378925
_cell_angle_alpha   148.16225402
_cell_angle_beta   148.16225429
_cell_angle_gamma   45.64590179
_symmetry_Int_Tables_number   1
_chemical_formula_structural   KGePRh2
_chemical_formula_sum   'K1 Ge1 P1 Rh2'
_cell_volume   108.06215599
_cell_formula_units_Z   1
loop_
 _symmetry_equiv_pos_site_id
 _symmetry_equiv_pos_as_xyz
  1  'x, y, z'
loop_
 _atom_site_type_symbol
 _atom_site_label
 _atom_site_symmetry_multiplicity
 _atom_site_fract_x
 _atom_site_fract_y
 _atom_site_fract_z
 _atom_site_occupancy
  K  K0  1  0.993394  0.993394  0.000000  1
  Ge  Ge1  1  0.648428  0.648428  0.000000  1
  P  P2  1  0.344049  0.344049  0.000000  1
  Rh  Rh3  1  0.257064  0.757064  0.500000  1
  Rh  Rh4  1  0.757064  0.257064  0.500000  1
