# generated using pymatgen
data_Sc12Cu(Si4Au)3
_symmetry_space_group_name_H-M   'P 1'
_cell_length_a   4.04454900
_cell_length_b   10.39442301
_cell_length_c   11.76792914
_cell_angle_alpha   90.25333294
_cell_angle_beta   90.00000000
_cell_angle_gamma   90.00000000
_symmetry_Int_Tables_number   1
_chemical_formula_structural   Sc12Cu(Si4Au)3
_chemical_formula_sum   'Sc12 Cu1 Si12 Au3'
_cell_volume   494.72776861
_cell_formula_units_Z   1
loop_
 _symmetry_equiv_pos_site_id
 _symmetry_equiv_pos_as_xyz
  1  'x, y, z'
loop_
 _atom_site_type_symbol
 _atom_site_label
 _atom_site_symmetry_multiplicity
 _atom_site_fract_x
 _atom_site_fract_y
 _atom_site_fract_z
 _atom_site_occupancy
  Sc  Sc0  1  0.250000  0.871839  0.021796  1
  Sc  Sc1  1  0.250000  0.628350  0.523846  1
  Sc  Sc2  1  0.750000  0.123338  0.975777  1
  Sc  Sc3  1  0.750000  0.373869  0.478882  1
  Sc  Sc4  1  0.250000  0.922411  0.598442  1
  Sc  Sc5  1  0.250000  0.578009  0.096737  1
  Sc  Sc6  1  0.750000  0.079187  0.400908  1
  Sc  Sc7  1  0.750000  0.419843  0.899638  1
  Sc  Sc8  1  0.250000  0.665339  0.800681  1
  Sc  Sc9  1  0.250000  0.839958  0.301551  1
  Sc  Sc10  1  0.750000  0.339867  0.198675  1
  Sc  Sc11  1  0.750000  0.156177  0.699359  1
  Cu  Cu12  1  0.750000  0.887694  0.823686  1
  Si  Si13  1  0.250000  0.013554  0.826541  1
  Si  Si14  1  0.250000  0.476100  0.327870  1
  Si  Si15  1  0.750000  0.974970  0.171920  1
  Si  Si16  1  0.750000  0.527943  0.672449  1
  Si  Si17  1  0.250000  0.242601  0.848052  1
  Si  Si18  1  0.250000  0.252563  0.348777  1
  Si  Si19  1  0.750000  0.751139  0.150556  1
  Si  Si20  1  0.750000  0.755345  0.657250  1
  Si  Si21  1  0.250000  0.180286  0.540649  1
  Si  Si22  1  0.250000  0.319484  0.039089  1
  Si  Si23  1  0.750000  0.821344  0.461317  1
  Si  Si24  1  0.750000  0.683117  0.956452  1
  Au  Au25  1  0.250000  0.385588  0.679550  1
  Au  Au26  1  0.250000  0.114589  0.176914  1
  Au  Au27  1  0.750000  0.615499  0.322636  1
