# generated using pymatgen
data_SmH2Br
_symmetry_space_group_name_H-M   'P 1'
_cell_length_a   10.87421623
_cell_length_b   10.87421636
_cell_length_c   10.87421558
_cell_angle_alpha   20.50251501
_cell_angle_beta   20.50251507
_cell_angle_gamma   20.50251131
_symmetry_Int_Tables_number   1
_chemical_formula_structural   SmH2Br
_chemical_formula_sum   'Sm2 H4 Br2'
_cell_volume   138.06551905
_cell_formula_units_Z   2
loop_
 _symmetry_equiv_pos_site_id
 _symmetry_equiv_pos_as_xyz
  1  'x, y, z'
loop_
 _atom_site_type_symbol
 _atom_site_label
 _atom_site_symmetry_multiplicity
 _atom_site_fract_x
 _atom_site_fract_y
 _atom_site_fract_z
 _atom_site_occupancy
  Sm  Sm0  1  0.885148  0.885148  0.885148  1
  Sm  Sm1  1  0.114852  0.114852  0.114852  1
  H  H2  1  0.813325  0.813325  0.813325  1
  H  H3  1  0.186675  0.186675  0.186675  1
  H  H4  1  0.546127  0.546127  0.546127  1
  H  H5  1  0.453873  0.453873  0.453873  1
  Br  Br6  1  0.720070  0.720070  0.720070  1
  Br  Br7  1  0.279930  0.279930  0.279930  1
