# generated using pymatgen
data_LiYb2Si(PPd4)5
_symmetry_space_group_name_H-M   'P 1'
_cell_length_a   8.62023689
_cell_length_b   8.62663132
_cell_length_c   8.62663169
_cell_angle_alpha   59.95096952
_cell_angle_beta   60.02450695
_cell_angle_gamma   60.02450796
_symmetry_Int_Tables_number   1
_chemical_formula_structural   LiYb2Si(PPd4)5
_chemical_formula_sum   'Li1 Yb2 Si1 P5 Pd20'
_cell_volume   453.61370712
_cell_formula_units_Z   1
loop_
 _symmetry_equiv_pos_site_id
 _symmetry_equiv_pos_as_xyz
  1  'x, y, z'
loop_
 _atom_site_type_symbol
 _atom_site_label
 _atom_site_symmetry_multiplicity
 _atom_site_fract_x
 _atom_site_fract_y
 _atom_site_fract_z
 _atom_site_occupancy
  Li  Li0  1  0.999269  0.000731  0.000731  1
  Yb  Yb1  1  0.250659  0.249341  0.249341  1
  Yb  Yb2  1  0.750659  0.749341  0.749341  1
  Si  Si3  1  0.736950  0.263050  0.263050  1
  P  P4  1  0.262396  0.737604  0.737604  1
  P  P5  1  0.263895  0.736105  0.261959  1
  P  P6  1  0.738041  0.261959  0.736105  1
  P  P7  1  0.263895  0.261959  0.736105  1
  P  P8  1  0.738041  0.736105  0.261959  1
  Pd  Pd9  1  0.382809  0.384873  0.384873  1
  Pd  Pd10  1  0.615298  0.615239  0.615239  1
  Pd  Pd11  1  0.384761  0.384702  0.845779  1
  Pd  Pd12  1  0.384761  0.845779  0.384702  1
  Pd  Pd13  1  0.615127  0.617191  0.152555  1
  Pd  Pd14  1  0.615127  0.152555  0.617191  1
  Pd  Pd15  1  0.847445  0.384873  0.384873  1
  Pd  Pd16  1  0.154221  0.615239  0.615239  1
  Pd  Pd17  1  0.342037  0.001178  0.001178  1
  Pd  Pd18  1  0.655608  0.001178  0.001178  1
  Pd  Pd19  1  0.998822  0.344392  0.657963  1
  Pd  Pd20  1  0.998822  0.657963  0.344392  1
  Pd  Pd21  1  0.002217  0.344674  0.997783  1
  Pd  Pd22  1  0.655326  0.997783  0.344674  1
  Pd  Pd23  1  0.999744  0.656608  0.000256  1
  Pd  Pd24  1  0.343392  0.000256  0.656608  1
  Pd  Pd25  1  0.002217  0.997783  0.344674  1
  Pd  Pd26  1  0.999744  0.000256  0.656608  1
  Pd  Pd27  1  0.655326  0.344674  0.997783  1
  Pd  Pd28  1  0.343392  0.656608  0.000256  1
