# generated using pymatgen
data_Ti12Tc5MoRh6
_symmetry_space_group_name_H-M   'P 1'
_cell_length_a   4.39059900
_cell_length_b   6.20407400
_cell_length_c   13.20616800
_cell_angle_alpha   90.00000000
_cell_angle_beta   90.00031712
_cell_angle_gamma   90.00000000
_symmetry_Int_Tables_number   1
_chemical_formula_structural   Ti12Tc5MoRh6
_chemical_formula_sum   'Ti12 Tc5 Mo1 Rh6'
_cell_volume   359.73074838
_cell_formula_units_Z   1
loop_
 _symmetry_equiv_pos_site_id
 _symmetry_equiv_pos_as_xyz
  1  'x, y, z'
loop_
 _atom_site_type_symbol
 _atom_site_label
 _atom_site_symmetry_multiplicity
 _atom_site_fract_x
 _atom_site_fract_y
 _atom_site_fract_z
 _atom_site_occupancy
  Ti  Ti0  1  0.500002  0.250999  0.000000  1
  Ti  Ti1  1  0.500002  0.749000  0.000000  1
  Ti  Ti2  1  0.000112  0.249627  0.166402  1
  Ti  Ti3  1  0.000112  0.750374  0.166402  1
  Ti  Ti4  1  0.500112  0.250204  0.332944  1
  Ti  Ti5  1  0.500112  0.749795  0.332944  1
  Ti  Ti6  1  0.000000  0.249353  0.500000  1
  Ti  Ti7  1  0.000000  0.750648  0.500000  1
  Ti  Ti8  1  0.499887  0.250204  0.667056  1
  Ti  Ti9  1  0.499887  0.749795  0.667056  1
  Ti  Ti10  1  0.999887  0.249627  0.833598  1
  Ti  Ti11  1  0.999887  0.750374  0.833598  1
  Tc  Tc12  1  0.500107  0.500000  0.167590  1
  Tc  Tc13  1  0.000102  0.000000  0.334258  1
  Tc  Tc14  1  0.500002  0.500000  0.500000  1
  Tc  Tc15  1  0.999899  0.000000  0.665741  1
  Tc  Tc16  1  0.499894  0.500000  0.832410  1
  Mo  Mo17  1  0.000000  0.000000  0.000000  1
  Rh  Rh18  1  0.000000  0.500000  0.000000  1
  Rh  Rh19  1  0.500106  0.000000  0.168090  1
  Rh  Rh20  1  0.000116  0.500000  0.333793  1
  Rh  Rh21  1  0.500002  0.000000  0.500000  1
  Rh  Rh22  1  0.999883  0.500000  0.666208  1
  Rh  Rh23  1  0.499893  0.000000  0.831910  1
