# generated using pymatgen
data_Nd3Sm3Cd23Sb
_symmetry_space_group_name_H-M   'P 1'
_cell_length_a   10.10011100
_cell_length_b   10.10011070
_cell_length_c   10.10006600
_cell_angle_alpha   59.99985874
_cell_angle_beta   59.99986147
_cell_angle_gamma   60.00000119
_symmetry_Int_Tables_number   1
_chemical_formula_structural   Nd3Sm3Cd23Sb
_chemical_formula_sum   'Nd3 Sm3 Cd23 Sb1'
_cell_volume   728.55204243
_cell_formula_units_Z   1
loop_
 _symmetry_equiv_pos_site_id
 _symmetry_equiv_pos_as_xyz
  1  'x, y, z'
loop_
 _atom_site_type_symbol
 _atom_site_label
 _atom_site_symmetry_multiplicity
 _atom_site_fract_x
 _atom_site_fract_y
 _atom_site_fract_z
 _atom_site_occupancy
  Nd  Nd0  1  0.783369  0.783369  0.216448  1
  Nd  Nd1  1  0.216815  0.783369  0.216448  1
  Nd  Nd2  1  0.783369  0.216815  0.216448  1
  Sm  Sm3  1  0.216433  0.216433  0.783395  1
  Sm  Sm4  1  0.783740  0.216433  0.783395  1
  Sm  Sm5  1  0.216433  0.783740  0.783395  1
  Cd  Cd6  1  0.835321  0.835321  0.494039  1
  Cd  Cd7  1  0.835868  0.492910  0.835356  1
  Cd  Cd8  1  0.492910  0.835868  0.835356  1
  Cd  Cd9  1  0.835868  0.835868  0.835356  1
  Cd  Cd10  1  0.164111  0.164111  0.507665  1
  Cd  Cd11  1  0.164661  0.506523  0.164153  1
  Cd  Cd12  1  0.506523  0.164661  0.164153  1
  Cd  Cd13  1  0.164661  0.164661  0.164153  1
  Cd  Cd14  1  0.622931  0.622931  0.131210  1
  Cd  Cd15  1  0.622378  0.131730  0.623515  1
  Cd  Cd16  1  0.131730  0.622378  0.623515  1
  Cd  Cd17  1  0.622378  0.622378  0.623515  1
  Cd  Cd18  1  0.377326  0.377326  0.868019  1
  Cd  Cd19  1  0.376773  0.868529  0.377923  1
  Cd  Cd20  1  0.868529  0.376773  0.377923  1
  Cd  Cd21  1  0.376773  0.376773  0.377923  1
  Cd  Cd22  1  0.000083  0.000083  0.500260  1
  Cd  Cd23  1  0.499574  0.000083  0.500260  1
  Cd  Cd24  1  0.000083  0.499574  0.500260  1
  Cd  Cd25  1  0.500082  0.500082  0.999615  1
  Cd  Cd26  1  0.000221  0.500082  0.999615  1
  Cd  Cd27  1  0.500082  0.000221  0.999615  1
  Cd  Cd28  1  0.499999  0.499999  0.500004  1
  Sb  Sb29  1  0.000977  0.000977  0.997070  1
