# generated using pymatgen
data_La2TbEr(Zn5Si)2
_symmetry_space_group_name_H-M   'P 1'
_cell_length_a   8.30762904
_cell_length_b   8.30762817
_cell_length_c   8.82854500
_cell_angle_alpha   90.00000000
_cell_angle_beta   90.00000000
_cell_angle_gamma   149.41797648
_symmetry_Int_Tables_number   1
_chemical_formula_structural   La2TbEr(Zn5Si)2
_chemical_formula_sum   'La2 Tb1 Er1 Zn10 Si2'
_cell_volume   310.00301303
_cell_formula_units_Z   1
loop_
 _symmetry_equiv_pos_site_id
 _symmetry_equiv_pos_as_xyz
  1  'x, y, z'
loop_
 _atom_site_type_symbol
 _atom_site_label
 _atom_site_symmetry_multiplicity
 _atom_site_fract_x
 _atom_site_fract_y
 _atom_site_fract_z
 _atom_site_occupancy
  La  La0  1  0.000182  0.999818  0.499450  1
  La  La1  1  0.000182  0.999818  0.000550  1
  Tb  Tb2  1  0.797881  0.202119  0.750000  1
  Er  Er3  1  0.201725  0.798275  0.250000  1
  Zn  Zn4  1  0.811534  0.188466  0.391608  1
  Zn  Zn5  1  0.188227  0.811773  0.607276  1
  Zn  Zn6  1  0.811534  0.188466  0.108392  1
  Zn  Zn7  1  0.188227  0.811773  0.892724  1
  Zn  Zn8  1  0.652837  0.347163  0.474559  1
  Zn  Zn9  1  0.347327  0.652673  0.524365  1
  Zn  Zn10  1  0.652837  0.347163  0.025441  1
  Zn  Zn11  1  0.347327  0.652673  0.975635  1
  Zn  Zn12  1  0.403140  0.596860  0.250000  1
  Zn  Zn13  1  0.596737  0.403263  0.750000  1
  Si  Si14  1  0.560103  0.439897  0.250000  1
  Si  Si15  1  0.440198  0.559802  0.750000  1
