# generated using pymatgen
data_Ho2TmTh(Ga3Ir)6
_symmetry_space_group_name_H-M   'P 1'
_cell_length_a   7.62641423
_cell_length_b   7.62611930
_cell_length_c   9.48983100
_cell_angle_alpha   90.00000000
_cell_angle_beta   90.00000000
_cell_angle_gamma   119.91195878
_symmetry_Int_Tables_number   1
_chemical_formula_structural   Ho2TmTh(Ga3Ir)6
_chemical_formula_sum   'Ho2 Tm1 Th1 Ga18 Ir6'
_cell_volume   478.40719384
_cell_formula_units_Z   1
loop_
 _symmetry_equiv_pos_site_id
 _symmetry_equiv_pos_as_xyz
  1  'x, y, z'
loop_
 _atom_site_type_symbol
 _atom_site_label
 _atom_site_symmetry_multiplicity
 _atom_site_fract_x
 _atom_site_fract_y
 _atom_site_fract_z
 _atom_site_occupancy
  Ho  Ho0  1  0.003242  0.331966  0.250000  1
  Ho  Ho1  1  0.670194  0.996713  0.750000  1
  Tm  Tm2  1  0.329834  0.002026  0.250000  1
  Th  Th3  1  0.996511  0.667985  0.750000  1
  Ga  Ga4  1  0.130672  0.132423  0.750000  1
  Ga  Ga5  1  0.872148  0.874659  0.250000  1
  Ga  Ga6  1  0.999162  0.328467  0.577444  1
  Ga  Ga7  1  0.001992  0.666184  0.413042  1
  Ga  Ga8  1  0.001992  0.666184  0.086958  1
  Ga  Ga9  1  0.340234  0.004016  0.923070  1
  Ga  Ga10  1  0.999162  0.328467  0.922556  1
  Ga  Ga11  1  0.665471  0.002594  0.081711  1
  Ga  Ga12  1  0.665471  0.002594  0.418289  1
  Ga  Ga13  1  0.340234  0.004016  0.576930  1
  Ga  Ga14  1  0.331542  0.330929  0.068280  1
  Ga  Ga15  1  0.662151  0.667591  0.938989  1
  Ga  Ga16  1  0.662151  0.667591  0.561011  1
  Ga  Ga17  1  0.331542  0.330929  0.431720  1
  Ga  Ga18  1  0.343169  0.546644  0.750000  1
  Ga  Ga19  1  0.658596  0.451061  0.250000  1
  Ga  Ga20  1  0.541304  0.336802  0.750000  1
  Ga  Ga21  1  0.452090  0.660888  0.250000  1
  Ir  Ir22  1  0.673777  0.330996  0.500160  1
  Ir  Ir23  1  0.326011  0.670786  0.500314  1
  Ir  Ir24  1  0.326011  0.670786  0.999686  1
  Ir  Ir25  1  0.673777  0.330996  0.999840  1
  Ir  Ir26  1  0.000782  0.997856  0.500485  1
  Ir  Ir27  1  0.000782  0.997856  0.999515  1
