# generated using pymatgen
data_Lu3Pa(Al8Pt3)3
_symmetry_space_group_name_H-M   'P 1'
_cell_length_a   7.53057533
_cell_length_b   7.54397999
_cell_length_c   13.09381438
_cell_angle_alpha   84.52586179
_cell_angle_beta   78.94426506
_cell_angle_gamma   59.93983068
_symmetry_Int_Tables_number   1
_chemical_formula_structural   Lu3Pa(Al8Pt3)3
_chemical_formula_sum   'Lu3 Pa1 Al24 Pt9'
_cell_volume   631.86743825
_cell_formula_units_Z   1
loop_
 _symmetry_equiv_pos_site_id
 _symmetry_equiv_pos_as_xyz
  1  'x, y, z'
loop_
 _atom_site_type_symbol
 _atom_site_label
 _atom_site_symmetry_multiplicity
 _atom_site_fract_x
 _atom_site_fract_y
 _atom_site_fract_z
 _atom_site_occupancy
  Lu  Lu0  1  0.606002  0.830863  0.193191  1
  Lu  Lu1  1  0.734177  0.498919  0.807065  1
  Lu  Lu2  1  0.265698  0.501353  0.193345  1
  Pa  Pa3  1  0.394793  0.168556  0.805820  1
  Al  Al4  1  0.684521  0.832563  0.944434  1
  Al  Al5  1  0.316042  0.166168  0.056833  1
  Al  Al6  1  0.146709  0.832557  0.561060  1
  Al  Al7  1  0.854469  0.167409  0.437680  1
  Al  Al8  1  0.480191  0.166558  0.558192  1
  Al  Al9  1  0.520401  0.832388  0.440696  1
  Al  Al10  1  0.218327  0.165401  0.328448  1
  Al  Al11  1  0.784324  0.832383  0.670904  1
  Al  Al12  1  0.437495  0.508648  0.671137  1
  Al  Al13  1  0.562681  0.493858  0.328012  1
  Al  Al14  1  0.107239  0.160018  0.669553  1
  Al  Al15  1  0.890594  0.839708  0.329230  1
  Al  Al16  1  0.353527  0.500172  0.944443  1
  Al  Al17  1  0.646053  0.501165  0.056568  1
  Al  Al18  1  0.014627  0.168397  0.952327  1
  Al  Al19  1  0.983619  0.831795  0.049049  1
  Al  Al20  1  0.185930  0.500404  0.440793  1
  Al  Al21  1  0.813464  0.500497  0.558447  1
  Al  Al22  1  0.733240  0.163887  0.183256  1
  Al  Al23  1  0.264968  0.836654  0.817474  1
  Al  Al24  1  0.062004  0.631662  0.816158  1
  Al  Al25  1  0.938418  0.369632  0.184329  1
  Al  Al26  1  0.855845  0.040718  0.816758  1
  Al  Al27  1  0.145512  0.957437  0.183750  1
  Pt  Pt28  1  0.118987  0.491177  0.640377  1
  Pt  Pt29  1  0.880307  0.509175  0.360266  1
  Pt  Pt30  1  0.656821  0.172082  0.999228  1
  Pt  Pt31  1  0.343781  0.827606  0.999836  1
  Pt  Pt32  1  0.536700  0.166761  0.361056  1
  Pt  Pt33  1  0.462813  0.832686  0.640085  1
  Pt  Pt34  1  0.778119  0.175985  0.638693  1
  Pt  Pt35  1  0.222140  0.824246  0.361940  1
  Pt  Pt36  1  0.999464  0.500509  0.999568  1
