# generated using pymatgen
data_Hf9BeMo4
_symmetry_space_group_name_H-M   'P 1'
_cell_length_a   8.62755400
_cell_length_b   8.62755492
_cell_length_c   8.55484000
_cell_angle_alpha   90.00000000
_cell_angle_beta   90.00000000
_cell_angle_gamma   119.99999647
_symmetry_Int_Tables_number   1
_chemical_formula_structural   Hf9BeMo4
_chemical_formula_sum   'Hf18 Be2 Mo8'
_cell_volume   551.46500409
_cell_formula_units_Z   2
loop_
 _symmetry_equiv_pos_site_id
 _symmetry_equiv_pos_as_xyz
  1  'x, y, z'
loop_
 _atom_site_type_symbol
 _atom_site_label
 _atom_site_symmetry_multiplicity
 _atom_site_fract_x
 _atom_site_fract_y
 _atom_site_fract_z
 _atom_site_occupancy
  Hf  Hf0  1  0.200610  0.401221  0.447202  1
  Hf  Hf1  1  0.200610  0.799390  0.447202  1
  Hf  Hf2  1  0.539178  0.078357  0.250000  1
  Hf  Hf3  1  0.460822  0.539178  0.750000  1
  Hf  Hf4  1  0.078357  0.539178  0.750000  1
  Hf  Hf5  1  0.921643  0.460822  0.250000  1
  Hf  Hf6  1  0.539178  0.460822  0.250000  1
  Hf  Hf7  1  0.460822  0.921643  0.750000  1
  Hf  Hf8  1  0.598779  0.799390  0.447202  1
  Hf  Hf9  1  0.401221  0.200610  0.947202  1
  Hf  Hf10  1  0.799390  0.598779  0.552798  1
  Hf  Hf11  1  0.799390  0.200610  0.947202  1
  Hf  Hf12  1  0.799390  0.598779  0.947202  1
  Hf  Hf13  1  0.200610  0.799390  0.052798  1
  Hf  Hf14  1  0.598779  0.799390  0.052798  1
  Hf  Hf15  1  0.401221  0.200610  0.552798  1
  Hf  Hf16  1  0.799390  0.200610  0.552798  1
  Hf  Hf17  1  0.200610  0.401221  0.052798  1
  Be  Be18  1  0.666667  0.333333  0.750000  1
  Be  Be19  1  0.333333  0.666667  0.250000  1
  Mo  Mo20  1  0.000000  0.000000  0.500000  1
  Mo  Mo21  1  0.000000  0.000000  0.000000  1
  Mo  Mo22  1  0.111699  0.223399  0.750000  1
  Mo  Mo23  1  0.888301  0.111699  0.250000  1
  Mo  Mo24  1  0.223399  0.111699  0.250000  1
  Mo  Mo25  1  0.776601  0.888301  0.750000  1
  Mo  Mo26  1  0.111699  0.888301  0.750000  1
  Mo  Mo27  1  0.888301  0.776601  0.250000  1
