# generated using pymatgen
data_Ba3PI2
_symmetry_space_group_name_H-M   'P 1'
_cell_length_a   16.09164973
_cell_length_b   15.35112806
_cell_length_c   8.53939904
_cell_angle_alpha   79.08654879
_cell_angle_beta   69.50905283
_cell_angle_gamma   31.40439090
_symmetry_Int_Tables_number   1
_chemical_formula_structural   Ba3PI2
_chemical_formula_sum   'Ba12 P4 I8'
_cell_volume   1003.41024867
_cell_formula_units_Z   4
loop_
 _symmetry_equiv_pos_site_id
 _symmetry_equiv_pos_as_xyz
  1  'x, y, z'
loop_
 _atom_site_type_symbol
 _atom_site_label
 _atom_site_symmetry_multiplicity
 _atom_site_fract_x
 _atom_site_fract_y
 _atom_site_fract_z
 _atom_site_occupancy
  Ba  Ba0  1  0.373702  0.944441  0.588009  1
  Ba  Ba1  1  0.588009  0.093850  0.373702  1
  Ba  Ba2  1  0.305559  0.876298  0.156150  1
  Ba  Ba3  1  0.944441  0.373702  0.093850  1
  Ba  Ba4  1  0.457743  0.042257  0.042257  1
  Ba  Ba5  1  0.876298  0.305559  0.661991  1
  Ba  Ba6  1  0.093850  0.588009  0.944441  1
  Ba  Ba7  1  0.661991  0.156150  0.876298  1
  Ba  Ba8  1  0.792257  0.207743  0.207743  1
  Ba  Ba9  1  0.207743  0.792257  0.792257  1
  Ba  Ba10  1  0.156150  0.661991  0.305559  1
  Ba  Ba11  1  0.042257  0.457743  0.457743  1
  P  P12  1  0.084111  0.084111  0.915889  1
  P  P13  1  0.915889  0.915889  0.084111  1
  P  P14  1  0.165889  0.165889  0.334111  1
  P  P15  1  0.334111  0.334111  0.165889  1
  I  I16  1  0.672604  0.672604  0.827396  1
  I  I17  1  0.746120  0.746120  0.253880  1
  I  I18  1  0.253880  0.253880  0.746120  1
  I  I19  1  0.577396  0.577396  0.422604  1
  I  I20  1  0.996120  0.996120  0.503880  1
  I  I21  1  0.827396  0.827396  0.672604  1
  I  I22  1  0.422604  0.422604  0.577396  1
  I  I23  1  0.503880  0.503880  0.996120  1
