# generated using pymatgen
data_Dy3Ho17Sn13Bi3
_symmetry_space_group_name_H-M   'P 1'
_cell_length_a   8.14590101
_cell_length_b   8.18363216
_cell_length_c   15.46478700
_cell_angle_alpha   90.10485101
_cell_angle_beta   89.73978054
_cell_angle_gamma   89.92852492
_symmetry_Int_Tables_number   1
_chemical_formula_structural   Dy3Ho17Sn13Bi3
_chemical_formula_sum   'Dy3 Ho17 Sn13 Bi3'
_cell_volume   1030.91681289
_cell_formula_units_Z   1
loop_
 _symmetry_equiv_pos_site_id
 _symmetry_equiv_pos_as_xyz
  1  'x, y, z'
loop_
 _atom_site_type_symbol
 _atom_site_label
 _atom_site_symmetry_multiplicity
 _atom_site_fract_x
 _atom_site_fract_y
 _atom_site_fract_z
 _atom_site_occupancy
  Dy  Dy0  1  0.971571  0.826845  0.395981  1
  Dy  Dy1  1  0.527369  0.326423  0.603419  1
  Dy  Dy2  1  0.027169  0.180421  0.898356  1
  Ho  Ho3  1  0.377917  0.834038  0.877333  1
  Ho  Ho4  1  0.881598  0.661030  0.623659  1
  Ho  Ho5  1  0.619744  0.159602  0.375522  1
  Ho  Ho6  1  0.122741  0.340670  0.122217  1
  Ho  Ho7  1  0.628052  0.161563  0.121957  1
  Ho  Ho8  1  0.126247  0.337392  0.377835  1
  Ho  Ho9  1  0.374518  0.838082  0.622076  1
  Ho  Ho10  1  0.876855  0.662092  0.877730  1
  Ho  Ho11  1  0.539788  0.331409  0.896363  1
  Ho  Ho12  1  0.049969  0.173825  0.607294  1
  Ho  Ho13  1  0.450504  0.672979  0.393204  1
  Ho  Ho14  1  0.956130  0.821885  0.103868  1
  Ho  Ho15  1  0.468482  0.668946  0.100990  1
  Ho  Ho16  1  0.207190  0.501829  0.750755  1
  Ho  Ho17  1  0.706827  0.999574  0.754736  1
  Ho  Ho18  1  0.792698  0.498358  0.246117  1
  Ho  Ho19  1  0.293041  0.000616  0.252528  1
  Sn  Sn20  1  0.218057  0.529962  0.957428  1
  Sn  Sn21  1  0.716246  0.966452  0.958042  1
  Sn  Sn22  1  0.216622  0.532828  0.542637  1
  Sn  Sn23  1  0.283961  0.032338  0.457520  1
  Sn  Sn24  1  0.786486  0.466019  0.041761  1
  Sn  Sn25  1  0.573856  0.624623  0.747644  1
  Sn  Sn26  1  0.073465  0.877439  0.750948  1
  Sn  Sn27  1  0.427659  0.375264  0.248653  1
  Sn  Sn28  1  0.927863  0.123540  0.250678  1
  Sn  Sn29  1  0.344470  0.146950  0.752325  1
  Sn  Sn30  1  0.842357  0.353396  0.748565  1
  Sn  Sn31  1  0.654834  0.850881  0.249793  1
  Sn  Sn32  1  0.155578  0.646678  0.248269  1
  Bi  Bi33  1  0.279689  0.026608  0.043824  1
  Bi  Bi34  1  0.776239  0.474216  0.455819  1
  Bi  Bi35  1  0.724211  0.975225  0.544151  1
