# generated using pymatgen
data_Er3TmB16Ir3Rh
_symmetry_space_group_name_H-M   'P 1'
_cell_length_a   3.55683400
_cell_length_b   5.95042370
_cell_length_c   11.53827206
_cell_angle_alpha   89.97827741
_cell_angle_beta   90.00000000
_cell_angle_gamma   90.00000000
_symmetry_Int_Tables_number   1
_chemical_formula_structural   Er3TmB16Ir3Rh
_chemical_formula_sum   'Er3 Tm1 B16 Ir3 Rh1'
_cell_volume   244.20369519
_cell_formula_units_Z   1
loop_
 _symmetry_equiv_pos_site_id
 _symmetry_equiv_pos_as_xyz
  1  'x, y, z'
loop_
 _atom_site_type_symbol
 _atom_site_label
 _atom_site_symmetry_multiplicity
 _atom_site_fract_x
 _atom_site_fract_y
 _atom_site_fract_z
 _atom_site_occupancy
  Er  Er0  1  0.000000  0.132186  0.648838  1
  Er  Er1  1  0.000000  0.867881  0.350700  1
  Er  Er2  1  0.000000  0.631663  0.852158  1
  Tm  Tm3  1  0.000000  0.367978  0.148161  1
  B  B4  1  0.500000  0.792784  0.687938  1
  B  B5  1  0.500000  0.207382  0.311863  1
  B  B6  1  0.500000  0.291977  0.812352  1
  B  B7  1  0.500000  0.707816  0.187671  1
  B  B8  1  0.500000  0.864262  0.529655  1
  B  B9  1  0.500000  0.135861  0.469938  1
  B  B10  1  0.500000  0.364419  0.970197  1
  B  B11  1  0.500000  0.635756  0.029994  1
  B  B12  1  0.500000  0.022194  0.193160  1
  B  B13  1  0.500000  0.978405  0.806660  1
  B  B14  1  0.500000  0.523329  0.306519  1
  B  B15  1  0.500000  0.477007  0.693035  1
  B  B16  1  0.500000  0.112665  0.046759  1
  B  B17  1  0.500000  0.887827  0.952790  1
  B  B18  1  0.500000  0.612231  0.452916  1
  B  B19  1  0.500000  0.387825  0.546940  1
  Ir  Ir20  1  0.000000  0.645143  0.597005  1
  Ir  Ir21  1  0.000000  0.355570  0.403586  1
  Ir  Ir22  1  0.000000  0.141865  0.904531  1
  Rh  Rh23  1  0.000000  0.855977  0.096638  1
