# generated using pymatgen
data_Sr2TmNpO6
_symmetry_space_group_name_H-M   'P 1'
_cell_length_a   6.07421400
_cell_length_b   5.93334284
_cell_length_c   10.35123035
_cell_angle_alpha   55.12790162
_cell_angle_beta   90.00000000
_cell_angle_gamma   90.00000000
_symmetry_Int_Tables_number   1
_chemical_formula_structural   Sr2TmNpO6
_chemical_formula_sum   'Sr4 Tm2 Np2 O12'
_cell_volume   306.07175176
_cell_formula_units_Z   2
loop_
 _symmetry_equiv_pos_site_id
 _symmetry_equiv_pos_as_xyz
  1  'x, y, z'
loop_
 _atom_site_type_symbol
 _atom_site_label
 _atom_site_symmetry_multiplicity
 _atom_site_fract_x
 _atom_site_fract_y
 _atom_site_fract_z
 _atom_site_occupancy
  Sr  Sr0  1  0.455352  0.260481  0.749942  1
  Sr  Sr1  1  0.955352  0.739519  0.750058  1
  Sr  Sr2  1  0.044648  0.260481  0.249942  1
  Sr  Sr3  1  0.544648  0.739519  0.250058  1
  Tm  Tm4  1  0.500000  0.000000  0.500000  1
  Tm  Tm5  1  0.000000  0.000000  0.000000  1
  Np  Np6  1  0.000000  0.500000  0.500000  1
  Np  Np7  1  0.500000  0.500000  0.000000  1
  O  O8  1  0.199530  0.738195  0.547423  1
  O  O9  1  0.699530  0.261805  0.952577  1
  O  O10  1  0.800470  0.261805  0.452577  1
  O  O11  1  0.300470  0.738195  0.047423  1
  O  O12  1  0.711215  0.650308  0.552063  1
  O  O13  1  0.211215  0.349692  0.947937  1
  O  O14  1  0.288785  0.349692  0.447937  1
  O  O15  1  0.788785  0.650308  0.052063  1
  O  O16  1  0.033948  0.159678  0.746144  1
  O  O17  1  0.533948  0.840322  0.753856  1
  O  O18  1  0.966052  0.840322  0.253856  1
  O  O19  1  0.466052  0.159678  0.246144  1
