# generated using pymatgen
data_KRb3Al6(GaAu6)2
_symmetry_space_group_name_H-M   'P 1'
_cell_length_a   5.62753305
_cell_length_b   7.18501949
_cell_length_c   13.49939520
_cell_angle_alpha   89.74236328
_cell_angle_beta   90.00273423
_cell_angle_gamma   89.96126894
_symmetry_Int_Tables_number   1
_chemical_formula_structural   KRb3Al6(GaAu6)2
_chemical_formula_sum   'K1 Rb3 Al6 Ga2 Au12'
_cell_volume   545.82802042
_cell_formula_units_Z   1
loop_
 _symmetry_equiv_pos_site_id
 _symmetry_equiv_pos_as_xyz
  1  'x, y, z'
loop_
 _atom_site_type_symbol
 _atom_site_label
 _atom_site_symmetry_multiplicity
 _atom_site_fract_x
 _atom_site_fract_y
 _atom_site_fract_z
 _atom_site_occupancy
  K  K0  1  0.248094  0.109924  0.077425  1
  Rb  Rb1  1  0.252178  0.397502  0.572008  1
  Rb  Rb2  1  0.749892  0.898690  0.929333  1
  Rb  Rb3  1  0.750212  0.602310  0.427675  1
  Al  Al4  1  0.999328  0.903633  0.657666  1
  Al  Al5  1  0.500533  0.597740  0.157133  1
  Al  Al6  1  0.497909  0.099128  0.342695  1
  Al  Al7  1  0.002208  0.399465  0.844117  1
  Al  Al8  1  0.000512  0.097698  0.342506  1
  Al  Al9  1  0.499342  0.400911  0.844039  1
  Ga  Ga10  1  0.501552  0.897913  0.655545  1
  Ga  Ga11  1  0.998662  0.603720  0.155188  1
  Au  Au12  1  0.249437  0.115787  0.789224  1
  Au  Au13  1  0.250492  0.382380  0.286265  1
  Au  Au14  1  0.744571  0.889832  0.211559  1
  Au  Au15  1  0.755125  0.611392  0.714055  1
  Au  Au16  1  0.246291  0.698689  0.789489  1
  Au  Au17  1  0.253674  0.803547  0.287168  1
  Au  Au18  1  0.747381  0.296151  0.209602  1
  Au  Au19  1  0.752448  0.201571  0.712291  1
  Au  Au20  1  0.257163  0.574207  0.994205  1
  Au  Au21  1  0.242639  0.923224  0.493266  1
  Au  Au22  1  0.750716  0.414287  0.004250  1
  Au  Au23  1  0.749641  0.080299  0.503299  1
