# generated using pymatgen
data_CaTb2Er5(B6Ru)4
_symmetry_space_group_name_H-M   'P 1'
_cell_length_a   3.64829200
_cell_length_b   9.12619705
_cell_length_c   11.51973900
_cell_angle_alpha   89.90382132
_cell_angle_beta   90.00000000
_cell_angle_gamma   90.00000000
_symmetry_Int_Tables_number   1
_chemical_formula_structural   CaTb2Er5(B6Ru)4
_chemical_formula_sum   'Ca1 Tb2 Er5 B24 Ru4'
_cell_volume   383.54953486
_cell_formula_units_Z   1
loop_
 _symmetry_equiv_pos_site_id
 _symmetry_equiv_pos_as_xyz
  1  'x, y, z'
loop_
 _atom_site_type_symbol
 _atom_site_label
 _atom_site_symmetry_multiplicity
 _atom_site_fract_x
 _atom_site_fract_y
 _atom_site_fract_z
 _atom_site_occupancy
  Ca  Ca0  1  0.000000  0.322385  0.413969  1
  Tb  Tb1  1  0.000000  0.675894  0.585134  1
  Tb  Tb2  1  0.000000  0.822802  0.086241  1
  Er  Er3  1  0.000000  0.178152  0.914698  1
  Er  Er4  1  0.000000  0.944272  0.371049  1
  Er  Er5  1  0.000000  0.057903  0.628288  1
  Er  Er6  1  0.000000  0.442842  0.129326  1
  Er  Er7  1  0.000000  0.555882  0.872232  1
  B  B8  1  0.500000  0.554630  0.432162  1
  B  B9  1  0.500000  0.445417  0.568225  1
  B  B10  1  0.500000  0.054002  0.066231  1
  B  B11  1  0.500000  0.946210  0.932187  1
  B  B12  1  0.500000  0.749111  0.418667  1
  B  B13  1  0.500000  0.251448  0.581792  1
  B  B14  1  0.500000  0.248112  0.080017  1
  B  B15  1  0.500000  0.751320  0.919032  1
  B  B16  1  0.500000  0.791756  0.266042  1
  B  B17  1  0.500000  0.208906  0.734871  1
  B  B18  1  0.500000  0.290105  0.233041  1
  B  B19  1  0.500000  0.709264  0.766500  1
  B  B20  1  0.500000  0.631500  0.185558  1
  B  B21  1  0.500000  0.368233  0.815948  1
  B  B22  1  0.500000  0.130866  0.313834  1
  B  B23  1  0.500000  0.869187  0.685229  1
  B  B24  1  0.500000  0.983813  0.211930  1
  B  B25  1  0.500000  0.017175  0.787335  1
  B  B26  1  0.500000  0.483924  0.287166  1
  B  B27  1  0.500000  0.515895  0.713449  1
  B  B28  1  0.500000  0.606172  0.029435  1
  B  B29  1  0.500000  0.392740  0.970839  1
  B  B30  1  0.500000  0.103046  0.471587  1
  B  B31  1  0.500000  0.896249  0.528664  1
  Ru  Ru32  1  0.000000  0.640214  0.319747  1
  Ru  Ru33  1  0.000000  0.361128  0.681547  1
  Ru  Ru34  1  0.000000  0.137022  0.177236  1
  Ru  Ru35  1  0.000000  0.862423  0.820791  1
