# generated using pymatgen
data_TmPaNi12P7
_symmetry_space_group_name_H-M   'P 1'
_cell_length_a   9.06466700
_cell_length_b   9.06466820
_cell_length_c   3.67587800
_cell_angle_alpha   90.00000000
_cell_angle_beta   90.00000000
_cell_angle_gamma   119.99999926
_symmetry_Int_Tables_number   1
_chemical_formula_structural   TmPaNi12P7
_chemical_formula_sum   'Tm1 Pa1 Ni12 P7'
_cell_volume   261.57455222
_cell_formula_units_Z   1
loop_
 _symmetry_equiv_pos_site_id
 _symmetry_equiv_pos_as_xyz
  1  'x, y, z'
loop_
 _atom_site_type_symbol
 _atom_site_label
 _atom_site_symmetry_multiplicity
 _atom_site_fract_x
 _atom_site_fract_y
 _atom_site_fract_z
 _atom_site_occupancy
  Tm  Tm0  1  0.666667  0.333333  0.500000  1
  Pa  Pa1  1  0.333333  0.666667  0.000000  1
  Ni  Ni2  1  0.435499  0.061868  0.000000  1
  Ni  Ni3  1  0.626369  0.564501  0.000000  1
  Ni  Ni4  1  0.938132  0.373631  0.000000  1
  Ni  Ni5  1  0.153228  0.275795  0.000000  1
  Ni  Ni6  1  0.122567  0.846772  0.000000  1
  Ni  Ni7  1  0.724205  0.877433  0.000000  1
  Ni  Ni8  1  0.386521  0.429523  0.500000  1
  Ni  Ni9  1  0.043002  0.613479  0.500000  1
  Ni  Ni10  1  0.570477  0.956998  0.500000  1
  Ni  Ni11  1  0.214982  0.092297  0.500000  1
  Ni  Ni12  1  0.877314  0.785018  0.500000  1
  Ni  Ni13  1  0.907703  0.122686  0.500000  1
  P  P14  1  0.000000  0.000000  0.000000  1
  P  P15  1  0.407559  0.292877  0.000000  1
  P  P16  1  0.885319  0.592441  0.000000  1
  P  P17  1  0.707123  0.114681  0.000000  1
  P  P18  1  0.110657  0.403977  0.500000  1
  P  P19  1  0.293320  0.889343  0.500000  1
  P  P20  1  0.596023  0.706680  0.500000  1
