# generated using pymatgen
data_Tm11LuIn2Tc2Ru
_symmetry_space_group_name_H-M   'P 1'
_cell_length_a   8.33069136
_cell_length_b   8.32585943
_cell_length_c   8.32585842
_cell_angle_alpha   109.41471089
_cell_angle_beta   109.40490054
_cell_angle_gamma   109.57056092
_symmetry_Int_Tables_number   1
_chemical_formula_structural   Tm11LuIn2Tc2Ru
_chemical_formula_sum   'Tm11 Lu1 In2 Tc2 Ru1'
_cell_volume   444.67450175
_cell_formula_units_Z   1
loop_
 _symmetry_equiv_pos_site_id
 _symmetry_equiv_pos_as_xyz
  1  'x, y, z'
loop_
 _atom_site_type_symbol
 _atom_site_label
 _atom_site_symmetry_multiplicity
 _atom_site_fract_x
 _atom_site_fract_y
 _atom_site_fract_z
 _atom_site_occupancy
  Tm  Tm0  1  0.315245  0.315876  0.632241  1
  Tm  Tm1  1  0.682883  0.683316  0.368242  1
  Tm  Tm2  1  0.682883  0.314641  0.999566  1
  Tm  Tm3  1  0.315245  0.683005  0.999370  1
  Tm  Tm4  1  0.187519  0.430534  0.243336  1
  Tm  Tm5  1  0.813718  0.571955  0.757828  1
  Tm  Tm6  1  0.187519  0.944182  0.756984  1
  Tm  Tm7  1  0.943825  0.186595  0.757231  1
  Tm  Tm8  1  0.813718  0.055892  0.241763  1
  Tm  Tm9  1  0.055799  0.813874  0.241924  1
  Tm  Tm10  1  0.430150  0.186998  0.243151  1
  Lu  Lu11  1  0.573543  0.814464  0.759079  1
  In  In12  1  0.998746  0.499608  0.499138  1
  In  In13  1  0.498978  0.998549  0.500429  1
  Tc  Tc14  1  0.343693  0.343797  0.999896  1
  Tc  Tc15  1  0.999364  0.999406  0.999959  1
  Ru  Ru16  1  0.657170  0.657308  0.999862  1
