# generated using pymatgen
data_LiEu2OsN4
_symmetry_space_group_name_H-M   'P 1'
_cell_length_a   5.70601600
_cell_length_b   6.07172512
_cell_length_c   6.76117832
_cell_angle_alpha   73.62642353
_cell_angle_beta   90.00000000
_cell_angle_gamma   90.00000000
_symmetry_Int_Tables_number   1
_chemical_formula_structural   LiEu2OsN4
_chemical_formula_sum   'Li2 Eu4 Os2 N8'
_cell_volume   224.74350293
_cell_formula_units_Z   2
loop_
 _symmetry_equiv_pos_site_id
 _symmetry_equiv_pos_as_xyz
  1  'x, y, z'
loop_
 _atom_site_type_symbol
 _atom_site_label
 _atom_site_symmetry_multiplicity
 _atom_site_fract_x
 _atom_site_fract_y
 _atom_site_fract_z
 _atom_site_occupancy
  Li  Li0  1  0.750000  0.291518  0.311557  1
  Li  Li1  1  0.250000  0.708482  0.688443  1
  Eu  Eu2  1  0.250000  0.275094  0.054470  1
  Eu  Eu3  1  0.750000  0.724906  0.945530  1
  Eu  Eu4  1  0.750000  0.765860  0.430915  1
  Eu  Eu5  1  0.250000  0.234140  0.569085  1
  Os  Os6  1  0.250000  0.740248  0.193721  1
  Os  Os7  1  0.750000  0.259752  0.806279  1
  N  N8  1  0.506511  0.479105  0.750624  1
  N  N9  1  0.006511  0.520895  0.249376  1
  N  N10  1  0.493489  0.520895  0.249376  1
  N  N11  1  0.993489  0.479105  0.750624  1
  N  N12  1  0.750000  0.082114  0.624025  1
  N  N13  1  0.250000  0.917886  0.375975  1
  N  N14  1  0.750000  0.094803  0.078508  1
  N  N15  1  0.250000  0.905197  0.921492  1
