# generated using pymatgen
data_TiNb5ReSi6Mo5
_symmetry_space_group_name_H-M   'P 1'
_cell_length_a   7.69799770
_cell_length_b   7.67462950
_cell_length_c   7.69888753
_cell_angle_alpha   126.34276594
_cell_angle_beta   128.52206185
_cell_angle_gamma   77.62433943
_symmetry_Int_Tables_number   1
_chemical_formula_structural   TiNb5ReSi6Mo5
_chemical_formula_sum   'Ti1 Nb5 Re1 Si6 Mo5'
_cell_volume   277.85839181
_cell_formula_units_Z   1
loop_
 _symmetry_equiv_pos_site_id
 _symmetry_equiv_pos_as_xyz
  1  'x, y, z'
loop_
 _atom_site_type_symbol
 _atom_site_label
 _atom_site_symmetry_multiplicity
 _atom_site_fract_x
 _atom_site_fract_y
 _atom_site_fract_z
 _atom_site_occupancy
  Ti  Ti0  1  0.549516  0.093402  0.043438  1
  Nb  Nb1  1  0.450441  0.492879  0.543743  1
  Nb  Nb2  1  0.949841  0.493647  0.042784  1
  Nb  Nb3  1  0.049102  0.090815  0.541925  1
  Nb  Nb4  1  0.752168  0.904587  0.652881  1
  Nb  Nb5  1  0.248586  0.900326  0.151260  1
  Re  Re6  1  0.370098  0.496937  0.125813  1
  Si  Si7  1  0.748118  0.497415  0.248631  1
  Si  Si8  1  0.249559  0.498248  0.749252  1
  Si  Si9  1  0.336467  0.828252  0.498548  1
  Si  Si10  1  0.664934  0.162136  0.491588  1
  Si  Si11  1  0.829415  0.831372  0.995185  1
  Si  Si12  1  0.172244  0.164490  0.998016  1
  Mo  Mo13  1  0.499694  0.238407  0.739170  1
  Mo  Mo14  1  0.000233  0.239528  0.238595  1
  Mo  Mo15  1  0.129918  0.756595  0.626455  1
  Mo  Mo16  1  0.870110  0.497119  0.627925  1
  Mo  Mo17  1  0.629555  0.756048  0.126988  1
