# generated using pymatgen
data_Y5TmHg10
_symmetry_space_group_name_H-M   'P 1'
_cell_length_a   6.39279234
_cell_length_b   6.39279452
_cell_length_c   10.15515600
_cell_angle_alpha   90.00000000
_cell_angle_beta   90.00000000
_cell_angle_gamma   104.96867749
_symmetry_Int_Tables_number   1
_chemical_formula_structural   Y5TmHg10
_chemical_formula_sum   'Y5 Tm1 Hg10'
_cell_volume   400.93619796
_cell_formula_units_Z   1
loop_
 _symmetry_equiv_pos_site_id
 _symmetry_equiv_pos_as_xyz
  1  'x, y, z'
loop_
 _atom_site_type_symbol
 _atom_site_label
 _atom_site_symmetry_multiplicity
 _atom_site_fract_x
 _atom_site_fract_y
 _atom_site_fract_z
 _atom_site_occupancy
  Y  Y0  1  0.433188  0.433188  0.750000  1
  Y  Y1  1  0.213952  0.786763  0.499816  1
  Y  Y2  1  0.213952  0.786763  0.000184  1
  Y  Y3  1  0.786763  0.213952  0.499816  1
  Y  Y4  1  0.786763  0.213952  0.000184  1
  Tm  Tm5  1  0.567081  0.567081  0.250000  1
  Hg  Hg6  1  0.965881  0.965881  0.250000  1
  Hg  Hg7  1  0.031286  0.031286  0.750000  1
  Hg  Hg8  1  0.294407  0.294407  0.030433  1
  Hg  Hg9  1  0.706381  0.706381  0.973173  1
  Hg  Hg10  1  0.294407  0.294407  0.469567  1
  Hg  Hg11  1  0.706381  0.706381  0.526827  1
  Hg  Hg12  1  0.475480  0.035131  0.250000  1
  Hg  Hg13  1  0.963988  0.524957  0.750000  1
  Hg  Hg14  1  0.524957  0.963988  0.750000  1
  Hg  Hg15  1  0.035131  0.475480  0.250000  1
