# generated using pymatgen
data_Ba6Ti5RhO18
_symmetry_space_group_name_H-M   'P 1'
_cell_length_a   5.79523300
_cell_length_b   5.79523275
_cell_length_c   14.22649800
_cell_angle_alpha   90.00000000
_cell_angle_beta   90.00000000
_cell_angle_gamma   119.99999571
_symmetry_Int_Tables_number   1
_chemical_formula_structural   Ba6Ti5RhO18
_chemical_formula_sum   'Ba6 Ti5 Rh1 O18'
_cell_volume   413.78090226
_cell_formula_units_Z   1
loop_
 _symmetry_equiv_pos_site_id
 _symmetry_equiv_pos_as_xyz
  1  'x, y, z'
loop_
 _atom_site_type_symbol
 _atom_site_label
 _atom_site_symmetry_multiplicity
 _atom_site_fract_x
 _atom_site_fract_y
 _atom_site_fract_z
 _atom_site_occupancy
  Ba  Ba0  1  0.000000  0.000000  0.593525  1
  Ba  Ba1  1  0.666667  0.333333  0.401418  1
  Ba  Ba2  1  0.666667  0.333333  0.089879  1
  Ba  Ba3  1  0.000000  0.000000  0.902143  1
  Ba  Ba4  1  0.333333  0.666667  0.747055  1
  Ba  Ba5  1  0.333333  0.666667  0.246645  1
  Ti  Ti6  1  0.333333  0.666667  0.493680  1
  Ti  Ti7  1  0.333333  0.666667  0.991672  1
  Ti  Ti8  1  0.666667  0.333333  0.647096  1
  Ti  Ti9  1  0.666667  0.333333  0.837476  1
  Ti  Ti10  1  0.000000  0.000000  0.147362  1
  Rh  Rh11  1  0.000000  0.000000  0.341994  1
  O  O12  1  0.500584  0.001168  0.584794  1
  O  O13  1  0.500584  0.499416  0.584794  1
  O  O14  1  0.998832  0.499416  0.584794  1
  O  O15  1  0.171089  0.342178  0.424386  1
  O  O16  1  0.171089  0.828911  0.424386  1
  O  O17  1  0.657822  0.828911  0.424386  1
  O  O18  1  0.165856  0.331713  0.082918  1
  O  O19  1  0.165856  0.834144  0.082918  1
  O  O20  1  0.668287  0.834144  0.082918  1
  O  O21  1  0.496800  0.993600  0.922390  1
  O  O22  1  0.496800  0.503200  0.922390  1
  O  O23  1  0.006400  0.503200  0.922390  1
  O  O24  1  0.816194  0.632389  0.753944  1
  O  O25  1  0.816194  0.183806  0.753944  1
  O  O26  1  0.367611  0.183806  0.753944  1
  O  O27  1  0.848669  0.697339  0.251585  1
  O  O28  1  0.848669  0.151331  0.251585  1
  O  O29  1  0.302661  0.151331  0.251585  1
