# generated using pymatgen
data_Lu12ZnNi4Sn
_symmetry_space_group_name_H-M   'P 1'
_cell_length_a   8.17990840
_cell_length_b   8.17990881
_cell_length_c   8.17990887
_cell_angle_alpha   112.25158250
_cell_angle_beta   109.80678621
_cell_angle_gamma   106.40806231
_symmetry_Int_Tables_number   1
_chemical_formula_structural   Lu12ZnNi4Sn
_chemical_formula_sum   'Lu12 Zn1 Ni4 Sn1'
_cell_volume   420.23126485
_cell_formula_units_Z   1
loop_
 _symmetry_equiv_pos_site_id
 _symmetry_equiv_pos_as_xyz
  1  'x, y, z'
loop_
 _atom_site_type_symbol
 _atom_site_label
 _atom_site_symmetry_multiplicity
 _atom_site_fract_x
 _atom_site_fract_y
 _atom_site_fract_z
 _atom_site_occupancy
  Lu  Lu0  1  0.675498  0.870039  0.194541  1
  Lu  Lu1  1  0.324502  0.519043  0.194541  1
  Lu  Lu2  1  0.820107  0.787612  0.607720  1
  Lu  Lu3  1  0.179893  0.787612  0.967505  1
  Lu  Lu4  1  0.820107  0.212388  0.032495  1
  Lu  Lu5  1  0.179893  0.212388  0.392280  1
  Lu  Lu6  1  0.675498  0.480957  0.805459  1
  Lu  Lu7  1  0.324502  0.129961  0.805459  1
  Lu  Lu8  1  0.570821  0.271339  0.299481  1
  Lu  Lu9  1  0.429179  0.728661  0.700519  1
  Lu  Lu10  1  0.028143  0.728661  0.299481  1
  Lu  Lu11  1  0.971857  0.271339  0.700519  1
  Zn  Zn12  1  0.000000  0.500000  0.500000  1
  Ni  Ni13  1  0.352988  0.500000  0.852988  1
  Ni  Ni14  1  0.647012  0.500000  0.147012  1
  Ni  Ni15  1  0.873178  0.873178  0.000000  1
  Ni  Ni16  1  0.126822  0.126822  0.000000  1
  Sn  Sn17  1  0.500000  0.000000  0.500000  1
