# generated using pymatgen
data_Ho11Cd8InNi4
_symmetry_space_group_name_H-M   'P 1'
_cell_length_a   3.62757800
_cell_length_b   12.84438355
_cell_length_c   12.84438345
_cell_angle_alpha   110.81974572
_cell_angle_beta   90.00000000
_cell_angle_gamma   90.00000000
_symmetry_Int_Tables_number   1
_chemical_formula_structural   Ho11Cd8InNi4
_chemical_formula_sum   'Ho11 Cd8 In1 Ni4'
_cell_volume   559.39301120
_cell_formula_units_Z   1
loop_
 _symmetry_equiv_pos_site_id
 _symmetry_equiv_pos_as_xyz
  1  'x, y, z'
loop_
 _atom_site_type_symbol
 _atom_site_label
 _atom_site_symmetry_multiplicity
 _atom_site_fract_x
 _atom_site_fract_y
 _atom_site_fract_z
 _atom_site_occupancy
  Ho  Ho0  1  0.000000  0.915512  0.582125  1
  Ho  Ho1  1  0.000000  0.084488  0.417875  1
  Ho  Ho2  1  0.000000  0.582125  0.915512  1
  Ho  Ho3  1  0.000000  0.417875  0.084488  1
  Ho  Ho4  1  0.000000  0.162417  0.837583  1
  Ho  Ho5  1  0.000000  0.837583  0.162417  1
  Ho  Ho6  1  0.000000  0.373190  0.626810  1
  Ho  Ho7  1  0.000000  0.626810  0.373190  1
  Ho  Ho8  1  0.000000  0.688265  0.688265  1
  Ho  Ho9  1  0.000000  0.311735  0.311735  1
  Ho  Ho10  1  0.000000  0.000000  0.000000  1
  Cd  Cd11  1  0.500000  0.157462  0.632390  1
  Cd  Cd12  1  0.500000  0.842538  0.367610  1
  Cd  Cd13  1  0.500000  0.632390  0.157462  1
  Cd  Cd14  1  0.500000  0.367610  0.842538  1
  Cd  Cd15  1  0.500000  0.928726  0.782551  1
  Cd  Cd16  1  0.500000  0.071274  0.217449  1
  Cd  Cd17  1  0.500000  0.782551  0.928726  1
  Cd  Cd18  1  0.500000  0.217449  0.071274  1
  In  In19  1  0.500000  0.500000  0.500000  1
  Ni  Ni20  1  0.500000  0.747945  0.548814  1
  Ni  Ni21  1  0.500000  0.252055  0.451186  1
  Ni  Ni22  1  0.500000  0.548814  0.747945  1
  Ni  Ni23  1  0.500000  0.451186  0.252055  1
