# generated using pymatgen
data_Tm3Co5(Ni2P3)2
_symmetry_space_group_name_H-M   'P 1'
_cell_length_a   3.70671600
_cell_length_b   10.47522300
_cell_length_c   12.18518200
_cell_angle_alpha   90.00000000
_cell_angle_beta   90.00000000
_cell_angle_gamma   90.00000000
_symmetry_Int_Tables_number   1
_chemical_formula_structural   Tm3Co5(Ni2P3)2
_chemical_formula_sum   'Tm6 Co10 Ni8 P12'
_cell_volume   473.13449238
_cell_formula_units_Z   2
loop_
 _symmetry_equiv_pos_site_id
 _symmetry_equiv_pos_as_xyz
  1  'x, y, z'
loop_
 _atom_site_type_symbol
 _atom_site_label
 _atom_site_symmetry_multiplicity
 _atom_site_fract_x
 _atom_site_fract_y
 _atom_site_fract_z
 _atom_site_occupancy
  Tm  Tm0  1  0.000000  0.500000  0.521146  1
  Tm  Tm1  1  0.500000  0.000000  0.478854  1
  Tm  Tm2  1  0.500000  0.816116  0.205490  1
  Tm  Tm3  1  0.500000  0.183884  0.205490  1
  Tm  Tm4  1  0.000000  0.683884  0.794510  1
  Tm  Tm5  1  0.000000  0.316116  0.794510  1
  Co  Co6  1  0.000000  0.500000  0.984817  1
  Co  Co7  1  0.500000  0.000000  0.015183  1
  Co  Co8  1  0.500000  0.334144  0.995596  1
  Co  Co9  1  0.500000  0.665856  0.995596  1
  Co  Co10  1  0.000000  0.165856  0.004404  1
  Co  Co11  1  0.000000  0.834144  0.004404  1
  Co  Co12  1  0.500000  0.298046  0.430529  1
  Co  Co13  1  0.500000  0.701954  0.430529  1
  Co  Co14  1  0.000000  0.201954  0.569471  1
  Co  Co15  1  0.000000  0.798046  0.569471  1
  Ni  Ni16  1  0.500000  0.500000  0.160664  1
  Ni  Ni17  1  0.000000  0.000000  0.839336  1
  Ni  Ni18  1  0.500000  0.500000  0.702591  1
  Ni  Ni19  1  0.000000  0.000000  0.297409  1
  Ni  Ni20  1  0.500000  0.877032  0.709326  1
  Ni  Ni21  1  0.500000  0.122968  0.709326  1
  Ni  Ni22  1  0.000000  0.622968  0.290674  1
  Ni  Ni23  1  0.000000  0.377032  0.290674  1
  P  P24  1  0.500000  0.500000  0.881162  1
  P  P25  1  0.000000  0.000000  0.118838  1
  P  P26  1  0.500000  0.500000  0.347994  1
  P  P27  1  0.000000  0.000000  0.652006  1
  P  P28  1  0.500000  0.313786  0.614072  1
  P  P29  1  0.500000  0.686214  0.614072  1
  P  P30  1  0.000000  0.186214  0.385928  1
  P  P31  1  0.000000  0.813786  0.385928  1
  P  P32  1  0.500000  0.844758  0.895618  1
  P  P33  1  0.500000  0.155242  0.895618  1
  P  P34  1  0.000000  0.655242  0.104382  1
  P  P35  1  0.000000  0.344758  0.104382  1
