# generated using pymatgen
data_Ho6Sc4(BiPb)3
_symmetry_space_group_name_H-M   'P 1'
_cell_length_a   8.91729900
_cell_length_b   8.91153903
_cell_length_c   6.26042700
_cell_angle_alpha   90.00000000
_cell_angle_beta   90.00000000
_cell_angle_gamma   120.02137966
_symmetry_Int_Tables_number   1
_chemical_formula_structural   Ho6Sc4(BiPb)3
_chemical_formula_sum   'Ho6 Sc4 Bi3 Pb3'
_cell_volume   430.75172683
_cell_formula_units_Z   1
loop_
 _symmetry_equiv_pos_site_id
 _symmetry_equiv_pos_as_xyz
  1  'x, y, z'
loop_
 _atom_site_type_symbol
 _atom_site_label
 _atom_site_symmetry_multiplicity
 _atom_site_fract_x
 _atom_site_fract_y
 _atom_site_fract_z
 _atom_site_occupancy
  Ho  Ho0  1  0.237807  0.000000  0.250000  1
  Ho  Ho1  1  0.239031  0.237251  0.750000  1
  Ho  Ho2  1  0.001780  0.762749  0.750000  1
  Ho  Ho3  1  0.001702  0.240495  0.250000  1
  Ho  Ho4  1  0.761207  0.759505  0.250000  1
  Ho  Ho5  1  0.759912  0.000000  0.750000  1
  Sc  Sc6  1  0.333072  0.666595  0.000903  1
  Sc  Sc7  1  0.666478  0.333405  0.499097  1
  Sc  Sc8  1  0.666478  0.333405  0.000903  1
  Sc  Sc9  1  0.333072  0.666595  0.499097  1
  Bi  Bi10  1  0.602021  0.000000  0.250000  1
  Bi  Bi11  1  0.601644  0.601890  0.750000  1
  Bi  Bi12  1  0.999753  0.398110  0.750000  1
  Pb  Pb13  1  0.999726  0.601693  0.250000  1
  Pb  Pb14  1  0.398032  0.398307  0.250000  1
  Pb  Pb15  1  0.398284  0.000000  0.750000  1
