# generated using pymatgen
data_Lu4Fe3Co13(ReP3)4
_symmetry_space_group_name_H-M   'P 1'
_cell_length_a   3.69315300
_cell_length_b   10.32071121
_cell_length_c   11.70317824
_cell_angle_alpha   89.97674411
_cell_angle_beta   90.00000000
_cell_angle_gamma   90.00000000
_symmetry_Int_Tables_number   1
_chemical_formula_structural   Lu4Fe3Co13(ReP3)4
_chemical_formula_sum   'Lu4 Fe3 Co13 Re4 P12'
_cell_volume   446.07790223
_cell_formula_units_Z   1
loop_
 _symmetry_equiv_pos_site_id
 _symmetry_equiv_pos_as_xyz
  1  'x, y, z'
loop_
 _atom_site_type_symbol
 _atom_site_label
 _atom_site_symmetry_multiplicity
 _atom_site_fract_x
 _atom_site_fract_y
 _atom_site_fract_z
 _atom_site_occupancy
  Lu  Lu0  1  0.250000  0.582816  0.703275  1
  Lu  Lu1  1  0.250000  0.916688  0.203468  1
  Lu  Lu2  1  0.750000  0.416932  0.296602  1
  Lu  Lu3  1  0.750000  0.084037  0.796423  1
  Fe  Fe4  1  0.250000  0.403897  0.488135  1
  Fe  Fe5  1  0.250000  0.094000  0.988792  1
  Fe  Fe6  1  0.750000  0.596204  0.511698  1
  Co  Co7  1  0.750000  0.904357  0.012467  1
  Co  Co8  1  0.250000  0.223193  0.178236  1
  Co  Co9  1  0.250000  0.276162  0.678494  1
  Co  Co10  1  0.750000  0.777718  0.821777  1
  Co  Co11  1  0.750000  0.723929  0.321938  1
  Co  Co12  1  0.250000  0.886514  0.701264  1
  Co  Co13  1  0.250000  0.613123  0.202919  1
  Co  Co14  1  0.750000  0.112669  0.297866  1
  Co  Co15  1  0.750000  0.386645  0.797110  1
  Co  Co16  1  0.250000  0.464698  0.931927  1
  Co  Co17  1  0.250000  0.035520  0.432436  1
  Co  Co18  1  0.750000  0.535957  0.067742  1
  Co  Co19  1  0.750000  0.964502  0.567294  1
  Re  Re20  1  0.250000  0.710726  0.988380  1
  Re  Re21  1  0.250000  0.790508  0.487344  1
  Re  Re22  1  0.750000  0.290198  0.012201  1
  Re  Re23  1  0.750000  0.209515  0.512495  1
  P  P24  1  0.250000  0.420574  0.115934  1
  P  P25  1  0.250000  0.079834  0.616251  1
  P  P26  1  0.750000  0.579643  0.883599  1
  P  P27  1  0.750000  0.920387  0.383875  1
  P  P28  1  0.250000  0.265754  0.867098  1
  P  P29  1  0.250000  0.234627  0.366847  1
  P  P30  1  0.750000  0.732506  0.134369  1
  P  P31  1  0.750000  0.765475  0.633108  1
  P  P32  1  0.250000  0.591898  0.393258  1
  P  P33  1  0.250000  0.907173  0.890534  1
  P  P34  1  0.750000  0.407831  0.606936  1
  P  P35  1  0.750000  0.093792  0.107908  1
