# generated using pymatgen
data_Sm3Al9Re3Os4
_symmetry_space_group_name_H-M   'P 1'
_cell_length_a   8.92007400
_cell_length_b   8.92007514
_cell_length_c   9.62334500
_cell_angle_alpha   90.00000000
_cell_angle_beta   90.00000000
_cell_angle_gamma   119.99999579
_symmetry_Int_Tables_number   1
_chemical_formula_structural   Sm3Al9Re3Os4
_chemical_formula_sum   'Sm6 Al18 Re6 Os8'
_cell_volume   663.12236519
_cell_formula_units_Z   2
loop_
 _symmetry_equiv_pos_site_id
 _symmetry_equiv_pos_as_xyz
  1  'x, y, z'
loop_
 _atom_site_type_symbol
 _atom_site_label
 _atom_site_symmetry_multiplicity
 _atom_site_fract_x
 _atom_site_fract_y
 _atom_site_fract_z
 _atom_site_occupancy
  Sm  Sm0  1  0.196145  0.392290  0.250000  1
  Sm  Sm1  1  0.803855  0.607710  0.750000  1
  Sm  Sm2  1  0.607710  0.803855  0.250000  1
  Sm  Sm3  1  0.392290  0.196145  0.750000  1
  Sm  Sm4  1  0.196145  0.803855  0.250000  1
  Sm  Sm5  1  0.803855  0.196145  0.750000  1
  Al  Al6  1  0.333333  0.666667  0.007167  1
  Al  Al7  1  0.666667  0.333333  0.992833  1
  Al  Al8  1  0.666667  0.333333  0.507167  1
  Al  Al9  1  0.333333  0.666667  0.492833  1
  Al  Al10  1  0.165389  0.330778  0.575991  1
  Al  Al11  1  0.834611  0.669222  0.424009  1
  Al  Al12  1  0.669222  0.834611  0.575991  1
  Al  Al13  1  0.834611  0.669222  0.075991  1
  Al  Al14  1  0.330778  0.165389  0.424009  1
  Al  Al15  1  0.165389  0.330778  0.924009  1
  Al  Al16  1  0.165389  0.834611  0.575991  1
  Al  Al17  1  0.330778  0.165389  0.075991  1
  Al  Al18  1  0.834611  0.165389  0.424009  1
  Al  Al19  1  0.669222  0.834611  0.924009  1
  Al  Al20  1  0.834611  0.165389  0.075991  1
  Al  Al21  1  0.165389  0.834611  0.924009  1
  Al  Al22  1  0.000000  0.000000  0.250000  1
  Al  Al23  1  0.000000  0.000000  0.750000  1
  Re  Re24  1  0.571749  0.143498  0.250000  1
  Re  Re25  1  0.428251  0.856502  0.750000  1
  Re  Re26  1  0.856502  0.428251  0.250000  1
  Re  Re27  1  0.143498  0.571749  0.750000  1
  Re  Re28  1  0.571749  0.428251  0.250000  1
  Re  Re29  1  0.428251  0.571749  0.750000  1
  Os  Os30  1  0.500000  0.000000  0.000000  1
  Os  Os31  1  0.000000  0.500000  0.000000  1
  Os  Os32  1  0.500000  0.000000  0.500000  1
  Os  Os33  1  0.500000  0.500000  0.000000  1
  Os  Os34  1  0.000000  0.500000  0.500000  1
  Os  Os35  1  0.500000  0.500000  0.500000  1
  Os  Os36  1  0.000000  0.000000  0.000000  1
  Os  Os37  1  0.000000  0.000000  0.500000  1
