# generated using pymatgen
data_Dy9HoIn4(NiHg)4
_symmetry_space_group_name_H-M   'P 1'
_cell_length_a   7.85044700
_cell_length_b   18.14448500
_cell_length_c   3.63159700
_cell_angle_alpha   90.00000000
_cell_angle_beta   90.00000000
_cell_angle_gamma   89.99936506
_symmetry_Int_Tables_number   1
_chemical_formula_structural   Dy9HoIn4(NiHg)4
_chemical_formula_sum   'Dy9 Ho1 In4 Ni4 Hg4'
_cell_volume   517.29309411
_cell_formula_units_Z   1
loop_
 _symmetry_equiv_pos_site_id
 _symmetry_equiv_pos_as_xyz
  1  'x, y, z'
loop_
 _atom_site_type_symbol
 _atom_site_label
 _atom_site_symmetry_multiplicity
 _atom_site_fract_x
 _atom_site_fract_y
 _atom_site_fract_z
 _atom_site_occupancy
  Dy  Dy0  1  0.499974  0.499949  0.000000  1
  Dy  Dy1  1  0.000009  0.000025  0.000000  1
  Dy  Dy2  1  0.757106  0.281035  0.000000  1
  Dy  Dy3  1  0.242920  0.719009  0.000000  1
  Dy  Dy4  1  0.742938  0.780869  0.000000  1
  Dy  Dy5  1  0.256909  0.219171  0.000000  1
  Dy  Dy6  1  0.614023  0.088997  0.000000  1
  Dy  Dy7  1  0.385949  0.911042  0.000000  1
  Dy  Dy8  1  0.886024  0.588883  0.000000  1
  Ho  Ho9  1  0.113765  0.410794  0.000000  1
  In  In10  1  0.568785  0.652032  0.500000  1
  In  In11  1  0.430762  0.348025  0.500000  1
  In  In12  1  0.931240  0.152164  0.500000  1
  In  In13  1  0.068761  0.847914  0.500000  1
  Ni  Ni14  1  0.541087  0.197802  0.500000  1
  Ni  Ni15  1  0.458966  0.802215  0.500000  1
  Ni  Ni16  1  0.959025  0.697718  0.500000  1
  Ni  Ni17  1  0.041160  0.302493  0.500000  1
  Hg  Hg18  1  0.707831  0.931384  0.500000  1
  Hg  Hg19  1  0.292124  0.068616  0.500000  1
  Hg  Hg20  1  0.792898  0.431521  0.500000  1
  Hg  Hg21  1  0.207746  0.568341  0.500000  1
