# generated using pymatgen
data_Pa2P4Os3Rh
_symmetry_space_group_name_H-M   'P 1'
_cell_length_a   4.15343200
_cell_length_b   4.15343200
_cell_length_c   9.44065000
_cell_angle_alpha   90.00000000
_cell_angle_beta   90.00000000
_cell_angle_gamma   90.00000000
_symmetry_Int_Tables_number   1
_chemical_formula_structural   Pa2P4Os3Rh
_chemical_formula_sum   'Pa2 P4 Os3 Rh1'
_cell_volume   162.86062840
_cell_formula_units_Z   1
loop_
 _symmetry_equiv_pos_site_id
 _symmetry_equiv_pos_as_xyz
  1  'x, y, z'
loop_
 _atom_site_type_symbol
 _atom_site_label
 _atom_site_symmetry_multiplicity
 _atom_site_fract_x
 _atom_site_fract_y
 _atom_site_fract_z
 _atom_site_occupancy
  Pa  Pa0  1  0.500000  0.000000  0.741384  1
  Pa  Pa1  1  0.000000  0.500000  0.258616  1
  P  P2  1  0.500000  0.500000  0.500000  1
  P  P3  1  0.500000  0.000000  0.136819  1
  P  P4  1  0.000000  0.000000  0.500000  1
  P  P5  1  0.000000  0.500000  0.863181  1
  Os  Os6  1  0.000000  0.500000  0.617147  1
  Os  Os7  1  0.500000  0.000000  0.382853  1
  Os  Os8  1  0.000000  0.000000  0.000000  1
  Rh  Rh9  1  0.500000  0.500000  0.000000  1
