# generated using pymatgen
data_Rb8Nb2CrRhBr24
_symmetry_space_group_name_H-M   'P 1'
_cell_length_a   13.24794533
_cell_length_b   13.24813008
_cell_length_c   13.24621992
_cell_angle_alpha   131.64531748
_cell_angle_beta   131.54815898
_cell_angle_gamma   70.87772038
_symmetry_Int_Tables_number   1
_chemical_formula_structural   Rb8Nb2CrRhBr24
_chemical_formula_sum   'Rb8 Nb2 Cr1 Rh1 Br24'
_cell_volume   1273.29916286
_cell_formula_units_Z   1
loop_
 _symmetry_equiv_pos_site_id
 _symmetry_equiv_pos_as_xyz
  1  'x, y, z'
loop_
 _atom_site_type_symbol
 _atom_site_label
 _atom_site_symmetry_multiplicity
 _atom_site_fract_x
 _atom_site_fract_y
 _atom_site_fract_z
 _atom_site_occupancy
  Rb  Rb0  1  0.374910  0.340613  0.464828  1
  Rb  Rb1  1  0.089558  0.624642  0.965270  1
  Rb  Rb2  1  0.875780  0.910115  0.535164  1
  Rb  Rb3  1  0.089521  0.126469  0.466642  1
  Rb  Rb4  1  0.377572  0.910468  0.037085  1
  Rb  Rb5  1  0.659909  0.622863  0.533409  1
  Rb  Rb6  1  0.659418  0.124311  0.034794  1
  Rb  Rb7  1  0.873474  0.340494  0.963006  1
  Nb  Nb8  1  0.249967  0.749972  0.500022  1
  Nb  Nb9  1  0.500052  0.500062  0.999995  1
  Cr  Cr10  1  0.999787  0.999969  0.999666  1
  Rh  Rh11  1  0.749963  0.249944  0.499982  1
  Br  Br12  1  0.012907  0.767288  0.285066  1
  Br  Br13  1  0.015860  0.236787  0.247369  1
  Br  Br14  1  0.271832  0.987496  0.754673  1
  Br  Br15  1  0.984509  0.241648  0.722082  1
  Br  Br16  1  0.132034  0.632023  0.500013  1
  Br  Br17  1  0.267716  0.523063  0.786429  1
  Br  Br18  1  0.482254  0.727862  0.714973  1
  Br  Br19  1  0.519595  0.262417  0.277952  1
  Br  Br20  1  0.477148  0.263031  0.744375  1
  Br  Br21  1  0.618142  0.618144  0.000045  1
  Br  Br22  1  0.518623  0.732753  0.255633  1
  Br  Br23  1  0.117885  0.117867  0.000040  1
  Br  Br24  1  0.882263  0.882270  0.999988  1
  Br  Br25  1  0.989484  0.768488  0.752604  1
  Br  Br26  1  0.763702  0.010791  0.779682  1
  Br  Br27  1  0.230937  0.984017  0.220166  1
  Br  Br28  1  0.736643  0.481284  0.213555  1
  Br  Br29  1  0.232868  0.517211  0.245370  1
  Br  Br30  1  0.367898  0.867933  0.500010  1
  Br  Br31  1  0.866940  0.366934  0.500012  1
  Br  Br32  1  0.382028  0.382001  0.000042  1
  Br  Br33  1  0.633000  0.132978  0.500014  1
  Br  Br34  1  0.758124  0.480816  0.743176  1
  Br  Br35  1  0.737694  0.014973  0.256868  1
