# generated using pymatgen
data_Tm3Fe(Co4P3)2
_symmetry_space_group_name_H-M   'P 1'
_cell_length_a   3.68632900
_cell_length_b   10.53585900
_cell_length_c   12.15277700
_cell_angle_alpha   90.00000000
_cell_angle_beta   90.00000000
_cell_angle_gamma   90.00000000
_symmetry_Int_Tables_number   1
_chemical_formula_structural   Tm3Fe(Co4P3)2
_chemical_formula_sum   'Tm6 Fe2 Co16 P12'
_cell_volume   471.99736216
_cell_formula_units_Z   2
loop_
 _symmetry_equiv_pos_site_id
 _symmetry_equiv_pos_as_xyz
  1  'x, y, z'
loop_
 _atom_site_type_symbol
 _atom_site_label
 _atom_site_symmetry_multiplicity
 _atom_site_fract_x
 _atom_site_fract_y
 _atom_site_fract_z
 _atom_site_occupancy
  Tm  Tm0  1  0.000000  0.500000  0.522730  1
  Tm  Tm1  1  0.500000  0.000000  0.477270  1
  Tm  Tm2  1  0.500000  0.818141  0.204980  1
  Tm  Tm3  1  0.500000  0.181859  0.204980  1
  Tm  Tm4  1  0.000000  0.681859  0.795020  1
  Tm  Tm5  1  0.000000  0.318141  0.795020  1
  Fe  Fe6  1  0.500000  0.500000  0.157919  1
  Fe  Fe7  1  0.000000  0.000000  0.842081  1
  Co  Co8  1  0.500000  0.500000  0.701685  1
  Co  Co9  1  0.000000  0.000000  0.298315  1
  Co  Co10  1  0.000000  0.500000  0.986188  1
  Co  Co11  1  0.500000  0.000000  0.013812  1
  Co  Co12  1  0.500000  0.332968  0.993848  1
  Co  Co13  1  0.500000  0.667032  0.993848  1
  Co  Co14  1  0.000000  0.167032  0.006152  1
  Co  Co15  1  0.000000  0.832968  0.006152  1
  Co  Co16  1  0.500000  0.296952  0.431101  1
  Co  Co17  1  0.500000  0.703048  0.431101  1
  Co  Co18  1  0.000000  0.203048  0.568899  1
  Co  Co19  1  0.000000  0.796952  0.568899  1
  Co  Co20  1  0.500000  0.878183  0.708593  1
  Co  Co21  1  0.500000  0.121817  0.708593  1
  Co  Co22  1  0.000000  0.621817  0.291407  1
  Co  Co23  1  0.000000  0.378183  0.291407  1
  P  P24  1  0.500000  0.500000  0.881590  1
  P  P25  1  0.000000  0.000000  0.118410  1
  P  P26  1  0.500000  0.500000  0.344105  1
  P  P27  1  0.000000  0.000000  0.655895  1
  P  P28  1  0.500000  0.311263  0.616550  1
  P  P29  1  0.500000  0.688737  0.616550  1
  P  P30  1  0.000000  0.188737  0.383450  1
  P  P31  1  0.000000  0.811263  0.383450  1
  P  P32  1  0.500000  0.847089  0.892140  1
  P  P33  1  0.500000  0.152911  0.892140  1
  P  P34  1  0.000000  0.652911  0.107860  1
  P  P35  1  0.000000  0.347089  0.107860  1
