# generated using pymatgen
data_Pr2Er3Tm(IrO7)2
_symmetry_space_group_name_H-M   'P 1'
_cell_length_a   6.44089658
_cell_length_b   6.43994830
_cell_length_c   7.48501900
_cell_angle_alpha   90.00000000
_cell_angle_beta   90.00000000
_cell_angle_gamma   109.52336902
_symmetry_Int_Tables_number   1
_chemical_formula_structural   Pr2Er3Tm(IrO7)2
_chemical_formula_sum   'Pr2 Er3 Tm1 Ir2 O14'
_cell_volume   292.62093806
_cell_formula_units_Z   1
loop_
 _symmetry_equiv_pos_site_id
 _symmetry_equiv_pos_as_xyz
  1  'x, y, z'
loop_
 _atom_site_type_symbol
 _atom_site_label
 _atom_site_symmetry_multiplicity
 _atom_site_fract_x
 _atom_site_fract_y
 _atom_site_fract_z
 _atom_site_occupancy
  Pr  Pr0  1  0.000284  0.000196  0.000306  1
  Pr  Pr1  1  0.000284  0.000196  0.499694  1
  Er  Er2  1  0.486288  0.939655  0.750000  1
  Er  Er3  1  0.513488  0.060013  0.250000  1
  Er  Er4  1  0.940244  0.486230  0.750000  1
  Tm  Tm5  1  0.058748  0.513081  0.250000  1
  Ir  Ir6  1  0.500310  0.500240  0.000138  1
  Ir  Ir7  1  0.500310  0.500240  0.499862  1
  O  O8  1  0.591776  0.591862  0.750000  1
  O  O9  1  0.406148  0.407498  0.250000  1
  O  O10  1  0.838357  0.124188  0.750000  1
  O  O11  1  0.161800  0.873743  0.250000  1
  O  O12  1  0.124322  0.838499  0.750000  1
  O  O13  1  0.876008  0.162977  0.250000  1
  O  O14  1  0.439859  0.178994  0.966231  1
  O  O15  1  0.560644  0.821350  0.466055  1
  O  O16  1  0.178793  0.440465  0.967421  1
  O  O17  1  0.821521  0.559883  0.465422  1
  O  O18  1  0.439859  0.178994  0.533769  1
  O  O19  1  0.560644  0.821350  0.033945  1
  O  O20  1  0.821521  0.559883  0.034578  1
  O  O21  1  0.178793  0.440465  0.532579  1
