# generated using pymatgen
data_Ho3Tm3(ThSn2)4
_symmetry_space_group_name_H-M   'P 1'
_cell_length_a   8.09902600
_cell_length_b   8.18543300
_cell_length_c   15.47000300
_cell_angle_alpha   89.99791261
_cell_angle_beta   90.00000000
_cell_angle_gamma   90.00000000
_symmetry_Int_Tables_number   1
_chemical_formula_structural   Ho3Tm3(ThSn2)4
_chemical_formula_sum   'Ho6 Tm6 Th8 Sn16'
_cell_volume   1025.56891517
_cell_formula_units_Z   2
loop_
 _symmetry_equiv_pos_site_id
 _symmetry_equiv_pos_as_xyz
  1  'x, y, z'
loop_
 _atom_site_type_symbol
 _atom_site_label
 _atom_site_symmetry_multiplicity
 _atom_site_fract_x
 _atom_site_fract_y
 _atom_site_fract_z
 _atom_site_occupancy
  Ho  Ho0  1  0.362115  0.837368  0.875889  1
  Ho  Ho1  1  0.862115  0.662632  0.624111  1
  Ho  Ho2  1  0.637953  0.162653  0.375919  1
  Ho  Ho3  1  0.137953  0.337347  0.124081  1
  Ho  Ho4  1  0.637932  0.162608  0.124013  1
  Ho  Ho5  1  0.137932  0.337392  0.375987  1
  Tm  Tm6  1  0.362027  0.837392  0.624194  1
  Tm  Tm7  1  0.862027  0.662608  0.875806  1
  Tm  Tm8  1  0.191691  0.498518  0.750004  1
  Tm  Tm9  1  0.691691  0.001482  0.749996  1
  Tm  Tm10  1  0.808243  0.501697  0.249990  1
  Tm  Tm11  1  0.308243  0.998303  0.250010  1
  Th  Th12  1  0.519412  0.321171  0.903855  1
  Th  Th13  1  0.019412  0.178829  0.596145  1
  Th  Th14  1  0.480554  0.678939  0.404024  1
  Th  Th15  1  0.980554  0.821061  0.095976  1
  Th  Th16  1  0.480587  0.678890  0.096106  1
  Th  Th17  1  0.980587  0.821110  0.403894  1
  Th  Th18  1  0.519439  0.321123  0.596137  1
  Th  Th19  1  0.019439  0.178877  0.903863  1
  Sn  Sn20  1  0.298745  0.040042  0.042555  1
  Sn  Sn21  1  0.798745  0.459958  0.457445  1
  Sn  Sn22  1  0.700775  0.959776  0.542651  1
  Sn  Sn23  1  0.200775  0.540224  0.957349  1
  Sn  Sn24  1  0.701506  0.959502  0.957315  1
  Sn  Sn25  1  0.201506  0.540498  0.542685  1
  Sn  Sn26  1  0.298869  0.039804  0.457675  1
  Sn  Sn27  1  0.798869  0.460196  0.042325  1
  Sn  Sn28  1  0.557552  0.623697  0.749952  1
  Sn  Sn29  1  0.057552  0.876303  0.750048  1
  Sn  Sn30  1  0.442476  0.376651  0.249989  1
  Sn  Sn31  1  0.942476  0.123349  0.250011  1
  Sn  Sn32  1  0.326665  0.142946  0.749895  1
  Sn  Sn33  1  0.826665  0.357054  0.750105  1
  Sn  Sn34  1  0.673460  0.856837  0.250007  1
  Sn  Sn35  1  0.173460  0.643163  0.249993  1
