# generated using pymatgen
data_YHo3(Tm3Ir2)2
_symmetry_space_group_name_H-M   'P 1'
_cell_length_a   6.43028778
_cell_length_b   7.17485566
_cell_length_c   8.41769466
_cell_angle_alpha   96.76380305
_cell_angle_beta   112.35674975
_cell_angle_gamma   89.80709405
_symmetry_Int_Tables_number   1
_chemical_formula_structural   YHo3(Tm3Ir2)2
_chemical_formula_sum   'Y1 Ho3 Tm6 Ir4'
_cell_volume   356.30725033
_cell_formula_units_Z   1
loop_
 _symmetry_equiv_pos_site_id
 _symmetry_equiv_pos_as_xyz
  1  'x, y, z'
loop_
 _atom_site_type_symbol
 _atom_site_label
 _atom_site_symmetry_multiplicity
 _atom_site_fract_x
 _atom_site_fract_y
 _atom_site_fract_z
 _atom_site_occupancy
  Y  Y0  1  0.971103  0.920238  0.184724  1
  Ho  Ho1  1  0.787417  0.581215  0.815246  1
  Ho  Ho2  1  0.028182  0.081298  0.815209  1
  Ho  Ho3  1  0.212534  0.418384  0.184534  1
  Tm  Tm4  1  0.651310  0.816984  0.440599  1
  Tm  Tm5  1  0.211484  0.682203  0.559385  1
  Tm  Tm6  1  0.348744  0.183189  0.559742  1
  Tm  Tm7  1  0.788660  0.317733  0.441023  1
  Tm  Tm8  1  0.427596  0.749818  0.999983  1
  Tm  Tm9  1  0.571937  0.250125  0.999715  1
  Ir  Ir10  1  0.822918  0.571723  0.220430  1
  Ir  Ir11  1  0.602723  0.926317  0.779460  1
  Ir  Ir12  1  0.176190  0.426497  0.779758  1
  Ir  Ir13  1  0.399203  0.074276  0.220194  1
