# generated using pymatgen
data_Cs4Mn3NiS8
_symmetry_space_group_name_H-M   'P 1'
_cell_length_a   5.28647345
_cell_length_b   7.29183044
_cell_length_c   12.44076354
_cell_angle_alpha   88.73391132
_cell_angle_beta   83.70167356
_cell_angle_gamma   79.71593814
_symmetry_Int_Tables_number   1
_chemical_formula_structural   Cs4Mn3NiS8
_chemical_formula_sum   'Cs4 Mn3 Ni1 S8'
_cell_volume   469.01338899
_cell_formula_units_Z   1
loop_
 _symmetry_equiv_pos_site_id
 _symmetry_equiv_pos_as_xyz
  1  'x, y, z'
loop_
 _atom_site_type_symbol
 _atom_site_label
 _atom_site_symmetry_multiplicity
 _atom_site_fract_x
 _atom_site_fract_y
 _atom_site_fract_z
 _atom_site_occupancy
  Cs  Cs0  1  0.069067  0.029210  0.680368  1
  Cs  Cs1  1  0.578051  0.527565  0.171639  1
  Cs  Cs2  1  0.428170  0.470762  0.827616  1
  Cs  Cs3  1  0.925242  0.971101  0.319915  1
  Mn  Mn4  1  0.249860  0.499688  0.499817  1
  Mn  Mn5  1  0.749888  0.500882  0.500214  1
  Mn  Mn6  1  0.250083  0.000685  0.000249  1
  Ni  Ni7  1  0.749893  0.999431  0.999941  1
  S  S8  1  0.951560  0.559769  0.635912  1
  S  S9  1  0.440954  0.061591  0.135970  1
  S  S10  1  0.961415  0.233432  0.961609  1
  S  S11  1  0.450795  0.733557  0.462783  1
  S  S12  1  0.538778  0.937773  0.864272  1
  S  S13  1  0.048628  0.441034  0.364125  1
  S  S14  1  0.548615  0.267039  0.537291  1
  S  S15  1  0.058997  0.766479  0.038279  1
