# generated using pymatgen
data_BePPd6
_symmetry_space_group_name_H-M   'P 1'
_cell_length_a   5.10434100
_cell_length_b   5.85205300
_cell_length_c   7.59211800
_cell_angle_alpha   90.00000000
_cell_angle_beta   90.00000000
_cell_angle_gamma   90.00000000
_symmetry_Int_Tables_number   1
_chemical_formula_structural   BePPd6
_chemical_formula_sum   'Be2 P2 Pd12'
_cell_volume   226.78320064
_cell_formula_units_Z   2
loop_
 _symmetry_equiv_pos_site_id
 _symmetry_equiv_pos_as_xyz
  1  'x, y, z'
loop_
 _atom_site_type_symbol
 _atom_site_label
 _atom_site_symmetry_multiplicity
 _atom_site_fract_x
 _atom_site_fract_y
 _atom_site_fract_z
 _atom_site_occupancy
  Be  Be0  1  0.446981  0.886098  0.250000  1
  Be  Be1  1  0.946981  0.613902  0.750000  1
  P  P2  1  0.050894  0.384620  0.250000  1
  P  P3  1  0.550894  0.115380  0.750000  1
  Pd  Pd4  1  0.874877  0.015026  0.250000  1
  Pd  Pd5  1  0.374877  0.484974  0.750000  1
  Pd  Pd6  1  0.624498  0.523718  0.250000  1
  Pd  Pd7  1  0.124498  0.976282  0.750000  1
  Pd  Pd8  1  0.337608  0.177793  0.061374  1
  Pd  Pd9  1  0.837608  0.322207  0.938626  1
  Pd  Pd10  1  0.163767  0.682125  0.440391  1
  Pd  Pd11  1  0.663767  0.817875  0.559609  1
  Pd  Pd12  1  0.663767  0.817875  0.940391  1
  Pd  Pd13  1  0.163767  0.682125  0.059609  1
  Pd  Pd14  1  0.837608  0.322207  0.561374  1
  Pd  Pd15  1  0.337608  0.177793  0.438626  1
