# generated using pymatgen
data_Pa2Co2Tc
_symmetry_space_group_name_H-M   'P 1'
_cell_length_a   5.66364500
_cell_length_b   7.40716900
_cell_length_c   8.42940800
_cell_angle_alpha   90.00000000
_cell_angle_beta   90.00000000
_cell_angle_gamma   90.00000000
_symmetry_Int_Tables_number   1
_chemical_formula_structural   Pa2Co2Tc
_chemical_formula_sum   'Pa8 Co8 Tc4'
_cell_volume   353.62694757
_cell_formula_units_Z   4
loop_
 _symmetry_equiv_pos_site_id
 _symmetry_equiv_pos_as_xyz
  1  'x, y, z'
loop_
 _atom_site_type_symbol
 _atom_site_label
 _atom_site_symmetry_multiplicity
 _atom_site_fract_x
 _atom_site_fract_y
 _atom_site_fract_z
 _atom_site_occupancy
  Pa  Pa0  1  0.751861  0.907303  0.854471  1
  Pa  Pa1  1  0.748139  0.407303  0.645529  1
  Pa  Pa2  1  0.251861  0.092697  0.145529  1
  Pa  Pa3  1  0.248139  0.592697  0.354471  1
  Pa  Pa4  1  0.752643  0.930178  0.400106  1
  Pa  Pa5  1  0.747357  0.430178  0.099894  1
  Pa  Pa6  1  0.252643  0.069822  0.599894  1
  Pa  Pa7  1  0.247357  0.569822  0.900106  1
  Co  Co8  1  0.751634  0.579739  0.359838  1
  Co  Co9  1  0.748366  0.079739  0.140162  1
  Co  Co10  1  0.251634  0.420261  0.640162  1
  Co  Co11  1  0.248366  0.920261  0.859838  1
  Co  Co12  1  0.005976  0.739493  0.617416  1
  Co  Co13  1  0.494024  0.239493  0.882584  1
  Co  Co14  1  0.505976  0.260507  0.382584  1
  Co  Co15  1  0.994024  0.760507  0.117416  1
  Tc  Tc16  1  0.004451  0.254601  0.388694  1
  Tc  Tc17  1  0.495549  0.754601  0.111306  1
  Tc  Tc18  1  0.504451  0.745399  0.611306  1
  Tc  Tc19  1  0.995549  0.245399  0.888694  1
