# generated using pymatgen
data_Sm3Zn3Cu2Ru
_symmetry_space_group_name_H-M   'P 1'
_cell_length_a   7.12389000
_cell_length_b   7.12388888
_cell_length_c   4.05566200
_cell_angle_alpha   90.00000000
_cell_angle_beta   90.00000000
_cell_angle_gamma   119.99999591
_symmetry_Int_Tables_number   1
_chemical_formula_structural   Sm3Zn3Cu2Ru
_chemical_formula_sum   'Sm3 Zn3 Cu2 Ru1'
_cell_volume   178.24885339
_cell_formula_units_Z   1
loop_
 _symmetry_equiv_pos_site_id
 _symmetry_equiv_pos_as_xyz
  1  'x, y, z'
loop_
 _atom_site_type_symbol
 _atom_site_label
 _atom_site_symmetry_multiplicity
 _atom_site_fract_x
 _atom_site_fract_y
 _atom_site_fract_z
 _atom_site_occupancy
  Sm  Sm0  1  0.582620  0.987982  0.000000  1
  Sm  Sm1  1  0.012018  0.594638  0.000000  1
  Sm  Sm2  1  0.405362  0.417380  0.000000  1
  Zn  Zn3  1  0.236836  0.998904  0.500000  1
  Zn  Zn4  1  0.001096  0.237932  0.500000  1
  Zn  Zn5  1  0.762068  0.763164  0.500000  1
  Cu  Cu6  1  0.666667  0.333333  0.500000  1
  Cu  Cu7  1  0.000000  0.000000  0.000000  1
  Ru  Ru8  1  0.333333  0.666667  0.500000  1
