# generated using pymatgen
data_Ho4ErRu3
_symmetry_space_group_name_H-M   'P 1'
_cell_length_a   10.75377200
_cell_length_b   10.75377200
_cell_length_c   6.34358500
_cell_angle_alpha   90.00000000
_cell_angle_beta   90.00000000
_cell_angle_gamma   90.00000000
_symmetry_Int_Tables_number   1
_chemical_formula_structural   Ho4ErRu3
_chemical_formula_sum   'Ho16 Er4 Ru12'
_cell_volume   733.59508388
_cell_formula_units_Z   4
loop_
 _symmetry_equiv_pos_site_id
 _symmetry_equiv_pos_as_xyz
  1  'x, y, z'
loop_
 _atom_site_type_symbol
 _atom_site_label
 _atom_site_symmetry_multiplicity
 _atom_site_fract_x
 _atom_site_fract_y
 _atom_site_fract_z
 _atom_site_occupancy
  Ho  Ho0  1  0.291647  0.086838  0.376565  1
  Ho  Ho1  1  0.291647  0.913162  0.876565  1
  Ho  Ho2  1  0.708353  0.086838  0.876565  1
  Ho  Ho3  1  0.708353  0.913162  0.376565  1
  Ho  Ho4  1  0.586838  0.791647  0.876565  1
  Ho  Ho5  1  0.586838  0.208353  0.376565  1
  Ho  Ho6  1  0.413162  0.791647  0.376565  1
  Ho  Ho7  1  0.413162  0.208353  0.876565  1
  Ho  Ho8  1  0.208353  0.413162  0.623435  1
  Ho  Ho9  1  0.208353  0.586838  0.123435  1
  Ho  Ho10  1  0.791647  0.413162  0.123435  1
  Ho  Ho11  1  0.791647  0.586838  0.623435  1
  Ho  Ho12  1  0.913162  0.708353  0.123435  1
  Ho  Ho13  1  0.913162  0.291647  0.623435  1
  Ho  Ho14  1  0.086838  0.708353  0.623435  1
  Ho  Ho15  1  0.086838  0.291647  0.123435  1
  Er  Er16  1  0.000000  0.000000  0.500000  1
  Er  Er17  1  0.000000  0.000000  0.000000  1
  Er  Er18  1  0.500000  0.500000  0.000000  1
  Er  Er19  1  0.500000  0.500000  0.500000  1
  Ru  Ru20  1  0.847115  0.152885  0.250000  1
  Ru  Ru21  1  0.847115  0.847115  0.750000  1
  Ru  Ru22  1  0.152885  0.152885  0.750000  1
  Ru  Ru23  1  0.152885  0.847115  0.250000  1
  Ru  Ru24  1  0.652885  0.347115  0.750000  1
  Ru  Ru25  1  0.652885  0.652885  0.250000  1
  Ru  Ru26  1  0.347115  0.347115  0.250000  1
  Ru  Ru27  1  0.347115  0.652885  0.750000  1
  Ru  Ru28  1  0.500000  0.000000  0.123936  1
  Ru  Ru29  1  0.500000  0.000000  0.623936  1
  Ru  Ru30  1  0.000000  0.500000  0.876064  1
  Ru  Ru31  1  0.000000  0.500000  0.376064  1
