# generated using pymatgen
data_Rb3(CO3)2
_symmetry_space_group_name_H-M   'P 1'
_cell_length_a   7.94691112
_cell_length_b   7.94691112
_cell_length_c   7.94685911
_cell_angle_alpha   43.44024022
_cell_angle_beta   43.44023934
_cell_angle_gamma   43.44066716
_symmetry_Int_Tables_number   1
_chemical_formula_structural   Rb3(CO3)2
_chemical_formula_sum   'Rb3 C2 O6'
_cell_volume   215.26625890
_cell_formula_units_Z   1
loop_
 _symmetry_equiv_pos_site_id
 _symmetry_equiv_pos_as_xyz
  1  'x, y, z'
loop_
 _atom_site_type_symbol
 _atom_site_label
 _atom_site_symmetry_multiplicity
 _atom_site_fract_x
 _atom_site_fract_y
 _atom_site_fract_z
 _atom_site_occupancy
  Rb  Rb0  1  0.203056  0.203056  0.203060  1
  Rb  Rb1  1  0.796944  0.796944  0.796940  1
  Rb  Rb2  1  0.000000  0.000000  0.000000  1
  C  C3  1  0.425444  0.425444  0.425442  1
  C  C4  1  0.574556  0.574556  0.574558  1
  O  O5  1  0.679433  0.298336  0.298335  1
  O  O6  1  0.298336  0.679433  0.298335  1
  O  O7  1  0.701664  0.701664  0.320571  1
  O  O8  1  0.298336  0.298336  0.679429  1
  O  O9  1  0.701664  0.320567  0.701665  1
  O  O10  1  0.320567  0.701664  0.701665  1
