# generated using pymatgen
data_Er8Tm4AlZnCo4
_symmetry_space_group_name_H-M   'P 1'
_cell_length_a   8.20736533
_cell_length_b   8.20734708
_cell_length_c   8.20736317
_cell_angle_alpha   111.65803058
_cell_angle_beta   110.27910932
_cell_angle_gamma   106.51950135
_symmetry_Int_Tables_number   1
_chemical_formula_structural   Er8Tm4AlZnCo4
_chemical_formula_sum   'Er8 Tm4 Al1 Zn1 Co4'
_cell_volume   424.67988588
_cell_formula_units_Z   1
loop_
 _symmetry_equiv_pos_site_id
 _symmetry_equiv_pos_as_xyz
  1  'x, y, z'
loop_
 _atom_site_type_symbol
 _atom_site_label
 _atom_site_symmetry_multiplicity
 _atom_site_fract_x
 _atom_site_fract_y
 _atom_site_fract_z
 _atom_site_occupancy
  Er  Er0  1  0.429109  0.226352  0.202753  1
  Er  Er1  1  0.570891  0.773648  0.797247  1
  Er  Er2  1  0.023599  0.226352  0.797243  1
  Er  Er3  1  0.976401  0.773648  0.202757  1
  Er  Er4  1  0.186341  0.287833  0.474177  1
  Er  Er5  1  0.813659  0.712167  0.525823  1
  Er  Er6  1  0.186345  0.712167  0.898508  1
  Er  Er7  1  0.813655  0.287833  0.101492  1
  Tm  Tm8  1  0.316709  0.618625  0.301914  1
  Tm  Tm9  1  0.683291  0.381376  0.698086  1
  Tm  Tm10  1  0.316712  0.014796  0.698085  1
  Tm  Tm11  1  0.683288  0.985204  0.301915  1
  Al  Al12  1  0.500000  0.500000  0.000000  1
  Zn  Zn13  1  0.000000  0.000000  0.000000  1
  Co  Co14  1  0.114314  0.614315  0.500001  1
  Co  Co15  1  0.885687  0.385686  0.499999  1
  Co  Co16  1  0.374746  0.000000  0.374746  1
  Co  Co17  1  0.625254  0.000000  0.625254  1
