# generated using pymatgen
data_La3Nd5(CdCo)2
_symmetry_space_group_name_H-M   'P 1'
_cell_length_a   9.79306267
_cell_length_b   9.92961070
_cell_length_c   9.92734071
_cell_angle_alpha   59.43450223
_cell_angle_beta   60.44913763
_cell_angle_gamma   60.45594242
_symmetry_Int_Tables_number   1
_chemical_formula_structural   La3Nd5(CdCo)2
_chemical_formula_sum   'La6 Nd10 Cd4 Co4'
_cell_volume   684.21176950
_cell_formula_units_Z   2
loop_
 _symmetry_equiv_pos_site_id
 _symmetry_equiv_pos_as_xyz
  1  'x, y, z'
loop_
 _atom_site_type_symbol
 _atom_site_label
 _atom_site_symmetry_multiplicity
 _atom_site_fract_x
 _atom_site_fract_y
 _atom_site_fract_z
 _atom_site_occupancy
  La  La0  1  0.343386  0.346231  0.345881  1
  La  La1  1  0.349935  0.340476  0.961197  1
  La  La2  1  0.350085  0.960967  0.340282  1
  La  La3  1  0.964901  0.348095  0.347882  1
  La  La4  1  0.813363  0.186188  0.186130  1
  La  La5  1  0.184051  0.813892  0.814436  1
  Nd  Nd6  1  0.188175  0.810108  0.190387  1
  Nd  Nd7  1  0.806997  0.190538  0.809935  1
  Nd  Nd8  1  0.188110  0.190486  0.810420  1
  Nd  Nd9  1  0.807378  0.809732  0.190335  1
  Nd  Nd10  1  0.935495  0.567251  0.567159  1
  Nd  Nd11  1  0.561749  0.934447  0.934395  1
  Nd  Nd12  1  0.558188  0.940165  0.562317  1
  Nd  Nd13  1  0.938342  0.561041  0.940702  1
  Nd  Nd14  1  0.557952  0.562324  0.940288  1
  Nd  Nd15  1  0.938126  0.940598  0.561120  1
  Cd  Cd16  1  0.581753  0.578919  0.578767  1
  Cd  Cd17  1  0.579907  0.581159  0.259646  1
  Cd  Cd18  1  0.579996  0.259426  0.581233  1
  Cd  Cd19  1  0.260410  0.578939  0.578866  1
  Co  Co20  1  0.133684  0.144444  0.144555  1
  Co  Co21  1  0.148961  0.129372  0.578806  1
  Co  Co22  1  0.149150  0.578928  0.128946  1
  Co  Co23  1  0.579905  0.146273  0.146313  1
