# generated using pymatgen
data_MnBe3AlSi
_symmetry_space_group_name_H-M   'P 1'
_cell_length_a   4.30892481
_cell_length_b   4.30892549
_cell_length_c   4.43292733
_cell_angle_alpha   60.92109439
_cell_angle_beta   60.92109633
_cell_angle_gamma   60.00000356
_symmetry_Int_Tables_number   1
_chemical_formula_structural   MnBe3AlSi
_chemical_formula_sum   'Mn1 Be3 Al1 Si1'
_cell_volume   58.99587699
_cell_formula_units_Z   1
loop_
 _symmetry_equiv_pos_site_id
 _symmetry_equiv_pos_as_xyz
  1  'x, y, z'
loop_
 _atom_site_type_symbol
 _atom_site_label
 _atom_site_symmetry_multiplicity
 _atom_site_fract_x
 _atom_site_fract_y
 _atom_site_fract_z
 _atom_site_occupancy
  Mn  Mn0  1  0.000730  0.000730  0.997811  1
  Be  Be1  1  0.625138  0.126139  0.623586  1
  Be  Be2  1  0.126139  0.625138  0.623586  1
  Be  Be3  1  0.625138  0.625138  0.623586  1
  Al  Al4  1  0.244982  0.244982  0.265055  1
  Si  Si5  1  0.627875  0.627875  0.116376  1
