# generated using pymatgen
data_CsLaSnSe4
_symmetry_space_group_name_H-M   'P 1'
_cell_length_a   7.22408235
_cell_length_b   7.37274500
_cell_length_c   10.00513389
_cell_angle_alpha   89.99959161
_cell_angle_beta   107.36573699
_cell_angle_gamma   90.00217312
_symmetry_Int_Tables_number   1
_chemical_formula_structural   CsLaSnSe4
_chemical_formula_sum   'Cs2 La2 Sn2 Se8'
_cell_volume   508.59709485
_cell_formula_units_Z   2
loop_
 _symmetry_equiv_pos_site_id
 _symmetry_equiv_pos_as_xyz
  1  'x, y, z'
loop_
 _atom_site_type_symbol
 _atom_site_label
 _atom_site_symmetry_multiplicity
 _atom_site_fract_x
 _atom_site_fract_y
 _atom_site_fract_z
 _atom_site_occupancy
  Cs  Cs0  1  0.263949  0.011553  0.064694  1
  Cs  Cs1  1  0.736068  0.511579  0.935313  1
  La  La2  1  0.773263  0.488041  0.449602  1
  La  La3  1  0.226705  0.988038  0.550393  1
  Sn  Sn4  1  0.226422  0.521645  0.331025  1
  Sn  Sn5  1  0.773594  0.021637  0.668979  1
  Se  Se6  1  0.439536  0.522057  0.171920  1
  Se  Se7  1  0.965106  0.769258  0.290625  1
  Se  Se8  1  0.008187  0.241828  0.306218  1
  Se  Se9  1  0.553030  0.106442  0.425899  1
  Se  Se10  1  0.446968  0.606450  0.574106  1
  Se  Se11  1  0.991804  0.741822  0.693789  1
  Se  Se12  1  0.034901  0.269267  0.709364  1
  Se  Se13  1  0.560466  0.022061  0.828074  1
