# generated using pymatgen
data_Hf3Zr6Nb(ReO)3
_symmetry_space_group_name_H-M   'P 1'
_cell_length_a   8.64418700
_cell_length_b   8.64418715
_cell_length_c   8.51284700
_cell_angle_alpha   90.00000000
_cell_angle_beta   90.00000000
_cell_angle_gamma   119.99999560
_symmetry_Int_Tables_number   1
_chemical_formula_structural   Hf3Zr6Nb(ReO)3
_chemical_formula_sum   'Hf6 Zr12 Nb2 Re6 O6'
_cell_volume   550.87592575
_cell_formula_units_Z   2
loop_
 _symmetry_equiv_pos_site_id
 _symmetry_equiv_pos_as_xyz
  1  'x, y, z'
loop_
 _atom_site_type_symbol
 _atom_site_label
 _atom_site_symmetry_multiplicity
 _atom_site_fract_x
 _atom_site_fract_y
 _atom_site_fract_z
 _atom_site_occupancy
  Hf  Hf0  1  0.453476  0.906951  0.250000  1
  Hf  Hf1  1  0.546524  0.093049  0.750000  1
  Hf  Hf2  1  0.093049  0.546524  0.250000  1
  Hf  Hf3  1  0.906951  0.453476  0.750000  1
  Hf  Hf4  1  0.453476  0.546524  0.250000  1
  Hf  Hf5  1  0.546524  0.453476  0.750000  1
  Zr  Zr6  1  0.204064  0.408127  0.563719  1
  Zr  Zr7  1  0.795936  0.591873  0.436281  1
  Zr  Zr8  1  0.591873  0.795936  0.563719  1
  Zr  Zr9  1  0.795936  0.591873  0.063719  1
  Zr  Zr10  1  0.408127  0.204064  0.436281  1
  Zr  Zr11  1  0.204064  0.408127  0.936281  1
  Zr  Zr12  1  0.204064  0.795936  0.563719  1
  Zr  Zr13  1  0.408127  0.204064  0.063719  1
  Zr  Zr14  1  0.795936  0.204064  0.436281  1
  Zr  Zr15  1  0.591873  0.795936  0.936281  1
  Zr  Zr16  1  0.795936  0.204064  0.063719  1
  Zr  Zr17  1  0.204064  0.795936  0.936281  1
  Nb  Nb18  1  0.000000  0.000000  0.000000  1
  Nb  Nb19  1  0.000000  0.000000  0.500000  1
  Re  Re20  1  0.111644  0.223288  0.250000  1
  Re  Re21  1  0.888356  0.776712  0.750000  1
  Re  Re22  1  0.776712  0.888356  0.250000  1
  Re  Re23  1  0.223288  0.111644  0.750000  1
  Re  Re24  1  0.111644  0.888356  0.250000  1
  Re  Re25  1  0.888356  0.111644  0.750000  1
  O  O26  1  0.500000  0.000000  0.000000  1
  O  O27  1  0.000000  0.500000  0.000000  1
  O  O28  1  0.500000  0.000000  0.500000  1
  O  O29  1  0.500000  0.500000  0.000000  1
  O  O30  1  0.000000  0.500000  0.500000  1
  O  O31  1  0.500000  0.500000  0.500000  1
