# generated using pymatgen
data_LiZn3(WO3)8
_symmetry_space_group_name_H-M   'P 1'
_cell_length_a   4.70420005
_cell_length_b   10.77834622
_cell_length_c   9.40899700
_cell_angle_alpha   64.12102310
_cell_angle_beta   89.87583997
_cell_angle_gamma   89.94582896
_symmetry_Int_Tables_number   1
_chemical_formula_structural   LiZn3(WO3)8
_chemical_formula_sum   'Li1 Zn3 W8 O24'
_cell_volume   429.22659825
_cell_formula_units_Z   1
loop_
 _symmetry_equiv_pos_site_id
 _symmetry_equiv_pos_as_xyz
  1  'x, y, z'
loop_
 _atom_site_type_symbol
 _atom_site_label
 _atom_site_symmetry_multiplicity
 _atom_site_fract_x
 _atom_site_fract_y
 _atom_site_fract_z
 _atom_site_occupancy
  Li  Li0  1  0.505244  0.833566  0.338968  1
  Zn  Zn1  1  0.999021  0.329265  0.334810  1
  Zn  Zn2  1  0.500985  0.833388  0.830146  1
  Zn  Zn3  1  0.000663  0.331622  0.834622  1
  W  W4  1  0.000934  0.995547  0.500404  1
  W  W5  1  0.996906  0.995808  0.002408  1
  W  W6  1  0.001406  0.669323  0.167651  1
  W  W7  1  0.001207  0.672422  0.662457  1
  W  W8  1  0.499027  0.168450  0.166410  1
  W  W9  1  0.499897  0.169409  0.664115  1
  W  W10  1  0.495468  0.497786  0.998323  1
  W  W11  1  0.504969  0.498580  0.504040  1
  O  O12  1  0.190075  0.833489  0.680168  1
  O  O13  1  0.184860  0.824511  0.178663  1
  O  O14  1  0.309761  0.334356  0.180274  1
  O  O15  1  0.307862  0.335003  0.676330  1
  O  O16  1  0.692235  0.333938  0.989237  1
  O  O17  1  0.690066  0.335391  0.484878  1
  O  O18  1  0.809295  0.825716  0.991958  1
  O  O19  1  0.811091  0.833488  0.489698  1
  O  O20  1  0.211185  0.156015  0.024641  1
  O  O21  1  0.205922  0.158969  0.526595  1
  O  O22  1  0.205201  0.507268  0.852047  1
  O  O23  1  0.210962  0.520052  0.341799  1
  O  O24  1  0.288217  0.013624  0.348871  1
  O  O25  1  0.292263  0.008330  0.850408  1
  O  O26  1  0.289437  0.657081  0.024896  1
  O  O27  1  0.288659  0.652131  0.530611  1
  O  O28  1  0.705180  0.656639  0.816300  1
  O  O29  1  0.715612  0.652883  0.317956  1
  O  O30  1  0.713526  0.012518  0.137348  1
  O  O31  1  0.706803  0.009343  0.642068  1
  O  O32  1  0.793309  0.520715  0.134562  1
  O  O33  1  0.790164  0.508408  0.642476  1
  O  O34  1  0.788976  0.157835  0.317585  1
  O  O35  1  0.793617  0.157134  0.816281  1
