# generated using pymatgen
data_Tb2CeTm2Ir3
_symmetry_space_group_name_H-M   'P 1'
_cell_length_a   10.95631600
_cell_length_b   10.93988800
_cell_length_c   6.30069900
_cell_angle_alpha   90.00000000
_cell_angle_beta   90.00000000
_cell_angle_gamma   90.00000000
_symmetry_Int_Tables_number   1
_chemical_formula_structural   Tb2CeTm2Ir3
_chemical_formula_sum   'Tb8 Ce4 Tm8 Ir12'
_cell_volume   755.20726332
_cell_formula_units_Z   4
loop_
 _symmetry_equiv_pos_site_id
 _symmetry_equiv_pos_as_xyz
  1  'x, y, z'
loop_
 _atom_site_type_symbol
 _atom_site_label
 _atom_site_symmetry_multiplicity
 _atom_site_fract_x
 _atom_site_fract_y
 _atom_site_fract_z
 _atom_site_occupancy
  Tb  Tb0  1  0.290626  0.088314  0.377504  1
  Tb  Tb1  1  0.290626  0.911686  0.877504  1
  Tb  Tb2  1  0.709374  0.088314  0.877504  1
  Tb  Tb3  1  0.709374  0.911686  0.377504  1
  Tb  Tb4  1  0.588703  0.790073  0.881885  1
  Tb  Tb5  1  0.588703  0.209927  0.381885  1
  Tb  Tb6  1  0.411297  0.790073  0.381885  1
  Tb  Tb7  1  0.411297  0.209927  0.881885  1
  Ce  Ce8  1  0.206782  0.409427  0.616830  1
  Ce  Ce9  1  0.206782  0.590573  0.116830  1
  Ce  Ce10  1  0.793218  0.409427  0.116830  1
  Ce  Ce11  1  0.793218  0.590573  0.616830  1
  Tm  Tm12  1  0.913700  0.713348  0.118388  1
  Tm  Tm13  1  0.913700  0.286652  0.618388  1
  Tm  Tm14  1  0.086300  0.713348  0.618388  1
  Tm  Tm15  1  0.086300  0.286652  0.118388  1
  Tm  Tm16  1  0.000000  0.000000  0.494836  1
  Tm  Tm17  1  0.000000  0.000000  0.994836  1
  Tm  Tm18  1  0.500000  0.500000  0.007303  1
  Tm  Tm19  1  0.500000  0.500000  0.507303  1
  Ir  Ir20  1  0.850590  0.153998  0.245704  1
  Ir  Ir21  1  0.850590  0.846002  0.745704  1
  Ir  Ir22  1  0.149410  0.153998  0.745704  1
  Ir  Ir23  1  0.149410  0.846002  0.245704  1
  Ir  Ir24  1  0.656348  0.349446  0.757976  1
  Ir  Ir25  1  0.656348  0.650554  0.257976  1
  Ir  Ir26  1  0.343652  0.349446  0.257976  1
  Ir  Ir27  1  0.343652  0.650554  0.757976  1
  Ir  Ir28  1  0.500000  0.000000  0.123758  1
  Ir  Ir29  1  0.500000  0.000000  0.623758  1
  Ir  Ir30  1  0.000000  0.500000  0.877524  1
  Ir  Ir31  1  0.000000  0.500000  0.377524  1
