# generated using pymatgen
data_Tb3RhI3
_symmetry_space_group_name_H-M   'P 1'
_cell_length_a   4.26469200
_cell_length_b   8.87849836
_cell_length_c   12.44372792
_cell_angle_alpha   86.34658023
_cell_angle_beta   90.00000000
_cell_angle_gamma   90.00000000
_symmetry_Int_Tables_number   1
_chemical_formula_structural   Tb3RhI3
_chemical_formula_sum   'Tb6 Rh2 I6'
_cell_volume   470.21253752
_cell_formula_units_Z   2
loop_
 _symmetry_equiv_pos_site_id
 _symmetry_equiv_pos_as_xyz
  1  'x, y, z'
loop_
 _atom_site_type_symbol
 _atom_site_label
 _atom_site_symmetry_multiplicity
 _atom_site_fract_x
 _atom_site_fract_y
 _atom_site_fract_z
 _atom_site_occupancy
  Tb  Tb0  1  0.750000  0.135150  0.127191  1
  Tb  Tb1  1  0.250000  0.864850  0.872809  1
  Tb  Tb2  1  0.750000  0.098395  0.682519  1
  Tb  Tb3  1  0.250000  0.901605  0.317481  1
  Tb  Tb4  1  0.250000  0.259309  0.897148  1
  Tb  Tb5  1  0.750000  0.740691  0.102852  1
  Rh  Rh6  1  0.750000  0.055407  0.907055  1
  Rh  Rh7  1  0.250000  0.944593  0.092945  1
  I  I8  1  0.250000  0.353730  0.637338  1
  I  I9  1  0.750000  0.646270  0.362662  1
  I  I10  1  0.750000  0.141681  0.392300  1
  I  I11  1  0.250000  0.858319  0.607700  1
  I  I12  1  0.250000  0.424937  0.132912  1
  I  I13  1  0.750000  0.575063  0.867088  1
