# generated using pymatgen
data_Nb8GaTe8P
_symmetry_space_group_name_H-M   'P 1'
_cell_length_a   4.87295200
_cell_length_b   11.28589700
_cell_length_c   19.95126200
_cell_angle_alpha   90.00000000
_cell_angle_beta   90.00000000
_cell_angle_gamma   90.00000000
_symmetry_Int_Tables_number   1
_chemical_formula_structural   Nb8GaTe8P
_chemical_formula_sum   'Nb16 Ga2 Te16 P2'
_cell_volume   1097.23230993
_cell_formula_units_Z   2
loop_
 _symmetry_equiv_pos_site_id
 _symmetry_equiv_pos_as_xyz
  1  'x, y, z'
loop_
 _atom_site_type_symbol
 _atom_site_label
 _atom_site_symmetry_multiplicity
 _atom_site_fract_x
 _atom_site_fract_y
 _atom_site_fract_z
 _atom_site_occupancy
  Nb  Nb0  1  0.503119  0.562804  0.387961  1
  Nb  Nb1  1  0.503119  0.437196  0.612039  1
  Nb  Nb2  1  0.496881  0.062804  0.112039  1
  Nb  Nb3  1  0.496881  0.937196  0.887961  1
  Nb  Nb4  1  0.503110  0.698143  0.535282  1
  Nb  Nb5  1  0.503110  0.301857  0.464718  1
  Nb  Nb6  1  0.496890  0.198143  0.964718  1
  Nb  Nb7  1  0.496890  0.801857  0.035282  1
  Nb  Nb8  1  0.997719  0.684482  0.445724  1
  Nb  Nb9  1  0.997719  0.315518  0.554276  1
  Nb  Nb10  1  0.002281  0.184482  0.054276  1
  Nb  Nb11  1  0.002281  0.815518  0.945724  1
  Nb  Nb12  1  0.997343  0.404341  0.395806  1
  Nb  Nb13  1  0.997343  0.595659  0.604194  1
  Nb  Nb14  1  0.002657  0.904341  0.104194  1
  Nb  Nb15  1  0.002657  0.095659  0.895806  1
  Ga  Ga16  1  0.250056  0.500000  0.500000  1
  Ga  Ga17  1  0.749944  0.000000  0.000000  1
  Te  Te18  1  0.005678  0.835997  0.560080  1
  Te  Te19  1  0.005678  0.164003  0.439920  1
  Te  Te20  1  0.994322  0.335997  0.939920  1
  Te  Te21  1  0.994322  0.664003  0.060080  1
  Te  Te22  1  0.494928  0.337524  0.323347  1
  Te  Te23  1  0.494928  0.662476  0.676653  1
  Te  Te24  1  0.505072  0.837524  0.176653  1
  Te  Te25  1  0.505072  0.162476  0.823347  1
  Te  Te26  1  0.495249  0.812982  0.407999  1
  Te  Te27  1  0.495249  0.187018  0.592001  1
  Te  Te28  1  0.504751  0.312982  0.092001  1
  Te  Te29  1  0.504751  0.687018  0.907999  1
  Te  Te30  1  0.005669  0.606251  0.309899  1
  Te  Te31  1  0.005669  0.393749  0.690101  1
  Te  Te32  1  0.994331  0.106251  0.190101  1
  Te  Te33  1  0.994331  0.893749  0.809899  1
  P  P34  1  0.750346  0.500000  0.500000  1
  P  P35  1  0.249654  0.000000  0.000000  1
