# generated using pymatgen
data_Dy24HgTe11
_symmetry_space_group_name_H-M   'P 1'
_cell_length_a   4.07052000
_cell_length_b   11.58134717
_cell_length_c   22.18884432
_cell_angle_alpha   89.98049928
_cell_angle_beta   90.00000000
_cell_angle_gamma   90.00000000
_symmetry_Int_Tables_number   1
_chemical_formula_structural   Dy24HgTe11
_chemical_formula_sum   'Dy24 Hg1 Te11'
_cell_volume   1046.02877430
_cell_formula_units_Z   1
loop_
 _symmetry_equiv_pos_site_id
 _symmetry_equiv_pos_as_xyz
  1  'x, y, z'
loop_
 _atom_site_type_symbol
 _atom_site_label
 _atom_site_symmetry_multiplicity
 _atom_site_fract_x
 _atom_site_fract_y
 _atom_site_fract_z
 _atom_site_occupancy
  Dy  Dy0  1  0.250000  0.151121  0.391230  1
  Dy  Dy1  1  0.750000  0.848587  0.608723  1
  Dy  Dy2  1  0.750000  0.651898  0.108938  1
  Dy  Dy3  1  0.250000  0.348673  0.891751  1
  Dy  Dy4  1  0.250000  0.455752  0.340126  1
  Dy  Dy5  1  0.750000  0.543992  0.660046  1
  Dy  Dy6  1  0.750000  0.954349  0.158109  1
  Dy  Dy7  1  0.250000  0.043657  0.840773  1
  Dy  Dy8  1  0.250000  0.734165  0.232548  1
  Dy  Dy9  1  0.750000  0.265196  0.766630  1
  Dy  Dy10  1  0.750000  0.235592  0.266829  1
  Dy  Dy11  1  0.250000  0.765223  0.733224  1
  Dy  Dy12  1  0.250000  0.116065  0.034488  1
  Dy  Dy13  1  0.750000  0.883807  0.966354  1
  Dy  Dy14  1  0.750000  0.615160  0.465453  1
  Dy  Dy15  1  0.250000  0.384562  0.534372  1
  Dy  Dy16  1  0.250000  0.413708  0.147235  1
  Dy  Dy17  1  0.750000  0.585644  0.852390  1
  Dy  Dy18  1  0.750000  0.913729  0.352835  1
  Dy  Dy19  1  0.250000  0.085679  0.647016  1
  Dy  Dy20  1  0.250000  0.612697  0.983024  1
  Dy  Dy21  1  0.750000  0.387335  0.016819  1
  Dy  Dy22  1  0.750000  0.112736  0.517030  1
  Dy  Dy23  1  0.250000  0.887356  0.482985  1
  Hg  Hg24  1  0.250000  0.850052  0.070430  1
  Te  Te25  1  0.750000  0.150751  0.930496  1
  Te  Te26  1  0.750000  0.350359  0.431134  1
  Te  Te27  1  0.250000  0.649935  0.568891  1
  Te  Te28  1  0.250000  0.711234  0.372848  1
  Te  Te29  1  0.750000  0.288338  0.627276  1
  Te  Te30  1  0.750000  0.213956  0.127979  1
  Te  Te31  1  0.250000  0.787532  0.872164  1
  Te  Te32  1  0.250000  0.021292  0.260915  1
  Te  Te33  1  0.750000  0.979138  0.739087  1
  Te  Te34  1  0.750000  0.521424  0.238880  1
  Te  Te35  1  0.250000  0.479305  0.760971  1
