# generated using pymatgen
data_Gd3Tm17Rh12
_symmetry_space_group_name_H-M   'P 1'
_cell_length_a   10.84203865
_cell_length_b   10.84380257
_cell_length_c   6.32820000
_cell_angle_alpha   89.95784107
_cell_angle_beta   90.05305734
_cell_angle_gamma   90.01960470
_symmetry_Int_Tables_number   1
_chemical_formula_structural   Gd3Tm17Rh12
_chemical_formula_sum   'Gd3 Tm17 Rh12'
_cell_volume   743.99911713
_cell_formula_units_Z   1
loop_
 _symmetry_equiv_pos_site_id
 _symmetry_equiv_pos_as_xyz
  1  'x, y, z'
loop_
 _atom_site_type_symbol
 _atom_site_label
 _atom_site_symmetry_multiplicity
 _atom_site_fract_x
 _atom_site_fract_y
 _atom_site_fract_z
 _atom_site_occupancy
  Gd  Gd0  1  0.906332  0.287333  0.623013  1
  Gd  Gd1  1  0.212563  0.407909  0.621730  1
  Gd  Gd2  1  0.788351  0.593739  0.621924  1
  Tm  Tm3  1  0.090527  0.292191  0.119532  1
  Tm  Tm4  1  0.791359  0.410873  0.119527  1
  Tm  Tm5  1  0.208818  0.591723  0.119871  1
  Tm  Tm6  1  0.911223  0.710251  0.120923  1
  Tm  Tm7  1  0.411554  0.791498  0.380589  1
  Tm  Tm8  1  0.588088  0.209197  0.378913  1
  Tm  Tm9  1  0.291023  0.088037  0.378894  1
  Tm  Tm10  1  0.709038  0.911957  0.381335  1
  Tm  Tm11  1  0.413421  0.207155  0.881653  1
  Tm  Tm12  1  0.707594  0.085703  0.882934  1
  Tm  Tm13  1  0.290350  0.912036  0.880450  1
  Tm  Tm14  1  0.586023  0.792109  0.880968  1
  Tm  Tm15  1  0.091579  0.709152  0.619943  1
  Tm  Tm16  1  0.999706  0.000235  0.998126  1
  Tm  Tm17  1  0.499916  0.500244  0.995494  1
  Tm  Tm18  1  0.500508  0.500957  0.495059  1
  Tm  Tm19  1  0.001242  0.998003  0.497382  1
  Rh  Rh20  1  0.154186  0.846214  0.250531  1
  Rh  Rh21  1  0.347333  0.345425  0.246060  1
  Rh  Rh22  1  0.652967  0.654864  0.245669  1
  Rh  Rh23  1  0.845535  0.153030  0.247092  1
  Rh  Rh24  1  0.349084  0.658256  0.751875  1
  Rh  Rh25  1  0.158103  0.147019  0.754988  1
  Rh  Rh26  1  0.845759  0.849989  0.751907  1
  Rh  Rh27  1  0.647272  0.341609  0.753665  1
  Rh  Rh28  1  0.000781  0.502220  0.365970  1
  Rh  Rh29  1  0.499975  0.999378  0.132267  1
  Rh  Rh30  1  0.499306  0.999802  0.629038  1
  Rh  Rh31  1  0.000481  0.501890  0.872681  1
