# generated using pymatgen
data_Sr6TiCrRuO12
_symmetry_space_group_name_H-M   'P 1'
_cell_length_a   8.83334832
_cell_length_b   8.83334796
_cell_length_c   6.89971100
_cell_angle_alpha   67.42923345
_cell_angle_beta   67.42922740
_cell_angle_gamma   36.86036632
_symmetry_Int_Tables_number   1
_chemical_formula_structural   Sr6TiCrRuO12
_chemical_formula_sum   'Sr6 Ti1 Cr1 Ru1 O12'
_cell_volume   295.34014154
_cell_formula_units_Z   1
loop_
 _symmetry_equiv_pos_site_id
 _symmetry_equiv_pos_as_xyz
  1  'x, y, z'
loop_
 _atom_site_type_symbol
 _atom_site_label
 _atom_site_symmetry_multiplicity
 _atom_site_fract_x
 _atom_site_fract_y
 _atom_site_fract_z
 _atom_site_occupancy
  Sr  Sr0  1  0.878125  0.878125  0.711703  1
  Sr  Sr1  1  0.215732  0.215732  0.709538  1
  Sr  Sr2  1  0.549836  0.549836  0.708389  1
  Sr  Sr3  1  0.453922  0.453922  0.289813  1
  Sr  Sr4  1  0.781364  0.781364  0.293418  1
  Sr  Sr5  1  0.118519  0.118519  0.287079  1
  Ti  Ti6  1  0.329225  0.329225  0.001112  1
  Cr  Cr7  1  0.668275  0.668275  0.999836  1
  Ru  Ru8  1  0.999533  0.999533  0.999423  1
  O  O9  1  0.946465  0.946465  0.319185  1
  O  O10  1  0.282671  0.282671  0.316541  1
  O  O11  1  0.612768  0.612768  0.323002  1
  O  O12  1  0.388200  0.388200  0.683235  1
  O  O13  1  0.720854  0.720854  0.677473  1
  O  O14  1  0.052319  0.052319  0.680353  1
  O  O15  1  0.498321  0.004846  0.000088  1
  O  O16  1  0.835945  0.328496  0.999853  1
  O  O17  1  0.165970  0.668610  0.000009  1
  O  O18  1  0.004846  0.498321  0.000088  1
  O  O19  1  0.328496  0.835945  0.999853  1
  O  O20  1  0.668610  0.165970  0.000009  1
