# generated using pymatgen
data_Dy4Ga18Ir5Pt
_symmetry_space_group_name_H-M   'P 1'
_cell_length_a   7.60864578
_cell_length_b   7.60864542
_cell_length_c   9.48595757
_cell_angle_alpha   90.04964959
_cell_angle_beta   90.04964662
_cell_angle_gamma   119.90512830
_symmetry_Int_Tables_number   1
_chemical_formula_structural   Dy4Ga18Ir5Pt
_chemical_formula_sum   'Dy4 Ga18 Ir5 Pt1'
_cell_volume   476.03650588
_cell_formula_units_Z   1
loop_
 _symmetry_equiv_pos_site_id
 _symmetry_equiv_pos_as_xyz
  1  'x, y, z'
loop_
 _atom_site_type_symbol
 _atom_site_label
 _atom_site_symmetry_multiplicity
 _atom_site_fract_x
 _atom_site_fract_y
 _atom_site_fract_z
 _atom_site_occupancy
  Dy  Dy0  1  0.997007  0.669079  0.250961  1
  Dy  Dy1  1  0.002993  0.330921  0.749039  1
  Dy  Dy2  1  0.669079  0.997007  0.250961  1
  Dy  Dy3  1  0.330921  0.002993  0.749039  1
  Ga  Ga4  1  0.128993  0.128993  0.251809  1
  Ga  Ga5  1  0.871007  0.871007  0.748191  1
  Ga  Ga6  1  0.998850  0.337305  0.082359  1
  Ga  Ga7  1  0.001150  0.662695  0.917641  1
  Ga  Ga8  1  0.001264  0.665724  0.580214  1
  Ga  Ga9  1  0.334276  0.998736  0.419786  1
  Ga  Ga10  1  0.998736  0.334276  0.419786  1
  Ga  Ga11  1  0.665724  0.001264  0.580214  1
  Ga  Ga12  1  0.662695  0.001150  0.917641  1
  Ga  Ga13  1  0.337305  0.998850  0.082359  1
  Ga  Ga14  1  0.331981  0.331981  0.564773  1
  Ga  Ga15  1  0.668019  0.668019  0.435227  1
  Ga  Ga16  1  0.664373  0.664373  0.066994  1
  Ga  Ga17  1  0.335627  0.335627  0.933006  1
  Ga  Ga18  1  0.338664  0.546965  0.250342  1
  Ga  Ga19  1  0.661336  0.453035  0.749658  1
  Ga  Ga20  1  0.546965  0.338664  0.250342  1
  Ga  Ga21  1  0.453035  0.661336  0.749658  1
  Ir  Ir22  1  0.671448  0.328552  0.000000  1
  Ir  Ir23  1  0.328552  0.671448  0.000000  1
  Ir  Ir24  1  0.328501  0.671499  0.500000  1
  Ir  Ir25  1  0.671499  0.328501  0.500000  1
  Ir  Ir26  1  0.000000  0.000000  0.500000  1
  Pt  Pt27  1  0.000000  0.000000  0.000000  1
