# generated using pymatgen
data_InTc12I25
_symmetry_space_group_name_H-M   'P 1'
_cell_length_a   10.70447019
_cell_length_b   11.75379552
_cell_length_c   12.84180260
_cell_angle_alpha   84.94099587
_cell_angle_beta   73.90054199
_cell_angle_gamma   86.17506015
_symmetry_Int_Tables_number   1
_chemical_formula_structural   InTc12I25
_chemical_formula_sum   'In1 Tc12 I25'
_cell_volume   1544.81047325
_cell_formula_units_Z   1
loop_
 _symmetry_equiv_pos_site_id
 _symmetry_equiv_pos_as_xyz
  1  'x, y, z'
loop_
 _atom_site_type_symbol
 _atom_site_label
 _atom_site_symmetry_multiplicity
 _atom_site_fract_x
 _atom_site_fract_y
 _atom_site_fract_z
 _atom_site_occupancy
  In  In0  1  0.500000  0.000000  0.000000  1
  Tc  Tc1  1  0.834169  0.257166  0.135939  1
  Tc  Tc2  1  0.165831  0.742834  0.864061  1
  Tc  Tc3  1  0.771626  0.133709  0.278087  1
  Tc  Tc4  1  0.228374  0.866291  0.721913  1
  Tc  Tc5  1  0.060524  0.278239  0.189972  1
  Tc  Tc6  1  0.939476  0.721761  0.810028  1
  Tc  Tc7  1  0.850539  0.421545  0.267483  1
  Tc  Tc8  1  0.149461  0.578455  0.732517  1
  Tc  Tc9  1  0.784892  0.299204  0.411151  1
  Tc  Tc10  1  0.215108  0.700796  0.588849  1
  Tc  Tc11  1  0.996197  0.157195  0.334225  1
  Tc  Tc12  1  0.003803  0.842805  0.665775  1
  I  I13  1  0.951301  0.964712  0.261168  1
  I  I14  1  0.048699  0.035288  0.738832  1
  I  I15  1  0.975748  0.273538  0.506036  1
  I  I16  1  0.024252  0.726462  0.493964  1
  I  I17  1  0.652742  0.427469  0.176639  1
  I  I18  1  0.347258  0.572531  0.823361  1
  I  I19  1  0.088501  0.470406  0.275051  1
  I  I20  1  0.911499  0.529594  0.724949  1
  I  I21  1  0.000000  0.500000  0.000000  1
  I  I22  1  0.617129  0.974079  0.235730  1
  I  I23  1  0.382871  0.025921  0.764270  1
  I  I24  1  0.209689  0.045229  0.380745  1
  I  I25  1  0.790311  0.954771  0.619255  1
  I  I26  1  0.557835  0.222424  0.408720  1
  I  I27  1  0.442165  0.777576  0.591280  1
  I  I28  1  0.058426  0.162252  0.021791  1
  I  I29  1  0.941574  0.837748  0.978209  1
  I  I30  1  0.775213  0.641585  0.320346  1
  I  I31  1  0.224787  0.358415  0.679654  1
  I  I32  1  0.732927  0.210750  0.967664  1
  I  I33  1  0.267073  0.789250  0.032336  1
  I  I34  1  0.328320  0.261824  0.112566  1
  I  I35  1  0.671680  0.738176  0.887434  1
  I  I36  1  0.650495  0.414263  0.586541  1
  I  I37  1  0.349505  0.585737  0.413459  1
