# generated using pymatgen
data_SrY3Ir3RhO14
_symmetry_space_group_name_H-M   'P 1'
_cell_length_a   7.29372736
_cell_length_b   7.31056736
_cell_length_c   7.29372600
_cell_angle_alpha   60.07616755
_cell_angle_beta   59.99999711
_cell_angle_gamma   60.07616590
_symmetry_Int_Tables_number   1
_chemical_formula_structural   SrY3Ir3RhO14
_chemical_formula_sum   'Sr1 Y3 Ir3 Rh1 O14'
_cell_volume   275.31766213
_cell_formula_units_Z   1
loop_
 _symmetry_equiv_pos_site_id
 _symmetry_equiv_pos_as_xyz
  1  'x, y, z'
loop_
 _atom_site_type_symbol
 _atom_site_label
 _atom_site_symmetry_multiplicity
 _atom_site_fract_x
 _atom_site_fract_y
 _atom_site_fract_z
 _atom_site_occupancy
  Sr  Sr0  1  0.125000  0.625000  0.125000  1
  Y  Y1  1  0.625000  0.125000  0.125000  1
  Y  Y2  1  0.125000  0.125000  0.625000  1
  Y  Y3  1  0.125000  0.125000  0.125000  1
  Ir  Ir4  1  0.125000  0.625000  0.625000  1
  Ir  Ir5  1  0.625000  0.625000  0.125000  1
  Ir  Ir6  1  0.625000  0.625000  0.625000  1
  Rh  Rh7  1  0.625000  0.125000  0.625000  1
  O  O8  1  0.693266  0.715606  0.295564  1
  O  O9  1  0.290250  0.292655  0.708548  1
  O  O10  1  0.708548  0.292655  0.708548  1
  O  O11  1  0.295564  0.715606  0.295564  1
  O  O12  1  0.295564  0.715606  0.693266  1
  O  O13  1  0.708548  0.292655  0.290250  1
  O  O14  1  0.556734  0.534394  0.954436  1
  O  O15  1  0.959750  0.957345  0.541452  1
  O  O16  1  0.541452  0.957345  0.541452  1
  O  O17  1  0.954436  0.534394  0.954436  1
  O  O18  1  0.954436  0.534394  0.556734  1
  O  O19  1  0.541452  0.957345  0.959750  1
  O  O20  1  0.257073  0.228783  0.257073  1
  O  O21  1  0.992927  0.021217  0.992927  1
