# generated using pymatgen
data_La16Cd4PtRh3
_symmetry_space_group_name_H-M   'P 1'
_cell_length_a   10.15752211
_cell_length_b   10.16247362
_cell_length_c   10.16247300
_cell_angle_alpha   59.99999875
_cell_angle_beta   59.98387199
_cell_angle_gamma   59.98387304
_symmetry_Int_Tables_number   1
_chemical_formula_structural   La16Cd4PtRh3
_chemical_formula_sum   'La16 Cd4 Pt1 Rh3'
_cell_volume   741.59313456
_cell_formula_units_Z   1
loop_
 _symmetry_equiv_pos_site_id
 _symmetry_equiv_pos_as_xyz
  1  'x, y, z'
loop_
 _atom_site_type_symbol
 _atom_site_label
 _atom_site_symmetry_multiplicity
 _atom_site_fract_x
 _atom_site_fract_y
 _atom_site_fract_z
 _atom_site_occupancy
  La  La0  1  0.595310  0.599814  0.599814  1
  La  La1  1  0.595310  0.599814  0.205063  1
  La  La2  1  0.595310  0.205063  0.599814  1
  La  La3  1  0.208366  0.597212  0.597212  1
  La  La4  1  0.063375  0.440388  0.440388  1
  La  La5  1  0.440516  0.060328  0.060328  1
  La  La6  1  0.440516  0.060328  0.438829  1
  La  La7  1  0.063375  0.440388  0.055848  1
  La  La8  1  0.440516  0.438829  0.060328  1
  La  La9  1  0.063375  0.055848  0.440388  1
  La  La10  1  0.186467  0.812815  0.812815  1
  La  La11  1  0.811518  0.187683  0.187683  1
  La  La12  1  0.811518  0.187683  0.813116  1
  La  La13  1  0.186467  0.812815  0.187904  1
  La  La14  1  0.811518  0.813116  0.187683  1
  La  La15  1  0.186467  0.187904  0.812815  1
  Cd  Cd16  1  0.830066  0.829603  0.829603  1
  Cd  Cd17  1  0.830066  0.829603  0.510728  1
  Cd  Cd18  1  0.830066  0.510728  0.829603  1
  Cd  Cd19  1  0.510622  0.829793  0.829793  1
  Pt  Pt20  1  0.823206  0.392265  0.392265  1
  Rh  Rh21  1  0.392016  0.391641  0.391641  1
  Rh  Rh22  1  0.392016  0.391641  0.824701  1
  Rh  Rh23  1  0.392016  0.824701  0.391641  1
