# generated using pymatgen
data_La5FeIrO12
_symmetry_space_group_name_H-M   'P 1'
_cell_length_a   7.15746560
_cell_length_b   7.15746643
_cell_length_c   7.75624294
_cell_angle_alpha   74.42680708
_cell_angle_beta   74.42680899
_cell_angle_gamma   50.84783364
_symmetry_Int_Tables_number   1
_chemical_formula_structural   La5FeIrO12
_chemical_formula_sum   'La5 Fe1 Ir1 O12'
_cell_volume   294.20318690
_cell_formula_units_Z   1
loop_
 _symmetry_equiv_pos_site_id
 _symmetry_equiv_pos_as_xyz
  1  'x, y, z'
loop_
 _atom_site_type_symbol
 _atom_site_label
 _atom_site_symmetry_multiplicity
 _atom_site_fract_x
 _atom_site_fract_y
 _atom_site_fract_z
 _atom_site_occupancy
  La  La0  1  0.312274  0.303366  0.356726  1
  La  La1  1  0.696634  0.687726  0.643274  1
  La  La2  1  0.691331  0.694916  0.165340  1
  La  La3  1  0.305084  0.308669  0.834660  1
  La  La4  1  0.003856  0.996144  0.500000  1
  Fe  Fe5  1  0.759024  0.240976  0.000000  1
  Ir  Ir6  1  0.242793  0.757207  0.000000  1
  O  O7  1  0.094856  0.596155  0.577638  1
  O  O8  1  0.011348  0.988398  0.173078  1
  O  O9  1  0.403845  0.905144  0.422362  1
  O  O10  1  0.487231  0.515118  0.171131  1
  O  O11  1  0.099605  0.584113  0.079229  1
  O  O12  1  0.906308  0.402470  0.421447  1
  O  O13  1  0.011602  0.988652  0.826922  1
  O  O14  1  0.597530  0.093691  0.578553  1
  O  O15  1  0.484882  0.512769  0.828869  1
  O  O16  1  0.580743  0.104833  0.077823  1
  O  O17  1  0.415887  0.900395  0.920771  1
  O  O18  1  0.895167  0.419257  0.922177  1
