# generated using pymatgen
data_Nb3CuAuN
_symmetry_space_group_name_H-M   'P 1'
_cell_length_a   7.05462800
_cell_length_b   7.05462800
_cell_length_c   7.05462800
_cell_angle_alpha   90.00000000
_cell_angle_beta   90.00000000
_cell_angle_gamma   90.00000000
_symmetry_Int_Tables_number   1
_chemical_formula_structural   Nb3CuAuN
_chemical_formula_sum   'Nb12 Cu4 Au4 N4'
_cell_volume   351.09314761
_cell_formula_units_Z   4
loop_
 _symmetry_equiv_pos_site_id
 _symmetry_equiv_pos_as_xyz
  1  'x, y, z'
loop_
 _atom_site_type_symbol
 _atom_site_label
 _atom_site_symmetry_multiplicity
 _atom_site_fract_x
 _atom_site_fract_y
 _atom_site_fract_z
 _atom_site_occupancy
  Nb  Nb0  1  0.794806  0.960930  0.372205  1
  Nb  Nb1  1  0.705194  0.039070  0.872205  1
  Nb  Nb2  1  0.205194  0.460930  0.127795  1
  Nb  Nb3  1  0.294806  0.539070  0.627795  1
  Nb  Nb4  1  0.960930  0.372205  0.794806  1
  Nb  Nb5  1  0.039070  0.872205  0.705194  1
  Nb  Nb6  1  0.460930  0.127795  0.205194  1
  Nb  Nb7  1  0.539070  0.627795  0.294806  1
  Nb  Nb8  1  0.372205  0.794806  0.960930  1
  Nb  Nb9  1  0.872205  0.705194  0.039070  1
  Nb  Nb10  1  0.127795  0.205194  0.460930  1
  Nb  Nb11  1  0.627795  0.294806  0.539070  1
  Cu  Cu12  1  0.182052  0.817948  0.317948  1
  Cu  Cu13  1  0.317948  0.182052  0.817948  1
  Cu  Cu14  1  0.817948  0.317948  0.182052  1
  Cu  Cu15  1  0.682052  0.682052  0.682052  1
  Au  Au16  1  0.570447  0.429553  0.929553  1
  Au  Au17  1  0.429553  0.929553  0.570447  1
  Au  Au18  1  0.929553  0.570447  0.429553  1
  Au  Au19  1  0.070447  0.070447  0.070447  1
  N  N20  1  0.875914  0.124086  0.624086  1
  N  N21  1  0.624086  0.875914  0.124086  1
  N  N22  1  0.124086  0.624086  0.875914  1
  N  N23  1  0.375914  0.375914  0.375914  1
