# generated using pymatgen
data_Sm2Fe4P7Ir8
_symmetry_space_group_name_H-M   'P 1'
_cell_length_a   9.41515003
_cell_length_b   9.47509538
_cell_length_c   3.91475600
_cell_angle_alpha   90.00000000
_cell_angle_beta   90.00000000
_cell_angle_gamma   119.79920916
_symmetry_Int_Tables_number   1
_chemical_formula_structural   Sm2Fe4P7Ir8
_chemical_formula_sum   'Sm2 Fe4 P7 Ir8'
_cell_volume   303.05490885
_cell_formula_units_Z   1
loop_
 _symmetry_equiv_pos_site_id
 _symmetry_equiv_pos_as_xyz
  1  'x, y, z'
loop_
 _atom_site_type_symbol
 _atom_site_label
 _atom_site_symmetry_multiplicity
 _atom_site_fract_x
 _atom_site_fract_y
 _atom_site_fract_z
 _atom_site_occupancy
  Sm  Sm0  1  0.335285  0.669970  0.000000  1
  Sm  Sm1  1  0.668743  0.334050  0.500000  1
  Fe  Fe2  1  0.109866  0.267153  0.000000  1
  Fe  Fe3  1  0.727384  0.836243  0.000000  1
  Fe  Fe4  1  0.877869  0.086193  0.500000  1
  Fe  Fe5  1  0.903232  0.772544  0.500000  1
  P  P6  1  0.419700  0.116932  0.000000  1
  P  P7  1  0.892029  0.293566  0.000000  1
  P  P8  1  0.705483  0.595459  0.000000  1
  P  P9  1  0.107199  0.712048  0.500000  1
  P  P10  1  0.281179  0.403401  0.500000  1
  P  P11  1  0.611909  0.885744  0.500000  1
  P  P12  1  0.983150  0.004587  0.000000  1
  Ir  Ir13  1  0.431682  0.366099  0.000000  1
  Ir  Ir14  1  0.637010  0.063311  0.000000  1
  Ir  Ir15  1  0.932637  0.563387  0.000000  1
  Ir  Ir16  1  0.156016  0.899555  0.000000  1
  Ir  Ir17  1  0.385842  0.942553  0.500000  1
  Ir  Ir18  1  0.054306  0.436525  0.500000  1
  Ir  Ir19  1  0.558553  0.613097  0.500000  1
  Ir  Ir20  1  0.220927  0.137584  0.500000  1
