# generated using pymatgen
data_Pr3NdB4Cl5
_symmetry_space_group_name_H-M   'P 1'
_cell_length_a   10.60253134
_cell_length_b   10.60253156
_cell_length_c   9.45552502
_cell_angle_alpha   53.04428840
_cell_angle_beta   53.04428886
_cell_angle_gamma   23.35785407
_symmetry_Int_Tables_number   1
_chemical_formula_structural   Pr3NdB4Cl5
_chemical_formula_sum   'Pr3 Nd1 B4 Cl5'
_cell_volume   332.66206259
_cell_formula_units_Z   1
loop_
 _symmetry_equiv_pos_site_id
 _symmetry_equiv_pos_as_xyz
  1  'x, y, z'
loop_
 _atom_site_type_symbol
 _atom_site_label
 _atom_site_symmetry_multiplicity
 _atom_site_fract_x
 _atom_site_fract_y
 _atom_site_fract_z
 _atom_site_occupancy
  Pr  Pr0  1  0.148493  0.148493  0.778197  1
  Pr  Pr1  1  0.517450  0.517450  0.237261  1
  Pr  Pr2  1  0.482363  0.482363  0.763086  1
  Nd  Nd3  1  0.852075  0.852075  0.220562  1
  B  B4  1  0.005029  0.005029  0.094126  1
  B  B5  1  0.686330  0.313092  0.000439  1
  B  B6  1  0.994353  0.994353  0.906747  1
  B  B7  1  0.313092  0.686330  0.000439  1
  Cl  Cl8  1  0.310708  0.310708  0.076128  1
  Cl  Cl9  1  0.999974  0.999974  0.500067  1
  Cl  Cl10  1  0.332775  0.332775  0.466269  1
  Cl  Cl11  1  0.667918  0.667918  0.530534  1
  Cl  Cl12  1  0.689441  0.689441  0.926143  1
