# generated using pymatgen
data_Er5Tm4LuRu4
_symmetry_space_group_name_H-M   'P 1'
_cell_length_a   6.25469925
_cell_length_b   7.22464844
_cell_length_c   8.36105968
_cell_angle_alpha   96.85910707
_cell_angle_beta   111.97500333
_cell_angle_gamma   89.97162904
_symmetry_Int_Tables_number   1
_chemical_formula_structural   Er5Tm4LuRu4
_chemical_formula_sum   'Er5 Tm4 Lu1 Ru4'
_cell_volume   347.46129555
_cell_formula_units_Z   1
loop_
 _symmetry_equiv_pos_site_id
 _symmetry_equiv_pos_as_xyz
  1  'x, y, z'
loop_
 _atom_site_type_symbol
 _atom_site_label
 _atom_site_symmetry_multiplicity
 _atom_site_fract_x
 _atom_site_fract_y
 _atom_site_fract_z
 _atom_site_occupancy
  Er  Er0  1  0.522958  0.083130  0.813663  1
  Er  Er1  1  0.477662  0.916067  0.186403  1
  Er  Er2  1  0.709160  0.416910  0.186399  1
  Er  Er3  1  0.291041  0.583928  0.813531  1
  Er  Er4  1  0.296694  0.314086  0.434489  1
  Tm  Tm5  1  0.703251  0.686066  0.566076  1
  Tm  Tm6  1  0.862376  0.185729  0.565631  1
  Tm  Tm7  1  0.137020  0.814008  0.434059  1
  Tm  Tm8  1  0.080309  0.250068  0.999886  1
  Lu  Lu9  1  0.920707  0.749916  0.999941  1
  Ru  Ru10  1  0.321763  0.576776  0.220212  1
  Ru  Ru11  1  0.678177  0.424399  0.780289  1
  Ru  Ru12  1  0.101295  0.923664  0.779585  1
  Ru  Ru13  1  0.897584  0.075254  0.219837  1
