# generated using pymatgen
data_Ho16Tm4Ir7Rh5
_symmetry_space_group_name_H-M   'P 1'
_cell_length_a   10.82018326
_cell_length_b   10.82018326
_cell_length_c   6.34796701
_cell_angle_alpha   89.99508149
_cell_angle_beta   89.99508149
_cell_angle_gamma   89.94485496
_symmetry_Int_Tables_number   1
_chemical_formula_structural   Ho16Tm4Ir7Rh5
_chemical_formula_sum   'Ho16 Tm4 Ir7 Rh5'
_cell_volume   743.19655851
_cell_formula_units_Z   1
loop_
 _symmetry_equiv_pos_site_id
 _symmetry_equiv_pos_as_xyz
  1  'x, y, z'
loop_
 _atom_site_type_symbol
 _atom_site_label
 _atom_site_symmetry_multiplicity
 _atom_site_fract_x
 _atom_site_fract_y
 _atom_site_fract_z
 _atom_site_occupancy
  Ho  Ho0  1  0.289695  0.088214  0.378340  1
  Ho  Ho1  1  0.289824  0.911706  0.877917  1
  Ho  Ho2  1  0.709479  0.087931  0.877261  1
  Ho  Ho3  1  0.709652  0.910393  0.378612  1
  Ho  Ho4  1  0.588248  0.789760  0.878310  1
  Ho  Ho5  1  0.586976  0.210371  0.378350  1
  Ho  Ho6  1  0.411605  0.789829  0.378218  1
  Ho  Ho7  1  0.411698  0.210148  0.878142  1
  Ho  Ho8  1  0.210240  0.411752  0.621690  1
  Ho  Ho9  1  0.210171  0.588395  0.121782  1
  Ho  Ho10  1  0.789629  0.413024  0.121650  1
  Ho  Ho11  1  0.789852  0.588302  0.621858  1
  Ho  Ho12  1  0.911786  0.710305  0.121660  1
  Ho  Ho13  1  0.912069  0.290521  0.622739  1
  Ho  Ho14  1  0.088294  0.710176  0.622083  1
  Ho  Ho15  1  0.089607  0.290348  0.121388  1
  Tm  Tm16  1  0.000202  0.999759  0.500061  1
  Tm  Tm17  1  0.000241  0.999798  0.999939  1
  Tm  Tm18  1  0.499954  0.499892  0.999952  1
  Tm  Tm19  1  0.500108  0.500046  0.500048  1
  Ir  Ir20  1  0.846978  0.847539  0.749943  1
  Ir  Ir21  1  0.152461  0.153022  0.750057  1
  Ir  Ir22  1  0.152988  0.847012  0.250000  1
  Ir  Ir23  1  0.653610  0.346390  0.750000  1
  Ir  Ir24  1  0.653140  0.652961  0.249898  1
  Ir  Ir25  1  0.347039  0.346860  0.250102  1
  Ir  Ir26  1  0.346979  0.653021  0.750000  1
  Rh  Rh27  1  0.847065  0.152935  0.250000  1
  Rh  Rh28  1  0.500429  0.000162  0.122800  1
  Rh  Rh29  1  0.500306  0.000164  0.622437  1
  Rh  Rh30  1  0.999836  0.499694  0.877563  1
  Rh  Rh31  1  0.999838  0.499571  0.377200  1
