# generated using pymatgen
data_Eu2HfMnO6
_symmetry_space_group_name_H-M   'P 1'
_cell_length_a   5.60061700
_cell_length_b   5.81797938
_cell_length_c   7.95862830
_cell_angle_alpha   88.98587357
_cell_angle_beta   90.00000000
_cell_angle_gamma   90.00000000
_symmetry_Int_Tables_number   1
_chemical_formula_structural   Eu2HfMnO6
_chemical_formula_sum   'Eu4 Hf2 Mn2 O12'
_cell_volume   259.28550653
_cell_formula_units_Z   2
loop_
 _symmetry_equiv_pos_site_id
 _symmetry_equiv_pos_as_xyz
  1  'x, y, z'
loop_
 _atom_site_type_symbol
 _atom_site_label
 _atom_site_symmetry_multiplicity
 _atom_site_fract_x
 _atom_site_fract_y
 _atom_site_fract_z
 _atom_site_occupancy
  Eu  Eu0  1  0.008757  0.948984  0.771178  1
  Eu  Eu1  1  0.508757  0.551016  0.228822  1
  Eu  Eu2  1  0.491243  0.448984  0.771178  1
  Eu  Eu3  1  0.991243  0.051016  0.228822  1
  Hf  Hf4  1  0.500000  0.000000  0.500000  1
  Hf  Hf5  1  0.000000  0.500000  0.500000  1
  Mn  Mn6  1  0.000000  0.500000  0.000000  1
  Mn  Mn7  1  0.500000  0.000000  0.000000  1
  O  O8  1  0.697303  0.300677  0.450168  1
  O  O9  1  0.197303  0.199323  0.549832  1
  O  O10  1  0.780287  0.808793  0.041044  1
  O  O11  1  0.280287  0.691207  0.958956  1
  O  O12  1  0.302697  0.699323  0.549832  1
  O  O13  1  0.802697  0.800677  0.450168  1
  O  O14  1  0.219713  0.191207  0.958956  1
  O  O15  1  0.719713  0.308793  0.041044  1
  O  O16  1  0.087773  0.472649  0.247846  1
  O  O17  1  0.587773  0.027351  0.752154  1
  O  O18  1  0.412227  0.972649  0.247846  1
  O  O19  1  0.912227  0.527351  0.752154  1
