# generated using pymatgen
data_Al2PbCl8
_symmetry_space_group_name_H-M   'P 1'
_cell_length_a   7.08447000
_cell_length_b   7.90152058
_cell_length_c   12.66494989
_cell_angle_alpha   79.73059320
_cell_angle_beta   90.00000000
_cell_angle_gamma   90.00000000
_symmetry_Int_Tables_number   1
_chemical_formula_structural   Al2PbCl8
_chemical_formula_sum   'Al4 Pb2 Cl16'
_cell_volume   697.60237572
_cell_formula_units_Z   2
loop_
 _symmetry_equiv_pos_site_id
 _symmetry_equiv_pos_as_xyz
  1  'x, y, z'
loop_
 _atom_site_type_symbol
 _atom_site_label
 _atom_site_symmetry_multiplicity
 _atom_site_fract_x
 _atom_site_fract_y
 _atom_site_fract_z
 _atom_site_occupancy
  Al  Al0  1  0.274529  0.695118  0.560296  1
  Al  Al1  1  0.725471  0.695118  0.060296  1
  Al  Al2  1  0.725471  0.304882  0.439704  1
  Al  Al3  1  0.274529  0.304882  0.939704  1
  Pb  Pb4  1  0.884147  0.500000  0.750000  1
  Pb  Pb5  1  0.115853  0.500000  0.250000  1
  Cl  Cl6  1  0.805500  0.425812  0.110988  1
  Cl  Cl7  1  0.805500  0.574188  0.389012  1
  Cl  Cl8  1  0.277230  0.761539  0.387457  1
  Cl  Cl9  1  0.277230  0.238461  0.112543  1
  Cl  Cl10  1  0.722770  0.238461  0.612543  1
  Cl  Cl11  1  0.722770  0.761539  0.887457  1
  Cl  Cl12  1  0.053151  0.829482  0.631023  1
  Cl  Cl13  1  0.053151  0.170518  0.868977  1
  Cl  Cl14  1  0.946849  0.170518  0.368977  1
  Cl  Cl15  1  0.946849  0.829482  0.131023  1
  Cl  Cl16  1  0.548997  0.743940  0.619433  1
  Cl  Cl17  1  0.548997  0.256060  0.880567  1
  Cl  Cl18  1  0.451003  0.256060  0.380567  1
  Cl  Cl19  1  0.451003  0.743940  0.119433  1
  Cl  Cl20  1  0.194500  0.425812  0.610988  1
  Cl  Cl21  1  0.194500  0.574188  0.889012  1
