# generated using pymatgen
data_Lu7Pa(ReB6)4
_symmetry_space_group_name_H-M   'P 1'
_cell_length_a   3.64144700
_cell_length_b   9.07365721
_cell_length_c   11.42925284
_cell_angle_alpha   90.13412484
_cell_angle_beta   90.00000000
_cell_angle_gamma   90.00000000
_symmetry_Int_Tables_number   1
_chemical_formula_structural   Lu7Pa(ReB6)4
_chemical_formula_sum   'Lu7 Pa1 Re4 B24'
_cell_volume   377.63567213
_cell_formula_units_Z   1
loop_
 _symmetry_equiv_pos_site_id
 _symmetry_equiv_pos_as_xyz
  1  'x, y, z'
loop_
 _atom_site_type_symbol
 _atom_site_label
 _atom_site_symmetry_multiplicity
 _atom_site_fract_x
 _atom_site_fract_y
 _atom_site_fract_z
 _atom_site_occupancy
  Lu  Lu0  1  0.000000  0.680285  0.586999  1
  Lu  Lu1  1  0.000000  0.822900  0.085226  1
  Lu  Lu2  1  0.000000  0.175852  0.913344  1
  Lu  Lu3  1  0.000000  0.942787  0.371775  1
  Lu  Lu4  1  0.000000  0.054696  0.629472  1
  Lu  Lu5  1  0.000000  0.443910  0.127097  1
  Lu  Lu6  1  0.000000  0.557147  0.870743  1
  Pa  Pa7  1  0.000000  0.322914  0.414090  1
  Re  Re8  1  0.000000  0.637196  0.321424  1
  Re  Re9  1  0.000000  0.361700  0.677447  1
  Re  Re10  1  0.000000  0.140819  0.180896  1
  Re  Re11  1  0.000000  0.861284  0.820992  1
  B  B12  1  0.500000  0.553523  0.432606  1
  B  B13  1  0.500000  0.446311  0.567397  1
  B  B14  1  0.500000  0.053481  0.066497  1
  B  B15  1  0.500000  0.946972  0.934228  1
  B  B16  1  0.500000  0.750282  0.419232  1
  B  B17  1  0.500000  0.249383  0.581618  1
  B  B18  1  0.500000  0.249905  0.079379  1
  B  B19  1  0.500000  0.749804  0.919833  1
  B  B20  1  0.500000  0.792995  0.265127  1
  B  B21  1  0.500000  0.206858  0.735846  1
  B  B22  1  0.500000  0.292422  0.233988  1
  B  B23  1  0.500000  0.707039  0.765323  1
  B  B24  1  0.500000  0.631321  0.183509  1
  B  B25  1  0.500000  0.369889  0.815452  1
  B  B26  1  0.500000  0.130761  0.315111  1
  B  B27  1  0.500000  0.868930  0.685175  1
  B  B28  1  0.500000  0.981266  0.211999  1
  B  B29  1  0.500000  0.018502  0.788255  1
  B  B30  1  0.500000  0.482782  0.286674  1
  B  B31  1  0.500000  0.519038  0.713279  1
  B  B32  1  0.500000  0.600848  0.027412  1
  B  B33  1  0.500000  0.399326  0.971300  1
  B  B34  1  0.500000  0.101310  0.472074  1
  B  B35  1  0.500000  0.895562  0.529178  1
