# generated using pymatgen
data_HoEr3Mn4F28
_symmetry_space_group_name_H-M   'P 1'
_cell_length_a   5.42179381
_cell_length_b   8.66868622
_cell_length_c   11.66647500
_cell_angle_alpha   62.51184598
_cell_angle_beta   89.96861399
_cell_angle_gamma   89.98592310
_symmetry_Int_Tables_number   1
_chemical_formula_structural   HoEr3Mn4F28
_chemical_formula_sum   'Ho1 Er3 Mn4 F28'
_cell_volume   486.42011369
_cell_formula_units_Z   1
loop_
 _symmetry_equiv_pos_site_id
 _symmetry_equiv_pos_as_xyz
  1  'x, y, z'
loop_
 _atom_site_type_symbol
 _atom_site_label
 _atom_site_symmetry_multiplicity
 _atom_site_fract_x
 _atom_site_fract_y
 _atom_site_fract_z
 _atom_site_occupancy
  Ho  Ho0  1  0.761961  0.811600  0.764386  1
  Er  Er1  1  0.262568  0.189756  0.735526  1
  Er  Er2  1  0.237643  0.188940  0.235642  1
  Er  Er3  1  0.737810  0.811364  0.264452  1
  Mn  Mn4  1  0.759526  0.273117  0.956815  1
  Mn  Mn5  1  0.258739  0.725783  0.542573  1
  Mn  Mn6  1  0.240834  0.726073  0.044411  1
  Mn  Mn7  1  0.740183  0.274619  0.456185  1
  F  F8  1  0.432932  0.704903  0.922935  1
  F  F9  1  0.932992  0.295803  0.577237  1
  F  F10  1  0.566774  0.294776  0.077752  1
  F  F11  1  0.067130  0.704299  0.421162  1
  F  F12  1  0.453914  0.280766  0.540969  1
  F  F13  1  0.954296  0.719617  0.960179  1
  F  F14  1  0.546104  0.719579  0.458465  1
  F  F15  1  0.045932  0.279212  0.041459  1
  F  F16  1  0.775131  0.512397  0.861722  1
  F  F17  1  0.273832  0.486409  0.637614  1
  F  F18  1  0.226397  0.486528  0.139137  1
  F  F19  1  0.725371  0.513809  0.361302  1
  F  F20  1  0.757248  0.035366  0.047303  1
  F  F21  1  0.256932  0.963474  0.452404  1
  F  F22  1  0.242745  0.963634  0.953571  1
  F  F23  1  0.742217  0.036843  0.546828  1
  F  F24  1  0.979808  0.726660  0.632748  1
  F  F25  1  0.481311  0.272875  0.865828  1
  F  F26  1  0.017830  0.273185  0.365198  1
  F  F27  1  0.519203  0.727111  0.135025  1
  F  F28  1  0.050968  0.743218  0.170842  1
  F  F29  1  0.549148  0.257093  0.330190  1
  F  F30  1  0.950087  0.255846  0.830514  1
  F  F31  1  0.447754  0.742452  0.669422  1
  F  F32  1  0.409374  0.970427  0.228963  1
  F  F33  1  0.909442  0.029798  0.271237  1
  F  F34  1  0.592271  0.032118  0.771475  1
  F  F35  1  0.093591  0.970551  0.728531  1
