# generated using pymatgen
data_Tb4Y3Ho(CdPt)2
_symmetry_space_group_name_H-M   'P 1'
_cell_length_a   9.71237076
_cell_length_b   9.71237106
_cell_length_c   9.70709400
_cell_angle_alpha   60.01797851
_cell_angle_beta   60.01797750
_cell_angle_gamma   59.96405596
_symmetry_Int_Tables_number   1
_chemical_formula_structural   Tb4Y3Ho(CdPt)2
_chemical_formula_sum   'Tb8 Y6 Ho2 Cd4 Pt4'
_cell_volume   647.47728814
_cell_formula_units_Z   2
loop_
 _symmetry_equiv_pos_site_id
 _symmetry_equiv_pos_as_xyz
  1  'x, y, z'
loop_
 _atom_site_type_symbol
 _atom_site_label
 _atom_site_symmetry_multiplicity
 _atom_site_fract_x
 _atom_site_fract_y
 _atom_site_fract_z
 _atom_site_occupancy
  Tb  Tb0  1  0.352221  0.352221  0.352622  1
  Tb  Tb1  1  0.352221  0.352221  0.942938  1
  Tb  Tb2  1  0.352622  0.942938  0.352221  1
  Tb  Tb3  1  0.942938  0.352622  0.352221  1
  Tb  Tb4  1  0.810553  0.189447  0.189447  1
  Tb  Tb5  1  0.189447  0.810553  0.810553  1
  Tb  Tb6  1  0.189447  0.810553  0.189447  1
  Tb  Tb7  1  0.810553  0.189447  0.810553  1
  Y  Y8  1  0.935834  0.564166  0.564166  1
  Y  Y9  1  0.564166  0.935834  0.935834  1
  Y  Y10  1  0.564166  0.935834  0.564166  1
  Y  Y11  1  0.935834  0.564166  0.935834  1
  Y  Y12  1  0.564175  0.564175  0.935825  1
  Y  Y13  1  0.935825  0.935825  0.564175  1
  Ho  Ho14  1  0.189707  0.189707  0.810293  1
  Ho  Ho15  1  0.810293  0.810293  0.189707  1
  Cd  Cd16  1  0.581928  0.581928  0.581686  1
  Cd  Cd17  1  0.581928  0.581928  0.254456  1
  Cd  Cd18  1  0.581686  0.254456  0.581928  1
  Cd  Cd19  1  0.254456  0.581686  0.581928  1
  Pt  Pt20  1  0.143529  0.143529  0.142843  1
  Pt  Pt21  1  0.143529  0.143529  0.570100  1
  Pt  Pt22  1  0.142843  0.570100  0.143529  1
  Pt  Pt23  1  0.570100  0.142843  0.143529  1
