# generated using pymatgen
data_Sc4Al6CuRe
_symmetry_space_group_name_H-M   'P 1'
_cell_length_a   5.34873700
_cell_length_b   5.34873851
_cell_length_c   8.51808600
_cell_angle_alpha   90.00000000
_cell_angle_beta   90.00000000
_cell_angle_gamma   120.00000920
_symmetry_Int_Tables_number   1
_chemical_formula_structural   Sc4Al6CuRe
_chemical_formula_sum   'Sc4 Al6 Cu1 Re1'
_cell_volume   211.04507536
_cell_formula_units_Z   1
loop_
 _symmetry_equiv_pos_site_id
 _symmetry_equiv_pos_as_xyz
  1  'x, y, z'
loop_
 _atom_site_type_symbol
 _atom_site_label
 _atom_site_symmetry_multiplicity
 _atom_site_fract_x
 _atom_site_fract_y
 _atom_site_fract_z
 _atom_site_occupancy
  Sc  Sc0  1  0.333333  0.666667  0.061545  1
  Sc  Sc1  1  0.666667  0.333333  0.549591  1
  Sc  Sc2  1  0.333333  0.666667  0.450409  1
  Sc  Sc3  1  0.666667  0.333333  0.938455  1
  Al  Al4  1  0.833497  0.666993  0.252118  1
  Al  Al5  1  0.166503  0.833497  0.747882  1
  Al  Al6  1  0.666993  0.833497  0.747882  1
  Al  Al7  1  0.333007  0.166503  0.252118  1
  Al  Al8  1  0.833497  0.166503  0.252118  1
  Al  Al9  1  0.166503  0.333007  0.747882  1
  Cu  Cu10  1  0.000000  0.000000  0.500000  1
  Re  Re11  1  0.000000  0.000000  0.000000  1
