# generated using pymatgen
data_MgCoSb4(Cl2O3)2
_symmetry_space_group_name_H-M   'P 1'
_cell_length_a   8.24578349
_cell_length_b   9.01482717
_cell_length_c   10.29638433
_cell_angle_alpha   66.47646837
_cell_angle_beta   83.00170530
_cell_angle_gamma   92.10193109
_symmetry_Int_Tables_number   1
_chemical_formula_structural   MgCoSb4(Cl2O3)2
_chemical_formula_sum   'Mg2 Co2 Sb8 Cl8 O12'
_cell_volume   693.47392670
_cell_formula_units_Z   2
loop_
 _symmetry_equiv_pos_site_id
 _symmetry_equiv_pos_as_xyz
  1  'x, y, z'
loop_
 _atom_site_type_symbol
 _atom_site_label
 _atom_site_symmetry_multiplicity
 _atom_site_fract_x
 _atom_site_fract_y
 _atom_site_fract_z
 _atom_site_occupancy
  Mg  Mg0  1  0.511529  0.610356  0.096477  1
  Mg  Mg1  1  0.488469  0.889637  0.403524  1
  Co  Co2  1  0.509924  0.114528  0.596126  1
  Co  Co3  1  0.490077  0.385473  0.903872  1
  Sb  Sb4  1  0.690651  0.029156  0.934502  1
  Sb  Sb5  1  0.691326  0.531594  0.434265  1
  Sb  Sb6  1  0.308676  0.968407  0.065734  1
  Sb  Sb7  1  0.309349  0.470845  0.565497  1
  Sb  Sb8  1  0.700629  0.788396  0.730736  1
  Sb  Sb9  1  0.702881  0.285709  0.235368  1
  Sb  Sb10  1  0.297119  0.214290  0.264633  1
  Sb  Sb11  1  0.299370  0.711604  0.769264  1
  Cl  Cl12  1  0.772759  0.930785  0.288337  1
  Cl  Cl13  1  0.766059  0.431277  0.791903  1
  Cl  Cl14  1  0.233942  0.068726  0.708093  1
  Cl  Cl15  1  0.227233  0.569216  0.211662  1
  Cl  Cl16  1  0.845859  0.231524  0.462518  1
  Cl  Cl17  1  0.845609  0.732888  0.961832  1
  Cl  Cl18  1  0.154395  0.767116  0.538169  1
  Cl  Cl19  1  0.154140  0.268474  0.037482  1
  O  O20  1  0.484283  0.652657  0.434510  1
  O  O21  1  0.483147  0.151040  0.933935  1
  O  O22  1  0.516853  0.348962  0.566064  1
  O  O23  1  0.515718  0.847342  0.065491  1
  O  O24  1  0.359897  0.008354  0.237282  1
  O  O25  1  0.359378  0.506949  0.739661  1
  O  O26  1  0.640619  0.993050  0.760339  1
  O  O27  1  0.640102  0.491646  0.262718  1
  O  O28  1  0.510054  0.144120  0.383701  1
  O  O29  1  0.509712  0.649418  0.883098  1
  O  O30  1  0.490289  0.850582  0.616903  1
  O  O31  1  0.489946  0.355879  0.116299  1
