# generated using pymatgen
data_Ho2Er10Co4PdPb
_symmetry_space_group_name_H-M   'P 1'
_cell_length_a   8.26653086
_cell_length_b   8.26652895
_cell_length_c   8.26171548
_cell_angle_alpha   110.92272896
_cell_angle_beta   110.67341925
_cell_angle_gamma   106.87377462
_symmetry_Int_Tables_number   1
_chemical_formula_structural   Ho2Er10Co4PdPb
_chemical_formula_sum   'Ho2 Er10 Co4 Pd1 Pb1'
_cell_volume   433.79771425
_cell_formula_units_Z   1
loop_
 _symmetry_equiv_pos_site_id
 _symmetry_equiv_pos_as_xyz
  1  'x, y, z'
loop_
 _atom_site_type_symbol
 _atom_site_label
 _atom_site_symmetry_multiplicity
 _atom_site_fract_x
 _atom_site_fract_y
 _atom_site_fract_z
 _atom_site_occupancy
  Ho  Ho0  1  0.185698  0.290463  0.476163  1
  Ho  Ho1  1  0.814302  0.709537  0.523837  1
  Er  Er2  1  0.185747  0.709542  0.895289  1
  Er  Er3  1  0.814253  0.290458  0.104711  1
  Er  Er4  1  0.313324  0.619508  0.305773  1
  Er  Er5  1  0.686676  0.380492  0.694227  1
  Er  Er6  1  0.313735  0.007551  0.694227  1
  Er  Er7  1  0.686265  0.992449  0.305773  1
  Er  Er8  1  0.416611  0.214902  0.201040  1
  Er  Er9  1  0.583389  0.785098  0.798960  1
  Er  Er10  1  0.013862  0.215571  0.798960  1
  Er  Er11  1  0.986138  0.784429  0.201040  1
  Co  Co12  1  0.112652  0.612652  0.500000  1
  Co  Co13  1  0.887348  0.387348  0.500000  1
  Co  Co14  1  0.377425  0.999781  0.377206  1
  Co  Co15  1  0.622575  0.000219  0.622794  1
  Pd  Pd16  1  0.000000  0.000000  0.000000  1
  Pb  Pb17  1  0.500000  0.500000  0.000000  1
