# generated using pymatgen
data_NaFe3Sb12Pt
_symmetry_space_group_name_H-M   'P 1'
_cell_length_a   8.03100585
_cell_length_b   8.03100609
_cell_length_c   8.03144000
_cell_angle_alpha   109.47231008
_cell_angle_beta   109.47231067
_cell_angle_gamma   109.47012998
_symmetry_Int_Tables_number   1
_chemical_formula_structural   NaFe3Sb12Pt
_chemical_formula_sum   'Na1 Fe3 Sb12 Pt1'
_cell_volume   398.75449321
_cell_formula_units_Z   1
loop_
 _symmetry_equiv_pos_site_id
 _symmetry_equiv_pos_as_xyz
  1  'x, y, z'
loop_
 _atom_site_type_symbol
 _atom_site_label
 _atom_site_symmetry_multiplicity
 _atom_site_fract_x
 _atom_site_fract_y
 _atom_site_fract_z
 _atom_site_occupancy
  Na  Na0  1  0.000000  0.000000  0.000000  1
  Fe  Fe1  1  0.000000  0.500000  0.000000  1
  Fe  Fe2  1  0.500000  0.500000  0.500000  1
  Fe  Fe3  1  0.500000  0.000000  0.000000  1
  Sb  Sb4  1  0.649776  0.816321  0.146043  1
  Sb  Sb5  1  0.838868  0.333917  0.171626  1
  Sb  Sb6  1  0.504951  0.838868  0.667242  1
  Sb  Sb7  1  0.833455  0.649776  0.503733  1
  Sb  Sb8  1  0.495049  0.161132  0.332758  1
  Sb  Sb9  1  0.161132  0.666083  0.828374  1
  Sb  Sb10  1  0.816321  0.166545  0.670278  1
  Sb  Sb11  1  0.183679  0.833455  0.329722  1
  Sb  Sb12  1  0.166545  0.350224  0.496267  1
  Sb  Sb13  1  0.666083  0.504951  0.837709  1
  Sb  Sb14  1  0.333917  0.495049  0.162291  1
  Sb  Sb15  1  0.350224  0.183679  0.853957  1
  Pt  Pt16  1  0.000000  0.000000  0.500000  1
