# generated using pymatgen
data_Na6Cd16Pt7
_symmetry_space_group_name_H-M   'P 1'
_cell_length_a   9.60680150
_cell_length_b   9.60680205
_cell_length_c   9.60680100
_cell_angle_alpha   60.00000018
_cell_angle_beta   59.99999827
_cell_angle_gamma   59.99999877
_symmetry_Int_Tables_number   1
_chemical_formula_structural   Na6Cd16Pt7
_chemical_formula_sum   'Na6 Cd16 Pt7'
_cell_volume   626.93345662
_cell_formula_units_Z   1
loop_
 _symmetry_equiv_pos_site_id
 _symmetry_equiv_pos_as_xyz
  1  'x, y, z'
loop_
 _atom_site_type_symbol
 _atom_site_label
 _atom_site_symmetry_multiplicity
 _atom_site_fract_x
 _atom_site_fract_y
 _atom_site_fract_z
 _atom_site_occupancy
  Na  Na0  1  0.290305  0.709695  0.709695  1
  Na  Na1  1  0.709695  0.290305  0.290305  1
  Na  Na2  1  0.709695  0.290305  0.709695  1
  Na  Na3  1  0.709695  0.709695  0.290305  1
  Na  Na4  1  0.290305  0.709695  0.290305  1
  Na  Na5  1  0.290305  0.290305  0.709695  1
  Cd  Cd6  1  0.356699  0.881101  0.881101  1
  Cd  Cd7  1  0.881101  0.356699  0.881101  1
  Cd  Cd8  1  0.881101  0.881101  0.881101  1
  Cd  Cd9  1  0.881101  0.881101  0.356699  1
  Cd  Cd10  1  0.118899  0.643301  0.118899  1
  Cd  Cd11  1  0.643301  0.118899  0.118899  1
  Cd  Cd12  1  0.118899  0.118899  0.118899  1
  Cd  Cd13  1  0.118899  0.118899  0.643301  1
  Cd  Cd14  1  0.661089  0.661089  0.016731  1
  Cd  Cd15  1  0.661089  0.661089  0.661089  1
  Cd  Cd16  1  0.661089  0.016731  0.661089  1
  Cd  Cd17  1  0.016731  0.661089  0.661089  1
  Cd  Cd18  1  0.338911  0.338911  0.983269  1
  Cd  Cd19  1  0.338911  0.338911  0.338911  1
  Cd  Cd20  1  0.983269  0.338911  0.338911  1
  Cd  Cd21  1  0.338911  0.983269  0.338911  1
  Pt  Pt22  1  0.000000  0.000000  0.000000  1
  Pt  Pt23  1  0.500000  0.500000  0.000000  1
  Pt  Pt24  1  0.000000  0.000000  0.500000  1
  Pt  Pt25  1  0.000000  0.500000  0.500000  1
  Pt  Pt26  1  0.500000  0.000000  0.500000  1
  Pt  Pt27  1  0.500000  0.000000  0.000000  1
  Pt  Pt28  1  0.000000  0.500000  0.000000  1
