# generated using pymatgen
data_Dy20Ir6(RuRh)3
_symmetry_space_group_name_H-M   'P 1'
_cell_length_a   10.83302849
_cell_length_b   10.83536721
_cell_length_c   6.42493623
_cell_angle_alpha   89.98819233
_cell_angle_beta   90.02863091
_cell_angle_gamma   89.98085740
_symmetry_Int_Tables_number   1
_chemical_formula_structural   Dy20Ir6(RuRh)3
_chemical_formula_sum   'Dy20 Ir6 Ru3 Rh3'
_cell_volume   754.15784564
_cell_formula_units_Z   1
loop_
 _symmetry_equiv_pos_site_id
 _symmetry_equiv_pos_as_xyz
  1  'x, y, z'
loop_
 _atom_site_type_symbol
 _atom_site_label
 _atom_site_symmetry_multiplicity
 _atom_site_fract_x
 _atom_site_fract_y
 _atom_site_fract_z
 _atom_site_occupancy
  Dy  Dy0  1  0.293603  0.086699  0.378680  1
  Dy  Dy1  1  0.293655  0.913496  0.878768  1
  Dy  Dy2  1  0.705231  0.087172  0.878337  1
  Dy  Dy3  1  0.705218  0.912394  0.378016  1
  Dy  Dy4  1  0.585425  0.793540  0.879245  1
  Dy  Dy5  1  0.585783  0.206389  0.378992  1
  Dy  Dy6  1  0.412948  0.793778  0.378702  1
  Dy  Dy7  1  0.413238  0.206236  0.878872  1
  Dy  Dy8  1  0.208552  0.412077  0.623448  1
  Dy  Dy9  1  0.208106  0.588004  0.118695  1
  Dy  Dy10  1  0.791862  0.413222  0.118468  1
  Dy  Dy11  1  0.791356  0.586686  0.623558  1
  Dy  Dy12  1  0.912606  0.707672  0.119561  1
  Dy  Dy13  1  0.912697  0.292079  0.624634  1
  Dy  Dy14  1  0.088906  0.708069  0.623353  1
  Dy  Dy15  1  0.088935  0.292420  0.118628  1
  Dy  Dy16  1  0.000393  0.000035  0.499292  1
  Dy  Dy17  1  0.000470  0.999947  0.999489  1
  Dy  Dy18  1  0.499994  0.500015  0.999357  1
  Dy  Dy19  1  0.499899  0.499993  0.498988  1
  Ir  Ir20  1  0.151782  0.153038  0.749862  1
  Ir  Ir21  1  0.151230  0.846662  0.250409  1
  Ir  Ir22  1  0.653455  0.347404  0.749855  1
  Ir  Ir23  1  0.653870  0.652187  0.250527  1
  Ir  Ir24  1  0.346758  0.348128  0.250174  1
  Ir  Ir25  1  0.346979  0.652377  0.749528  1
  Ru  Ru26  1  0.501030  0.000091  0.124281  1
  Ru  Ru27  1  0.500941  0.000072  0.623870  1
  Ru  Ru28  1  0.999519  0.500043  0.876932  1
  Rh  Rh29  1  0.848225  0.152709  0.250198  1
  Rh  Rh30  1  0.847768  0.847481  0.749662  1
  Rh  Rh31  1  0.999564  0.499882  0.377616  1
