# generated using pymatgen
data_Tm12AlZnNi4
_symmetry_space_group_name_H-M   'P 1'
_cell_length_a   8.10465347
_cell_length_b   8.10529260
_cell_length_c   8.10317778
_cell_angle_alpha   105.85460043
_cell_angle_beta   109.75453045
_cell_angle_gamma   112.89188216
_symmetry_Int_Tables_number   1
_chemical_formula_structural   Tm12AlZnNi4
_chemical_formula_sum   'Tm12 Al1 Zn1 Ni4'
_cell_volume   408.16585944
_cell_formula_units_Z   1
loop_
 _symmetry_equiv_pos_site_id
 _symmetry_equiv_pos_as_xyz
  1  'x, y, z'
loop_
 _atom_site_type_symbol
 _atom_site_label
 _atom_site_symmetry_multiplicity
 _atom_site_fract_x
 _atom_site_fract_y
 _atom_site_fract_z
 _atom_site_occupancy
  Tm  Tm0  1  0.695662  0.266590  0.962224  1
  Tm  Tm1  1  0.304341  0.733331  0.037705  1
  Tm  Tm2  1  0.695617  0.733363  0.428988  1
  Tm  Tm3  1  0.304354  0.266578  0.570929  1
  Tm  Tm4  1  0.803279  0.129041  0.325862  1
  Tm  Tm5  1  0.803277  0.477707  0.674274  1
  Tm  Tm6  1  0.196635  0.870980  0.674250  1
  Tm  Tm7  1  0.196811  0.522491  0.325833  1
  Tm  Tm8  1  0.606825  0.788413  0.818390  1
  Tm  Tm9  1  0.970130  0.788370  0.181703  1
  Tm  Tm10  1  0.029868  0.211581  0.818234  1
  Tm  Tm11  1  0.393157  0.211528  0.181555  1
  Al  Al12  1  0.500038  0.000011  0.500042  1
  Zn  Zn13  1  0.499990  0.499957  0.999947  1
  Ni  Ni14  1  0.849836  0.500096  0.349766  1
  Ni  Ni15  1  0.150180  0.499873  0.650203  1
  Ni  Ni16  1  0.000017  0.125793  0.125831  1
  Ni  Ni17  1  0.999986  0.874297  0.874265  1
