# generated using pymatgen
data_Mg11Al4GaPd8
_symmetry_space_group_name_H-M   'P 1'
_cell_length_a   8.41736767
_cell_length_b   8.41802623
_cell_length_c   8.41736986
_cell_angle_alpha   59.99703940
_cell_angle_beta   59.41374271
_cell_angle_gamma   59.99708644
_symmetry_Int_Tables_number   1
_chemical_formula_structural   Mg11Al4GaPd8
_chemical_formula_sum   'Mg11 Al4 Ga1 Pd8'
_cell_volume   419.82438360
_cell_formula_units_Z   1
loop_
 _symmetry_equiv_pos_site_id
 _symmetry_equiv_pos_as_xyz
  1  'x, y, z'
loop_
 _atom_site_type_symbol
 _atom_site_label
 _atom_site_symmetry_multiplicity
 _atom_site_fract_x
 _atom_site_fract_y
 _atom_site_fract_z
 _atom_site_occupancy
  Mg  Mg0  1  0.192756  0.194214  0.807730  1
  Mg  Mg1  1  0.192759  0.805298  0.807727  1
  Mg  Mg2  1  0.055375  0.444625  0.055375  1
  Mg  Mg3  1  0.807730  0.194214  0.192757  1
  Mg  Mg4  1  0.057188  0.447958  0.441164  1
  Mg  Mg5  1  0.444202  0.055798  0.444201  1
  Mg  Mg6  1  0.441164  0.447958  0.057188  1
  Mg  Mg7  1  0.807727  0.805298  0.192759  1
  Mg  Mg8  1  0.441166  0.053691  0.057185  1
  Mg  Mg9  1  0.804052  0.195950  0.804051  1
  Mg  Mg10  1  0.057186  0.053691  0.441166  1
  Al  Al11  1  0.623337  0.630123  0.623337  1
  Al  Al12  1  0.127077  0.624514  0.623894  1
  Al  Al13  1  0.623894  0.624514  0.127077  1
  Al  Al14  1  0.623336  0.123204  0.623336  1
  Ga  Ga15  1  0.198061  0.801941  0.198062  1
  Pd  Pd16  1  0.837929  0.483519  0.837929  1
  Pd  Pd17  1  0.837928  0.840625  0.837928  1
  Pd  Pd18  1  0.477361  0.838050  0.846537  1
  Pd  Pd19  1  0.412221  0.766705  0.412221  1
  Pd  Pd20  1  0.846536  0.838050  0.477362  1
  Pd  Pd21  1  0.768041  0.410603  0.410753  1
  Pd  Pd22  1  0.412220  0.408853  0.412220  1
  Pd  Pd23  1  0.410753  0.410602  0.768041  1
