# generated using pymatgen
data_Pr2Pa(SnRh)3
_symmetry_space_group_name_H-M   'P 1'
_cell_length_a   7.78170000
_cell_length_b   7.68917407
_cell_length_c   3.93766400
_cell_angle_alpha   90.00000000
_cell_angle_beta   90.00000000
_cell_angle_gamma   120.39886225
_symmetry_Int_Tables_number   1
_chemical_formula_structural   Pr2Pa(SnRh)3
_chemical_formula_sum   'Pr2 Pa1 Sn3 Rh3'
_cell_volume   203.21879766
_cell_formula_units_Z   1
loop_
 _symmetry_equiv_pos_site_id
 _symmetry_equiv_pos_as_xyz
  1  'x, y, z'
loop_
 _atom_site_type_symbol
 _atom_site_label
 _atom_site_symmetry_multiplicity
 _atom_site_fract_x
 _atom_site_fract_y
 _atom_site_fract_z
 _atom_site_occupancy
  Pr  Pr0  1  0.407842  0.408671  0.500000  1
  Pr  Pr1  1  0.999171  0.591329  0.500000  1
  Pa  Pa2  1  0.585673  0.000000  0.500000  1
  Sn  Sn3  1  0.242160  0.000000  0.000000  1
  Sn  Sn4  1  0.745538  0.739550  0.000000  1
  Sn  Sn5  1  0.005987  0.260450  0.000000  1
  Rh  Rh6  1  0.980977  0.000000  0.500000  1
  Rh  Rh7  1  0.372275  0.711900  0.000000  1
  Rh  Rh8  1  0.660377  0.288100  0.000000  1
