# generated using pymatgen
data_Pr6MgFe(Co4P3)4
_symmetry_space_group_name_H-M   'P 1'
_cell_length_a   3.79711300
_cell_length_b   10.74465200
_cell_length_c   12.50729000
_cell_angle_alpha   90.00000000
_cell_angle_beta   90.00000000
_cell_angle_gamma   90.00000000
_symmetry_Int_Tables_number   1
_chemical_formula_structural   Pr6MgFe(Co4P3)4
_chemical_formula_sum   'Pr6 Mg1 Fe1 Co16 P12'
_cell_volume   510.28064459
_cell_formula_units_Z   1
loop_
 _symmetry_equiv_pos_site_id
 _symmetry_equiv_pos_as_xyz
  1  'x, y, z'
loop_
 _atom_site_type_symbol
 _atom_site_label
 _atom_site_symmetry_multiplicity
 _atom_site_fract_x
 _atom_site_fract_y
 _atom_site_fract_z
 _atom_site_occupancy
  Pr  Pr0  1  0.000000  0.500000  0.520093  1
  Pr  Pr1  1  0.500000  0.000000  0.474434  1
  Pr  Pr2  1  0.500000  0.817126  0.205505  1
  Pr  Pr3  1  0.500000  0.182874  0.205505  1
  Pr  Pr4  1  0.000000  0.679949  0.792956  1
  Pr  Pr5  1  0.000000  0.320051  0.792956  1
  Mg  Mg6  1  0.000000  0.000000  0.849482  1
  Fe  Fe7  1  0.500000  0.500000  0.157929  1
  Co  Co8  1  0.500000  0.500000  0.705690  1
  Co  Co9  1  0.000000  0.000000  0.294224  1
  Co  Co10  1  0.000000  0.500000  0.989787  1
  Co  Co11  1  0.500000  0.000000  0.013554  1
  Co  Co12  1  0.500000  0.337425  0.999534  1
  Co  Co13  1  0.500000  0.662575  0.999534  1
  Co  Co14  1  0.000000  0.171115  0.006878  1
  Co  Co15  1  0.000000  0.828885  0.006878  1
  Co  Co16  1  0.500000  0.298351  0.428790  1
  Co  Co17  1  0.500000  0.701649  0.428790  1
  Co  Co18  1  0.000000  0.204441  0.567045  1
  Co  Co19  1  0.000000  0.795559  0.567045  1
  Co  Co20  1  0.500000  0.879822  0.704236  1
  Co  Co21  1  0.500000  0.120178  0.704236  1
  Co  Co22  1  0.000000  0.617828  0.289808  1
  Co  Co23  1  0.000000  0.382172  0.289808  1
  P  P24  1  0.500000  0.500000  0.888221  1
  P  P25  1  0.000000  0.000000  0.112948  1
  P  P26  1  0.500000  0.500000  0.338904  1
  P  P27  1  0.000000  0.000000  0.651199  1
  P  P28  1  0.500000  0.305360  0.611447  1
  P  P29  1  0.500000  0.694640  0.611447  1
  P  P30  1  0.000000  0.196872  0.385080  1
  P  P31  1  0.000000  0.803128  0.385080  1
  P  P32  1  0.500000  0.838572  0.902358  1
  P  P33  1  0.500000  0.161428  0.902358  1
  P  P34  1  0.000000  0.648268  0.108129  1
  P  P35  1  0.000000  0.351732  0.108129  1
