# generated using pymatgen
data_DyEr3HfSc3Pt4
_symmetry_space_group_name_H-M   'P 1'
_cell_length_a   4.63523000
_cell_length_b   6.95467524
_cell_length_c   8.35430302
_cell_angle_alpha   89.35012849
_cell_angle_beta   90.00000000
_cell_angle_gamma   90.00000000
_symmetry_Int_Tables_number   1
_chemical_formula_structural   DyEr3HfSc3Pt4
_chemical_formula_sum   'Dy1 Er3 Hf1 Sc3 Pt4'
_cell_volume   269.29632725
_cell_formula_units_Z   1
loop_
 _symmetry_equiv_pos_site_id
 _symmetry_equiv_pos_as_xyz
  1  'x, y, z'
loop_
 _atom_site_type_symbol
 _atom_site_label
 _atom_site_symmetry_multiplicity
 _atom_site_fract_x
 _atom_site_fract_y
 _atom_site_fract_z
 _atom_site_occupancy
  Dy  Dy0  1  0.750000  0.016841  0.673814  1
  Er  Er1  1  0.250000  0.982545  0.323524  1
  Er  Er2  1  0.250000  0.483376  0.178232  1
  Er  Er3  1  0.750000  0.519341  0.823964  1
  Hf  Hf4  1  0.750000  0.141195  0.073001  1
  Sc  Sc5  1  0.250000  0.356197  0.574827  1
  Sc  Sc6  1  0.250000  0.858229  0.925038  1
  Sc  Sc7  1  0.750000  0.639752  0.427332  1
  Pt  Pt8  1  0.250000  0.243267  0.910126  1
  Pt  Pt9  1  0.250000  0.743421  0.598943  1
  Pt  Pt10  1  0.750000  0.761136  0.097556  1
  Pt  Pt11  1  0.750000  0.254703  0.393645  1
