# generated using pymatgen
data_Gd3Er(B10Ir)2
_symmetry_space_group_name_H-M   'P 1'
_cell_length_a   4.19742000
_cell_length_b   5.71684082
_cell_length_c   11.43658000
_cell_angle_alpha   89.96930175
_cell_angle_beta   90.00000000
_cell_angle_gamma   90.00000000
_symmetry_Int_Tables_number   1
_chemical_formula_structural   Gd3Er(B10Ir)2
_chemical_formula_sum   'Gd3 Er1 B20 Ir2'
_cell_volume   274.43192840
_cell_formula_units_Z   1
loop_
 _symmetry_equiv_pos_site_id
 _symmetry_equiv_pos_as_xyz
  1  'x, y, z'
loop_
 _atom_site_type_symbol
 _atom_site_label
 _atom_site_symmetry_multiplicity
 _atom_site_fract_x
 _atom_site_fract_y
 _atom_site_fract_z
 _atom_site_occupancy
  Gd  Gd0  1  0.500000  0.705885  0.133716  1
  Gd  Gd1  1  0.500000  0.794897  0.634782  1
  Gd  Gd2  1  0.500000  0.205359  0.365105  1
  Er  Er3  1  0.500000  0.295696  0.866254  1
  B  B4  1  0.000000  0.119145  0.543240  1
  B  B5  1  0.000000  0.881561  0.457209  1
  B  B6  1  0.000000  0.619344  0.957216  1
  B  B7  1  0.000000  0.382071  0.042404  1
  B  B8  1  0.000000  0.137408  0.697461  1
  B  B9  1  0.000000  0.861779  0.302702  1
  B  B10  1  0.301062  0.218853  0.118253  1
  B  B11  1  0.301223  0.779288  0.881323  1
  B  B12  1  0.699190  0.718798  0.381478  1
  B  B13  1  0.699007  0.280917  0.619944  1
  B  B14  1  0.698777  0.779288  0.881323  1
  B  B15  1  0.698938  0.218853  0.118253  1
  B  B16  1  0.300993  0.280917  0.619944  1
  B  B17  1  0.300810  0.718798  0.381478  1
  B  B18  1  0.000000  0.054346  0.192362  1
  B  B19  1  0.000000  0.944968  0.806875  1
  B  B20  1  0.000000  0.554406  0.307048  1
  B  B21  1  0.000000  0.445219  0.693453  1
  B  B22  1  0.000000  0.362258  0.196546  1
  B  B23  1  0.000000  0.637461  0.802984  1
  Ir  Ir24  1  0.000000  0.499779  0.500374  1
  Ir  Ir25  1  0.000000  0.002703  0.998277  1
