# generated using pymatgen
data_Sr2Pt3RhO12
_symmetry_space_group_name_H-M   'P 1'
_cell_length_a   5.31597400
_cell_length_b   5.31629873
_cell_length_c   10.68583814
_cell_angle_alpha   89.99099991
_cell_angle_beta   90.00139065
_cell_angle_gamma   120.00428913
_symmetry_Int_Tables_number   1
_chemical_formula_structural   Sr2Pt3RhO12
_chemical_formula_sum   'Sr2 Pt3 Rh1 O12'
_cell_volume   261.52467419
_cell_formula_units_Z   1
loop_
 _symmetry_equiv_pos_site_id
 _symmetry_equiv_pos_as_xyz
  1  'x, y, z'
loop_
 _atom_site_type_symbol
 _atom_site_label
 _atom_site_symmetry_multiplicity
 _atom_site_fract_x
 _atom_site_fract_y
 _atom_site_fract_z
 _atom_site_occupancy
  Sr  Sr0  1  0.999993  0.000013  0.999292  1
  Sr  Sr1  1  0.999988  0.999994  0.500719  1
  Pt  Pt2  1  0.666653  0.333322  0.750004  1
  Pt  Pt3  1  0.333355  0.666673  0.249988  1
  Pt  Pt4  1  0.666646  0.333335  0.249989  1
  Rh  Rh5  1  0.333386  0.666652  0.749995  1
  O  O6  1  0.625812  0.625813  0.352688  1
  O  O7  1  0.625576  0.628149  0.851032  1
  O  O8  1  0.000012  0.374170  0.352681  1
  O  O9  1  0.002563  0.374415  0.851026  1
  O  O10  1  0.374180  0.999991  0.352688  1
  O  O11  1  0.371840  0.997416  0.851027  1
  O  O12  1  0.625781  0.999993  0.147280  1
  O  O13  1  0.625595  0.997467  0.649012  1
  O  O14  1  0.374217  0.374232  0.147277  1
  O  O15  1  0.371851  0.374412  0.649005  1
  O  O16  1  0.000006  0.625801  0.147282  1
  O  O17  1  0.002544  0.628153  0.649014  1
