# generated using pymatgen
data_Hf4Mn3CoAs4
_symmetry_space_group_name_H-M   'P 1'
_cell_length_a   3.75371200
_cell_length_b   6.54621097
_cell_length_c   7.58333488
_cell_angle_alpha   90.72162432
_cell_angle_beta   90.00000000
_cell_angle_gamma   90.00000000
_symmetry_Int_Tables_number   1
_chemical_formula_structural   Hf4Mn3CoAs4
_chemical_formula_sum   'Hf4 Mn3 Co1 As4'
_cell_volume   186.32740449
_cell_formula_units_Z   1
loop_
 _symmetry_equiv_pos_site_id
 _symmetry_equiv_pos_as_xyz
  1  'x, y, z'
loop_
 _atom_site_type_symbol
 _atom_site_label
 _atom_site_symmetry_multiplicity
 _atom_site_fract_x
 _atom_site_fract_y
 _atom_site_fract_z
 _atom_site_occupancy
  Hf  Hf0  1  0.250000  0.528126  0.176553  1
  Hf  Hf1  1  0.750000  0.469592  0.824349  1
  Hf  Hf2  1  0.250000  0.031222  0.319311  1
  Hf  Hf3  1  0.750000  0.967026  0.681056  1
  Mn  Mn4  1  0.250000  0.637785  0.561040  1
  Mn  Mn5  1  0.750000  0.366701  0.437708  1
  Mn  Mn6  1  0.250000  0.139588  0.936989  1
  Co  Co7  1  0.750000  0.859067  0.061037  1
  As  As8  1  0.750000  0.738682  0.368585  1
  As  As9  1  0.250000  0.262429  0.626231  1
  As  As10  1  0.750000  0.232491  0.126351  1
  As  As11  1  0.250000  0.767291  0.880790  1
