# generated using pymatgen
data_Cr20P(RuC3)2
_symmetry_space_group_name_H-M   'P 1'
_cell_length_a   7.49808207
_cell_length_b   7.49807600
_cell_length_c   7.49816000
_cell_angle_alpha   60.00038489
_cell_angle_beta   60.00032008
_cell_angle_gamma   59.99999380
_symmetry_Int_Tables_number   1
_chemical_formula_structural   Cr20P(RuC3)2
_chemical_formula_sum   'Cr20 P1 Ru2 C6'
_cell_volume   298.08630721
_cell_formula_units_Z   1
loop_
 _symmetry_equiv_pos_site_id
 _symmetry_equiv_pos_as_xyz
  1  'x, y, z'
loop_
 _atom_site_type_symbol
 _atom_site_label
 _atom_site_symmetry_multiplicity
 _atom_site_fract_x
 _atom_site_fract_y
 _atom_site_fract_z
 _atom_site_occupancy
  Cr  Cr0  1  0.616454  0.616602  0.150390  1
  Cr  Cr1  1  0.616594  0.150360  0.616562  1
  Cr  Cr2  1  0.150347  0.616586  0.616425  1
  Cr  Cr3  1  0.616643  0.616484  0.616516  1
  Cr  Cr4  1  0.383546  0.383398  0.849610  1
  Cr  Cr5  1  0.383406  0.849640  0.383438  1
  Cr  Cr6  1  0.849653  0.383414  0.383575  1
  Cr  Cr7  1  0.383357  0.383516  0.383484  1
  Cr  Cr8  1  0.000036  0.999906  0.337224  1
  Cr  Cr9  1  0.662934  0.999934  0.337153  1
  Cr  Cr10  1  0.000014  0.662792  0.337266  1
  Cr  Cr11  1  0.662855  0.337169  0.999919  1
  Cr  Cr12  1  0.000022  0.337075  0.999977  1
  Cr  Cr13  1  0.999986  0.337208  0.662734  1
  Cr  Cr14  1  0.337145  0.662831  0.000081  1
  Cr  Cr15  1  0.337066  0.000066  0.662847  1
  Cr  Cr16  1  0.337183  0.999966  0.000057  1
  Cr  Cr17  1  0.999964  0.000094  0.662776  1
  Cr  Cr18  1  0.999978  0.662925  0.000023  1
  Cr  Cr19  1  0.662817  0.000034  0.999943  1
  P  P20  1  0.000000  0.000000  0.000000  1
  Ru  Ru21  1  0.749962  0.750000  0.750052  1
  Ru  Ru22  1  0.250038  0.250000  0.249948  1
  C  C23  1  0.719561  0.719583  0.280413  1
  C  C24  1  0.280447  0.719577  0.280406  1
  C  C25  1  0.719564  0.280439  0.280418  1
  C  C26  1  0.280439  0.280417  0.719587  1
  C  C27  1  0.719553  0.280423  0.719594  1
  C  C28  1  0.280436  0.719561  0.719582  1
