# generated using pymatgen
data_Hf18Re8POs
_symmetry_space_group_name_H-M   'P 1'
_cell_length_a   8.58144000
_cell_length_b   8.58143996
_cell_length_c   8.62268700
_cell_angle_alpha   90.00000000
_cell_angle_beta   90.00000000
_cell_angle_gamma   120.00000014
_symmetry_Int_Tables_number   1
_chemical_formula_structural   Hf18Re8POs
_chemical_formula_sum   'Hf18 Re8 P1 Os1'
_cell_volume   549.91249989
_cell_formula_units_Z   1
loop_
 _symmetry_equiv_pos_site_id
 _symmetry_equiv_pos_as_xyz
  1  'x, y, z'
loop_
 _atom_site_type_symbol
 _atom_site_label
 _atom_site_symmetry_multiplicity
 _atom_site_fract_x
 _atom_site_fract_y
 _atom_site_fract_z
 _atom_site_occupancy
  Hf  Hf0  1  0.197026  0.802974  0.448136  1
  Hf  Hf1  1  0.197026  0.394051  0.448136  1
  Hf  Hf2  1  0.605949  0.802974  0.448136  1
  Hf  Hf3  1  0.804615  0.195385  0.549019  1
  Hf  Hf4  1  0.804615  0.609230  0.549019  1
  Hf  Hf5  1  0.390770  0.195385  0.549019  1
  Hf  Hf6  1  0.804615  0.195385  0.950981  1
  Hf  Hf7  1  0.804615  0.609230  0.950981  1
  Hf  Hf8  1  0.390770  0.195385  0.950981  1
  Hf  Hf9  1  0.197026  0.802974  0.051864  1
  Hf  Hf10  1  0.197026  0.394051  0.051864  1
  Hf  Hf11  1  0.605949  0.802974  0.051864  1
  Hf  Hf12  1  0.540533  0.459467  0.250000  1
  Hf  Hf13  1  0.540533  0.081066  0.250000  1
  Hf  Hf14  1  0.918934  0.459467  0.250000  1
  Hf  Hf15  1  0.460324  0.539676  0.750000  1
  Hf  Hf16  1  0.460324  0.920647  0.750000  1
  Hf  Hf17  1  0.079353  0.539676  0.750000  1
  Re  Re18  1  0.889222  0.110778  0.250000  1
  Re  Re19  1  0.889222  0.778443  0.250000  1
  Re  Re20  1  0.221557  0.110778  0.250000  1
  Re  Re21  1  0.109840  0.890160  0.750000  1
  Re  Re22  1  0.109840  0.219682  0.750000  1
  Re  Re23  1  0.780318  0.890160  0.750000  1
  Re  Re24  1  0.000000  0.000000  0.498578  1
  Re  Re25  1  0.000000  0.000000  0.001422  1
  P  P26  1  0.666667  0.333333  0.750000  1
  Os  Os27  1  0.333333  0.666667  0.250000  1
