# generated using pymatgen
data_Tb8Ta2Ti9NbSi16
_symmetry_space_group_name_H-M   'P 1'
_cell_length_a   7.05972845
_cell_length_b   7.05978549
_cell_length_c   13.00236625
_cell_angle_alpha   90.00550114
_cell_angle_beta   90.02517198
_cell_angle_gamma   90.02677547
_symmetry_Int_Tables_number   1
_chemical_formula_structural   Tb8Ta2Ti9NbSi16
_chemical_formula_sum   'Tb8 Ta2 Ti9 Nb1 Si16'
_cell_volume   648.03998756
_cell_formula_units_Z   1
loop_
 _symmetry_equiv_pos_site_id
 _symmetry_equiv_pos_as_xyz
  1  'x, y, z'
loop_
 _atom_site_type_symbol
 _atom_site_label
 _atom_site_symmetry_multiplicity
 _atom_site_fract_x
 _atom_site_fract_y
 _atom_site_fract_z
 _atom_site_occupancy
  Tb  Tb0  1  0.340529  0.002660  0.467065  1
  Tb  Tb1  1  0.497631  0.839638  0.716380  1
  Tb  Tb2  1  0.501919  0.159945  0.216599  1
  Tb  Tb3  1  0.839971  0.497887  0.283456  1
  Tb  Tb4  1  0.160254  0.502148  0.783559  1
  Tb  Tb5  1  0.659948  0.997556  0.967250  1
  Tb  Tb6  1  0.002838  0.339773  0.532670  1
  Tb  Tb7  1  0.997690  0.659187  0.033027  1
  Ta  Ta8  1  0.173279  0.826593  0.250182  1
  Ta  Ta9  1  0.673241  0.673415  0.499969  1
  Ti  Ti10  1  0.826794  0.173184  0.749809  1
  Ti  Ti11  1  0.153808  0.009651  0.876797  1
  Ti  Ti12  1  0.490864  0.653281  0.125508  1
  Ti  Ti13  1  0.508421  0.347555  0.624873  1
  Ti  Ti14  1  0.652212  0.491722  0.874908  1
  Ti  Ti15  1  0.346400  0.509306  0.374716  1
  Ti  Ti16  1  0.846589  0.990498  0.375983  1
  Ti  Ti17  1  0.009759  0.153363  0.123968  1
  Ti  Ti18  1  0.990655  0.846160  0.623274  1
  Nb  Nb19  1  0.326486  0.326673  0.000048  1
  Si  Si20  1  0.201581  0.128935  0.685020  1
  Si  Si21  1  0.371040  0.702727  0.934833  1
  Si  Si22  1  0.629213  0.298200  0.435192  1
  Si  Si23  1  0.702912  0.370953  0.065020  1
  Si  Si24  1  0.298396  0.629120  0.564941  1
  Si  Si25  1  0.798431  0.870971  0.184914  1
  Si  Si26  1  0.129100  0.201813  0.315163  1
  Si  Si27  1  0.871109  0.798680  0.814913  1
  Si  Si28  1  0.291799  0.952552  0.064488  1
  Si  Si29  1  0.545758  0.791857  0.314172  1
  Si  Si30  1  0.454303  0.208132  0.813664  1
  Si  Si31  1  0.791877  0.545956  0.685718  1
  Si  Si32  1  0.208115  0.454475  0.186431  1
  Si  Si33  1  0.708699  0.046373  0.564867  1
  Si  Si34  1  0.952261  0.291056  0.934915  1
  Si  Si35  1  0.046117  0.708002  0.435709  1
