# generated using pymatgen
data_Lu4Nb2B4Ir7Ru3
_symmetry_space_group_name_H-M   'P 1'
_cell_length_a   9.75195850
_cell_length_b   9.74629250
_cell_length_c   3.07411800
_cell_angle_alpha   90.00000000
_cell_angle_beta   90.00000000
_cell_angle_gamma   90.06364223
_symmetry_Int_Tables_number   1
_chemical_formula_structural   Lu4Nb2B4Ir7Ru3
_chemical_formula_sum   'Lu4 Nb2 B4 Ir7 Ru3'
_cell_volume   292.18071785
_cell_formula_units_Z   1
loop_
 _symmetry_equiv_pos_site_id
 _symmetry_equiv_pos_as_xyz
  1  'x, y, z'
loop_
 _atom_site_type_symbol
 _atom_site_label
 _atom_site_symmetry_multiplicity
 _atom_site_fract_x
 _atom_site_fract_y
 _atom_site_fract_z
 _atom_site_occupancy
  Lu  Lu0  1  0.824344  0.677960  0.000000  1
  Lu  Lu1  1  0.174223  0.325304  0.000000  1
  Lu  Lu2  1  0.326133  0.825487  0.000000  1
  Lu  Lu3  1  0.675418  0.171203  0.000000  1
  Nb  Nb4  1  0.500445  0.499841  0.000000  1
  Nb  Nb5  1  0.997008  0.999189  0.000000  1
  B  B6  1  0.623466  0.884269  0.000000  1
  B  B7  1  0.381865  0.116068  0.000000  1
  B  B8  1  0.118073  0.618299  0.000000  1
  B  B9  1  0.882469  0.382186  0.000000  1
  Ir  Ir10  1  0.570393  0.722860  0.500000  1
  Ir  Ir11  1  0.428190  0.276816  0.500000  1
  Ir  Ir12  1  0.071176  0.777347  0.500000  1
  Ir  Ir13  1  0.928559  0.222900  0.500000  1
  Ir  Ir14  1  0.277258  0.571298  0.500000  1
  Ir  Ir15  1  0.722963  0.428574  0.500000  1
  Ir  Ir16  1  0.221394  0.071061  0.500000  1
  Ru  Ru17  1  0.777729  0.929127  0.500000  1
  Ru  Ru18  1  0.499022  0.999753  0.500000  1
  Ru  Ru19  1  0.999874  0.500460  0.500000  1
