# generated using pymatgen
data_Zr(ScRe6)4
_symmetry_space_group_name_H-M   'P 1'
_cell_length_a   8.46489721
_cell_length_b   8.46489732
_cell_length_c   8.46489808
_cell_angle_alpha   109.48727680
_cell_angle_beta   109.48728264
_cell_angle_gamma   109.48727097
_symmetry_Int_Tables_number   1
_chemical_formula_structural   Zr(ScRe6)4
_chemical_formula_sum   'Zr1 Sc4 Re24'
_cell_volume   466.64303131
_cell_formula_units_Z   1
loop_
 _symmetry_equiv_pos_site_id
 _symmetry_equiv_pos_as_xyz
  1  'x, y, z'
loop_
 _atom_site_type_symbol
 _atom_site_label
 _atom_site_symmetry_multiplicity
 _atom_site_fract_x
 _atom_site_fract_y
 _atom_site_fract_z
 _atom_site_occupancy
  Zr  Zr0  1  0.367043  0.367043  0.367043  1
  Sc  Sc1  1  0.000213  0.632767  0.000213  1
  Sc  Sc2  1  0.632767  0.000213  0.000213  1
  Sc  Sc3  1  0.000213  0.000213  0.632767  1
  Sc  Sc4  1  0.997101  0.997101  0.997101  1
  Re  Re5  1  0.998487  0.396521  0.676656  1
  Re  Re6  1  0.280233  0.602879  0.602879  1
  Re  Re7  1  0.721680  0.323289  0.323289  1
  Re  Re8  1  0.323289  0.721680  0.323289  1
  Re  Re9  1  0.676656  0.998487  0.396521  1
  Re  Re10  1  0.998487  0.676656  0.396521  1
  Re  Re11  1  0.602879  0.602879  0.280233  1
  Re  Re12  1  0.808989  0.808989  0.185925  1
  Re  Re13  1  0.377672  0.192502  0.999111  1
  Re  Re14  1  0.192502  0.377672  0.999111  1
  Re  Re15  1  0.623283  0.816047  0.623283  1
  Re  Re16  1  0.377672  0.999111  0.192502  1
  Re  Re17  1  0.999111  0.377672  0.192502  1
  Re  Re18  1  0.816047  0.623283  0.623283  1
  Re  Re19  1  0.185925  0.808989  0.808989  1
  Re  Re20  1  0.808989  0.185925  0.808989  1
  Re  Re21  1  0.192502  0.999111  0.377672  1
  Re  Re22  1  0.999111  0.192502  0.377672  1
  Re  Re23  1  0.623283  0.623283  0.816047  1
  Re  Re24  1  0.396521  0.998487  0.676656  1
  Re  Re25  1  0.602879  0.280233  0.602879  1
  Re  Re26  1  0.676656  0.396521  0.998487  1
  Re  Re27  1  0.396521  0.676656  0.998487  1
  Re  Re28  1  0.323289  0.323289  0.721680  1
