# generated using pymatgen
data_Nd12Ir2I17
_symmetry_space_group_name_H-M   'P 1'
_cell_length_a   10.06618523
_cell_length_b   12.07508558
_cell_length_c   12.03813287
_cell_angle_alpha   93.14036479
_cell_angle_beta   104.47220634
_cell_angle_gamma   114.95753127
_symmetry_Int_Tables_number   1
_chemical_formula_structural   Nd12Ir2I17
_chemical_formula_sum   'Nd12 Ir2 I17'
_cell_volume   1262.92709024
_cell_formula_units_Z   1
loop_
 _symmetry_equiv_pos_site_id
 _symmetry_equiv_pos_as_xyz
  1  'x, y, z'
loop_
 _atom_site_type_symbol
 _atom_site_label
 _atom_site_symmetry_multiplicity
 _atom_site_fract_x
 _atom_site_fract_y
 _atom_site_fract_z
 _atom_site_occupancy
  Nd  Nd0  1  0.058457  0.512412  0.323387  1
  Nd  Nd1  1  0.989425  0.811649  0.580149  1
  Nd  Nd2  1  0.641755  0.239457  0.283517  1
  Nd  Nd3  1  0.010575  0.188351  0.419851  1
  Nd  Nd4  1  0.215657  0.663568  0.990664  1
  Nd  Nd5  1  0.263736  0.986649  0.894408  1
  Nd  Nd6  1  0.358245  0.760543  0.716483  1
  Nd  Nd7  1  0.941543  0.487588  0.676613  1
  Nd  Nd8  1  0.736264  0.013351  0.105592  1
  Nd  Nd9  1  0.154198  0.288924  0.148931  1
  Nd  Nd10  1  0.784343  0.336432  0.009336  1
  Nd  Nd11  1  0.845802  0.711076  0.851069  1
  Ir  Ir12  1  0.102767  0.738085  0.784244  1
  Ir  Ir13  1  0.897233  0.261915  0.215756  1
  I  I14  1  0.782644  0.528442  0.417867  1
  I  I15  1  0.639392  0.417162  0.759916  1
  I  I16  1  0.843073  0.895188  0.325167  1
  I  I17  1  0.325999  0.212595  0.368676  1
  I  I18  1  0.156927  0.104812  0.674833  1
  I  I19  1  0.589684  0.055284  0.840351  1
  I  I20  1  0.754891  0.184723  0.539137  1
  I  I21  1  0.549602  0.708279  0.954756  1
  I  I22  1  0.360608  0.582838  0.240084  1
  I  I23  1  0.217356  0.471558  0.582133  1
  I  I24  1  0.057080  0.361415  0.891600  1
  I  I25  1  0.450398  0.291721  0.045244  1
  I  I26  1  0.000000  0.000000  0.000000  1
  I  I27  1  0.245109  0.815277  0.460863  1
  I  I28  1  0.410316  0.944716  0.159649  1
  I  I29  1  0.674001  0.787405  0.631324  1
  I  I30  1  0.942920  0.638585  0.108400  1
