# generated using pymatgen
data_La20Si9AgHg2
_symmetry_space_group_name_H-M   'P 1'
_cell_length_a   7.92829700
_cell_length_b   7.92829700
_cell_length_c   14.91231000
_cell_angle_alpha   90.00000000
_cell_angle_beta   90.00000000
_cell_angle_gamma   90.00000000
_symmetry_Int_Tables_number   1
_chemical_formula_structural   La20Si9AgHg2
_chemical_formula_sum   'La20 Si9 Ag1 Hg2'
_cell_volume   937.35639114
_cell_formula_units_Z   1
loop_
 _symmetry_equiv_pos_site_id
 _symmetry_equiv_pos_as_xyz
  1  'x, y, z'
loop_
 _atom_site_type_symbol
 _atom_site_label
 _atom_site_symmetry_multiplicity
 _atom_site_fract_x
 _atom_site_fract_y
 _atom_site_fract_z
 _atom_site_occupancy
  La  La0  1  0.500000  0.000000  0.771942  1
  La  La1  1  0.336807  0.307814  0.107945  1
  La  La2  1  0.821355  0.821324  0.892335  1
  La  La3  1  0.000000  0.500000  0.223401  1
  La  La4  1  0.833753  0.185508  0.389294  1
  La  La5  1  0.178645  0.178676  0.892335  1
  La  La6  1  0.663193  0.692186  0.107945  1
  La  La7  1  0.000000  0.500000  0.727740  1
  La  La8  1  0.816643  0.830236  0.611119  1
  La  La9  1  0.314492  0.333753  0.389294  1
  La  La10  1  0.192186  0.836807  0.107945  1
  La  La11  1  0.183357  0.169764  0.611119  1
  La  La12  1  0.807814  0.163193  0.107945  1
  La  La13  1  0.330236  0.683357  0.611119  1
  La  La14  1  0.500000  0.000000  0.275985  1
  La  La15  1  0.678676  0.321355  0.892335  1
  La  La16  1  0.669764  0.316643  0.611119  1
  La  La17  1  0.321324  0.678645  0.892335  1
  La  La18  1  0.166247  0.814492  0.389294  1
  La  La19  1  0.685508  0.666247  0.389294  1
  Si  Si20  1  0.613437  0.386852  0.248099  1
  Si  Si21  1  0.888885  0.113625  0.752445  1
  Si  Si22  1  0.886852  0.886563  0.248099  1
  Si  Si23  1  0.111115  0.886375  0.752445  1
  Si  Si24  1  0.386375  0.388885  0.752445  1
  Si  Si25  1  0.113148  0.113437  0.248099  1
  Si  Si26  1  0.386563  0.613148  0.248099  1
  Si  Si27  1  0.613625  0.611115  0.752445  1
  Si  Si28  1  0.500000  0.000000  0.990997  1
  Ag  Ag29  1  0.000000  0.500000  0.503593  1
  Hg  Hg30  1  0.500000  0.000000  0.498909  1
  Hg  Hg31  1  0.000000  0.500000  0.002488  1
