# generated using pymatgen
data_Tm10AlSb5
_symmetry_space_group_name_H-M   'P 1'
_cell_length_a   8.84345000
_cell_length_b   8.82355504
_cell_length_c   6.24427500
_cell_angle_alpha   90.00000000
_cell_angle_beta   90.00000000
_cell_angle_gamma   120.07461477
_symmetry_Int_Tables_number   1
_chemical_formula_structural   Tm10AlSb5
_chemical_formula_sum   'Tm10 Al1 Sb5'
_cell_volume   421.64888242
_cell_formula_units_Z   1
loop_
 _symmetry_equiv_pos_site_id
 _symmetry_equiv_pos_as_xyz
  1  'x, y, z'
loop_
 _atom_site_type_symbol
 _atom_site_label
 _atom_site_symmetry_multiplicity
 _atom_site_fract_x
 _atom_site_fract_y
 _atom_site_fract_z
 _atom_site_occupancy
  Tm  Tm0  1  0.338639  0.673945  0.002027  1
  Tm  Tm1  1  0.664695  0.326055  0.497973  1
  Tm  Tm2  1  0.664695  0.326055  0.002027  1
  Tm  Tm3  1  0.338639  0.673945  0.497973  1
  Tm  Tm4  1  0.247210  0.000000  0.250000  1
  Tm  Tm5  1  0.759586  0.000000  0.750000  1
  Tm  Tm6  1  0.990736  0.234668  0.250000  1
  Tm  Tm7  1  0.756068  0.765332  0.250000  1
  Tm  Tm8  1  0.243016  0.242774  0.750000  1
  Tm  Tm9  1  0.000241  0.757226  0.750000  1
  Al  Al10  1  0.602239  0.000000  0.250000  1
  Sb  Sb11  1  0.394155  0.000000  0.750000  1
  Sb  Sb12  1  0.997686  0.608254  0.250000  1
  Sb  Sb13  1  0.389431  0.391746  0.250000  1
  Sb  Sb14  1  0.609480  0.605997  0.750000  1
  Sb  Sb15  1  0.003483  0.394003  0.750000  1
