# generated using pymatgen
data_K5Co3F14
_symmetry_space_group_name_H-M   'P 1'
_cell_length_a   7.78491800
_cell_length_b   7.78491800
_cell_length_c   11.93086500
_cell_angle_alpha   90.00000000
_cell_angle_beta   90.00000000
_cell_angle_gamma   90.00000000
_symmetry_Int_Tables_number   1
_chemical_formula_structural   K5Co3F14
_chemical_formula_sum   'K10 Co6 F28'
_cell_volume   723.06945610
_cell_formula_units_Z   2
loop_
 _symmetry_equiv_pos_site_id
 _symmetry_equiv_pos_as_xyz
  1  'x, y, z'
loop_
 _atom_site_type_symbol
 _atom_site_label
 _atom_site_symmetry_multiplicity
 _atom_site_fract_x
 _atom_site_fract_y
 _atom_site_fract_z
 _atom_site_occupancy
  K  K0  1  0.217714  0.282286  0.750000  1
  K  K1  1  0.717714  0.217714  0.750000  1
  K  K2  1  0.282286  0.782286  0.750000  1
  K  K3  1  0.782286  0.717714  0.750000  1
  K  K4  1  0.782286  0.717714  0.250000  1
  K  K5  1  0.282286  0.782286  0.250000  1
  K  K6  1  0.717714  0.217714  0.250000  1
  K  K7  1  0.217714  0.282286  0.250000  1
  K  K8  1  0.000000  0.000000  0.000000  1
  K  K9  1  0.500000  0.500000  0.500000  1
  Co  Co10  1  0.500000  0.500000  0.000000  1
  Co  Co11  1  0.000000  0.000000  0.500000  1
  Co  Co12  1  0.500000  0.000000  0.000000  1
  Co  Co13  1  0.000000  0.500000  0.000000  1
  Co  Co14  1  0.000000  0.500000  0.500000  1
  Co  Co15  1  0.500000  0.000000  0.500000  1
  F  F16  1  0.500000  0.500000  0.842473  1
  F  F17  1  0.000000  0.000000  0.657527  1
  F  F18  1  0.500000  0.500000  0.157527  1
  F  F19  1  0.000000  0.000000  0.342473  1
  F  F20  1  0.430274  0.747829  0.000000  1
  F  F21  1  0.569726  0.252171  0.000000  1
  F  F22  1  0.247829  0.930274  0.500000  1
  F  F23  1  0.747829  0.569726  0.000000  1
  F  F24  1  0.252171  0.430274  0.000000  1
  F  F25  1  0.069726  0.247829  0.500000  1
  F  F26  1  0.930274  0.752171  0.500000  1
  F  F27  1  0.752171  0.069726  0.500000  1
  F  F28  1  0.669177  0.960784  0.886264  1
  F  F29  1  0.330823  0.039216  0.886264  1
  F  F30  1  0.460784  0.169177  0.613736  1
  F  F31  1  0.960784  0.330823  0.886264  1
  F  F32  1  0.460784  0.169177  0.386264  1
  F  F33  1  0.830823  0.460784  0.386264  1
  F  F34  1  0.169177  0.539216  0.386264  1
  F  F35  1  0.960784  0.330823  0.113736  1
  F  F36  1  0.039216  0.669177  0.113736  1
  F  F37  1  0.539216  0.830823  0.386264  1
  F  F38  1  0.669177  0.960784  0.113736  1
  F  F39  1  0.330823  0.039216  0.113736  1
  F  F40  1  0.539216  0.830823  0.613736  1
  F  F41  1  0.169177  0.539216  0.613736  1
  F  F42  1  0.830823  0.460784  0.613736  1
  F  F43  1  0.039216  0.669177  0.886264  1
