# generated using pymatgen
data_La4PrThUO12
_symmetry_space_group_name_H-M   'P 1'
_cell_length_a   6.89447045
_cell_length_b   6.93669086
_cell_length_c   6.90521627
_cell_angle_alpha   99.24735559
_cell_angle_beta   98.65989376
_cell_angle_gamma   98.73640642
_symmetry_Int_Tables_number   1
_chemical_formula_structural   La4PrThUO12
_chemical_formula_sum   'La4 Pr1 Th1 U1 O12'
_cell_volume   316.94244911
_cell_formula_units_Z   1
loop_
 _symmetry_equiv_pos_site_id
 _symmetry_equiv_pos_as_xyz
  1  'x, y, z'
loop_
 _atom_site_type_symbol
 _atom_site_label
 _atom_site_symmetry_multiplicity
 _atom_site_fract_x
 _atom_site_fract_y
 _atom_site_fract_z
 _atom_site_occupancy
  La  La0  1  0.395105  0.862292  0.692461  1
  La  La1  1  0.694600  0.393086  0.857313  1
  La  La2  1  0.857179  0.694509  0.396534  1
  La  La3  1  0.141779  0.304085  0.604283  1
  Pr  Pr4  1  0.608461  0.143335  0.306071  1
  Th  Th5  1  0.303708  0.606069  0.139547  1
  U  U6  1  0.001978  0.999820  0.002483  1
  O  O7  1  0.438993  0.179032  0.590468  1
  O  O8  1  0.941084  0.693647  0.054204  1
  O  O9  1  0.181925  0.588145  0.427348  1
  O  O10  1  0.823647  0.411392  0.562078  1
  O  O11  1  0.554160  0.818140  0.395968  1
  O  O12  1  0.573138  0.436703  0.175338  1
  O  O13  1  0.404616  0.568483  0.830546  1
  O  O14  1  0.947138  0.067073  0.303796  1
  O  O15  1  0.050027  0.930611  0.698778  1
  O  O16  1  0.699900  0.051287  0.931770  1
  O  O17  1  0.078520  0.307816  0.958693  1
  O  O18  1  0.304040  0.944479  0.072321  1
