# generated using pymatgen
data_LaSm3(Tm4Bi3)4
_symmetry_space_group_name_H-M   'P 1'
_cell_length_a   8.23227802
_cell_length_b   9.45262800
_cell_length_c   11.98412600
_cell_angle_alpha   90.00000000
_cell_angle_beta   89.99568487
_cell_angle_gamma   90.00000000
_symmetry_Int_Tables_number   1
_chemical_formula_structural   LaSm3(Tm4Bi3)4
_chemical_formula_sum   'La1 Sm3 Tm16 Bi12'
_cell_volume   932.56467663
_cell_formula_units_Z   1
loop_
 _symmetry_equiv_pos_site_id
 _symmetry_equiv_pos_as_xyz
  1  'x, y, z'
loop_
 _atom_site_type_symbol
 _atom_site_label
 _atom_site_symmetry_multiplicity
 _atom_site_fract_x
 _atom_site_fract_y
 _atom_site_fract_z
 _atom_site_occupancy
  La  La0  1  0.182839  0.750000  0.720369  1
  Sm  Sm1  1  0.316000  0.250000  0.218782  1
  Sm  Sm2  1  0.816008  0.250000  0.281299  1
  Sm  Sm3  1  0.683853  0.750000  0.781133  1
  Tm  Tm4  1  0.353136  0.750000  0.218907  1
  Tm  Tm5  1  0.852264  0.750000  0.280397  1
  Tm  Tm6  1  0.648397  0.250000  0.782076  1
  Tm  Tm7  1  0.147551  0.250000  0.718638  1
  Tm  Tm8  1  0.691579  0.565407  0.061244  1
  Tm  Tm9  1  0.190875  0.934169  0.438103  1
  Tm  Tm10  1  0.308588  0.066070  0.939858  1
  Tm  Tm11  1  0.809491  0.434146  0.560909  1
  Tm  Tm12  1  0.308588  0.433930  0.939858  1
  Tm  Tm13  1  0.809491  0.065854  0.560909  1
  Tm  Tm14  1  0.691579  0.934593  0.061244  1
  Tm  Tm15  1  0.190875  0.565831  0.438103  1
  Tm  Tm16  1  0.478185  0.250000  0.487781  1
  Tm  Tm17  1  0.977088  0.250000  0.011757  1
  Tm  Tm18  1  0.521832  0.750000  0.510537  1
  Tm  Tm19  1  0.021576  0.750000  0.988870  1
  Bi  Bi20  1  0.404406  0.750000  0.963507  1
  Bi  Bi21  1  0.900468  0.750000  0.535801  1
  Bi  Bi22  1  0.596887  0.250000  0.038418  1
  Bi  Bi23  1  0.096773  0.250000  0.461894  1
  Bi  Bi24  1  0.566029  0.992834  0.327479  1
  Bi  Bi25  1  0.066186  0.507265  0.172260  1
  Bi  Bi26  1  0.437248  0.490479  0.671591  1
  Bi  Bi27  1  0.931373  0.009634  0.828474  1
  Bi  Bi28  1  0.437248  0.009521  0.671591  1
  Bi  Bi29  1  0.931373  0.490366  0.828474  1
  Bi  Bi30  1  0.566029  0.507166  0.327479  1
  Bi  Bi31  1  0.066186  0.992735  0.172260  1
