# generated using pymatgen
data_Ho7NbGaPd24
_symmetry_space_group_name_H-M   'P 1'
_cell_length_a   8.31562923
_cell_length_b   8.31562956
_cell_length_c   8.31563000
_cell_angle_alpha   90.27420760
_cell_angle_beta   90.27420761
_cell_angle_gamma   89.72579235
_symmetry_Int_Tables_number   1
_chemical_formula_structural   Ho7NbGaPd24
_chemical_formula_sum   'Ho7 Nb1 Ga1 Pd24'
_cell_volume   575.00356225
_cell_formula_units_Z   1
loop_
 _symmetry_equiv_pos_site_id
 _symmetry_equiv_pos_as_xyz
  1  'x, y, z'
loop_
 _atom_site_type_symbol
 _atom_site_label
 _atom_site_symmetry_multiplicity
 _atom_site_fract_x
 _atom_site_fract_y
 _atom_site_fract_z
 _atom_site_occupancy
  Ho  Ho0  1  0.251757  0.748146  0.251854  1
  Ho  Ho1  1  0.748146  0.251757  0.251854  1
  Ho  Ho2  1  0.748146  0.748146  0.748243  1
  Ho  Ho3  1  0.746643  0.746643  0.253357  1
  Ho  Ho4  1  0.749279  0.252511  0.747489  1
  Ho  Ho5  1  0.252511  0.749279  0.747489  1
  Ho  Ho6  1  0.252511  0.252511  0.250721  1
  Nb  Nb7  1  0.257746  0.257746  0.742254  1
  Ga  Ga8  1  0.996338  0.996338  0.003662  1
  Pd  Pd9  1  0.494035  0.494035  0.746553  1
  Pd  Pd10  1  0.494035  0.253447  0.505965  1
  Pd  Pd11  1  0.253447  0.494035  0.505965  1
  Pd  Pd12  1  0.498625  0.498625  0.252289  1
  Pd  Pd13  1  0.498625  0.747711  0.501375  1
  Pd  Pd14  1  0.747711  0.498625  0.501375  1
  Pd  Pd15  1  0.007035  0.007035  0.713198  1
  Pd  Pd16  1  0.007035  0.286802  0.992965  1
  Pd  Pd17  1  0.286802  0.007035  0.992965  1
  Pd  Pd18  1  0.999717  0.999717  0.293474  1
  Pd  Pd19  1  0.999717  0.706526  0.000283  1
  Pd  Pd20  1  0.706526  0.999717  0.000283  1
  Pd  Pd21  1  0.009009  0.494469  0.740267  1
  Pd  Pd22  1  0.494469  0.259733  0.990991  1
  Pd  Pd23  1  0.259733  0.009009  0.505531  1
  Pd  Pd24  1  0.009009  0.259733  0.505531  1
  Pd  Pd25  1  0.494469  0.009009  0.740267  1
  Pd  Pd26  1  0.259733  0.494469  0.990991  1
  Pd  Pd27  1  0.000554  0.497636  0.259593  1
  Pd  Pd28  1  0.497636  0.740407  0.999446  1
  Pd  Pd29  1  0.000554  0.740407  0.502364  1
  Pd  Pd30  1  0.497636  0.000554  0.259593  1
  Pd  Pd31  1  0.740407  0.000554  0.502364  1
  Pd  Pd32  1  0.740407  0.497636  0.999446  1
