# generated using pymatgen
data_Ti8Al15Pd2RuRh4
_symmetry_space_group_name_H-M   'P 1'
_cell_length_a   8.67685330
_cell_length_b   8.65604451
_cell_length_c   8.67685454
_cell_angle_alpha   120.11274877
_cell_angle_beta   119.80608635
_cell_angle_gamma   90.13978320
_symmetry_Int_Tables_number   1
_chemical_formula_structural   Ti8Al15Pd2RuRh4
_chemical_formula_sum   'Ti8 Al15 Pd2 Ru1 Rh4'
_cell_volume   460.81592080
_cell_formula_units_Z   1
loop_
 _symmetry_equiv_pos_site_id
 _symmetry_equiv_pos_as_xyz
  1  'x, y, z'
loop_
 _atom_site_type_symbol
 _atom_site_label
 _atom_site_symmetry_multiplicity
 _atom_site_fract_x
 _atom_site_fract_y
 _atom_site_fract_z
 _atom_site_occupancy
  Ti  Ti0  1  0.787917  0.291021  0.072471  1
  Ti  Ti1  1  0.218550  0.291021  0.503104  1
  Ti  Ti2  1  0.210475  0.710631  0.500156  1
  Ti  Ti3  1  0.215527  0.714559  0.925054  1
  Ti  Ti4  1  0.789504  0.714559  0.499033  1
  Ti  Ti5  1  0.782323  0.283061  0.500738  1
  Ti  Ti6  1  0.384777  0.131498  0.746721  1
  Ti  Ti7  1  0.379827  0.634308  0.254480  1
  Al  Al8  1  0.997281  0.496378  0.499097  1
  Al  Al9  1  0.152869  0.345537  0.192667  1
  Al  Al10  1  0.154020  0.963761  0.809741  1
  Al  Al11  1  0.150727  0.348030  0.805509  1
  Al  Al12  1  0.542520  0.348030  0.197303  1
  Al  Al13  1  0.845270  0.652216  0.806946  1
  Al  Al14  1  0.848197  0.040661  0.192464  1
  Al  Al15  1  0.842269  0.651457  0.186089  1
  Al  Al16  1  0.465367  0.651457  0.809188  1
  Al  Al17  1  0.376636  0.123520  0.260655  1
  Al  Al18  1  0.862865  0.123520  0.746882  1
  Al  Al19  1  0.618299  0.872570  0.254271  1
  Al  Al20  1  0.621530  0.366882  0.745351  1
  Al  Al21  1  0.621686  0.875993  0.739497  1
  Al  Al22  1  0.136494  0.875993  0.254306  1
  Pd  Pd23  1  0.998603  0.999488  0.499130  1
  Pd  Pd24  1  0.500358  0.999488  0.000885  1
  Ru  Ru25  1  0.496907  0.497130  0.000223  1
  Rh  Rh26  1  0.498236  0.498924  0.497717  1
  Rh  Rh27  1  0.001206  0.498924  0.000688  1
  Rh  Rh28  1  0.999830  0.999198  0.999368  1
  Rh  Rh29  1  0.499923  0.000186  0.500263  1
