# generated using pymatgen
data_Cs3Rb(CeS3)2
_symmetry_space_group_name_H-M   'P 1'
_cell_length_a   7.34113730
_cell_length_b   7.34113823
_cell_length_c   8.37023900
_cell_angle_alpha   81.49814013
_cell_angle_beta   81.49813905
_cell_angle_gamma   120.08345402
_symmetry_Int_Tables_number   1
_chemical_formula_structural   Cs3Rb(CeS3)2
_chemical_formula_sum   'Cs3 Rb1 Ce2 S6'
_cell_volume   372.82949929
_cell_formula_units_Z   1
loop_
 _symmetry_equiv_pos_site_id
 _symmetry_equiv_pos_as_xyz
  1  'x, y, z'
loop_
 _atom_site_type_symbol
 _atom_site_label
 _atom_site_symmetry_multiplicity
 _atom_site_fract_x
 _atom_site_fract_y
 _atom_site_fract_z
 _atom_site_occupancy
  Cs  Cs0  1  0.652221  0.347779  0.500000  1
  Cs  Cs1  1  0.347779  0.652221  0.500000  1
  Cs  Cs2  1  0.000000  0.000000  0.500000  1
  Rb  Rb3  1  0.500000  0.500000  0.000000  1
  Ce  Ce4  1  0.832524  0.167476  0.000000  1
  Ce  Ce5  1  0.167476  0.832524  0.000000  1
  S  S6  1  0.820288  0.820288  0.187168  1
  S  S7  1  0.179712  0.179712  0.812832  1
  S  S8  1  0.433940  0.048404  0.193663  1
  S  S9  1  0.566060  0.951596  0.806337  1
  S  S10  1  0.951596  0.566060  0.806337  1
  S  S11  1  0.048404  0.433940  0.193663  1
