# generated using pymatgen
data_Tb20Co4Bi7Te
_symmetry_space_group_name_H-M   'P 1'
_cell_length_a   8.05998187
_cell_length_b   8.84219954
_cell_length_c   12.46998118
_cell_angle_alpha   90.00749526
_cell_angle_beta   90.08615810
_cell_angle_gamma   89.97727430
_symmetry_Int_Tables_number   1
_chemical_formula_structural   Tb20Co4Bi7Te
_chemical_formula_sum   'Tb20 Co4 Bi7 Te1'
_cell_volume   888.70913717
_cell_formula_units_Z   1
loop_
 _symmetry_equiv_pos_site_id
 _symmetry_equiv_pos_as_xyz
  1  'x, y, z'
loop_
 _atom_site_type_symbol
 _atom_site_label
 _atom_site_symmetry_multiplicity
 _atom_site_fract_x
 _atom_site_fract_y
 _atom_site_fract_z
 _atom_site_occupancy
  Tb  Tb0  1  0.848948  0.748051  0.801506  1
  Tb  Tb1  1  0.149902  0.250278  0.197216  1
  Tb  Tb2  1  0.350098  0.251182  0.699001  1
  Tb  Tb3  1  0.650231  0.750846  0.301726  1
  Tb  Tb4  1  0.381322  0.748639  0.691081  1
  Tb  Tb5  1  0.618980  0.249789  0.309969  1
  Tb  Tb6  1  0.878733  0.251266  0.809026  1
  Tb  Tb7  1  0.118390  0.750022  0.190293  1
  Tb  Tb8  1  0.954065  0.750404  0.502060  1
  Tb  Tb9  1  0.046260  0.249412  0.498580  1
  Tb  Tb10  1  0.456071  0.251048  0.998008  1
  Tb  Tb11  1  0.545108  0.748763  0.001193  1
  Tb  Tb12  1  0.676851  0.036046  0.563884  1
  Tb  Tb13  1  0.323031  0.964810  0.437221  1
  Tb  Tb14  1  0.177148  0.965789  0.936485  1
  Tb  Tb15  1  0.323567  0.534873  0.437235  1
  Tb  Tb16  1  0.822368  0.034937  0.062353  1
  Tb  Tb17  1  0.677213  0.464521  0.563934  1
  Tb  Tb18  1  0.825143  0.464255  0.063802  1
  Tb  Tb19  1  0.176032  0.535565  0.936411  1
  Co  Co20  1  0.561132  0.749507  0.509266  1
  Co  Co21  1  0.439830  0.250162  0.492851  1
  Co  Co22  1  0.058962  0.250994  0.990616  1
  Co  Co23  1  0.939989  0.748822  0.006794  1
  Bi  Bi24  1  0.428474  0.508062  0.173966  1
  Bi  Bi25  1  0.072558  0.507829  0.674310  1
  Bi  Bi26  1  0.427746  0.992047  0.172972  1
  Bi  Bi27  1  0.927561  0.491941  0.325638  1
  Bi  Bi28  1  0.572096  0.007797  0.825815  1
  Bi  Bi29  1  0.928479  0.008329  0.325287  1
  Bi  Bi30  1  0.072572  0.992031  0.675580  1
  Te  Te31  1  0.571137  0.491984  0.825922  1
