# generated using pymatgen
data_YbSm2Lu5(B6Ru)4
_symmetry_space_group_name_H-M   'P 1'
_cell_length_a   3.63018900
_cell_length_b   9.08832948
_cell_length_c   11.48314572
_cell_angle_alpha   90.08497196
_cell_angle_beta   90.00000000
_cell_angle_gamma   90.00000000
_symmetry_Int_Tables_number   1
_chemical_formula_structural   YbSm2Lu5(B6Ru)4
_chemical_formula_sum   'Yb1 Sm2 Lu5 B24 Ru4'
_cell_volume   378.85558840
_cell_formula_units_Z   1
loop_
 _symmetry_equiv_pos_site_id
 _symmetry_equiv_pos_as_xyz
  1  'x, y, z'
loop_
 _atom_site_type_symbol
 _atom_site_label
 _atom_site_symmetry_multiplicity
 _atom_site_fract_x
 _atom_site_fract_y
 _atom_site_fract_z
 _atom_site_occupancy
  Yb  Yb0  1  0.000000  0.822715  0.085276  1
  Sm  Sm1  1  0.000000  0.321698  0.413895  1
  Sm  Sm2  1  0.000000  0.678623  0.585534  1
  Lu  Lu3  1  0.000000  0.176874  0.916089  1
  Lu  Lu4  1  0.000000  0.943190  0.369239  1
  Lu  Lu5  1  0.000000  0.056108  0.629219  1
  Lu  Lu6  1  0.000000  0.443882  0.127754  1
  Lu  Lu7  1  0.000000  0.557757  0.872938  1
  B  B8  1  0.500000  0.555087  0.431324  1
  B  B9  1  0.500000  0.443974  0.569665  1
  B  B10  1  0.500000  0.054595  0.066224  1
  B  B11  1  0.500000  0.946214  0.933135  1
  B  B12  1  0.500000  0.750289  0.416776  1
  B  B13  1  0.500000  0.249088  0.583368  1
  B  B14  1  0.500000  0.249493  0.079776  1
  B  B15  1  0.500000  0.751082  0.919132  1
  B  B16  1  0.500000  0.791223  0.263953  1
  B  B17  1  0.500000  0.207737  0.736826  1
  B  B18  1  0.500000  0.291066  0.232569  1
  B  B19  1  0.500000  0.710004  0.766872  1
  B  B20  1  0.500000  0.630444  0.183712  1
  B  B21  1  0.500000  0.368658  0.817554  1
  B  B22  1  0.500000  0.129579  0.313546  1
  B  B23  1  0.500000  0.871128  0.685390  1
  B  B24  1  0.500000  0.982771  0.211314  1
  B  B25  1  0.500000  0.018275  0.788377  1
  B  B26  1  0.500000  0.483824  0.285924  1
  B  B27  1  0.500000  0.515794  0.715084  1
  B  B28  1  0.500000  0.601506  0.027763  1
  B  B29  1  0.500000  0.396359  0.971816  1
  B  B30  1  0.500000  0.100835  0.472206  1
  B  B31  1  0.500000  0.899329  0.527245  1
  Ru  Ru32  1  0.000000  0.638737  0.319209  1
  Ru  Ru33  1  0.000000  0.359889  0.682436  1
  Ru  Ru34  1  0.000000  0.139387  0.178550  1
  Ru  Ru35  1  0.000000  0.862789  0.820313  1
