# generated using pymatgen
data_Cs2Pr10Co2Br17
_symmetry_space_group_name_H-M   'P 1'
_cell_length_a   9.58982555
_cell_length_b   11.24544321
_cell_length_c   11.24560889
_cell_angle_alpha   108.14877395
_cell_angle_beta   93.38439241
_cell_angle_gamma   93.38903489
_symmetry_Int_Tables_number   1
_chemical_formula_structural   Cs2Pr10Co2Br17
_chemical_formula_sum   'Cs2 Pr10 Co2 Br17'
_cell_volume   1146.55801362
_cell_formula_units_Z   1
loop_
 _symmetry_equiv_pos_site_id
 _symmetry_equiv_pos_as_xyz
  1  'x, y, z'
loop_
 _atom_site_type_symbol
 _atom_site_label
 _atom_site_symmetry_multiplicity
 _atom_site_fract_x
 _atom_site_fract_y
 _atom_site_fract_z
 _atom_site_occupancy
  Cs  Cs0  1  0.999225  0.820298  0.178767  1
  Cs  Cs1  1  0.999216  0.178763  0.820302  1
  Pr  Pr2  1  0.438419  0.168447  0.168444  1
  Pr  Pr3  1  0.573995  0.511400  0.201906  1
  Pr  Pr4  1  0.822945  0.292639  0.292646  1
  Pr  Pr5  1  0.313428  0.435473  0.435485  1
  Pr  Pr6  1  0.426277  0.798545  0.488821  1
  Pr  Pr7  1  0.573936  0.201876  0.511378  1
  Pr  Pr8  1  0.686999  0.565201  0.565199  1
  Pr  Pr9  1  0.176985  0.707069  0.707090  1
  Pr  Pr10  1  0.426294  0.488826  0.798560  1
  Pr  Pr11  1  0.561611  0.831825  0.831810  1
  Co  Co12  1  0.570225  0.358123  0.358126  1
  Co  Co13  1  0.430170  0.642309  0.642316  1
  Br  Br14  1  0.580722  0.687081  0.021160  1
  Br  Br15  1  0.711557  0.067296  0.067293  1
  Br  Br16  1  0.857364  0.449372  0.120287  1
  Br  Br17  1  0.132170  0.209125  0.209071  1
  Br  Br18  1  0.283876  0.603453  0.256052  1
  Br  Br19  1  0.419214  0.979220  0.312272  1
  Br  Br20  1  0.716508  0.744508  0.396980  1
  Br  Br21  1  0.857324  0.120281  0.449377  1
  Br  Br22  1  0.999753  0.499960  0.500021  1
  Br  Br23  1  0.142547  0.879515  0.550090  1
  Br  Br24  1  0.283834  0.256060  0.603493  1
  Br  Br25  1  0.580680  0.021163  0.687057  1
  Br  Br26  1  0.716496  0.396970  0.744467  1
  Br  Br27  1  0.868111  0.790894  0.790796  1
  Br  Br28  1  0.142552  0.550081  0.879531  1
  Br  Br29  1  0.288325  0.931909  0.931939  1
  Br  Br30  1  0.419245  0.312317  0.979265  1
