# generated using pymatgen
data_Sm2Hf3Co9As7
_symmetry_space_group_name_H-M   'P 1'
_cell_length_a   3.83697800
_cell_length_b   9.70787803
_cell_length_c   9.70787800
_cell_angle_alpha   119.99999990
_cell_angle_beta   90.00000000
_cell_angle_gamma   90.00000000
_symmetry_Int_Tables_number   1
_chemical_formula_structural   Sm2Hf3Co9As7
_chemical_formula_sum   'Sm2 Hf3 Co9 As7'
_cell_volume   313.16164258
_cell_formula_units_Z   1
loop_
 _symmetry_equiv_pos_site_id
 _symmetry_equiv_pos_as_xyz
  1  'x, y, z'
loop_
 _atom_site_type_symbol
 _atom_site_label
 _atom_site_symmetry_multiplicity
 _atom_site_fract_x
 _atom_site_fract_y
 _atom_site_fract_z
 _atom_site_occupancy
  Sm  Sm0  1  0.000000  0.666667  0.333333  1
  Sm  Sm1  1  0.500000  0.333333  0.666667  1
  Hf  Hf2  1  0.500000  0.770081  0.886393  1
  Hf  Hf3  1  0.500000  0.116311  0.229919  1
  Hf  Hf4  1  0.500000  0.113607  0.883689  1
  Co  Co5  1  0.000000  0.578757  0.937514  1
  Co  Co6  1  0.000000  0.358757  0.421243  1
  Co  Co7  1  0.000000  0.062486  0.641243  1
  Co  Co8  1  0.000000  0.878624  0.161877  1
  Co  Co9  1  0.000000  0.283253  0.121376  1
  Co  Co10  1  0.000000  0.838123  0.716747  1
  Co  Co11  1  0.500000  0.948501  0.389713  1
  Co  Co12  1  0.500000  0.441210  0.051499  1
  Co  Co13  1  0.500000  0.610287  0.558790  1
  As  As14  1  0.000000  0.000000  0.000000  1
  As  As15  1  0.500000  0.712854  0.129453  1
  As  As16  1  0.500000  0.416600  0.287146  1
  As  As17  1  0.500000  0.870547  0.583400  1
  As  As18  1  0.000000  0.574675  0.680516  1
  As  As19  1  0.000000  0.105841  0.425325  1
  As  As20  1  0.000000  0.319484  0.894159  1
