# generated using pymatgen
data_DyTmB6Rh
_symmetry_space_group_name_H-M   'P 1'
_cell_length_a   3.64192400
_cell_length_b   9.14199600
_cell_length_c   11.48524000
_cell_angle_alpha   90.00000000
_cell_angle_beta   90.00000000
_cell_angle_gamma   90.00000000
_symmetry_Int_Tables_number   1
_chemical_formula_structural   DyTmB6Rh
_chemical_formula_sum   'Dy4 Tm4 B24 Rh4'
_cell_volume   382.39480221
_cell_formula_units_Z   4
loop_
 _symmetry_equiv_pos_site_id
 _symmetry_equiv_pos_as_xyz
  1  'x, y, z'
loop_
 _atom_site_type_symbol
 _atom_site_label
 _atom_site_symmetry_multiplicity
 _atom_site_fract_x
 _atom_site_fract_y
 _atom_site_fract_z
 _atom_site_occupancy
  Dy  Dy0  1  0.500000  0.322084  0.413603  1
  Dy  Dy1  1  0.500000  0.677916  0.586397  1
  Dy  Dy2  1  0.500000  0.177916  0.913603  1
  Dy  Dy3  1  0.500000  0.822084  0.086397  1
  Tm  Tm4  1  0.500000  0.444515  0.126675  1
  Tm  Tm5  1  0.500000  0.555485  0.873325  1
  Tm  Tm6  1  0.500000  0.055485  0.626675  1
  Tm  Tm7  1  0.500000  0.944515  0.373325  1
  B  B8  1  0.000000  0.108067  0.470706  1
  B  B9  1  0.000000  0.891933  0.529294  1
  B  B10  1  0.000000  0.391933  0.970706  1
  B  B11  1  0.000000  0.608067  0.029294  1
  B  B12  1  0.000000  0.132682  0.316228  1
  B  B13  1  0.000000  0.867318  0.683772  1
  B  B14  1  0.000000  0.367318  0.816228  1
  B  B15  1  0.000000  0.632682  0.183772  1
  B  B16  1  0.000000  0.054487  0.065525  1
  B  B17  1  0.000000  0.945513  0.934475  1
  B  B18  1  0.000000  0.445513  0.565525  1
  B  B19  1  0.000000  0.554487  0.434475  1
  B  B20  1  0.000000  0.483092  0.285970  1
  B  B21  1  0.000000  0.516908  0.714030  1
  B  B22  1  0.000000  0.016908  0.785970  1
  B  B23  1  0.000000  0.983092  0.214030  1
  B  B24  1  0.000000  0.250173  0.079557  1
  B  B25  1  0.000000  0.749827  0.920443  1
  B  B26  1  0.000000  0.249827  0.579557  1
  B  B27  1  0.000000  0.750173  0.420443  1
  B  B28  1  0.000000  0.294559  0.235515  1
  B  B29  1  0.000000  0.705441  0.764485  1
  B  B30  1  0.000000  0.205441  0.735515  1
  B  B31  1  0.000000  0.794559  0.264485  1
  Rh  Rh32  1  0.500000  0.140037  0.179121  1
  Rh  Rh33  1  0.500000  0.859963  0.820879  1
  Rh  Rh34  1  0.500000  0.359963  0.679121  1
  Rh  Rh35  1  0.500000  0.640037  0.320879  1
