# generated using pymatgen
data_Li8Gd8Sn7Pb
_symmetry_space_group_name_H-M   'P 1'
_cell_length_a   9.46000961
_cell_length_b   9.45324298
_cell_length_c   7.46488073
_cell_angle_alpha   89.94928972
_cell_angle_beta   90.02729652
_cell_angle_gamma   120.05447207
_symmetry_Int_Tables_number   1
_chemical_formula_structural   Li8Gd8Sn7Pb
_chemical_formula_sum   'Li8 Gd8 Sn7 Pb1'
_cell_volume   577.81270659
_cell_formula_units_Z   1
loop_
 _symmetry_equiv_pos_site_id
 _symmetry_equiv_pos_as_xyz
  1  'x, y, z'
loop_
 _atom_site_type_symbol
 _atom_site_label
 _atom_site_symmetry_multiplicity
 _atom_site_fract_x
 _atom_site_fract_y
 _atom_site_fract_z
 _atom_site_occupancy
  Li  Li0  1  0.833586  0.166467  0.210599  1
  Li  Li1  1  0.832951  0.666542  0.208344  1
  Li  Li2  1  0.333426  0.166996  0.208237  1
  Li  Li3  1  0.166486  0.833524  0.708667  1
  Li  Li4  1  0.168711  0.334344  0.707235  1
  Li  Li5  1  0.665784  0.831199  0.707331  1
  Li  Li6  1  0.665495  0.334360  0.831515  1
  Li  Li7  1  0.333780  0.666453  0.331051  1
  Gd  Gd8  1  0.486535  0.513357  0.005452  1
  Gd  Gd9  1  0.484601  0.972570  0.006039  1
  Gd  Gd10  1  0.027066  0.515363  0.005997  1
  Gd  Gd11  1  0.513547  0.486519  0.505481  1
  Gd  Gd12  1  0.511301  0.025351  0.504351  1
  Gd  Gd13  1  0.974760  0.488965  0.503920  1
  Gd  Gd14  1  0.001016  0.999032  0.001608  1
  Gd  Gd15  1  0.001401  0.998780  0.499556  1
  Sn  Sn16  1  0.833947  0.667480  0.773537  1
  Sn  Sn17  1  0.332325  0.166221  0.773761  1
  Sn  Sn18  1  0.166153  0.833668  0.273556  1
  Sn  Sn19  1  0.166109  0.332323  0.273938  1
  Sn  Sn20  1  0.667335  0.833964  0.273830  1
  Sn  Sn21  1  0.666793  0.333165  0.234986  1
  Sn  Sn22  1  0.333442  0.666982  0.734769  1
  Pb  Pb23  1  0.833448  0.166372  0.773722  1
