# generated using pymatgen
data_Pr4Ga10Cu5Ni
_symmetry_space_group_name_H-M   'P 1'
_cell_length_a   8.39255542
_cell_length_b   8.39255599
_cell_length_c   8.39255500
_cell_angle_alpha   137.87869341
_cell_angle_beta   105.63933201
_cell_angle_gamma   89.35211452
_symmetry_Int_Tables_number   1
_chemical_formula_structural   Pr4Ga10Cu5Ni
_chemical_formula_sum   'Pr4 Ga10 Cu5 Ni1'
_cell_volume   365.14491949
_cell_formula_units_Z   1
loop_
 _symmetry_equiv_pos_site_id
 _symmetry_equiv_pos_as_xyz
  1  'x, y, z'
loop_
 _atom_site_type_symbol
 _atom_site_label
 _atom_site_symmetry_multiplicity
 _atom_site_fract_x
 _atom_site_fract_y
 _atom_site_fract_z
 _atom_site_occupancy
  Pr  Pr0  1  0.628186  0.869105  0.756824  1
  Pr  Pr1  1  0.371814  0.128636  0.240919  1
  Pr  Pr2  1  0.112283  0.371364  0.743176  1
  Pr  Pr3  1  0.887717  0.630895  0.259081  1
  Ga  Ga4  1  0.261809  0.011809  0.750000  1
  Ga  Ga5  1  0.739276  0.989276  0.250000  1
  Ga  Ga6  1  0.738191  0.488191  0.750000  1
  Ga  Ga7  1  0.260724  0.510724  0.250000  1
  Ga  Ga8  1  0.465503  0.602519  0.850874  1
  Ga  Ga9  1  0.534497  0.385371  0.137017  1
  Ga  Ga10  1  0.751645  0.114629  0.649126  1
  Ga  Ga11  1  0.248355  0.897481  0.362983  1
  Ga  Ga12  1  0.000000  0.750000  0.750000  1
  Ga  Ga13  1  0.000000  0.250000  0.250000  1
  Cu  Cu14  1  0.249760  0.630245  0.618825  1
  Cu  Cu15  1  0.750240  0.369064  0.380485  1
  Cu  Cu16  1  0.011421  0.130936  0.881175  1
  Cu  Cu17  1  0.988579  0.869755  0.119515  1
  Cu  Cu18  1  0.500000  0.750000  0.250000  1
  Ni  Ni19  1  0.500000  0.250000  0.750000  1
