# generated using pymatgen
data_Tb5Ho7Ga2(NiRu)2
_symmetry_space_group_name_H-M   'P 1'
_cell_length_a   8.33668814
_cell_length_b   8.33652386
_cell_length_c   8.34336203
_cell_angle_alpha   113.01095619
_cell_angle_beta   110.17454752
_cell_angle_gamma   105.28145694
_symmetry_Int_Tables_number   1
_chemical_formula_structural   Tb5Ho7Ga2(NiRu)2
_chemical_formula_sum   'Tb5 Ho7 Ga2 Ni2 Ru2'
_cell_volume   444.53368592
_cell_formula_units_Z   1
loop_
 _symmetry_equiv_pos_site_id
 _symmetry_equiv_pos_as_xyz
  1  'x, y, z'
loop_
 _atom_site_type_symbol
 _atom_site_label
 _atom_site_symmetry_multiplicity
 _atom_site_fract_x
 _atom_site_fract_y
 _atom_site_fract_z
 _atom_site_occupancy
  Tb  Tb0  1  0.436349  0.242543  0.193363  1
  Tb  Tb1  1  0.564336  0.757735  0.807355  1
  Tb  Tb2  1  0.049534  0.243125  0.807425  1
  Tb  Tb3  1  0.950913  0.756930  0.193292  1
  Tb  Tb4  1  0.179394  0.278744  0.458175  1
  Ho  Ho5  1  0.820446  0.721322  0.541709  1
  Ho  Ho6  1  0.179307  0.721433  0.900602  1
  Ho  Ho7  1  0.820040  0.278617  0.098838  1
  Ho  Ho8  1  0.330109  0.642368  0.312558  1
  Ho  Ho9  1  0.671037  0.358099  0.688091  1
  Ho  Ho10  1  0.330023  0.017113  0.688084  1
  Ho  Ho11  1  0.670224  0.982525  0.312626  1
  Ga  Ga12  1  0.500502  0.499817  0.000404  1
  Ga  Ga13  1  0.999218  0.999005  0.998234  1
  Ni  Ni14  1  0.116735  0.618269  0.499795  1
  Ni  Ni15  1  0.881536  0.383224  0.500050  1
  Ru  Ru16  1  0.329986  0.999297  0.329218  1
  Ru  Ru17  1  0.670310  0.999837  0.670182  1
