# generated using pymatgen
data_Ta3ReSi3W2
_symmetry_space_group_name_H-M   'P 1'
_cell_length_a   6.91960195
_cell_length_b   6.90387427
_cell_length_c   3.34517800
_cell_angle_alpha   90.00000000
_cell_angle_beta   90.00000000
_cell_angle_gamma   119.92485706
_symmetry_Int_Tables_number   1
_chemical_formula_structural   Ta3ReSi3W2
_chemical_formula_sum   'Ta3 Re1 Si3 W2'
_cell_volume   138.50077237
_cell_formula_units_Z   1
loop_
 _symmetry_equiv_pos_site_id
 _symmetry_equiv_pos_as_xyz
  1  'x, y, z'
loop_
 _atom_site_type_symbol
 _atom_site_label
 _atom_site_symmetry_multiplicity
 _atom_site_fract_x
 _atom_site_fract_y
 _atom_site_fract_z
 _atom_site_occupancy
  Ta  Ta0  1  0.409489  0.399790  0.500000  1
  Ta  Ta1  1  0.590511  0.990301  0.500000  1
  Ta  Ta2  1  0.000000  0.607648  0.500000  1
  Re  Re3  1  0.000000  0.260555  0.000000  1
  Si  Si4  1  0.671268  0.331173  0.000000  1
  Si  Si5  1  0.328732  0.659906  0.000000  1
  Si  Si6  1  0.000000  0.007566  0.500000  1
  W  W7  1  0.742788  0.742924  0.000000  1
  W  W8  1  0.257212  0.000136  0.000000  1
