# generated using pymatgen
data_TbZrCo6(Ni2P3)2
_symmetry_space_group_name_H-M   'P 1'
_cell_length_a   3.65324800
_cell_length_b   10.18831700
_cell_length_c   11.81414600
_cell_angle_alpha   90.00000000
_cell_angle_beta   90.00000000
_cell_angle_gamma   90.00000000
_symmetry_Int_Tables_number   1
_chemical_formula_structural   TbZrCo6(Ni2P3)2
_chemical_formula_sum   'Tb2 Zr2 Co12 Ni8 P12'
_cell_volume   439.72781517
_cell_formula_units_Z   2
loop_
 _symmetry_equiv_pos_site_id
 _symmetry_equiv_pos_as_xyz
  1  'x, y, z'
loop_
 _atom_site_type_symbol
 _atom_site_label
 _atom_site_symmetry_multiplicity
 _atom_site_fract_x
 _atom_site_fract_y
 _atom_site_fract_z
 _atom_site_occupancy
  Tb  Tb0  1  0.750000  0.418849  0.294795  1
  Tb  Tb1  1  0.750000  0.081151  0.794795  1
  Zr  Zr2  1  0.250000  0.579803  0.705114  1
  Zr  Zr3  1  0.250000  0.920197  0.205114  1
  Co  Co4  1  0.250000  0.220147  0.176682  1
  Co  Co5  1  0.250000  0.279853  0.676682  1
  Co  Co6  1  0.750000  0.777212  0.822563  1
  Co  Co7  1  0.750000  0.722788  0.322563  1
  Co  Co8  1  0.250000  0.878067  0.697113  1
  Co  Co9  1  0.250000  0.621933  0.197113  1
  Co  Co10  1  0.750000  0.117082  0.301049  1
  Co  Co11  1  0.750000  0.382918  0.801049  1
  Co  Co12  1  0.250000  0.470397  0.930168  1
  Co  Co13  1  0.250000  0.029603  0.430168  1
  Co  Co14  1  0.750000  0.536368  0.065331  1
  Co  Co15  1  0.750000  0.963632  0.565331  1
  Ni  Ni16  1  0.250000  0.715341  0.991973  1
  Ni  Ni17  1  0.250000  0.784659  0.491973  1
  Ni  Ni18  1  0.750000  0.286063  0.011303  1
  Ni  Ni19  1  0.750000  0.213937  0.511303  1
  Ni  Ni20  1  0.250000  0.410723  0.487068  1
  Ni  Ni21  1  0.250000  0.089277  0.987068  1
  Ni  Ni22  1  0.750000  0.592402  0.518817  1
  Ni  Ni23  1  0.750000  0.907598  0.018817  1
  P  P24  1  0.250000  0.420758  0.111128  1
  P  P25  1  0.250000  0.079242  0.611128  1
  P  P26  1  0.750000  0.580518  0.883296  1
  P  P27  1  0.750000  0.919482  0.383296  1
  P  P28  1  0.250000  0.272214  0.867039  1
  P  P29  1  0.250000  0.227786  0.367039  1
  P  P30  1  0.750000  0.732491  0.135375  1
  P  P31  1  0.750000  0.767509  0.635375  1
  P  P32  1  0.250000  0.605989  0.387393  1
  P  P33  1  0.250000  0.894011  0.887393  1
  P  P34  1  0.750000  0.397307  0.613794  1
  P  P35  1  0.750000  0.102693  0.113794  1
