# generated using pymatgen
data_Hf6Zn16Cu7Si
_symmetry_space_group_name_H-M   'P 1'
_cell_length_a   8.60572075
_cell_length_b   8.60572021
_cell_length_c   8.60572000
_cell_angle_alpha   60.00000083
_cell_angle_beta   60.00000287
_cell_angle_gamma   59.99999765
_symmetry_Int_Tables_number   1
_chemical_formula_structural   Hf6Zn16Cu7Si
_chemical_formula_sum   'Hf6 Zn16 Cu7 Si1'
_cell_volume   450.65758988
_cell_formula_units_Z   1
loop_
 _symmetry_equiv_pos_site_id
 _symmetry_equiv_pos_as_xyz
  1  'x, y, z'
loop_
 _atom_site_type_symbol
 _atom_site_label
 _atom_site_symmetry_multiplicity
 _atom_site_fract_x
 _atom_site_fract_y
 _atom_site_fract_z
 _atom_site_occupancy
  Hf  Hf0  1  0.711103  0.288897  0.288897  1
  Hf  Hf1  1  0.288897  0.711103  0.711103  1
  Hf  Hf2  1  0.288897  0.711103  0.288897  1
  Hf  Hf3  1  0.711103  0.288897  0.711103  1
  Hf  Hf4  1  0.288897  0.288897  0.711103  1
  Hf  Hf5  1  0.711103  0.711103  0.288897  1
  Zn  Zn6  1  0.122022  0.122022  0.122022  1
  Zn  Zn7  1  0.877978  0.877978  0.877978  1
  Zn  Zn8  1  0.122022  0.122022  0.633935  1
  Zn  Zn9  1  0.122022  0.633935  0.122022  1
  Zn  Zn10  1  0.877978  0.877978  0.366065  1
  Zn  Zn11  1  0.877978  0.366065  0.877978  1
  Zn  Zn12  1  0.633935  0.122022  0.122022  1
  Zn  Zn13  1  0.366065  0.877978  0.877978  1
  Zn  Zn14  1  0.335891  0.335891  0.335891  1
  Zn  Zn15  1  0.664109  0.664109  0.664109  1
  Zn  Zn16  1  0.335891  0.335891  0.992326  1
  Zn  Zn17  1  0.335891  0.992326  0.335891  1
  Zn  Zn18  1  0.664109  0.664109  0.007674  1
  Zn  Zn19  1  0.664109  0.007674  0.664109  1
  Zn  Zn20  1  0.992326  0.335891  0.335891  1
  Zn  Zn21  1  0.007674  0.664109  0.664109  1
  Cu  Cu22  1  0.500000  0.000000  0.000000  1
  Cu  Cu23  1  0.000000  0.500000  0.500000  1
  Cu  Cu24  1  0.000000  0.500000  0.000000  1
  Cu  Cu25  1  0.500000  0.000000  0.500000  1
  Cu  Cu26  1  0.000000  0.000000  0.500000  1
  Cu  Cu27  1  0.500000  0.500000  0.000000  1
  Cu  Cu28  1  0.000000  0.000000  0.000000  1
  Si  Si29  1  0.500000  0.500000  0.500000  1
