# generated using pymatgen
data_Tb8Dy8Cd4IrRu3
_symmetry_space_group_name_H-M   'P 1'
_cell_length_a   9.63995709
_cell_length_b   9.65441431
_cell_length_c   9.66469400
_cell_angle_alpha   59.96477159
_cell_angle_beta   59.91507836
_cell_angle_gamma   59.89225627
_symmetry_Int_Tables_number   1
_chemical_formula_structural   Tb8Dy8Cd4IrRu3
_chemical_formula_sum   'Tb8 Dy8 Cd4 Ir1 Ru3'
_cell_volume   634.92845081
_cell_formula_units_Z   1
loop_
 _symmetry_equiv_pos_site_id
 _symmetry_equiv_pos_as_xyz
  1  'x, y, z'
loop_
 _atom_site_type_symbol
 _atom_site_label
 _atom_site_symmetry_multiplicity
 _atom_site_fract_x
 _atom_site_fract_y
 _atom_site_fract_z
 _atom_site_occupancy
  Tb  Tb0  1  0.438567  0.438783  0.061325  1
  Tb  Tb1  1  0.062011  0.059748  0.439121  1
  Tb  Tb2  1  0.187878  0.811673  0.811545  1
  Tb  Tb3  1  0.810808  0.188592  0.188508  1
  Tb  Tb4  1  0.810808  0.188592  0.812093  1
  Tb  Tb5  1  0.187878  0.811673  0.188903  1
  Tb  Tb6  1  0.810807  0.812399  0.188397  1
  Tb  Tb7  1  0.188136  0.189149  0.811358  1
  Dy  Dy8  1  0.595716  0.597957  0.597851  1
  Dy  Dy9  1  0.595716  0.597957  0.208477  1
  Dy  Dy10  1  0.595302  0.209047  0.597826  1
  Dy  Dy11  1  0.212943  0.595208  0.595925  1
  Dy  Dy12  1  0.061804  0.439063  0.439223  1
  Dy  Dy13  1  0.438634  0.061022  0.061127  1
  Dy  Dy14  1  0.438634  0.061022  0.439217  1
  Dy  Dy15  1  0.061804  0.439063  0.059911  1
  Cd  Cd16  1  0.830344  0.829821  0.830160  1
  Cd  Cd17  1  0.830344  0.829821  0.509676  1
  Cd  Cd18  1  0.830546  0.509431  0.830012  1
  Cd  Cd19  1  0.508291  0.830501  0.830604  1
  Ir  Ir20  1  0.827009  0.391565  0.390713  1
  Ru  Ru21  1  0.391879  0.388609  0.388397  1
  Ru  Ru22  1  0.391879  0.388609  0.831116  1
  Ru  Ru23  1  0.392260  0.830699  0.388521  1
