# generated using pymatgen
data_Ho4Tm(In2Ni)2
_symmetry_space_group_name_H-M   'P 1'
_cell_length_a   3.55143900
_cell_length_b   8.00053785
_cell_length_c   17.88212993
_cell_angle_alpha   89.94701528
_cell_angle_beta   90.00000000
_cell_angle_gamma   90.00000000
_symmetry_Int_Tables_number   1
_chemical_formula_structural   Ho4Tm(In2Ni)2
_chemical_formula_sum   'Ho8 Tm2 In8 Ni4'
_cell_volume   508.09228904
_cell_formula_units_Z   2
loop_
 _symmetry_equiv_pos_site_id
 _symmetry_equiv_pos_as_xyz
  1  'x, y, z'
loop_
 _atom_site_type_symbol
 _atom_site_label
 _atom_site_symmetry_multiplicity
 _atom_site_fract_x
 _atom_site_fract_y
 _atom_site_fract_z
 _atom_site_occupancy
  Ho  Ho0  1  0.000000  0.500000  0.500000  1
  Ho  Ho1  1  0.000000  0.000000  0.000000  1
  Ho  Ho2  1  0.000000  0.745381  0.278776  1
  Ho  Ho3  1  0.000000  0.254619  0.721224  1
  Ho  Ho4  1  0.000000  0.754731  0.778293  1
  Ho  Ho5  1  0.000000  0.245269  0.221707  1
  Ho  Ho6  1  0.000000  0.617266  0.087715  1
  Ho  Ho7  1  0.000000  0.382734  0.912285  1
  Tm  Tm8  1  0.000000  0.882849  0.588102  1
  Tm  Tm9  1  0.000000  0.117151  0.411898  1
  In  In10  1  0.500000  0.706252  0.930964  1
  In  In11  1  0.500000  0.293748  0.069036  1
  In  In12  1  0.500000  0.796355  0.431575  1
  In  In13  1  0.500000  0.203645  0.568425  1
  In  In14  1  0.500000  0.574287  0.651568  1
  In  In15  1  0.500000  0.425713  0.348432  1
  In  In16  1  0.500000  0.927615  0.152122  1
  In  In17  1  0.500000  0.072385  0.847878  1
  Ni  Ni18  1  0.500000  0.523544  0.195424  1
  Ni  Ni19  1  0.500000  0.476456  0.804576  1
  Ni  Ni20  1  0.500000  0.975413  0.694493  1
  Ni  Ni21  1  0.500000  0.024587  0.305507  1
