# generated using pymatgen
data_DyYCo4(PRh)6
_symmetry_space_group_name_H-M   'P 1'
_cell_length_a   3.79853600
_cell_length_b   10.67147900
_cell_length_c   12.23603700
_cell_angle_alpha   90.00000000
_cell_angle_beta   90.00000000
_cell_angle_gamma   90.00000000
_symmetry_Int_Tables_number   1
_chemical_formula_structural   DyYCo4(PRh)6
_chemical_formula_sum   'Dy2 Y2 Co8 P12 Rh12'
_cell_volume   495.99996102
_cell_formula_units_Z   2
loop_
 _symmetry_equiv_pos_site_id
 _symmetry_equiv_pos_as_xyz
  1  'x, y, z'
loop_
 _atom_site_type_symbol
 _atom_site_label
 _atom_site_symmetry_multiplicity
 _atom_site_fract_x
 _atom_site_fract_y
 _atom_site_fract_z
 _atom_site_occupancy
  Dy  Dy0  1  0.750000  0.416750  0.291158  1
  Dy  Dy1  1  0.750000  0.083250  0.791158  1
  Y  Y2  1  0.250000  0.583207  0.708926  1
  Y  Y3  1  0.250000  0.916793  0.208926  1
  Co  Co4  1  0.250000  0.884395  0.696683  1
  Co  Co5  1  0.250000  0.615605  0.196683  1
  Co  Co6  1  0.750000  0.115816  0.303367  1
  Co  Co7  1  0.750000  0.384184  0.803367  1
  Co  Co8  1  0.250000  0.463856  0.932949  1
  Co  Co9  1  0.250000  0.036144  0.432949  1
  Co  Co10  1  0.750000  0.536067  0.067187  1
  Co  Co11  1  0.750000  0.963933  0.567187  1
  P  P12  1  0.250000  0.430465  0.110704  1
  P  P13  1  0.250000  0.069535  0.610704  1
  P  P14  1  0.750000  0.569548  0.889442  1
  P  P15  1  0.750000  0.930452  0.389442  1
  P  P16  1  0.250000  0.274642  0.870987  1
  P  P17  1  0.250000  0.225358  0.370987  1
  P  P18  1  0.750000  0.725277  0.128930  1
  P  P19  1  0.750000  0.774723  0.628930  1
  P  P20  1  0.250000  0.600100  0.381423  1
  P  P21  1  0.250000  0.899900  0.881423  1
  P  P22  1  0.750000  0.399799  0.618490  1
  P  P23  1  0.750000  0.100201  0.118490  1
  Rh  Rh24  1  0.250000  0.715719  0.991089  1
  Rh  Rh25  1  0.250000  0.784281  0.491089  1
  Rh  Rh26  1  0.750000  0.284257  0.008926  1
  Rh  Rh27  1  0.750000  0.215743  0.508926  1
  Rh  Rh28  1  0.250000  0.408594  0.479222  1
  Rh  Rh29  1  0.250000  0.091406  0.979222  1
  Rh  Rh30  1  0.750000  0.591369  0.520500  1
  Rh  Rh31  1  0.750000  0.908631  0.020500  1
  Rh  Rh32  1  0.250000  0.225628  0.179975  1
  Rh  Rh33  1  0.250000  0.274372  0.679975  1
  Rh  Rh34  1  0.750000  0.774570  0.820043  1
  Rh  Rh35  1  0.750000  0.725430  0.320043  1
