# generated using pymatgen
data_Zr6Tl4SBr18
_symmetry_space_group_name_H-M   'P 1'
_cell_length_a   10.52325722
_cell_length_b   10.67611478
_cell_length_c   10.77548900
_cell_angle_alpha   118.49964158
_cell_angle_beta   100.09615549
_cell_angle_gamma   103.98847252
_symmetry_Int_Tables_number   1
_chemical_formula_structural   Zr6Tl4SBr18
_chemical_formula_sum   'Zr6 Tl4 S1 Br18'
_cell_volume   970.53832083
_cell_formula_units_Z   1
loop_
 _symmetry_equiv_pos_site_id
 _symmetry_equiv_pos_as_xyz
  1  'x, y, z'
loop_
 _atom_site_type_symbol
 _atom_site_label
 _atom_site_symmetry_multiplicity
 _atom_site_fract_x
 _atom_site_fract_y
 _atom_site_fract_z
 _atom_site_occupancy
  Zr  Zr0  1  0.347186  0.442944  0.765273  1
  Zr  Zr1  1  0.359509  0.629273  0.136018  1
  Zr  Zr2  1  0.647797  0.743700  0.045808  1
  Zr  Zr3  1  0.652814  0.557056  0.234727  1
  Zr  Zr4  1  0.352203  0.256300  0.954192  1
  Zr  Zr5  1  0.640491  0.370727  0.863982  1
  Tl  Tl6  1  0.186886  0.725182  0.563755  1
  Tl  Tl7  1  0.847446  0.962641  0.772774  1
  Tl  Tl8  1  0.152554  0.037359  0.227226  1
  Tl  Tl9  1  0.813114  0.274818  0.436245  1
  S  S10  1  0.500000  0.500000  0.000000  1
  Br  Br11  1  0.824452  0.421350  0.111145  1
  Br  Br12  1  0.515221  0.706940  0.413483  1
  Br  Br13  1  0.178097  0.978970  0.899639  1
  Br  Br14  1  0.175548  0.578650  0.888855  1
  Br  Br15  1  0.833010  0.837752  0.314834  1
  Br  Br16  1  0.503921  0.293454  0.211850  1
  Br  Br17  1  0.795951  0.224792  0.711657  1
  Br  Br18  1  0.166990  0.162248  0.685166  1
  Br  Br19  1  0.508379  0.914944  0.199649  1
  Br  Br20  1  0.820963  0.629481  0.902098  1
  Br  Br21  1  0.204049  0.775208  0.288343  1
  Br  Br22  1  0.167419  0.378774  0.499336  1
  Br  Br23  1  0.496079  0.706546  0.788150  1
  Br  Br24  1  0.821903  0.021030  0.100361  1
  Br  Br25  1  0.484779  0.293060  0.586517  1
  Br  Br26  1  0.179037  0.370519  0.097902  1
  Br  Br27  1  0.832581  0.621226  0.500664  1
  Br  Br28  1  0.491621  0.085056  0.800351  1
