# generated using pymatgen
data_Ac2PrNd(AsPt)4
_symmetry_space_group_name_H-M   'P 1'
_cell_length_a   4.42162200
_cell_length_b   4.42162252
_cell_length_c   16.51980400
_cell_angle_alpha   90.00000000
_cell_angle_beta   90.00000000
_cell_angle_gamma   120.00001108
_symmetry_Int_Tables_number   1
_chemical_formula_structural   Ac2PrNd(AsPt)4
_chemical_formula_sum   'Ac2 Pr1 Nd1 As4 Pt4'
_cell_volume   279.70404649
_cell_formula_units_Z   1
loop_
 _symmetry_equiv_pos_site_id
 _symmetry_equiv_pos_as_xyz
  1  'x, y, z'
loop_
 _atom_site_type_symbol
 _atom_site_label
 _atom_site_symmetry_multiplicity
 _atom_site_fract_x
 _atom_site_fract_y
 _atom_site_fract_z
 _atom_site_occupancy
  Ac  Ac0  1  0.000000  0.000000  0.249495  1
  Ac  Ac1  1  0.000000  0.000000  0.750505  1
  Pr  Pr2  1  0.000000  0.000000  0.500000  1
  Nd  Nd3  1  0.000000  0.000000  0.000000  1
  As  As4  1  0.333333  0.666667  0.885228  1
  As  As5  1  0.666667  0.333333  0.114772  1
  As  As6  1  0.666667  0.333333  0.384169  1
  As  As7  1  0.333333  0.666667  0.615831  1
  Pt  Pt8  1  0.333333  0.666667  0.375706  1
  Pt  Pt9  1  0.666667  0.333333  0.624294  1
  Pt  Pt10  1  0.666667  0.333333  0.877006  1
  Pt  Pt11  1  0.333333  0.666667  0.122994  1
