# generated using pymatgen
data_Nd7Th(BeSi3)4
_symmetry_space_group_name_H-M   'P 1'
_cell_length_a   7.95243234
_cell_length_b   7.95243341
_cell_length_c   8.54964200
_cell_angle_alpha   90.00000000
_cell_angle_beta   90.00000000
_cell_angle_gamma   119.96844094
_symmetry_Int_Tables_number   1
_chemical_formula_structural   Nd7Th(BeSi3)4
_chemical_formula_sum   'Nd7 Th1 Be4 Si12'
_cell_volume   468.39969948
_cell_formula_units_Z   1
loop_
 _symmetry_equiv_pos_site_id
 _symmetry_equiv_pos_as_xyz
  1  'x, y, z'
loop_
 _atom_site_type_symbol
 _atom_site_label
 _atom_site_symmetry_multiplicity
 _atom_site_fract_x
 _atom_site_fract_y
 _atom_site_fract_z
 _atom_site_occupancy
  Nd  Nd0  1  0.500266  0.499734  0.250000  1
  Nd  Nd1  1  0.000587  0.500315  0.750000  1
  Nd  Nd2  1  0.999427  0.499653  0.250000  1
  Nd  Nd3  1  0.499685  0.999413  0.750000  1
  Nd  Nd4  1  0.500347  0.000573  0.250000  1
  Nd  Nd5  1  0.000004  0.999996  0.750000  1
  Nd  Nd6  1  0.999996  0.000004  0.250000  1
  Th  Th7  1  0.499753  0.500247  0.750000  1
  Be  Be8  1  0.666129  0.333871  0.998596  1
  Be  Be9  1  0.333858  0.666142  0.000626  1
  Be  Be10  1  0.333858  0.666142  0.499374  1
  Be  Be11  1  0.666129  0.333871  0.501404  1
  Si  Si12  1  0.827672  0.172328  0.999929  1
  Si  Si13  1  0.172322  0.827678  0.001080  1
  Si  Si14  1  0.344198  0.171986  0.999257  1
  Si  Si15  1  0.172322  0.827678  0.498920  1
  Si  Si16  1  0.655764  0.827988  0.000252  1
  Si  Si17  1  0.827672  0.172328  0.500071  1
  Si  Si18  1  0.828014  0.655802  0.999257  1
  Si  Si19  1  0.655764  0.827988  0.499748  1
  Si  Si20  1  0.172012  0.344236  0.000252  1
  Si  Si21  1  0.344198  0.171986  0.500743  1
  Si  Si22  1  0.172012  0.344236  0.499748  1
  Si  Si23  1  0.828014  0.655802  0.500743  1
