# generated using pymatgen
data_CaYbTmGa8Ag3
_symmetry_space_group_name_H-M   'P 1'
_cell_length_a   4.37616440
_cell_length_b   8.36170683
_cell_length_c   8.36170675
_cell_angle_alpha   70.92086689
_cell_angle_beta   74.83030809
_cell_angle_gamma   74.83030390
_symmetry_Int_Tables_number   1
_chemical_formula_structural   CaYbTmGa8Ag3
_chemical_formula_sum   'Ca1 Yb1 Tm1 Ga8 Ag3'
_cell_volume   273.83632536
_cell_formula_units_Z   1
loop_
 _symmetry_equiv_pos_site_id
 _symmetry_equiv_pos_as_xyz
  1  'x, y, z'
loop_
 _atom_site_type_symbol
 _atom_site_label
 _atom_site_symmetry_multiplicity
 _atom_site_fract_x
 _atom_site_fract_y
 _atom_site_fract_z
 _atom_site_occupancy
  Ca  Ca0  1  0.500235  0.499765  0.499765  1
  Yb  Yb1  1  0.200242  0.799758  0.799758  1
  Tm  Tm2  1  0.797870  0.202130  0.202130  1
  Ga  Ga3  1  0.357125  0.361078  0.924671  1
  Ga  Ga4  1  0.644409  0.636960  0.074223  1
  Ga  Ga5  1  0.357125  0.924671  0.361078  1
  Ga  Ga6  1  0.644409  0.074223  0.636960  1
  Ga  Ga7  1  0.161037  0.470540  0.207387  1
  Ga  Ga8  1  0.838211  0.528508  0.795070  1
  Ga  Ga9  1  0.161037  0.207387  0.470540  1
  Ga  Ga10  1  0.838211  0.795070  0.528508  1
  Ag  Ag11  1  0.499691  0.000309  0.000309  1
  Ag  Ag12  1  0.000199  0.807658  0.191944  1
  Ag  Ag13  1  0.000199  0.191944  0.807658  1
