# generated using pymatgen
data_Ti8Al10Ga5Fe5Rh2
_symmetry_space_group_name_H-M   'P 1'
_cell_length_a   8.48734584
_cell_length_b   8.48734532
_cell_length_c   8.48734510
_cell_angle_alpha   119.93310049
_cell_angle_beta   120.01188925
_cell_angle_gamma   90.04765841
_symmetry_Int_Tables_number   1
_chemical_formula_structural   Ti8Al10Ga5Fe5Rh2
_chemical_formula_sum   'Ti8 Al10 Ga5 Fe5 Rh2'
_cell_volume   432.49464921
_cell_formula_units_Z   1
loop_
 _symmetry_equiv_pos_site_id
 _symmetry_equiv_pos_as_xyz
  1  'x, y, z'
loop_
 _atom_site_type_symbol
 _atom_site_label
 _atom_site_symmetry_multiplicity
 _atom_site_fract_x
 _atom_site_fract_y
 _atom_site_fract_z
 _atom_site_occupancy
  Ti  Ti0  1  0.785209  0.288699  0.066947  1
  Ti  Ti1  1  0.221752  0.288699  0.503490  1
  Ti  Ti2  1  0.213023  0.713023  0.500000  1
  Ti  Ti3  1  0.221752  0.718262  0.933053  1
  Ti  Ti4  1  0.785209  0.718262  0.496510  1
  Ti  Ti5  1  0.780007  0.280007  0.500000  1
  Ti  Ti6  1  0.375737  0.126836  0.751099  1
  Ti  Ti7  1  0.375737  0.624638  0.248901  1
  Al  Al8  1  0.840999  0.650133  0.809135  1
  Al  Al9  1  0.840999  0.031865  0.190865  1
  Al  Al10  1  0.841034  0.658741  0.182293  1
  Al  Al11  1  0.476449  0.658741  0.817707  1
  Al  Al12  1  0.379746  0.125250  0.254496  1
  Al  Al13  1  0.870754  0.125250  0.745504  1
  Al  Al14  1  0.621516  0.874194  0.252678  1
  Al  Al15  1  0.621516  0.368837  0.747322  1
  Al  Al16  1  0.615739  0.874949  0.740790  1
  Al  Al17  1  0.134159  0.874949  0.259210  1
  Ga  Ga18  1  0.996164  0.496164  0.500000  1
  Ga  Ga19  1  0.155812  0.354071  0.198258  1
  Ga  Ga20  1  0.155812  0.957554  0.801742  1
  Ga  Ga21  1  0.151743  0.346580  0.805163  1
  Ga  Ga22  1  0.541416  0.346580  0.194837  1
  Fe  Fe23  1  0.001895  0.000147  0.502010  1
  Fe  Fe24  1  0.498138  0.000147  0.998253  1
  Fe  Fe25  1  0.497466  0.497466  0.000000  1
  Fe  Fe26  1  0.498138  0.499885  0.497990  1
  Fe  Fe27  1  0.001895  0.499885  0.001747  1
  Rh  Rh28  1  0.998711  0.998711  0.000000  1
  Rh  Rh29  1  0.501471  0.001471  0.500000  1
