# generated using pymatgen
data_Zr2Sc3AgBi3
_symmetry_space_group_name_H-M   'P 1'
_cell_length_a   8.94145000
_cell_length_b   8.94145063
_cell_length_c   6.01870700
_cell_angle_alpha   90.00000000
_cell_angle_beta   90.00000000
_cell_angle_gamma   120.00000506
_symmetry_Int_Tables_number   1
_chemical_formula_structural   Zr2Sc3AgBi3
_chemical_formula_sum   'Zr4 Sc6 Ag2 Bi6'
_cell_volume   416.72518369
_cell_formula_units_Z   2
loop_
 _symmetry_equiv_pos_site_id
 _symmetry_equiv_pos_as_xyz
  1  'x, y, z'
loop_
 _atom_site_type_symbol
 _atom_site_label
 _atom_site_symmetry_multiplicity
 _atom_site_fract_x
 _atom_site_fract_y
 _atom_site_fract_z
 _atom_site_occupancy
  Zr  Zr0  1  0.666667  0.333333  0.000000  1
  Zr  Zr1  1  0.333333  0.666667  0.000000  1
  Zr  Zr2  1  0.333333  0.666667  0.500000  1
  Zr  Zr3  1  0.666667  0.333333  0.500000  1
  Sc  Sc4  1  0.718652  0.718652  0.750000  1
  Sc  Sc5  1  0.281348  0.000000  0.750000  1
  Sc  Sc6  1  0.000000  0.281348  0.750000  1
  Sc  Sc7  1  0.281348  0.281348  0.250000  1
  Sc  Sc8  1  0.718652  0.000000  0.250000  1
  Sc  Sc9  1  0.000000  0.718652  0.250000  1
  Ag  Ag10  1  0.000000  0.000000  0.000000  1
  Ag  Ag11  1  0.000000  0.000000  0.500000  1
  Bi  Bi12  1  0.375829  0.375829  0.750000  1
  Bi  Bi13  1  0.624171  0.000000  0.750000  1
  Bi  Bi14  1  0.000000  0.624171  0.750000  1
  Bi  Bi15  1  0.624171  0.624171  0.250000  1
  Bi  Bi16  1  0.375829  0.000000  0.250000  1
  Bi  Bi17  1  0.000000  0.375829  0.250000  1
