# generated using pymatgen
data_LiGdCr2O8
_symmetry_space_group_name_H-M   'P 1'
_cell_length_a   5.97995108
_cell_length_b   5.97995116
_cell_length_c   5.97995040
_cell_angle_alpha   105.81605928
_cell_angle_beta   105.81605895
_cell_angle_gamma   117.05851078
_symmetry_Int_Tables_number   1
_chemical_formula_structural   LiGdCr2O8
_chemical_formula_sum   'Li1 Gd1 Cr2 O8'
_cell_volume   162.42357446
_cell_formula_units_Z   1
loop_
 _symmetry_equiv_pos_site_id
 _symmetry_equiv_pos_as_xyz
  1  'x, y, z'
loop_
 _atom_site_type_symbol
 _atom_site_label
 _atom_site_symmetry_multiplicity
 _atom_site_fract_x
 _atom_site_fract_y
 _atom_site_fract_z
 _atom_site_occupancy
  Li  Li0  1  0.500000  0.500000  0.000000  1
  Gd  Gd1  1  0.750000  0.250000  0.500000  1
  Cr  Cr2  1  0.250000  0.750000  0.500000  1
  Cr  Cr3  1  0.000000  0.000000  0.000000  1
  O  O4  1  0.841110  0.025881  0.184769  1
  O  O5  1  0.902410  0.583409  0.319001  1
  O  O6  1  0.264409  0.583409  0.680999  1
  O  O7  1  0.841110  0.656341  0.815231  1
  O  O8  1  0.343659  0.158890  0.184769  1
  O  O9  1  0.416591  0.735591  0.319001  1
  O  O10  1  0.416591  0.097590  0.680999  1
  O  O11  1  0.974119  0.158890  0.815231  1
