# generated using pymatgen
data_YHo3CoB14
_symmetry_space_group_name_H-M   'P 1'
_cell_length_a   7.19689159
_cell_length_b   7.19663959
_cell_length_c   7.47811000
_cell_angle_alpha   90.00000000
_cell_angle_beta   90.00000000
_cell_angle_gamma   89.92375440
_symmetry_Int_Tables_number   1
_chemical_formula_structural   YHo3CoB14
_chemical_formula_sum   'Y2 Ho6 Co2 B28'
_cell_volume   387.31666116
_cell_formula_units_Z   2
loop_
 _symmetry_equiv_pos_site_id
 _symmetry_equiv_pos_as_xyz
  1  'x, y, z'
loop_
 _atom_site_type_symbol
 _atom_site_label
 _atom_site_symmetry_multiplicity
 _atom_site_fract_x
 _atom_site_fract_y
 _atom_site_fract_z
 _atom_site_occupancy
  Y  Y0  1  0.829997  0.693126  0.500000  1
  Y  Y1  1  0.170003  0.306874  0.500000  1
  Ho  Ho2  1  0.193203  0.329794  0.000000  1
  Ho  Ho3  1  0.669990  0.193052  0.000000  1
  Ho  Ho4  1  0.330010  0.806948  0.000000  1
  Ho  Ho5  1  0.692661  0.170001  0.500000  1
  Ho  Ho6  1  0.307339  0.829999  0.500000  1
  Ho  Ho7  1  0.806797  0.670206  0.000000  1
  Co  Co8  1  0.000000  0.000000  0.000000  1
  Co  Co9  1  0.500000  0.500000  0.500000  1
  B  B10  1  0.174471  0.038486  0.230469  1
  B  B11  1  0.961009  0.174315  0.230206  1
  B  B12  1  0.038991  0.825685  0.230206  1
  B  B13  1  0.674402  0.460952  0.268729  1
  B  B14  1  0.325598  0.539048  0.268729  1
  B  B15  1  0.825529  0.961514  0.230469  1
  B  B16  1  0.538454  0.674445  0.268847  1
  B  B17  1  0.461546  0.325555  0.268847  1
  B  B18  1  0.825529  0.961514  0.769531  1
  B  B19  1  0.038991  0.825685  0.769794  1
  B  B20  1  0.961009  0.174315  0.769794  1
  B  B21  1  0.325598  0.539048  0.731271  1
  B  B22  1  0.674402  0.460952  0.731271  1
  B  B23  1  0.174471  0.038486  0.769531  1
  B  B24  1  0.461546  0.325555  0.731153  1
  B  B25  1  0.538454  0.674445  0.731153  1
  B  B26  1  0.088238  0.588160  0.248531  1
  B  B27  1  0.411903  0.088136  0.249582  1
  B  B28  1  0.588097  0.911864  0.249582  1
  B  B29  1  0.911762  0.411840  0.248531  1
  B  B30  1  0.911762  0.411840  0.751469  1
  B  B31  1  0.588097  0.911864  0.750418  1
  B  B32  1  0.411903  0.088136  0.750418  1
  B  B33  1  0.088238  0.588160  0.751469  1
  B  B34  1  0.000000  0.000000  0.388108  1
  B  B35  1  0.500000  0.500000  0.111519  1
  B  B36  1  0.000000  0.000000  0.611892  1
  B  B37  1  0.500000  0.500000  0.888481  1
