# generated using pymatgen
data_NaFe2NiSb12Rh
_symmetry_space_group_name_H-M   'P 1'
_cell_length_a   8.01620521
_cell_length_b   8.03248775
_cell_length_c   8.02804274
_cell_angle_alpha   109.57844145
_cell_angle_beta   109.61804202
_cell_angle_gamma   109.49452197
_symmetry_Int_Tables_number   1
_chemical_formula_structural   NaFe2NiSb12Rh
_chemical_formula_sum   'Na1 Fe2 Ni1 Sb12 Rh1'
_cell_volume   396.56176326
_cell_formula_units_Z   1
loop_
 _symmetry_equiv_pos_site_id
 _symmetry_equiv_pos_as_xyz
  1  'x, y, z'
loop_
 _atom_site_type_symbol
 _atom_site_label
 _atom_site_symmetry_multiplicity
 _atom_site_fract_x
 _atom_site_fract_y
 _atom_site_fract_z
 _atom_site_occupancy
  Na  Na0  1  0.000000  0.000000  0.000000  1
  Fe  Fe1  1  0.000000  0.000000  0.500000  1
  Fe  Fe2  1  0.500000  0.000000  0.000000  1
  Ni  Ni3  1  0.000000  0.500000  0.000000  1
  Sb  Sb4  1  0.668327  0.830823  0.161931  1
  Sb  Sb5  1  0.836132  0.333512  0.177806  1
  Sb  Sb6  1  0.504520  0.847683  0.670227  1
  Sb  Sb7  1  0.848036  0.670704  0.503835  1
  Sb  Sb8  1  0.495480  0.152317  0.329773  1
  Sb  Sb9  1  0.163868  0.666488  0.822194  1
  Sb  Sb10  1  0.822138  0.155466  0.658846  1
  Sb  Sb11  1  0.177862  0.844534  0.341154  1
  Sb  Sb12  1  0.151964  0.329296  0.496165  1
  Sb  Sb13  1  0.661597  0.501425  0.847155  1
  Sb  Sb14  1  0.338403  0.498575  0.152845  1
  Sb  Sb15  1  0.331673  0.169177  0.838069  1
  Rh  Rh16  1  0.500000  0.500000  0.500000  1
