# generated using pymatgen
data_Ba2Yb(PdO2)3
_symmetry_space_group_name_H-M   'P 1'
_cell_length_a   9.53259181
_cell_length_b   8.74575702
_cell_length_c   7.30507861
_cell_angle_alpha   72.23703446
_cell_angle_beta   60.89387683
_cell_angle_gamma   46.86907007
_symmetry_Int_Tables_number   1
_chemical_formula_structural   Ba2Yb(PdO2)3
_chemical_formula_sum   'Ba4 Yb2 Pd6 O12'
_cell_volume   387.97345388
_cell_formula_units_Z   2
loop_
 _symmetry_equiv_pos_site_id
 _symmetry_equiv_pos_as_xyz
  1  'x, y, z'
loop_
 _atom_site_type_symbol
 _atom_site_label
 _atom_site_symmetry_multiplicity
 _atom_site_fract_x
 _atom_site_fract_y
 _atom_site_fract_z
 _atom_site_occupancy
  Ba  Ba0  1  0.750000  0.750000  0.750000  1
  Ba  Ba1  1  0.250000  0.250000  0.250000  1
  Ba  Ba2  1  0.232722  0.767278  0.232722  1
  Ba  Ba3  1  0.767278  0.232722  0.767278  1
  Yb  Yb4  1  0.670658  0.670658  0.329342  1
  Yb  Yb5  1  0.329342  0.329342  0.670658  1
  Pd  Pd6  1  0.686872  0.006461  0.313128  1
  Pd  Pd7  1  0.993539  0.313128  0.006461  1
  Pd  Pd8  1  0.006461  0.686872  0.993539  1
  Pd  Pd9  1  0.313128  0.993539  0.686872  1
  Pd  Pd10  1  0.327937  0.672063  0.672063  1
  Pd  Pd11  1  0.672063  0.327937  0.327937  1
  O  O12  1  0.329583  0.465285  0.903144  1
  O  O13  1  0.301988  0.903144  0.465285  1
  O  O14  1  0.903144  0.301988  0.329583  1
  O  O15  1  0.465285  0.329583  0.301988  1
  O  O16  1  0.670417  0.534715  0.096856  1
  O  O17  1  0.698012  0.096856  0.534715  1
  O  O18  1  0.686217  0.919450  0.080550  1
  O  O19  1  0.534715  0.670417  0.698012  1
  O  O20  1  0.919450  0.686217  0.313783  1
  O  O21  1  0.080550  0.313783  0.686217  1
  O  O22  1  0.313783  0.080550  0.919450  1
  O  O23  1  0.096856  0.698012  0.670417  1
