# generated using pymatgen
data_Ce2Pr3Sn3Cl
_symmetry_space_group_name_H-M   'P 1'
_cell_length_a   9.52645400
_cell_length_b   9.52645385
_cell_length_c   6.66858900
_cell_angle_alpha   90.00000000
_cell_angle_beta   90.00000000
_cell_angle_gamma   120.00000052
_symmetry_Int_Tables_number   1
_chemical_formula_structural   Ce2Pr3Sn3Cl
_chemical_formula_sum   'Ce4 Pr6 Sn6 Cl2'
_cell_volume   524.11564514
_cell_formula_units_Z   2
loop_
 _symmetry_equiv_pos_site_id
 _symmetry_equiv_pos_as_xyz
  1  'x, y, z'
loop_
 _atom_site_type_symbol
 _atom_site_label
 _atom_site_symmetry_multiplicity
 _atom_site_fract_x
 _atom_site_fract_y
 _atom_site_fract_z
 _atom_site_occupancy
  Ce  Ce0  1  0.333333  0.666667  0.500000  1
  Ce  Ce1  1  0.666667  0.333333  0.500000  1
  Ce  Ce2  1  0.333333  0.666667  0.000000  1
  Ce  Ce3  1  0.666667  0.333333  0.000000  1
  Pr  Pr4  1  0.264481  0.264481  0.750000  1
  Pr  Pr5  1  0.000000  0.735519  0.750000  1
  Pr  Pr6  1  0.735519  0.000000  0.750000  1
  Pr  Pr7  1  0.000000  0.264481  0.250000  1
  Pr  Pr8  1  0.735519  0.735519  0.250000  1
  Pr  Pr9  1  0.264481  0.000000  0.250000  1
  Sn  Sn10  1  0.612078  0.000000  0.250000  1
  Sn  Sn11  1  0.000000  0.387922  0.750000  1
  Sn  Sn12  1  0.387922  0.000000  0.750000  1
  Sn  Sn13  1  0.612078  0.612078  0.750000  1
  Sn  Sn14  1  0.000000  0.612078  0.250000  1
  Sn  Sn15  1  0.387922  0.387922  0.250000  1
  Cl  Cl16  1  0.000000  0.000000  0.000000  1
  Cl  Cl17  1  0.000000  0.000000  0.500000  1
