# generated using pymatgen
data_Ho6CrB14Ru
_symmetry_space_group_name_H-M   'P 1'
_cell_length_a   8.04802934
_cell_length_b   8.04802954
_cell_length_c   9.31170500
_cell_angle_alpha   90.00000000
_cell_angle_beta   90.00000000
_cell_angle_gamma   155.08484646
_symmetry_Int_Tables_number   1
_chemical_formula_structural   Ho6CrB14Ru
_chemical_formula_sum   'Ho6 Cr1 B14 Ru1'
_cell_volume   254.08248205
_cell_formula_units_Z   1
loop_
 _symmetry_equiv_pos_site_id
 _symmetry_equiv_pos_as_xyz
  1  'x, y, z'
loop_
 _atom_site_type_symbol
 _atom_site_label
 _atom_site_symmetry_multiplicity
 _atom_site_fract_x
 _atom_site_fract_y
 _atom_site_fract_z
 _atom_site_occupancy
  Ho  Ho0  1  0.105570  0.894430  0.062003  1
  Ho  Ho1  1  0.894428  0.105572  0.940611  1
  Ho  Ho2  1  0.758127  0.241873  0.250000  1
  Ho  Ho3  1  0.243421  0.756579  0.750000  1
  Ho  Ho4  1  0.105570  0.894430  0.437997  1
  Ho  Ho5  1  0.894428  0.105572  0.559389  1
  Cr  Cr6  1  0.947091  0.052909  0.250000  1
  B  B7  1  0.726906  0.273094  0.533814  1
  B  B8  1  0.272295  0.727705  0.466941  1
  B  B9  1  0.272295  0.727705  0.033059  1
  B  B10  1  0.726906  0.273094  0.966186  1
  B  B11  1  0.520661  0.479339  0.904978  1
  B  B12  1  0.478840  0.521160  0.095777  1
  B  B13  1  0.478840  0.521160  0.404223  1
  B  B14  1  0.520661  0.479339  0.595022  1
  B  B15  1  0.457601  0.542399  0.750000  1
  B  B16  1  0.541670  0.458330  0.250000  1
  B  B17  1  0.631656  0.368344  0.650029  1
  B  B18  1  0.368585  0.631415  0.348560  1
  B  B19  1  0.368585  0.631415  0.151440  1
  B  B20  1  0.631656  0.368344  0.849971  1
  Ru  Ru21  1  0.054210  0.945790  0.750000  1
