# generated using pymatgen
data_Tb4TaNb3N8
_symmetry_space_group_name_H-M   'P 1'
_cell_length_a   3.29053800
_cell_length_b   5.70401312
_cell_length_c   10.97763700
_cell_angle_alpha   90.13858721
_cell_angle_beta   90.00000000
_cell_angle_gamma   90.00000000
_symmetry_Int_Tables_number   1
_chemical_formula_structural   Tb4TaNb3N8
_chemical_formula_sum   'Tb4 Ta1 Nb3 N8'
_cell_volume   206.04165105
_cell_formula_units_Z   1
loop_
 _symmetry_equiv_pos_site_id
 _symmetry_equiv_pos_as_xyz
  1  'x, y, z'
loop_
 _atom_site_type_symbol
 _atom_site_label
 _atom_site_symmetry_multiplicity
 _atom_site_fract_x
 _atom_site_fract_y
 _atom_site_fract_z
 _atom_site_occupancy
  Tb  Tb0  1  0.250000  0.586235  0.860446  1
  Tb  Tb1  1  0.750000  0.411226  0.139894  1
  Tb  Tb2  1  0.750000  0.914078  0.361956  1
  Tb  Tb3  1  0.250000  0.084971  0.638199  1
  Ta  Ta4  1  0.250000  0.914973  0.109103  1
  Nb  Nb5  1  0.750000  0.085462  0.889799  1
  Nb  Nb6  1  0.750000  0.583075  0.606286  1
  Nb  Nb7  1  0.250000  0.416686  0.393093  1
  N  N8  1  0.250000  0.663381  0.242836  1
  N  N9  1  0.750000  0.340291  0.754757  1
  N  N10  1  0.750000  0.838550  0.746468  1
  N  N11  1  0.250000  0.158992  0.252684  1
  N  N12  1  0.250000  0.747439  0.506489  1
  N  N13  1  0.750000  0.252546  0.492727  1
  N  N14  1  0.750000  0.758628  0.010928  1
  N  N15  1  0.250000  0.243467  0.994334  1
