# generated using pymatgen
data_NaEr(CN2)2
_symmetry_space_group_name_H-M   'P 1'
_cell_length_a   6.30646800
_cell_length_b   7.42256400
_cell_length_c   9.90813300
_cell_angle_alpha   90.00000000
_cell_angle_beta   90.00000000
_cell_angle_gamma   90.00000000
_symmetry_Int_Tables_number   1
_chemical_formula_structural   NaEr(CN2)2
_chemical_formula_sum   'Na4 Er4 C8 N16'
_cell_volume   463.80131426
_cell_formula_units_Z   4
loop_
 _symmetry_equiv_pos_site_id
 _symmetry_equiv_pos_as_xyz
  1  'x, y, z'
loop_
 _atom_site_type_symbol
 _atom_site_label
 _atom_site_symmetry_multiplicity
 _atom_site_fract_x
 _atom_site_fract_y
 _atom_site_fract_z
 _atom_site_occupancy
  Na  Na0  1  0.250000  0.621646  0.000000  1
  Na  Na1  1  0.750000  0.878354  0.500000  1
  Na  Na2  1  0.750000  0.378354  0.000000  1
  Na  Na3  1  0.250000  0.121646  0.500000  1
  Er  Er4  1  0.250000  0.128365  0.000000  1
  Er  Er5  1  0.750000  0.371635  0.500000  1
  Er  Er6  1  0.750000  0.871635  0.000000  1
  Er  Er7  1  0.250000  0.628365  0.500000  1
  C  C8  1  0.416241  0.378263  0.748049  1
  C  C9  1  0.916241  0.121737  0.751951  1
  C  C10  1  0.583759  0.121737  0.248049  1
  C  C11  1  0.083759  0.378263  0.251951  1
  C  C12  1  0.583759  0.621737  0.251951  1
  C  C13  1  0.083759  0.878263  0.248049  1
  C  C14  1  0.416241  0.878263  0.751951  1
  C  C15  1  0.916241  0.621737  0.748049  1
  N  N16  1  0.397164  0.354250  0.869549  1
  N  N17  1  0.897164  0.145750  0.630451  1
  N  N18  1  0.602836  0.145750  0.369549  1
  N  N19  1  0.102836  0.354250  0.130451  1
  N  N20  1  0.602836  0.645750  0.130451  1
  N  N21  1  0.102836  0.854250  0.369549  1
  N  N22  1  0.397164  0.854250  0.630451  1
  N  N23  1  0.897164  0.645750  0.869549  1
  N  N24  1  0.435716  0.403264  0.624272  1
  N  N25  1  0.935716  0.096736  0.875728  1
  N  N26  1  0.564284  0.096736  0.124272  1
  N  N27  1  0.064284  0.403264  0.375728  1
  N  N28  1  0.564284  0.596736  0.375728  1
  N  N29  1  0.064284  0.903264  0.124272  1
  N  N30  1  0.435716  0.903264  0.875728  1
  N  N31  1  0.935716  0.596736  0.624272  1
