# generated using pymatgen
data_Pa3Al12(FeTc)2
_symmetry_space_group_name_H-M   'P 1'
_cell_length_a   8.83820700
_cell_length_b   8.83820710
_cell_length_c   9.30671027
_cell_angle_alpha   89.74322087
_cell_angle_beta   90.25677689
_cell_angle_gamma   120.12104228
_symmetry_Int_Tables_number   1
_chemical_formula_structural   Pa3Al12(FeTc)2
_chemical_formula_sum   'Pa6 Al24 Fe4 Tc4'
_cell_volume   628.80843274
_cell_formula_units_Z   2
loop_
 _symmetry_equiv_pos_site_id
 _symmetry_equiv_pos_as_xyz
  1  'x, y, z'
loop_
 _atom_site_type_symbol
 _atom_site_label
 _atom_site_symmetry_multiplicity
 _atom_site_fract_x
 _atom_site_fract_y
 _atom_site_fract_z
 _atom_site_occupancy
  Pa  Pa0  1  0.800975  0.199025  0.754703  1
  Pa  Pa1  1  0.199025  0.800975  0.245297  1
  Pa  Pa2  1  0.399425  0.204026  0.749931  1
  Pa  Pa3  1  0.600575  0.795974  0.250069  1
  Pa  Pa4  1  0.795974  0.600575  0.749931  1
  Pa  Pa5  1  0.204026  0.399425  0.250069  1
  Al  Al6  1  0.666818  0.333182  0.994628  1
  Al  Al7  1  0.333182  0.666818  0.005372  1
  Al  Al8  1  0.329450  0.670550  0.489308  1
  Al  Al9  1  0.670550  0.329450  0.510692  1
  Al  Al10  1  0.841692  0.158308  0.423779  1
  Al  Al11  1  0.158308  0.841692  0.576221  1
  Al  Al12  1  0.317840  0.154913  0.421539  1
  Al  Al13  1  0.157496  0.842504  0.916448  1
  Al  Al14  1  0.682160  0.845087  0.578461  1
  Al  Al15  1  0.842504  0.157496  0.083552  1
  Al  Al16  1  0.845087  0.682160  0.421539  1
  Al  Al17  1  0.684609  0.842983  0.919651  1
  Al  Al18  1  0.154913  0.317840  0.578461  1
  Al  Al19  1  0.315391  0.157017  0.080349  1
  Al  Al20  1  0.157017  0.315391  0.919651  1
  Al  Al21  1  0.842983  0.684609  0.080349  1
  Al  Al22  1  0.434560  0.565440  0.748541  1
  Al  Al23  1  0.565440  0.434560  0.251459  1
  Al  Al24  1  0.119458  0.561944  0.743154  1
  Al  Al25  1  0.880542  0.438056  0.256846  1
  Al  Al26  1  0.438056  0.880542  0.743154  1
  Al  Al27  1  0.561944  0.119458  0.256846  1
  Al  Al28  1  0.999943  0.000057  0.749767  1
  Al  Al29  1  0.000057  0.999943  0.250233  1
  Fe  Fe30  1  0.000000  0.500000  0.500000  1
  Fe  Fe31  1  0.500000  0.000000  0.500000  1
  Fe  Fe32  1  0.000000  0.000000  0.000000  1
  Fe  Fe33  1  0.000000  0.000000  0.500000  1
  Tc  Tc34  1  0.500000  0.500000  0.000000  1
  Tc  Tc35  1  0.000000  0.500000  0.000000  1
  Tc  Tc36  1  0.500000  0.500000  0.500000  1
  Tc  Tc37  1  0.500000  0.000000  0.000000  1
