# generated using pymatgen
data_U4Ga2Si4Tc7
_symmetry_space_group_name_H-M   'P 1'
_cell_length_a   7.16236086
_cell_length_b   7.14522737
_cell_length_c   7.14522760
_cell_angle_alpha   109.55476595
_cell_angle_beta   109.38111727
_cell_angle_gamma   109.38112596
_symmetry_Int_Tables_number   1
_chemical_formula_structural   U4Ga2Si4Tc7
_chemical_formula_sum   'U4 Ga2 Si4 Tc7'
_cell_volume   281.82686329
_cell_formula_units_Z   1
loop_
 _symmetry_equiv_pos_site_id
 _symmetry_equiv_pos_as_xyz
  1  'x, y, z'
loop_
 _atom_site_type_symbol
 _atom_site_label
 _atom_site_symmetry_multiplicity
 _atom_site_fract_x
 _atom_site_fract_y
 _atom_site_fract_z
 _atom_site_occupancy
  U  U0  1  0.484887  0.483037  0.483037  1
  U  U1  1  0.003565  0.501783  0.001783  1
  U  U2  1  0.484887  0.001850  0.001850  1
  U  U3  1  0.003565  0.001783  0.501783  1
  Ga  Ga4  1  0.698213  0.994317  0.703895  1
  Ga  Ga5  1  0.698213  0.703895  0.994317  1
  Si  Si6  1  0.315506  0.319406  0.996099  1
  Si  Si7  1  0.992140  0.687306  0.687306  1
  Si  Si8  1  0.992140  0.304834  0.304834  1
  Si  Si9  1  0.315506  0.996099  0.319406  1
  Tc  Tc10  1  0.496521  0.748261  0.248261  1
  Tc  Tc11  1  0.747289  0.248418  0.498871  1
  Tc  Tc12  1  0.243058  0.745248  0.497809  1
  Tc  Tc13  1  0.243058  0.497809  0.745248  1
  Tc  Tc14  1  0.037642  0.018820  0.018820  1
  Tc  Tc15  1  0.496521  0.248261  0.748261  1
  Tc  Tc16  1  0.747289  0.498871  0.248418  1
