# generated using pymatgen
data_Pr5YOsI10
_symmetry_space_group_name_H-M   'P 1'
_cell_length_a   7.99950641
_cell_length_b   10.05699343
_cell_length_c   10.07503117
_cell_angle_alpha   107.21293214
_cell_angle_beta   96.34165597
_cell_angle_gamma   104.55389045
_symmetry_Int_Tables_number   1
_chemical_formula_structural   Pr5YOsI10
_chemical_formula_sum   'Pr5 Y1 Os1 I10'
_cell_volume   734.27330546
_cell_formula_units_Z   1
loop_
 _symmetry_equiv_pos_site_id
 _symmetry_equiv_pos_as_xyz
  1  'x, y, z'
loop_
 _atom_site_type_symbol
 _atom_site_label
 _atom_site_symmetry_multiplicity
 _atom_site_fract_x
 _atom_site_fract_y
 _atom_site_fract_z
 _atom_site_occupancy
  Pr  Pr0  1  0.114322  0.041399  0.759039  1
  Pr  Pr1  1  0.879822  0.955815  0.238783  1
  Pr  Pr2  1  0.963963  0.281697  0.082367  1
  Pr  Pr3  1  0.031286  0.716604  0.914882  1
  Pr  Pr4  1  0.357536  0.128545  0.171909  1
  Y  Y5  1  0.651490  0.875615  0.833486  1
  Os  Os6  1  0.998855  0.999605  0.000011  1
  I  I7  1  0.346694  0.450756  0.270264  1
  I  I8  1  0.646645  0.558534  0.729309  1
  I  I9  1  0.254046  0.084271  0.457285  1
  I  I10  1  0.736585  0.911650  0.547834  1
  I  I11  1  0.086840  0.369137  0.818066  1
  I  I12  1  0.913008  0.630414  0.180968  1
  I  I13  1  0.456220  0.814620  0.083406  1
  I  I14  1  0.545978  0.175994  0.904540  1
  I  I15  1  0.785135  0.258671  0.350187  1
  I  I16  1  0.231574  0.746673  0.657665  1
