# generated using pymatgen
data_Dy2HoEr(SbO4)4
_symmetry_space_group_name_H-M   'P 1'
_cell_length_a   5.39082048
_cell_length_b   7.66508140
_cell_length_c   7.55197166
_cell_angle_alpha   81.13512805
_cell_angle_beta   90.37084921
_cell_angle_gamma   92.27161461
_symmetry_Int_Tables_number   1
_chemical_formula_structural   Dy2HoEr(SbO4)4
_chemical_formula_sum   'Dy2 Ho1 Er1 Sb4 O16'
_cell_volume   308.08563959
_cell_formula_units_Z   1
loop_
 _symmetry_equiv_pos_site_id
 _symmetry_equiv_pos_as_xyz
  1  'x, y, z'
loop_
 _atom_site_type_symbol
 _atom_site_label
 _atom_site_symmetry_multiplicity
 _atom_site_fract_x
 _atom_site_fract_y
 _atom_site_fract_z
 _atom_site_occupancy
  Dy  Dy0  1  0.262177  0.131772  0.614706  1
  Dy  Dy1  1  0.738049  0.868063  0.385312  1
  Ho  Ho2  1  0.212095  0.158162  0.109221  1
  Er  Er3  1  0.788161  0.841252  0.890141  1
  Sb  Sb4  1  0.240508  0.663828  0.193641  1
  Sb  Sb5  1  0.759717  0.336240  0.806068  1
  Sb  Sb6  1  0.724660  0.335677  0.308462  1
  Sb  Sb7  1  0.275546  0.664506  0.691800  1
  O  O8  1  0.087465  0.434228  0.689700  1
  O  O9  1  0.913099  0.565573  0.310664  1
  O  O10  1  0.608472  0.325404  0.560909  1
  O  O11  1  0.391273  0.675488  0.438975  1
  O  O12  1  0.873502  0.330882  0.061792  1
  O  O13  1  0.125420  0.669373  0.938100  1
  O  O14  1  0.399771  0.430325  0.195816  1
  O  O15  1  0.600608  0.570047  0.804422  1
  O  O16  1  0.043229  0.886169  0.172501  1
  O  O17  1  0.955732  0.112924  0.827379  1
  O  O18  1  0.507387  0.110955  0.321929  1
  O  O19  1  0.493082  0.888900  0.679131  1
  O  O20  1  0.462641  0.188675  0.879052  1
  O  O21  1  0.537728  0.811602  0.119665  1
  O  O22  1  0.991167  0.167698  0.381362  1
  O  O23  1  0.008511  0.832256  0.619251  1
