# generated using pymatgen
data_YLu2Co8TcP6
_symmetry_space_group_name_H-M   'P 1'
_cell_length_a   3.69079900
_cell_length_b   10.49621400
_cell_length_c   12.17242700
_cell_angle_alpha   90.00000000
_cell_angle_beta   90.00000000
_cell_angle_gamma   90.00000000
_symmetry_Int_Tables_number   1
_chemical_formula_structural   YLu2Co8TcP6
_chemical_formula_sum   'Y2 Lu4 Co16 Tc2 P12'
_cell_volume   471.55271493
_cell_formula_units_Z   2
loop_
 _symmetry_equiv_pos_site_id
 _symmetry_equiv_pos_as_xyz
  1  'x, y, z'
loop_
 _atom_site_type_symbol
 _atom_site_label
 _atom_site_symmetry_multiplicity
 _atom_site_fract_x
 _atom_site_fract_y
 _atom_site_fract_z
 _atom_site_occupancy
  Y  Y0  1  0.000000  0.500000  0.525155  1
  Y  Y1  1  0.500000  0.000000  0.474845  1
  Lu  Lu2  1  0.500000  0.818190  0.205302  1
  Lu  Lu3  1  0.500000  0.181810  0.205302  1
  Lu  Lu4  1  0.000000  0.681810  0.794698  1
  Lu  Lu5  1  0.000000  0.318190  0.794698  1
  Co  Co6  1  0.500000  0.500000  0.703507  1
  Co  Co7  1  0.000000  0.000000  0.296493  1
  Co  Co8  1  0.000000  0.500000  0.986415  1
  Co  Co9  1  0.500000  0.000000  0.013585  1
  Co  Co10  1  0.500000  0.332116  0.988872  1
  Co  Co11  1  0.500000  0.667884  0.988872  1
  Co  Co12  1  0.000000  0.167884  0.011128  1
  Co  Co13  1  0.000000  0.832116  0.011128  1
  Co  Co14  1  0.500000  0.296447  0.430600  1
  Co  Co15  1  0.500000  0.703553  0.430600  1
  Co  Co16  1  0.000000  0.203553  0.569400  1
  Co  Co17  1  0.000000  0.796447  0.569400  1
  Co  Co18  1  0.500000  0.878033  0.708712  1
  Co  Co19  1  0.500000  0.121967  0.708712  1
  Co  Co20  1  0.000000  0.621967  0.291288  1
  Co  Co21  1  0.000000  0.378033  0.291288  1
  Tc  Tc22  1  0.500000  0.500000  0.155942  1
  Tc  Tc23  1  0.000000  0.000000  0.844058  1
  P  P24  1  0.500000  0.500000  0.879918  1
  P  P25  1  0.000000  0.000000  0.120082  1
  P  P26  1  0.500000  0.500000  0.348218  1
  P  P27  1  0.000000  0.000000  0.651782  1
  P  P28  1  0.500000  0.311736  0.617815  1
  P  P29  1  0.500000  0.688264  0.617815  1
  P  P30  1  0.000000  0.188264  0.382185  1
  P  P31  1  0.000000  0.811736  0.382185  1
  P  P32  1  0.500000  0.845336  0.892247  1
  P  P33  1  0.500000  0.154664  0.892247  1
  P  P34  1  0.000000  0.654664  0.107753  1
  P  P35  1  0.000000  0.345336  0.107753  1
