# generated using pymatgen
data_YbB2F8
_symmetry_space_group_name_H-M   'P 1'
_cell_length_a   8.92040400
_cell_length_b   9.29070600
_cell_length_c   13.49335300
_cell_angle_alpha   90.00000000
_cell_angle_beta   90.00000000
_cell_angle_gamma   90.00000000
_symmetry_Int_Tables_number   1
_chemical_formula_structural   YbB2F8
_chemical_formula_sum   'Yb8 B16 F64'
_cell_volume   1118.28660560
_cell_formula_units_Z   8
loop_
 _symmetry_equiv_pos_site_id
 _symmetry_equiv_pos_as_xyz
  1  'x, y, z'
loop_
 _atom_site_type_symbol
 _atom_site_label
 _atom_site_symmetry_multiplicity
 _atom_site_fract_x
 _atom_site_fract_y
 _atom_site_fract_z
 _atom_site_occupancy
  Yb  Yb0  1  0.780373  0.532888  0.397485  1
  Yb  Yb1  1  0.219627  0.967112  0.897485  1
  Yb  Yb2  1  0.719627  0.032888  0.602515  1
  Yb  Yb3  1  0.280373  0.467112  0.102515  1
  Yb  Yb4  1  0.219627  0.467112  0.602515  1
  Yb  Yb5  1  0.280373  0.967112  0.397485  1
  Yb  Yb6  1  0.719627  0.532888  0.897485  1
  Yb  Yb7  1  0.780373  0.032888  0.102515  1
  B  B8  1  0.996623  0.722444  0.055208  1
  B  B9  1  0.178760  0.604184  0.342253  1
  B  B10  1  0.821240  0.395816  0.657747  1
  B  B11  1  0.178760  0.104184  0.157747  1
  B  B12  1  0.003377  0.277556  0.944792  1
  B  B13  1  0.678760  0.895816  0.342253  1
  B  B14  1  0.496623  0.277556  0.444792  1
  B  B15  1  0.678760  0.395816  0.157747  1
  B  B16  1  0.503377  0.722444  0.555208  1
  B  B17  1  0.321240  0.104184  0.657747  1
  B  B18  1  0.321240  0.604184  0.842253  1
  B  B19  1  0.821240  0.895816  0.842253  1
  B  B20  1  0.003377  0.777556  0.555208  1
  B  B21  1  0.496623  0.777556  0.055208  1
  B  B22  1  0.996623  0.222444  0.444792  1
  B  B23  1  0.503377  0.222444  0.944792  1
  F  F24  1  0.978895  0.414605  0.664733  1
  F  F25  1  0.250545  0.515478  0.271141  1
  F  F26  1  0.419150  0.626399  0.614569  1
  F  F27  1  0.914083  0.643042  0.984460  1
  F  F28  1  0.726063  0.433370  0.060601  1
  F  F29  1  0.478895  0.585395  0.835267  1
  F  F30  1  0.750545  0.984522  0.271141  1
  F  F31  1  0.080850  0.626399  0.114569  1
  F  F32  1  0.399086  0.693156  0.114245  1
  F  F33  1  0.273937  0.066630  0.560601  1
  F  F34  1  0.749455  0.484522  0.728859  1
  F  F35  1  0.749455  0.984522  0.771141  1
  F  F36  1  0.100914  0.193156  0.885755  1
  F  F37  1  0.585917  0.643042  0.484460  1
  F  F38  1  0.281733  0.249765  0.676384  1
  F  F39  1  0.085917  0.856958  0.484460  1
  F  F40  1  0.403457  0.817190  0.505393  1
  F  F41  1  0.414083  0.856958  0.984460  1
  F  F42  1  0.978895  0.914605  0.835267  1
  F  F43  1  0.718267  0.250235  0.176384  1
  F  F44  1  0.914083  0.143042  0.515540  1
  F  F45  1  0.903457  0.182810  0.994607  1
  F  F46  1  0.281733  0.749765  0.823616  1
  F  F47  1  0.478895  0.085395  0.664733  1
  F  F48  1  0.899086  0.306844  0.385755  1
  F  F49  1  0.218267  0.249765  0.176384  1
  F  F50  1  0.226063  0.566630  0.439399  1
  F  F51  1  0.419150  0.126399  0.885431  1
  F  F52  1  0.521105  0.414605  0.164733  1
  F  F53  1  0.726063  0.933370  0.439399  1
  F  F54  1  0.781733  0.250235  0.676384  1
  F  F55  1  0.100914  0.693156  0.614245  1
  F  F56  1  0.600914  0.806844  0.614245  1
  F  F57  1  0.021105  0.085395  0.164733  1
  F  F58  1  0.773937  0.433370  0.560601  1
  F  F59  1  0.080850  0.126399  0.385431  1
  F  F60  1  0.903457  0.682810  0.505393  1
  F  F61  1  0.226063  0.066630  0.060601  1
  F  F62  1  0.249455  0.015478  0.728859  1
  F  F63  1  0.580850  0.873601  0.114569  1
  F  F64  1  0.085917  0.356958  0.015540  1
  F  F65  1  0.580850  0.373601  0.385431  1
  F  F66  1  0.273937  0.566630  0.939399  1
  F  F67  1  0.096543  0.317190  0.494607  1
  F  F68  1  0.600914  0.306844  0.885755  1
  F  F69  1  0.899086  0.806844  0.114245  1
  F  F70  1  0.399086  0.193156  0.385755  1
  F  F71  1  0.218267  0.749765  0.323616  1
  F  F72  1  0.596543  0.682810  0.005393  1
  F  F73  1  0.596543  0.182810  0.494607  1
  F  F74  1  0.919150  0.373601  0.885431  1
  F  F75  1  0.096543  0.817190  0.005393  1
  F  F76  1  0.919150  0.873601  0.614569  1
  F  F77  1  0.414083  0.356958  0.515540  1
  F  F78  1  0.718267  0.750235  0.323616  1
  F  F79  1  0.249455  0.515478  0.771141  1
  F  F80  1  0.250545  0.015478  0.228859  1
  F  F81  1  0.585917  0.143042  0.015540  1
  F  F82  1  0.403457  0.317190  0.994607  1
  F  F83  1  0.521105  0.914605  0.335267  1
  F  F84  1  0.773937  0.933370  0.939399  1
  F  F85  1  0.781733  0.750235  0.823616  1
  F  F86  1  0.021105  0.585395  0.335267  1
  F  F87  1  0.750545  0.484522  0.228859  1
