# generated using pymatgen
data_Tb3Ho2Si3H
_symmetry_space_group_name_H-M   'P 1'
_cell_length_a   8.47973200
_cell_length_b   8.47973085
_cell_length_c   6.23889400
_cell_angle_alpha   90.00000000
_cell_angle_beta   90.00000000
_cell_angle_gamma   120.00000449
_symmetry_Int_Tables_number   1
_chemical_formula_structural   Tb3Ho2Si3H
_chemical_formula_sum   'Tb6 Ho4 Si6 H2'
_cell_volume   388.51018936
_cell_formula_units_Z   2
loop_
 _symmetry_equiv_pos_site_id
 _symmetry_equiv_pos_as_xyz
  1  'x, y, z'
loop_
 _atom_site_type_symbol
 _atom_site_label
 _atom_site_symmetry_multiplicity
 _atom_site_fract_x
 _atom_site_fract_y
 _atom_site_fract_z
 _atom_site_occupancy
  Tb  Tb0  1  0.749565  0.749565  0.750000  1
  Tb  Tb1  1  0.250435  0.000000  0.750000  1
  Tb  Tb2  1  0.000000  0.250435  0.750000  1
  Tb  Tb3  1  0.250435  0.250435  0.250000  1
  Tb  Tb4  1  0.749565  0.000000  0.250000  1
  Tb  Tb5  1  0.000000  0.749565  0.250000  1
  Ho  Ho6  1  0.666667  0.333333  0.000000  1
  Ho  Ho7  1  0.333333  0.666667  0.000000  1
  Ho  Ho8  1  0.333333  0.666667  0.500000  1
  Ho  Ho9  1  0.666667  0.333333  0.500000  1
  Si  Si10  1  0.389229  0.389229  0.750000  1
  Si  Si11  1  0.610771  0.000000  0.750000  1
  Si  Si12  1  0.000000  0.610771  0.750000  1
  Si  Si13  1  0.610771  0.610771  0.250000  1
  Si  Si14  1  0.389229  0.000000  0.250000  1
  Si  Si15  1  0.000000  0.389229  0.250000  1
  H  H16  1  0.000000  0.000000  0.500000  1
  H  H17  1  0.000000  0.000000  0.000000  1
