# generated using pymatgen
data_YPa(Al5Os)4
_symmetry_space_group_name_H-M   'P 1'
_cell_length_a   6.86045521
_cell_length_b   6.86045431
_cell_length_c   9.15488100
_cell_angle_alpha   90.00000000
_cell_angle_beta   90.00000000
_cell_angle_gamma   97.13499805
_symmetry_Int_Tables_number   1
_chemical_formula_structural   YPa(Al5Os)4
_chemical_formula_sum   'Y1 Pa1 Al20 Os4'
_cell_volume   427.54551739
_cell_formula_units_Z   1
loop_
 _symmetry_equiv_pos_site_id
 _symmetry_equiv_pos_as_xyz
  1  'x, y, z'
loop_
 _atom_site_type_symbol
 _atom_site_label
 _atom_site_symmetry_multiplicity
 _atom_site_fract_x
 _atom_site_fract_y
 _atom_site_fract_z
 _atom_site_occupancy
  Y  Y0  1  0.132245  0.867755  0.250000  1
  Pa  Pa1  1  0.872691  0.127309  0.750000  1
  Al  Al2  1  0.516664  0.781339  0.750000  1
  Al  Al3  1  0.782096  0.518344  0.250000  1
  Al  Al4  1  0.481656  0.217904  0.250000  1
  Al  Al5  1  0.218661  0.483336  0.750000  1
  Al  Al6  1  0.622648  0.377352  0.953851  1
  Al  Al7  1  0.375142  0.624858  0.046562  1
  Al  Al8  1  0.622648  0.377352  0.546149  1
  Al  Al9  1  0.375142  0.624858  0.453438  1
  Al  Al10  1  0.410927  0.146602  0.750000  1
  Al  Al11  1  0.149045  0.418708  0.250000  1
  Al  Al12  1  0.581292  0.850955  0.250000  1
  Al  Al13  1  0.853398  0.589073  0.750000  1
  Al  Al14  1  0.844506  0.155494  0.396748  1
  Al  Al15  1  0.153638  0.846362  0.600987  1
  Al  Al16  1  0.844506  0.155494  0.103252  1
  Al  Al17  1  0.153638  0.846362  0.899013  1
  Al  Al18  1  0.778571  0.776326  0.001497  1
  Al  Al19  1  0.778571  0.776326  0.498503  1
  Al  Al20  1  0.223674  0.221429  0.001497  1
  Al  Al21  1  0.223674  0.221429  0.498503  1
  Os  Os22  1  0.503338  0.000855  0.998251  1
  Os  Os23  1  0.999145  0.496662  0.998251  1
  Os  Os24  1  0.503338  0.000855  0.501749  1
  Os  Os25  1  0.999145  0.496662  0.501749  1
