# generated using pymatgen
data_TmLu2(InAu)3
_symmetry_space_group_name_H-M   'P 1'
_cell_length_a   7.71548900
_cell_length_b   7.72013763
_cell_length_c   3.92238300
_cell_angle_alpha   90.00000000
_cell_angle_beta   90.00000000
_cell_angle_gamma   119.98007898
_symmetry_Int_Tables_number   1
_chemical_formula_structural   TmLu2(InAu)3
_chemical_formula_sum   'Tm1 Lu2 In3 Au3'
_cell_volume   202.37472560
_cell_formula_units_Z   1
loop_
 _symmetry_equiv_pos_site_id
 _symmetry_equiv_pos_as_xyz
  1  'x, y, z'
loop_
 _atom_site_type_symbol
 _atom_site_label
 _atom_site_symmetry_multiplicity
 _atom_site_fract_x
 _atom_site_fract_y
 _atom_site_fract_z
 _atom_site_occupancy
  Tm  Tm0  1  0.402983  0.000000  0.500000  1
  Lu  Lu1  1  0.000154  0.403184  0.500000  1
  Lu  Lu2  1  0.596971  0.596816  0.500000  1
  In  In3  1  0.737644  0.000000  0.000000  1
  In  In4  1  0.999852  0.737310  0.000000  1
  In  In5  1  0.262542  0.262690  0.000000  1
  Au  Au6  1  0.333096  0.665981  0.000000  1
  Au  Au7  1  0.667116  0.334019  0.000000  1
  Au  Au8  1  0.999644  0.000000  0.500000  1
