# generated using pymatgen
data_Sr9Ca6Nd5Pt16
_symmetry_space_group_name_H-M   'P 1'
_cell_length_a   7.68928403
_cell_length_b   8.11302831
_cell_length_c   15.34498900
_cell_angle_alpha   89.99933615
_cell_angle_beta   90.12060068
_cell_angle_gamma   90.03259335
_symmetry_Int_Tables_number   1
_chemical_formula_structural   Sr9Ca6Nd5Pt16
_chemical_formula_sum   'Sr9 Ca6 Nd5 Pt16'
_cell_volume   957.26999012
_cell_formula_units_Z   1
loop_
 _symmetry_equiv_pos_site_id
 _symmetry_equiv_pos_as_xyz
  1  'x, y, z'
loop_
 _atom_site_type_symbol
 _atom_site_label
 _atom_site_symmetry_multiplicity
 _atom_site_fract_x
 _atom_site_fract_y
 _atom_site_fract_z
 _atom_site_occupancy
  Sr  Sr0  1  0.832665  0.671414  0.879100  1
  Sr  Sr1  1  0.491267  0.321150  0.901721  1
  Sr  Sr2  1  0.993927  0.177607  0.594899  1
  Sr  Sr3  1  0.505556  0.678485  0.404924  1
  Sr  Sr4  1  0.009949  0.820197  0.098155  1
  Sr  Sr5  1  0.507944  0.679906  0.098141  1
  Sr  Sr6  1  0.010046  0.818650  0.404410  1
  Sr  Sr7  1  0.489899  0.319579  0.595480  1
  Sr  Sr8  1  0.991710  0.180744  0.902072  1
  Ca  Ca9  1  0.168832  0.328538  0.378093  1
  Ca  Ca10  1  0.331567  0.827234  0.621350  1
  Ca  Ca11  1  0.170812  0.489114  0.747083  1
  Ca  Ca12  1  0.670380  0.012249  0.747245  1
  Ca  Ca13  1  0.832093  0.512490  0.252535  1
  Ca  Ca14  1  0.326516  0.988213  0.252685  1
  Nd  Nd15  1  0.332161  0.830293  0.874702  1
  Nd  Nd16  1  0.830146  0.670127  0.622833  1
  Nd  Nd17  1  0.668855  0.170393  0.377052  1
  Nd  Nd18  1  0.168474  0.328298  0.124965  1
  Nd  Nd19  1  0.666957  0.171475  0.123961  1
  Pt  Pt20  1  0.332323  0.042145  0.042164  1
  Pt  Pt21  1  0.833190  0.459866  0.458756  1
  Pt  Pt22  1  0.665997  0.959137  0.540705  1
  Pt  Pt23  1  0.173527  0.540690  0.962253  1
  Pt  Pt24  1  0.652355  0.972010  0.959500  1
  Pt  Pt25  1  0.151173  0.535790  0.542754  1
  Pt  Pt26  1  0.347666  0.036080  0.456145  1
  Pt  Pt27  1  0.846088  0.455713  0.046725  1
  Pt  Pt28  1  0.533197  0.622316  0.749472  1
  Pt  Pt29  1  0.040402  0.879399  0.745237  1
  Pt  Pt30  1  0.465204  0.374200  0.249362  1
  Pt  Pt31  1  0.960778  0.124980  0.248262  1
  Pt  Pt32  1  0.290230  0.124865  0.751863  1
  Pt  Pt33  1  0.786150  0.375155  0.744526  1
  Pt  Pt34  1  0.707890  0.879891  0.251590  1
  Pt  Pt35  1  0.214071  0.621606  0.249278  1
