# generated using pymatgen
data_Dy2PaSn3Ir2Rh
_symmetry_space_group_name_H-M   'P 1'
_cell_length_a   7.56201758
_cell_length_b   7.56201653
_cell_length_c   3.86300000
_cell_angle_alpha   90.00000000
_cell_angle_beta   90.00000000
_cell_angle_gamma   119.22570759
_symmetry_Int_Tables_number   1
_chemical_formula_structural   Dy2PaSn3Ir2Rh
_chemical_formula_sum   'Dy2 Pa1 Sn3 Ir2 Rh1'
_cell_volume   192.78202145
_cell_formula_units_Z   1
loop_
 _symmetry_equiv_pos_site_id
 _symmetry_equiv_pos_as_xyz
  1  'x, y, z'
loop_
 _atom_site_type_symbol
 _atom_site_label
 _atom_site_symmetry_multiplicity
 _atom_site_fract_x
 _atom_site_fract_y
 _atom_site_fract_z
 _atom_site_occupancy
  Dy  Dy0  1  0.594482  0.999518  0.500000  1
  Dy  Dy1  1  0.999518  0.594482  0.500000  1
  Pa  Pa2  1  0.413382  0.413382  0.500000  1
  Sn  Sn3  1  0.756391  0.756391  0.000000  1
  Sn  Sn4  1  0.258190  0.986689  0.000000  1
  Sn  Sn5  1  0.986689  0.258190  0.000000  1
  Ir  Ir6  1  0.640173  0.336495  0.000000  1
  Ir  Ir7  1  0.336495  0.640173  0.000000  1
  Rh  Rh8  1  0.014680  0.014680  0.500000  1
