# generated using pymatgen
data_Gd4Tm6Si5Sn
_symmetry_space_group_name_H-M   'P 1'
_cell_length_a   8.50279800
_cell_length_b   8.50279547
_cell_length_c   6.33846000
_cell_angle_alpha   90.00000000
_cell_angle_beta   90.00000000
_cell_angle_gamma   120.29975656
_symmetry_Int_Tables_number   1
_chemical_formula_structural   Gd4Tm6Si5Sn
_chemical_formula_sum   'Gd4 Tm6 Si5 Sn1'
_cell_volume   395.65643405
_cell_formula_units_Z   1
loop_
 _symmetry_equiv_pos_site_id
 _symmetry_equiv_pos_as_xyz
  1  'x, y, z'
loop_
 _atom_site_type_symbol
 _atom_site_label
 _atom_site_symmetry_multiplicity
 _atom_site_fract_x
 _atom_site_fract_y
 _atom_site_fract_z
 _atom_site_occupancy
  Gd  Gd0  1  0.762343  0.762343  0.250000  1
  Gd  Gd1  1  0.243813  0.243813  0.750000  1
  Gd  Gd2  1  0.751081  0.998408  0.750000  1
  Gd  Gd3  1  0.998408  0.751081  0.750000  1
  Tm  Tm4  1  0.673991  0.331237  0.503626  1
  Tm  Tm5  1  0.331237  0.673991  0.503626  1
  Tm  Tm6  1  0.331237  0.673991  0.996374  1
  Tm  Tm7  1  0.673991  0.331237  0.996374  1
  Tm  Tm8  1  0.246176  0.989595  0.250000  1
  Tm  Tm9  1  0.989595  0.246176  0.250000  1
  Si  Si10  1  0.603947  0.001645  0.250000  1
  Si  Si11  1  0.001645  0.603947  0.250000  1
  Si  Si12  1  0.603930  0.603930  0.750000  1
  Si  Si13  1  0.394584  0.001786  0.750000  1
  Si  Si14  1  0.001786  0.394584  0.750000  1
  Sn  Sn15  1  0.392240  0.392240  0.250000  1
