# generated using pymatgen
data_Rb2ICl5O
_symmetry_space_group_name_H-M   'P 1'
_cell_length_a   7.41887700
_cell_length_b   10.14910600
_cell_length_c   14.98007900
_cell_angle_alpha   90.00000000
_cell_angle_beta   90.00000000
_cell_angle_gamma   90.00000000
_symmetry_Int_Tables_number   1
_chemical_formula_structural   Rb2ICl5O
_chemical_formula_sum   'Rb8 I4 Cl20 O4'
_cell_volume   1127.92458503
_cell_formula_units_Z   4
loop_
 _symmetry_equiv_pos_site_id
 _symmetry_equiv_pos_as_xyz
  1  'x, y, z'
loop_
 _atom_site_type_symbol
 _atom_site_label
 _atom_site_symmetry_multiplicity
 _atom_site_fract_x
 _atom_site_fract_y
 _atom_site_fract_z
 _atom_site_occupancy
  Rb  Rb0  1  0.707943  0.996372  0.144107  1
  Rb  Rb1  1  0.792057  0.503628  0.644107  1
  Rb  Rb2  1  0.292057  0.496372  0.855893  1
  Rb  Rb3  1  0.207943  0.003628  0.355893  1
  Rb  Rb4  1  0.292057  0.003628  0.855893  1
  Rb  Rb5  1  0.207943  0.496372  0.355893  1
  Rb  Rb6  1  0.707943  0.503628  0.144107  1
  Rb  Rb7  1  0.792057  0.996372  0.644107  1
  I  I8  1  0.694427  0.750000  0.398315  1
  I  I9  1  0.805573  0.750000  0.898315  1
  I  I10  1  0.305573  0.250000  0.601685  1
  I  I11  1  0.194427  0.250000  0.101685  1
  Cl  Cl12  1  0.969741  0.750000  0.503822  1
  Cl  Cl13  1  0.530259  0.750000  0.003822  1
  Cl  Cl14  1  0.030259  0.250000  0.496178  1
  Cl  Cl15  1  0.469741  0.250000  0.996178  1
  Cl  Cl16  1  0.948139  0.750000  0.252455  1
  Cl  Cl17  1  0.551861  0.750000  0.752455  1
  Cl  Cl18  1  0.051861  0.250000  0.747545  1
  Cl  Cl19  1  0.448139  0.250000  0.247545  1
  Cl  Cl20  1  0.458912  0.750000  0.270254  1
  Cl  Cl21  1  0.041088  0.750000  0.770254  1
  Cl  Cl22  1  0.541088  0.250000  0.729746  1
  Cl  Cl23  1  0.958912  0.250000  0.229746  1
  Cl  Cl24  1  0.709105  0.000967  0.390329  1
  Cl  Cl25  1  0.790895  0.499033  0.890330  1
  Cl  Cl26  1  0.290895  0.500967  0.609670  1
  Cl  Cl27  1  0.209105  0.999033  0.109671  1
  Cl  Cl28  1  0.290895  0.999033  0.609670  1
  Cl  Cl29  1  0.209105  0.500967  0.109671  1
  Cl  Cl30  1  0.709105  0.499033  0.390329  1
  Cl  Cl31  1  0.790895  0.000967  0.890330  1
  O  O32  1  0.527987  0.750000  0.485747  1
  O  O33  1  0.972013  0.750000  0.985747  1
  O  O34  1  0.472013  0.250000  0.514253  1
  O  O35  1  0.027987  0.250000  0.014253  1
