# generated using pymatgen
data_Y8Sn(Pd7Pt)3
_symmetry_space_group_name_H-M   'P 1'
_cell_length_a   8.41875000
_cell_length_b   8.41038300
_cell_length_c   8.40640300
_cell_angle_alpha   90.00000000
_cell_angle_beta   90.00000000
_cell_angle_gamma   90.00000000
_symmetry_Int_Tables_number   1
_chemical_formula_structural   Y8Sn(Pd7Pt)3
_chemical_formula_sum   'Y8 Sn1 Pd21 Pt3'
_cell_volume   595.21462365
_cell_formula_units_Z   1
loop_
 _symmetry_equiv_pos_site_id
 _symmetry_equiv_pos_as_xyz
  1  'x, y, z'
loop_
 _atom_site_type_symbol
 _atom_site_label
 _atom_site_symmetry_multiplicity
 _atom_site_fract_x
 _atom_site_fract_y
 _atom_site_fract_z
 _atom_site_occupancy
  Y  Y0  1  0.252861  0.252915  0.253255  1
  Y  Y1  1  0.747496  0.747060  0.747042  1
  Y  Y2  1  0.747496  0.747060  0.252958  1
  Y  Y3  1  0.747139  0.252915  0.746745  1
  Y  Y4  1  0.252861  0.252915  0.746745  1
  Y  Y5  1  0.252504  0.747060  0.252958  1
  Y  Y6  1  0.252504  0.747060  0.747042  1
  Y  Y7  1  0.747139  0.252915  0.253255  1
  Sn  Sn8  1  0.000000  0.000051  0.000000  1
  Pd  Pd9  1  0.265263  0.500056  0.000000  1
  Pd  Pd10  1  0.734737  0.500056  0.000000  1
  Pd  Pd11  1  0.000000  0.265247  0.500000  1
  Pd  Pd12  1  0.500000  0.265147  0.000000  1
  Pd  Pd13  1  0.000000  0.734598  0.500000  1
  Pd  Pd14  1  0.500000  0.734823  0.000000  1
  Pd  Pd15  1  0.500000  0.000055  0.265143  1
  Pd  Pd16  1  0.265363  0.000094  0.500000  1
  Pd  Pd17  1  0.500000  0.000055  0.734857  1
  Pd  Pd18  1  0.734637  0.000094  0.500000  1
  Pd  Pd19  1  0.000000  0.500070  0.265205  1
  Pd  Pd20  1  0.000000  0.500070  0.734795  1
  Pd  Pd21  1  0.500000  0.745109  0.500000  1
  Pd  Pd22  1  0.500000  0.500041  0.254771  1
  Pd  Pd23  1  0.500000  0.500041  0.745229  1
  Pd  Pd24  1  0.308296  0.999942  0.000000  1
  Pd  Pd25  1  0.691704  0.999942  0.000000  1
  Pd  Pd26  1  0.000000  0.308321  0.000000  1
  Pd  Pd27  1  0.000000  0.691834  0.000000  1
  Pd  Pd28  1  0.000000  0.999955  0.308190  1
  Pd  Pd29  1  0.000000  0.999955  0.691810  1
  Pt  Pt30  1  0.254657  0.499919  0.500000  1
  Pt  Pt31  1  0.745343  0.499919  0.500000  1
  Pt  Pt32  1  0.500000  0.254705  0.500000  1
