# generated using pymatgen
data_Mg4Zn3Ga3Ru2
_symmetry_space_group_name_H-M   'P 1'
_cell_length_a   5.19330318
_cell_length_b   5.25133753
_cell_length_c   8.37960200
_cell_angle_alpha   90.00000000
_cell_angle_beta   90.00000000
_cell_angle_gamma   119.23774437
_symmetry_Int_Tables_number   1
_chemical_formula_structural   Mg4Zn3Ga3Ru2
_chemical_formula_sum   'Mg4 Zn3 Ga3 Ru2'
_cell_volume   199.41253822
_cell_formula_units_Z   1
loop_
 _symmetry_equiv_pos_site_id
 _symmetry_equiv_pos_as_xyz
  1  'x, y, z'
loop_
 _atom_site_type_symbol
 _atom_site_label
 _atom_site_symmetry_multiplicity
 _atom_site_fract_x
 _atom_site_fract_y
 _atom_site_fract_z
 _atom_site_occupancy
  Mg  Mg0  1  0.674853  0.324650  0.064893  1
  Mg  Mg1  1  0.324926  0.674759  0.930998  1
  Mg  Mg2  1  0.324926  0.674759  0.569002  1
  Mg  Mg3  1  0.674853  0.324650  0.435107  1
  Zn  Zn4  1  0.826952  0.641464  0.750000  1
  Zn  Zn5  1  0.167925  0.353764  0.250000  1
  Zn  Zn6  1  0.359271  0.172718  0.750000  1
  Ga  Ga7  1  0.638461  0.825371  0.250000  1
  Ga  Ga8  1  0.005742  0.004653  0.503068  1
  Ga  Ga9  1  0.005742  0.004653  0.996932  1
  Ru  Ru10  1  0.841042  0.156869  0.750000  1
  Ru  Ru11  1  0.155306  0.841690  0.250000  1
