# generated using pymatgen
data_La4YbDy5Si8
_symmetry_space_group_name_H-M   'P 1'
_cell_length_a   7.85789525
_cell_length_b   7.85810200
_cell_length_c   14.60403700
_cell_angle_alpha   90.00000000
_cell_angle_beta   89.83333084
_cell_angle_gamma   90.00000000
_symmetry_Int_Tables_number   1
_chemical_formula_structural   La4YbDy5Si8
_chemical_formula_sum   'La8 Yb2 Dy10 Si16'
_cell_volume   901.76834023
_cell_formula_units_Z   2
loop_
 _symmetry_equiv_pos_site_id
 _symmetry_equiv_pos_as_xyz
  1  'x, y, z'
loop_
 _atom_site_type_symbol
 _atom_site_label
 _atom_site_symmetry_multiplicity
 _atom_site_fract_x
 _atom_site_fract_y
 _atom_site_fract_z
 _atom_site_occupancy
  La  La0  1  0.991055  0.633650  0.044544  1
  La  La1  1  0.012226  0.363695  0.542987  1
  La  La2  1  0.635932  0.989732  0.956773  1
  La  La3  1  0.134906  0.510828  0.794491  1
  La  La4  1  0.864068  0.489732  0.293227  1
  La  La5  1  0.508945  0.133650  0.205456  1
  La  La6  1  0.487774  0.863695  0.707013  1
  La  La7  1  0.365094  0.010828  0.455509  1
  Yb  Yb8  1  0.186510  0.813725  0.250689  1
  Yb  Yb9  1  0.313490  0.313725  0.999311  1
  Dy  Dy10  1  0.367865  0.491513  0.374984  1
  Dy  Dy11  1  0.865567  0.008933  0.374384  1
  Dy  Dy12  1  0.992734  0.132917  0.124991  1
  Dy  Dy13  1  0.010898  0.865766  0.625786  1
  Dy  Dy14  1  0.634433  0.508933  0.875616  1
  Dy  Dy15  1  0.489102  0.365766  0.624214  1
  Dy  Dy16  1  0.507266  0.632917  0.125009  1
  Dy  Dy17  1  0.132135  0.991513  0.875016  1
  Dy  Dy18  1  0.686303  0.688946  0.500986  1
  Dy  Dy19  1  0.813697  0.188946  0.749014  1
  Si  Si20  1  0.068815  0.712081  0.441428  1
  Si  Si21  1  0.921694  0.285662  0.938065  1
  Si  Si22  1  0.713440  0.069927  0.561102  1
  Si  Si23  1  0.213446  0.422878  0.190576  1
  Si  Si24  1  0.786560  0.569927  0.688898  1
  Si  Si25  1  0.431185  0.212082  0.808572  1
  Si  Si26  1  0.578306  0.785662  0.311935  1
  Si  Si27  1  0.286555  0.922878  0.059424  1
  Si  Si28  1  0.842071  0.798567  0.806778  1
  Si  Si29  1  0.155800  0.208043  0.309050  1
  Si  Si30  1  0.791310  0.844685  0.190704  1
  Si  Si31  1  0.299186  0.658450  0.556429  1
  Si  Si32  1  0.708690  0.344685  0.059296  1
  Si  Si33  1  0.657929  0.298567  0.443222  1
  Si  Si34  1  0.344200  0.708043  0.940950  1
  Si  Si35  1  0.200814  0.158450  0.693571  1
