# generated using pymatgen
data_Dy5Si10P2Ir19
_symmetry_space_group_name_H-M   'P 1'
_cell_length_a   12.83739019
_cell_length_b   12.82171979
_cell_length_c   3.95993100
_cell_angle_alpha   90.00000000
_cell_angle_beta   90.00000000
_cell_angle_gamma   119.95962647
_symmetry_Int_Tables_number   1
_chemical_formula_structural   Dy5Si10P2Ir19
_chemical_formula_sum   'Dy5 Si10 P2 Ir19'
_cell_volume   564.70003405
_cell_formula_units_Z   1
loop_
 _symmetry_equiv_pos_site_id
 _symmetry_equiv_pos_as_xyz
  1  'x, y, z'
loop_
 _atom_site_type_symbol
 _atom_site_label
 _atom_site_symmetry_multiplicity
 _atom_site_fract_x
 _atom_site_fract_y
 _atom_site_fract_z
 _atom_site_occupancy
  Dy  Dy0  1  0.333024  0.666488  0.500000  1
  Dy  Dy1  1  0.666976  0.333463  0.500000  1
  Dy  Dy2  1  0.000000  0.813035  0.000000  1
  Dy  Dy3  1  0.185086  0.186384  0.000000  1
  Dy  Dy4  1  0.814914  0.001298  0.000000  1
  Si  Si5  1  0.000000  0.633139  0.500000  1
  Si  Si6  1  0.366802  0.367112  0.500000  1
  Si  Si7  1  0.633198  0.000310  0.500000  1
  Si  Si8  1  0.518707  0.686535  0.000000  1
  Si  Si9  1  0.313572  0.832045  0.000000  1
  Si  Si10  1  0.168202  0.481085  0.000000  1
  Si  Si11  1  0.481293  0.167828  0.000000  1
  Si  Si12  1  0.686428  0.518472  0.000000  1
  Si  Si13  1  0.831798  0.312883  0.000000  1
  Si  Si14  1  0.000000  0.178617  0.500000  1
  P  P15  1  0.820037  0.820221  0.500000  1
  P  P16  1  0.179963  0.000184  0.500000  1
  Ir  Ir17  1  0.512886  0.872445  0.000000  1
  Ir  Ir18  1  0.127368  0.640410  0.000000  1
  Ir  Ir19  1  0.360921  0.487427  0.000000  1
  Ir  Ir20  1  0.487114  0.359558  0.000000  1
  Ir  Ir21  1  0.872632  0.513041  0.000000  1
  Ir  Ir22  1  0.639079  0.126505  0.000000  1
  Ir  Ir23  1  0.000000  0.448136  0.500000  1
  Ir  Ir24  1  0.553367  0.552339  0.500000  1
  Ir  Ir25  1  0.446633  0.998973  0.500000  1
  Ir  Ir26  1  0.000000  0.282107  0.000000  1
  Ir  Ir27  1  0.720479  0.720605  0.000000  1
  Ir  Ir28  1  0.279521  0.000126  0.000000  1
  Ir  Ir29  1  0.626652  0.806506  0.500000  1
  Ir  Ir30  1  0.193547  0.820326  0.500000  1
  Ir  Ir31  1  0.181629  0.375725  0.500000  1
  Ir  Ir32  1  0.373348  0.179854  0.500000  1
  Ir  Ir33  1  0.806453  0.626780  0.500000  1
  Ir  Ir34  1  0.818371  0.194096  0.500000  1
  Ir  Ir35  1  0.000000  0.995942  0.500000  1
