# generated using pymatgen
data_Ho4Al18FeNi4Ir
_symmetry_space_group_name_H-M   'P 1'
_cell_length_a   7.45269277
_cell_length_b   7.45269286
_cell_length_c   9.30524213
_cell_angle_alpha   89.85188537
_cell_angle_beta   89.85188207
_cell_angle_gamma   119.66476065
_symmetry_Int_Tables_number   1
_chemical_formula_structural   Ho4Al18FeNi4Ir
_chemical_formula_sum   'Ho4 Al18 Fe1 Ni4 Ir1'
_cell_volume   449.09291498
_cell_formula_units_Z   1
loop_
 _symmetry_equiv_pos_site_id
 _symmetry_equiv_pos_as_xyz
  1  'x, y, z'
loop_
 _atom_site_type_symbol
 _atom_site_label
 _atom_site_symmetry_multiplicity
 _atom_site_fract_x
 _atom_site_fract_y
 _atom_site_fract_z
 _atom_site_occupancy
  Ho  Ho0  1  0.992461  0.667490  0.250438  1
  Ho  Ho1  1  0.004690  0.329988  0.749196  1
  Ho  Ho2  1  0.670012  0.995310  0.250804  1
  Ho  Ho3  1  0.332510  0.007539  0.749562  1
  Al  Al4  1  0.123421  0.122394  0.250549  1
  Al  Al5  1  0.877606  0.876579  0.749451  1
  Al  Al6  1  0.999146  0.333613  0.073645  1
  Al  Al7  1  0.002942  0.666759  0.926760  1
  Al  Al8  1  0.008899  0.667517  0.571690  1
  Al  Al9  1  0.332483  0.991101  0.428310  1
  Al  Al10  1  0.006653  0.339800  0.427980  1
  Al  Al11  1  0.660200  0.993347  0.572020  1
  Al  Al12  1  0.666387  0.000854  0.926355  1
  Al  Al13  1  0.333241  0.997058  0.073240  1
  Al  Al14  1  0.329897  0.335643  0.546380  1
  Al  Al15  1  0.664357  0.670103  0.453620  1
  Al  Al16  1  0.667358  0.667641  0.051336  1
  Al  Al17  1  0.332359  0.332642  0.948664  1
  Al  Al18  1  0.338951  0.554522  0.253540  1
  Al  Al19  1  0.661920  0.453299  0.753052  1
  Al  Al20  1  0.546701  0.338080  0.246948  1
  Al  Al21  1  0.445478  0.661049  0.746460  1
  Fe  Fe22  1  0.329188  0.670812  0.500000  1
  Ni  Ni23  1  0.671699  0.328301  0.000000  1
  Ni  Ni24  1  0.328832  0.671168  0.000000  1
  Ni  Ni25  1  0.000093  0.999907  0.000000  1
  Ni  Ni26  1  0.000413  0.999587  0.500000  1
  Ir  Ir27  1  0.672103  0.327897  0.500000  1
