# generated using pymatgen
data_PmAlPt4
_symmetry_space_group_name_H-M   'P 1'
_cell_length_a   5.60415400
_cell_length_b   5.22924177
_cell_length_c   4.43493700
_cell_angle_alpha   90.00000000
_cell_angle_beta   90.00000000
_cell_angle_gamma   57.59846947
_symmetry_Int_Tables_number   1
_chemical_formula_structural   PmAlPt4
_chemical_formula_sum   'Pm1 Al1 Pt4'
_cell_volume   109.73370132
_cell_formula_units_Z   1
loop_
 _symmetry_equiv_pos_site_id
 _symmetry_equiv_pos_as_xyz
  1  'x, y, z'
loop_
 _atom_site_type_symbol
 _atom_site_label
 _atom_site_symmetry_multiplicity
 _atom_site_fract_x
 _atom_site_fract_y
 _atom_site_fract_z
 _atom_site_occupancy
  Pm  Pm0  1  0.000088  0.000001  0.000000  1
  Al  Al1  1  0.500261  0.000001  0.499999  1
  Pt  Pt2  1  0.338726  0.322565  0.000000  1
  Pt  Pt3  1  0.661290  0.677438  0.000000  1
  Pt  Pt4  1  0.000016  0.499596  0.499999  1
  Pt  Pt5  1  0.499613  0.500404  0.499999  1
