# generated using pymatgen
data_Dy2MgSi2(PRh3)4
_symmetry_space_group_name_H-M   'P 1'
_cell_length_a   9.72771998
_cell_length_b   9.71721368
_cell_length_c   3.87349610
_cell_angle_alpha   90.00891180
_cell_angle_beta   90.01835765
_cell_angle_gamma   119.93300100
_symmetry_Int_Tables_number   1
_chemical_formula_structural   Dy2MgSi2(PRh3)4
_chemical_formula_sum   'Dy2 Mg1 Si2 P4 Rh12'
_cell_volume   317.30676029
_cell_formula_units_Z   1
loop_
 _symmetry_equiv_pos_site_id
 _symmetry_equiv_pos_as_xyz
  1  'x, y, z'
loop_
 _atom_site_type_symbol
 _atom_site_label
 _atom_site_symmetry_multiplicity
 _atom_site_fract_x
 _atom_site_fract_y
 _atom_site_fract_z
 _atom_site_occupancy
  Dy  Dy0  1  0.334894  0.668601  0.739763  1
  Dy  Dy1  1  0.666916  0.331820  0.238954  1
  Mg  Mg2  1  0.001533  0.002646  0.719286  1
  Si  Si3  1  0.398211  0.285880  0.738302  1
  Si  Si4  1  0.713308  0.112245  0.738376  1
  P  P5  1  0.885473  0.600133  0.738727  1
  P  P6  1  0.598890  0.711145  0.239612  1
  P  P7  1  0.290099  0.889870  0.239680  1
  P  P8  1  0.114889  0.403225  0.239733  1
  Rh  Rh9  1  0.446456  0.066477  0.738787  1
  Rh  Rh10  1  0.929914  0.384890  0.738996  1
  Rh  Rh11  1  0.622002  0.550082  0.739056  1
  Rh  Rh12  1  0.550977  0.938658  0.239056  1
  Rh  Rh13  1  0.062760  0.611139  0.239331  1
  Rh  Rh14  1  0.391129  0.449625  0.239153  1
  Rh  Rh15  1  0.159909  0.299842  0.739498  1
  Rh  Rh16  1  0.705047  0.862464  0.739569  1
  Rh  Rh17  1  0.131121  0.834383  0.739723  1
  Rh  Rh18  1  0.852663  0.730882  0.238729  1
  Rh  Rh19  1  0.259506  0.116282  0.237760  1
  Rh  Rh20  1  0.884304  0.149713  0.237911  1
