# generated using pymatgen
data_Ac8YPt6
_symmetry_space_group_name_H-M   'P 1'
_cell_length_a   8.08068995
_cell_length_b   8.08068965
_cell_length_c   8.08069034
_cell_angle_alpha   71.95341706
_cell_angle_beta   71.95342080
_cell_angle_gamma   71.95342607
_symmetry_Int_Tables_number   1
_chemical_formula_structural   Ac8YPt6
_chemical_formula_sum   'Ac8 Y1 Pt6'
_cell_volume   463.47655017
_cell_formula_units_Z   1
loop_
 _symmetry_equiv_pos_site_id
 _symmetry_equiv_pos_as_xyz
  1  'x, y, z'
loop_
 _atom_site_type_symbol
 _atom_site_label
 _atom_site_symmetry_multiplicity
 _atom_site_fract_x
 _atom_site_fract_y
 _atom_site_fract_z
 _atom_site_occupancy
  Ac  Ac0  1  0.387639  0.676832  0.159227  1
  Ac  Ac1  1  0.197621  0.197621  0.197621  1
  Ac  Ac2  1  0.840773  0.612361  0.323168  1
  Ac  Ac3  1  0.676832  0.159227  0.387639  1
  Ac  Ac4  1  0.323168  0.840773  0.612361  1
  Ac  Ac5  1  0.159227  0.387639  0.676832  1
  Ac  Ac6  1  0.802379  0.802379  0.802379  1
  Ac  Ac7  1  0.612361  0.323168  0.840773  1
  Y  Y8  1  0.000000  0.000000  0.000000  1
  Pt  Pt9  1  0.843538  0.397871  0.037910  1
  Pt  Pt10  1  0.602129  0.962090  0.156462  1
  Pt  Pt11  1  0.037910  0.843538  0.397871  1
  Pt  Pt12  1  0.962090  0.156462  0.602129  1
  Pt  Pt13  1  0.397871  0.037910  0.843538  1
  Pt  Pt14  1  0.156462  0.602129  0.962090  1
