# generated using pymatgen
data_Ho3Co4Mo(P3Rh2)2
_symmetry_space_group_name_H-M   'P 1'
_cell_length_a   3.80727100
_cell_length_b   10.93914400
_cell_length_c   12.58753600
_cell_angle_alpha   90.00000000
_cell_angle_beta   90.00000000
_cell_angle_gamma   90.00000000
_symmetry_Int_Tables_number   1
_chemical_formula_structural   Ho3Co4Mo(P3Rh2)2
_chemical_formula_sum   'Ho6 Co8 Mo2 P12 Rh8'
_cell_volume   524.24929579
_cell_formula_units_Z   2
loop_
 _symmetry_equiv_pos_site_id
 _symmetry_equiv_pos_as_xyz
  1  'x, y, z'
loop_
 _atom_site_type_symbol
 _atom_site_label
 _atom_site_symmetry_multiplicity
 _atom_site_fract_x
 _atom_site_fract_y
 _atom_site_fract_z
 _atom_site_occupancy
  Ho  Ho0  1  0.000000  0.500000  0.518164  1
  Ho  Ho1  1  0.500000  0.000000  0.477266  1
  Ho  Ho2  1  0.500000  0.816106  0.195959  1
  Ho  Ho3  1  0.500000  0.183894  0.195959  1
  Ho  Ho4  1  0.000000  0.680430  0.806506  1
  Ho  Ho5  1  0.000000  0.319570  0.806506  1
  Co  Co6  1  0.000000  0.500000  0.990124  1
  Co  Co7  1  0.500000  0.000000  0.014259  1
  Co  Co8  1  0.000000  0.619907  0.283734  1
  Co  Co9  1  0.000000  0.380093  0.283734  1
  Co  Co10  1  0.500000  0.333721  0.994495  1
  Co  Co11  1  0.500000  0.666279  0.994495  1
  Co  Co12  1  0.000000  0.168525  0.010182  1
  Co  Co13  1  0.000000  0.831475  0.010182  1
  Mo  Mo14  1  0.500000  0.500000  0.152426  1
  Mo  Mo15  1  0.000000  0.000000  0.850113  1
  P  P16  1  0.500000  0.315572  0.618787  1
  P  P17  1  0.500000  0.684428  0.618787  1
  P  P18  1  0.000000  0.193390  0.373034  1
  P  P19  1  0.000000  0.806610  0.373034  1
  P  P20  1  0.500000  0.500000  0.891978  1
  P  P21  1  0.000000  0.000000  0.110452  1
  P  P22  1  0.500000  0.843108  0.903972  1
  P  P23  1  0.500000  0.156892  0.903972  1
  P  P24  1  0.000000  0.654547  0.104765  1
  P  P25  1  0.000000  0.345453  0.104765  1
  P  P26  1  0.500000  0.500000  0.338724  1
  P  P27  1  0.000000  0.000000  0.658036  1
  Rh  Rh28  1  0.500000  0.300325  0.424446  1
  Rh  Rh29  1  0.500000  0.699675  0.424446  1
  Rh  Rh30  1  0.000000  0.207487  0.566749  1
  Rh  Rh31  1  0.000000  0.792513  0.566749  1
  Rh  Rh32  1  0.500000  0.872821  0.715491  1
  Rh  Rh33  1  0.500000  0.127179  0.715491  1
  Rh  Rh34  1  0.500000  0.500000  0.705423  1
  Rh  Rh35  1  0.000000  0.000000  0.296788  1
