# generated using pymatgen
data_Pr2Nd3Bi3As
_symmetry_space_group_name_H-M   'P 1'
_cell_length_a   9.68770400
_cell_length_b   9.68770420
_cell_length_c   6.73787800
_cell_angle_alpha   90.00000000
_cell_angle_beta   90.00000000
_cell_angle_gamma   119.99999931
_symmetry_Int_Tables_number   1
_chemical_formula_structural   Pr2Nd3Bi3As
_chemical_formula_sum   'Pr4 Nd6 Bi6 As2'
_cell_volume   547.64043714
_cell_formula_units_Z   2
loop_
 _symmetry_equiv_pos_site_id
 _symmetry_equiv_pos_as_xyz
  1  'x, y, z'
loop_
 _atom_site_type_symbol
 _atom_site_label
 _atom_site_symmetry_multiplicity
 _atom_site_fract_x
 _atom_site_fract_y
 _atom_site_fract_z
 _atom_site_occupancy
  Pr  Pr0  1  0.666667  0.333333  0.000000  1
  Pr  Pr1  1  0.333333  0.666667  0.000000  1
  Pr  Pr2  1  0.333333  0.666667  0.500000  1
  Pr  Pr3  1  0.666667  0.333333  0.500000  1
  Nd  Nd4  1  0.748969  0.748969  0.750000  1
  Nd  Nd5  1  0.251031  0.000000  0.750000  1
  Nd  Nd6  1  0.000000  0.251031  0.750000  1
  Nd  Nd7  1  0.251031  0.251031  0.250000  1
  Nd  Nd8  1  0.748969  0.000000  0.250000  1
  Nd  Nd9  1  0.000000  0.748969  0.250000  1
  Bi  Bi10  1  0.392137  0.392137  0.750000  1
  Bi  Bi11  1  0.607863  0.000000  0.750000  1
  Bi  Bi12  1  0.000000  0.607863  0.750000  1
  Bi  Bi13  1  0.607863  0.607863  0.250000  1
  Bi  Bi14  1  0.392137  0.000000  0.250000  1
  Bi  Bi15  1  0.000000  0.392137  0.250000  1
  As  As16  1  0.000000  0.000000  0.000000  1
  As  As17  1  0.000000  0.000000  0.500000  1
