# generated using pymatgen
data_CeDy3Ta2(B2Ru5)2
_symmetry_space_group_name_H-M   'P 1'
_cell_length_a   9.66034616
_cell_length_b   9.66034616
_cell_length_c   3.15217800
_cell_angle_alpha   90.00000000
_cell_angle_beta   90.00000000
_cell_angle_gamma   89.97889740
_symmetry_Int_Tables_number   1
_chemical_formula_structural   CeDy3Ta2(B2Ru5)2
_chemical_formula_sum   'Ce1 Dy3 Ta2 B4 Ru10'
_cell_volume   294.16844321
_cell_formula_units_Z   1
loop_
 _symmetry_equiv_pos_site_id
 _symmetry_equiv_pos_as_xyz
  1  'x, y, z'
loop_
 _atom_site_type_symbol
 _atom_site_label
 _atom_site_symmetry_multiplicity
 _atom_site_fract_x
 _atom_site_fract_y
 _atom_site_fract_z
 _atom_site_occupancy
  Ce  Ce0  1  0.674377  0.174377  0.000000  1
  Dy  Dy1  1  0.825415  0.674278  0.000000  1
  Dy  Dy2  1  0.174278  0.325415  0.000000  1
  Dy  Dy3  1  0.325080  0.825080  0.000000  1
  Ta  Ta4  1  0.497666  0.503215  0.000000  1
  Ta  Ta5  1  0.003215  0.997666  0.000000  1
  B  B6  1  0.621839  0.876062  0.000000  1
  B  B7  1  0.376062  0.121839  0.000000  1
  B  B8  1  0.121651  0.621651  0.000000  1
  B  B9  1  0.880648  0.380648  0.000000  1
  Ru  Ru10  1  0.571185  0.719210  0.500000  1
  Ru  Ru11  1  0.429626  0.282810  0.500000  1
  Ru  Ru12  1  0.071424  0.781048  0.500000  1
  Ru  Ru13  1  0.926441  0.217164  0.500000  1
  Ru  Ru14  1  0.281048  0.571424  0.500000  1
  Ru  Ru15  1  0.717164  0.426441  0.500000  1
  Ru  Ru16  1  0.219210  0.071185  0.500000  1
  Ru  Ru17  1  0.782810  0.929626  0.500000  1
  Ru  Ru18  1  0.501664  0.001664  0.500000  1
  Ru  Ru19  1  0.999197  0.499197  0.500000  1
