# generated using pymatgen
data_Lu11Pa(TcPt)2
_symmetry_space_group_name_H-M   'P 1'
_cell_length_a   6.24075734
_cell_length_b   7.16242390
_cell_length_c   9.16404200
_cell_angle_alpha   90.00000000
_cell_angle_beta   90.00000000
_cell_angle_gamma   91.00317599
_symmetry_Int_Tables_number   1
_chemical_formula_structural   Lu11Pa(TcPt)2
_chemical_formula_sum   'Lu11 Pa1 Tc2 Pt2'
_cell_volume   409.56026629
_cell_formula_units_Z   1
loop_
 _symmetry_equiv_pos_site_id
 _symmetry_equiv_pos_as_xyz
  1  'x, y, z'
loop_
 _atom_site_type_symbol
 _atom_site_label
 _atom_site_symmetry_multiplicity
 _atom_site_fract_x
 _atom_site_fract_y
 _atom_site_fract_z
 _atom_site_occupancy
  Lu  Lu0  1  0.326559  0.673065  0.063959  1
  Lu  Lu1  1  0.171946  0.183106  0.435258  1
  Lu  Lu2  1  0.669130  0.319721  0.557406  1
  Lu  Lu3  1  0.830145  0.823830  0.939499  1
  Lu  Lu4  1  0.669130  0.319721  0.942594  1
  Lu  Lu5  1  0.830145  0.823830  0.560501  1
  Lu  Lu6  1  0.326559  0.673065  0.436041  1
  Lu  Lu7  1  0.171946  0.183106  0.064742  1
  Lu  Lu8  1  0.613925  0.024446  0.250000  1
  Lu  Lu9  1  0.130373  0.466386  0.750000  1
  Lu  Lu10  1  0.369848  0.968578  0.750000  1
  Pa  Pa11  1  0.853946  0.559224  0.250000  1
  Tc  Tc12  1  0.027007  0.864528  0.250000  1
  Tc  Tc13  1  0.509593  0.389857  0.250000  1
  Pt  Pt14  1  0.950832  0.114729  0.750000  1
  Pt  Pt15  1  0.548916  0.612807  0.750000  1
