# generated using pymatgen
data_Hf18FeCuMo7Os
_symmetry_space_group_name_H-M   'P 1'
_cell_length_a   8.49775600
_cell_length_b   8.66672691
_cell_length_c   8.67822730
_cell_angle_alpha   119.95580153
_cell_angle_beta   90.00000000
_cell_angle_gamma   90.00000000
_symmetry_Int_Tables_number   1
_chemical_formula_structural   Hf18FeCuMo7Os
_chemical_formula_sum   'Hf18 Fe1 Cu1 Mo7 Os1'
_cell_volume   553.75067977
_cell_formula_units_Z   1
loop_
 _symmetry_equiv_pos_site_id
 _symmetry_equiv_pos_as_xyz
  1  'x, y, z'
loop_
 _atom_site_type_symbol
 _atom_site_label
 _atom_site_symmetry_multiplicity
 _atom_site_fract_x
 _atom_site_fract_y
 _atom_site_fract_z
 _atom_site_occupancy
  Hf  Hf0  1  0.558376  0.797579  0.595159  1
  Hf  Hf1  1  0.560155  0.797370  0.201934  1
  Hf  Hf2  1  0.560156  0.404554  0.201930  1
  Hf  Hf3  1  0.446437  0.196278  0.392570  1
  Hf  Hf4  1  0.446533  0.197332  0.802359  1
  Hf  Hf5  1  0.446540  0.605027  0.802366  1
  Hf  Hf6  1  0.053563  0.196278  0.392570  1
  Hf  Hf7  1  0.053467  0.197332  0.802359  1
  Hf  Hf8  1  0.053460  0.605027  0.802366  1
  Hf  Hf9  1  0.941624  0.797579  0.595159  1
  Hf  Hf10  1  0.939845  0.797370  0.201934  1
  Hf  Hf11  1  0.939844  0.404554  0.201930  1
  Hf  Hf12  1  0.750000  0.458124  0.916252  1
  Hf  Hf13  1  0.750000  0.457837  0.540231  1
  Hf  Hf14  1  0.750000  0.082387  0.540226  1
  Hf  Hf15  1  0.250000  0.541435  0.082868  1
  Hf  Hf16  1  0.250000  0.540790  0.457554  1
  Hf  Hf17  1  0.250000  0.916774  0.457563  1
  Fe  Fe18  1  0.750000  0.667162  0.334344  1
  Cu  Cu19  1  0.250000  0.332473  0.664908  1
  Mo  Mo20  1  0.750000  0.112007  0.891481  1
  Mo  Mo21  1  0.750000  0.779485  0.891482  1
  Mo  Mo22  1  0.250000  0.887349  0.774659  1
  Mo  Mo23  1  0.250000  0.888938  0.112458  1
  Mo  Mo24  1  0.250000  0.223517  0.112462  1
  Mo  Mo25  1  0.500620  0.000180  0.000361  1
  Mo  Mo26  1  0.999380  0.000180  0.000361  1
  Os  Os27  1  0.750000  0.115081  0.230150  1
