# generated using pymatgen
data_Sr6Fe4O13
_symmetry_space_group_name_H-M   'P 1'
_cell_length_a   10.56670588
_cell_length_b   10.56670588
_cell_length_c   5.56243400
_cell_angle_alpha   90.00000000
_cell_angle_beta   90.00000000
_cell_angle_gamma   149.46700529
_symmetry_Int_Tables_number   1
_chemical_formula_structural   Sr6Fe4O13
_chemical_formula_sum   'Sr6 Fe4 O13'
_cell_volume   315.52754817
_cell_formula_units_Z   1
loop_
 _symmetry_equiv_pos_site_id
 _symmetry_equiv_pos_as_xyz
  1  'x, y, z'
loop_
 _atom_site_type_symbol
 _atom_site_label
 _atom_site_symmetry_multiplicity
 _atom_site_fract_x
 _atom_site_fract_y
 _atom_site_fract_z
 _atom_site_occupancy
  Sr  Sr0  1  0.500000  0.500000  0.000000  1
  Sr  Sr1  1  0.000000  0.000000  0.500000  1
  Sr  Sr2  1  0.180847  0.819153  0.500000  1
  Sr  Sr3  1  0.683094  0.316906  0.000000  1
  Sr  Sr4  1  0.316906  0.683094  0.000000  1
  Sr  Sr5  1  0.819153  0.180847  0.500000  1
  Fe  Fe6  1  0.394276  0.605724  0.500000  1
  Fe  Fe7  1  0.904753  0.095248  0.000000  1
  Fe  Fe8  1  0.095247  0.904752  0.000000  1
  Fe  Fe9  1  0.605724  0.394276  0.500000  1
  O  O10  1  0.650903  0.830436  0.741092  1
  O  O11  1  0.169564  0.349098  0.258908  1
  O  O12  1  0.830436  0.650902  0.741092  1
  O  O13  1  0.349097  0.169564  0.258908  1
  O  O14  1  0.169564  0.349098  0.741092  1
  O  O15  1  0.650903  0.830436  0.258908  1
  O  O16  1  0.349097  0.169564  0.741092  1
  O  O17  1  0.830436  0.650902  0.258908  1
  O  O18  1  0.300455  0.699546  0.500000  1
  O  O19  1  0.808629  0.191372  0.000000  1
  O  O20  1  0.191371  0.808628  0.000000  1
  O  O21  1  0.699545  0.300454  0.500000  1
  O  O22  1  0.000000  0.000000  0.000000  1
