# generated using pymatgen
data_Y12In2FeTc2
_symmetry_space_group_name_H-M   'P 1'
_cell_length_a   8.47786799
_cell_length_b   8.47656161
_cell_length_c   8.47656060
_cell_angle_alpha   108.80359230
_cell_angle_beta   108.78880323
_cell_angle_gamma   110.82347205
_symmetry_Int_Tables_number   1
_chemical_formula_structural   Y12In2FeTc2
_chemical_formula_sum   'Y12 In2 Fe1 Tc2'
_cell_volume   468.76547753
_cell_formula_units_Z   1
loop_
 _symmetry_equiv_pos_site_id
 _symmetry_equiv_pos_as_xyz
  1  'x, y, z'
loop_
 _atom_site_type_symbol
 _atom_site_label
 _atom_site_symmetry_multiplicity
 _atom_site_fract_x
 _atom_site_fract_y
 _atom_site_fract_z
 _atom_site_occupancy
  Y  Y0  1  0.303891  0.305107  0.611259  1
  Y  Y1  1  0.692806  0.693210  0.389200  1
  Y  Y2  1  0.692806  0.303605  0.999596  1
  Y  Y3  1  0.303891  0.692631  0.998783  1
  Y  Y4  1  0.190588  0.432325  0.241858  1
  Y  Y5  1  0.807234  0.568711  0.761602  1
  Y  Y6  1  0.190588  0.948728  0.758263  1
  Y  Y7  1  0.949020  0.189632  0.759389  1
  Y  Y8  1  0.807234  0.045633  0.238523  1
  Y  Y9  1  0.044931  0.807353  0.237577  1
  Y  Y10  1  0.430742  0.189516  0.241225  1
  Y  Y11  1  0.571179  0.807952  0.763225  1
  In  In12  1  0.997055  0.497846  0.499209  1
  In  In13  1  0.497253  0.997077  0.500176  1
  Fe  Fe14  1  0.628139  0.628416  0.999723  1
  Tc  Tc15  1  0.392022  0.391706  0.000316  1
  Tc  Tc16  1  0.000623  0.000551  0.000072  1
