# generated using pymatgen
data_La2PaS5
_symmetry_space_group_name_H-M   'P 1'
_cell_length_a   7.56846400
_cell_length_b   8.23118400
_cell_length_c   12.07055100
_cell_angle_alpha   90.00000000
_cell_angle_beta   90.00000000
_cell_angle_gamma   90.00000000
_symmetry_Int_Tables_number   1
_chemical_formula_structural   La2PaS5
_chemical_formula_sum   'La8 Pa4 S20'
_cell_volume   751.96418264
_cell_formula_units_Z   4
loop_
 _symmetry_equiv_pos_site_id
 _symmetry_equiv_pos_as_xyz
  1  'x, y, z'
loop_
 _atom_site_type_symbol
 _atom_site_label
 _atom_site_symmetry_multiplicity
 _atom_site_fract_x
 _atom_site_fract_y
 _atom_site_fract_z
 _atom_site_occupancy
  La  La0  1  0.530007  0.501600  0.323306  1
  La  La1  1  0.969993  0.998400  0.823306  1
  La  La2  1  0.469993  0.001600  0.676694  1
  La  La3  1  0.030007  0.498400  0.176694  1
  La  La4  1  0.469993  0.498400  0.676694  1
  La  La5  1  0.030007  0.001600  0.176694  1
  La  La6  1  0.530007  0.998400  0.323306  1
  La  La7  1  0.969993  0.501600  0.823306  1
  Pa  Pa8  1  0.069498  0.750000  0.492778  1
  Pa  Pa9  1  0.430502  0.750000  0.992778  1
  Pa  Pa10  1  0.930502  0.250000  0.507222  1
  Pa  Pa11  1  0.569498  0.250000  0.007222  1
  S  S12  1  0.836789  0.959869  0.592412  1
  S  S13  1  0.663211  0.540131  0.092412  1
  S  S14  1  0.163211  0.459869  0.407588  1
  S  S15  1  0.336789  0.040131  0.907588  1
  S  S16  1  0.163211  0.040131  0.407588  1
  S  S17  1  0.336789  0.459869  0.907588  1
  S  S18  1  0.836789  0.540131  0.592412  1
  S  S19  1  0.663211  0.959869  0.092412  1
  S  S20  1  0.837283  0.750000  0.312966  1
  S  S21  1  0.662717  0.750000  0.812966  1
  S  S22  1  0.162717  0.250000  0.687034  1
  S  S23  1  0.337283  0.250000  0.187034  1
  S  S24  1  0.449528  0.750000  0.498148  1
  S  S25  1  0.050472  0.750000  0.998148  1
  S  S26  1  0.550472  0.250000  0.501852  1
  S  S27  1  0.949528  0.250000  0.001852  1
  S  S28  1  0.190123  0.750000  0.712974  1
  S  S29  1  0.309877  0.750000  0.212974  1
  S  S30  1  0.809877  0.250000  0.287026  1
  S  S31  1  0.690123  0.250000  0.787026  1
