# generated using pymatgen
data_SrNdAl20IrRu3
_symmetry_space_group_name_H-M   'P 1'
_cell_length_a   6.91578454
_cell_length_b   6.91206200
_cell_length_c   9.24287427
_cell_angle_alpha   90.05543397
_cell_angle_beta   90.01664538
_cell_angle_gamma   96.72705947
_symmetry_Int_Tables_number   1
_chemical_formula_structural   SrNdAl20IrRu3
_chemical_formula_sum   'Sr1 Nd1 Al20 Ir1 Ru3'
_cell_volume   438.78888563
_cell_formula_units_Z   1
loop_
 _symmetry_equiv_pos_site_id
 _symmetry_equiv_pos_as_xyz
  1  'x, y, z'
loop_
 _atom_site_type_symbol
 _atom_site_label
 _atom_site_symmetry_multiplicity
 _atom_site_fract_x
 _atom_site_fract_y
 _atom_site_fract_z
 _atom_site_occupancy
  Sr  Sr0  1  0.877926  0.121652  0.750031  1
  Nd  Nd1  1  0.124514  0.877098  0.250116  1
  Al  Al2  1  0.620167  0.376614  0.545665  1
  Al  Al3  1  0.379428  0.623339  0.445855  1
  Al  Al4  1  0.377517  0.622554  0.053451  1
  Al  Al5  1  0.622511  0.377073  0.954680  1
  Al  Al6  1  0.227365  0.226198  0.497917  1
  Al  Al7  1  0.770944  0.775244  0.499869  1
  Al  Al8  1  0.771375  0.773502  0.001615  1
  Al  Al9  1  0.227101  0.228150  0.000878  1
  Al  Al10  1  0.841295  0.159245  0.101717  1
  Al  Al11  1  0.163649  0.835520  0.899288  1
  Al  Al12  1  0.164573  0.837927  0.601639  1
  Al  Al13  1  0.840170  0.157193  0.397309  1
  Al  Al14  1  0.858606  0.590706  0.751540  1
  Al  Al15  1  0.139629  0.412282  0.248633  1
  Al  Al16  1  0.410802  0.141184  0.750412  1
  Al  Al17  1  0.586810  0.861064  0.249503  1
  Al  Al18  1  0.222198  0.481005  0.751985  1
  Al  Al19  1  0.778320  0.517430  0.247978  1
  Al  Al20  1  0.519015  0.778549  0.749591  1
  Al  Al21  1  0.482660  0.221404  0.250255  1
  Ir  Ir22  1  0.999173  0.502073  0.499137  1
  Ru  Ru23  1  0.999400  0.502510  0.001039  1
  Ru  Ru24  1  0.497186  0.000085  0.000961  1
  Ru  Ru25  1  0.497665  0.000401  0.498936  1
