# generated using pymatgen
data_Yb3ErOs8
_symmetry_space_group_name_H-M   'P 1'
_cell_length_a   5.28571400
_cell_length_b   5.28571298
_cell_length_c   8.79808500
_cell_angle_alpha   90.00000000
_cell_angle_beta   90.00000000
_cell_angle_gamma   119.99999387
_symmetry_Int_Tables_number   1
_chemical_formula_structural   Yb3ErOs8
_chemical_formula_sum   'Yb3 Er1 Os8'
_cell_volume   212.87568050
_cell_formula_units_Z   1
loop_
 _symmetry_equiv_pos_site_id
 _symmetry_equiv_pos_as_xyz
  1  'x, y, z'
loop_
 _atom_site_type_symbol
 _atom_site_label
 _atom_site_symmetry_multiplicity
 _atom_site_fract_x
 _atom_site_fract_y
 _atom_site_fract_z
 _atom_site_occupancy
  Yb  Yb0  1  0.666667  0.333333  0.568595  1
  Yb  Yb1  1  0.666667  0.333333  0.934823  1
  Yb  Yb2  1  0.333333  0.666667  0.061405  1
  Er  Er3  1  0.333333  0.666667  0.433244  1
  Os  Os4  1  0.000000  0.000000  0.500484  1
  Os  Os5  1  0.000000  0.000000  0.001175  1
  Os  Os6  1  0.827605  0.172395  0.250390  1
  Os  Os7  1  0.827605  0.655211  0.250390  1
  Os  Os8  1  0.344789  0.172395  0.250390  1
  Os  Os9  1  0.171830  0.828170  0.749701  1
  Os  Os10  1  0.171830  0.343660  0.749701  1
  Os  Os11  1  0.656340  0.828170  0.749701  1
