# generated using pymatgen
data_Sc5Tc3P12(Ir7Ru)2
_symmetry_space_group_name_H-M   'P 1'
_cell_length_a   12.58986072
_cell_length_b   12.54218686
_cell_length_c   3.92041500
_cell_angle_alpha   90.00000000
_cell_angle_beta   90.00000000
_cell_angle_gamma   120.16478951
_symmetry_Int_Tables_number   1
_chemical_formula_structural   Sc5Tc3P12(Ir7Ru)2
_chemical_formula_sum   'Sc5 Tc3 P12 Ir14 Ru2'
_cell_volume   535.22120358
_cell_formula_units_Z   1
loop_
 _symmetry_equiv_pos_site_id
 _symmetry_equiv_pos_as_xyz
  1  'x, y, z'
loop_
 _atom_site_type_symbol
 _atom_site_label
 _atom_site_symmetry_multiplicity
 _atom_site_fract_x
 _atom_site_fract_y
 _atom_site_fract_z
 _atom_site_occupancy
  Sc  Sc0  1  0.334658  0.665176  0.000000  1
  Sc  Sc1  1  0.666458  0.333234  0.000000  1
  Sc  Sc2  1  0.817737  0.999110  0.500000  1
  Sc  Sc3  1  0.998632  0.819553  0.500000  1
  Sc  Sc4  1  0.181872  0.183865  0.500000  1
  Tc  Tc5  1  0.455561  0.001983  0.000000  1
  Tc  Tc6  1  0.998516  0.454073  0.000000  1
  Tc  Tc7  1  0.547247  0.543261  0.000000  1
  P  P8  1  0.175007  0.000344  0.000000  1
  P  P9  1  0.002619  0.178839  0.000000  1
  P  P10  1  0.820713  0.825226  0.000000  1
  P  P11  1  0.171850  0.482485  0.500000  1
  P  P12  1  0.518226  0.688013  0.500000  1
  P  P13  1  0.315441  0.829526  0.500000  1
  P  P14  1  0.685003  0.514954  0.500000  1
  P  P15  1  0.830442  0.315244  0.500000  1
  P  P16  1  0.484792  0.169191  0.500000  1
  P  P17  1  0.638776  0.995409  0.000000  1
  P  P18  1  0.000480  0.640221  0.000000  1
  P  P19  1  0.356701  0.361384  0.000000  1
  Ir  Ir20  1  0.360759  0.491899  0.500000  1
  Ir  Ir21  1  0.509029  0.868169  0.500000  1
  Ir  Ir22  1  0.134738  0.641093  0.500000  1
  Ir  Ir23  1  0.866246  0.508939  0.500000  1
  Ir  Ir24  1  0.642594  0.135303  0.500000  1
  Ir  Ir25  1  0.492325  0.356288  0.500000  1
  Ir  Ir26  1  0.191476  0.820182  0.000000  1
  Ir  Ir27  1  0.810663  0.629839  0.000000  1
  Ir  Ir28  1  0.818210  0.189763  0.000000  1
  Ir  Ir29  1  0.369579  0.180171  0.000000  1
  Ir  Ir30  1  0.287789  0.999767  0.500000  1
  Ir  Ir31  1  0.997803  0.286169  0.500000  1
  Ir  Ir32  1  0.714194  0.712089  0.500000  1
  Ir  Ir33  1  0.999621  0.000192  0.000000  1
  Ru  Ru34  1  0.178766  0.375142  0.000000  1
  Ru  Ru35  1  0.625475  0.803903  0.000000  1
