# generated using pymatgen
data_Cs3Rb5(SnSe4)2
_symmetry_space_group_name_H-M   'P 1'
_cell_length_a   8.74111600
_cell_length_b   10.90046300
_cell_length_c   16.17738100
_cell_angle_alpha   90.00000000
_cell_angle_beta   90.00000000
_cell_angle_gamma   90.00000000
_symmetry_Int_Tables_number   1
_chemical_formula_structural   Cs3Rb5(SnSe4)2
_chemical_formula_sum   'Cs6 Rb10 Sn4 Se16'
_cell_volume   1541.41663855
_cell_formula_units_Z   2
loop_
 _symmetry_equiv_pos_site_id
 _symmetry_equiv_pos_as_xyz
  1  'x, y, z'
loop_
 _atom_site_type_symbol
 _atom_site_label
 _atom_site_symmetry_multiplicity
 _atom_site_fract_x
 _atom_site_fract_y
 _atom_site_fract_z
 _atom_site_occupancy
  Cs  Cs0  1  0.999952  0.998574  0.998955  1
  Cs  Cs1  1  0.499952  0.001426  0.501045  1
  Cs  Cs2  1  0.999952  0.501426  0.998955  1
  Cs  Cs3  1  0.499952  0.498574  0.501045  1
  Cs  Cs4  1  0.990324  0.750000  0.425947  1
  Cs  Cs5  1  0.490324  0.250000  0.074053  1
  Rb  Rb6  1  0.023420  0.250000  0.572733  1
  Rb  Rb7  1  0.523420  0.750000  0.927267  1
  Rb  Rb8  1  0.831257  0.050237  0.268873  1
  Rb  Rb9  1  0.331257  0.949763  0.231127  1
  Rb  Rb10  1  0.166887  0.552271  0.731991  1
  Rb  Rb11  1  0.666887  0.447729  0.768009  1
  Rb  Rb12  1  0.166887  0.947729  0.731991  1
  Rb  Rb13  1  0.666887  0.052271  0.768009  1
  Rb  Rb14  1  0.831257  0.449763  0.268873  1
  Rb  Rb15  1  0.331257  0.550237  0.231127  1
  Sn  Sn16  1  0.772124  0.750000  0.670295  1
  Sn  Sn17  1  0.226129  0.250000  0.330870  1
  Sn  Sn18  1  0.726129  0.750000  0.169130  1
  Sn  Sn19  1  0.272124  0.250000  0.829705  1
  Se  Se20  1  0.977684  0.250000  0.823145  1
  Se  Se21  1  0.521343  0.250000  0.323829  1
  Se  Se22  1  0.477684  0.750000  0.676855  1
  Se  Se23  1  0.021343  0.750000  0.176171  1
  Se  Se24  1  0.632209  0.559465  0.092529  1
  Se  Se25  1  0.132209  0.440535  0.407471  1
  Se  Se26  1  0.366868  0.057238  0.904843  1
  Se  Se27  1  0.866868  0.942762  0.595157  1
  Se  Se28  1  0.366868  0.442762  0.904843  1
  Se  Se29  1  0.866868  0.557238  0.595157  1
  Se  Se30  1  0.632209  0.940535  0.092529  1
  Se  Se31  1  0.132209  0.059465  0.407471  1
  Se  Se32  1  0.616525  0.750000  0.318325  1
  Se  Se33  1  0.116525  0.250000  0.181675  1
  Se  Se34  1  0.378102  0.250000  0.679377  1
  Se  Se35  1  0.878102  0.750000  0.820623  1
