# generated using pymatgen
data_Ti3Mn2CrP3
_symmetry_space_group_name_H-M   'P 1'
_cell_length_a   6.27973748
_cell_length_b   6.27973804
_cell_length_c   3.31691300
_cell_angle_alpha   90.00000000
_cell_angle_beta   90.00000000
_cell_angle_gamma   119.62581263
_symmetry_Int_Tables_number   1
_chemical_formula_structural   Ti3Mn2CrP3
_chemical_formula_sum   'Ti3 Mn2 Cr1 P3'
_cell_volume   113.70326710
_cell_formula_units_Z   1
loop_
 _symmetry_equiv_pos_site_id
 _symmetry_equiv_pos_as_xyz
  1  'x, y, z'
loop_
 _atom_site_type_symbol
 _atom_site_label
 _atom_site_symmetry_multiplicity
 _atom_site_fract_x
 _atom_site_fract_y
 _atom_site_fract_z
 _atom_site_occupancy
  Ti  Ti0  1  0.408166  0.408166  0.500000  1
  Ti  Ti1  1  0.592049  0.997662  0.500000  1
  Ti  Ti2  1  0.997662  0.592049  0.500000  1
  Mn  Mn3  1  0.000369  0.250014  0.000000  1
  Mn  Mn4  1  0.250014  0.000369  0.000000  1
  Cr  Cr5  1  0.750332  0.750332  0.000000  1
  P  P6  1  0.665769  0.330098  0.000000  1
  P  P7  1  0.330098  0.665769  0.000000  1
  P  P8  1  0.005541  0.005541  0.500000  1
