# generated using pymatgen
data_Th3In2GaPdRh2
_symmetry_space_group_name_H-M   'P 1'
_cell_length_a   7.63303500
_cell_length_b   7.65136017
_cell_length_c   3.99716600
_cell_angle_alpha   90.00000000
_cell_angle_beta   90.00000000
_cell_angle_gamma   119.92081786
_symmetry_Int_Tables_number   1
_chemical_formula_structural   Th3In2GaPdRh2
_chemical_formula_sum   'Th3 In2 Ga1 Pd1 Rh2'
_cell_volume   202.33205072
_cell_formula_units_Z   1
loop_
 _symmetry_equiv_pos_site_id
 _symmetry_equiv_pos_as_xyz
  1  'x, y, z'
loop_
 _atom_site_type_symbol
 _atom_site_label
 _atom_site_symmetry_multiplicity
 _atom_site_fract_x
 _atom_site_fract_y
 _atom_site_fract_z
 _atom_site_occupancy
  Th  Th0  1  0.992005  0.407451  0.500000  1
  Th  Th1  1  0.584554  0.592549  0.500000  1
  Th  Th2  1  0.428376  0.000000  0.500000  1
  In  In3  1  0.002896  0.752698  0.000000  1
  In  In4  1  0.250197  0.247302  0.000000  1
  Ga  Ga5  1  0.748664  0.000000  0.000000  1
  Pd  Pd6  1  0.979427  0.000000  0.500000  1
  Rh  Rh7  1  0.343967  0.674053  0.000000  1
  Rh  Rh8  1  0.669915  0.325947  0.000000  1
