# generated using pymatgen
data_Co2PdSe4
_symmetry_space_group_name_H-M   'P 1'
_cell_length_a   7.17169607
_cell_length_b   7.17169570
_cell_length_c   7.17169500
_cell_angle_alpha   59.99999860
_cell_angle_beta   60.00000030
_cell_angle_gamma   60.00000116
_symmetry_Int_Tables_number   1
_chemical_formula_structural   Co2PdSe4
_chemical_formula_sum   'Co4 Pd2 Se8'
_cell_volume   260.82579721
_cell_formula_units_Z   2
loop_
 _symmetry_equiv_pos_site_id
 _symmetry_equiv_pos_as_xyz
  1  'x, y, z'
loop_
 _atom_site_type_symbol
 _atom_site_label
 _atom_site_symmetry_multiplicity
 _atom_site_fract_x
 _atom_site_fract_y
 _atom_site_fract_z
 _atom_site_occupancy
  Co  Co0  1  0.125000  0.625000  0.625000  1
  Co  Co1  1  0.625000  0.625000  0.125000  1
  Co  Co2  1  0.625000  0.625000  0.625000  1
  Co  Co3  1  0.625000  0.125000  0.625000  1
  Pd  Pd4  1  0.250000  0.250000  0.250000  1
  Pd  Pd5  1  0.000000  0.000000  0.000000  1
  Se  Se6  1  0.420474  0.859842  0.859842  1
  Se  Se7  1  0.859842  0.859842  0.420474  1
  Se  Se8  1  0.859842  0.859842  0.859842  1
  Se  Se9  1  0.829526  0.390158  0.390158  1
  Se  Se10  1  0.390158  0.829526  0.390158  1
  Se  Se11  1  0.390158  0.390158  0.829526  1
  Se  Se12  1  0.859842  0.420474  0.859842  1
  Se  Se13  1  0.390158  0.390158  0.390158  1
