# generated using pymatgen
data_NdY2Sc(WN3)4
_symmetry_space_group_name_H-M   'P 1'
_cell_length_a   7.27819108
_cell_length_b   7.27819083
_cell_length_c   6.19248565
_cell_angle_alpha   74.68935292
_cell_angle_beta   74.68936316
_cell_angle_gamma   82.24652791
_symmetry_Int_Tables_number   1
_chemical_formula_structural   NdY2Sc(WN3)4
_chemical_formula_sum   'Nd1 Y2 Sc1 W4 N12'
_cell_volume   304.40728946
_cell_formula_units_Z   1
loop_
 _symmetry_equiv_pos_site_id
 _symmetry_equiv_pos_as_xyz
  1  'x, y, z'
loop_
 _atom_site_type_symbol
 _atom_site_label
 _atom_site_symmetry_multiplicity
 _atom_site_fract_x
 _atom_site_fract_y
 _atom_site_fract_z
 _atom_site_occupancy
  Nd  Nd0  1  0.702889  0.297111  0.750000  1
  Y  Y1  1  0.292816  0.707184  0.250000  1
  Y  Y2  1  0.918024  0.081976  0.250000  1
  Sc  Sc3  1  0.091519  0.908481  0.750000  1
  W  W4  1  0.377871  0.197547  0.251464  1
  W  W5  1  0.616196  0.802804  0.758298  1
  W  W6  1  0.802453  0.622129  0.248536  1
  W  W7  1  0.197196  0.383804  0.741702  1
  N  N8  1  0.621391  0.105030  0.172464  1
  N  N9  1  0.359782  0.368322  0.451247  1
  N  N10  1  0.009082  0.208781  0.844481  1
  N  N11  1  0.370031  0.896788  0.826311  1
  N  N12  1  0.791219  0.990918  0.655519  1
  N  N13  1  0.103212  0.629969  0.673689  1
  N  N14  1  0.894970  0.378609  0.327536  1
  N  N15  1  0.647962  0.648961  0.538207  1
  N  N16  1  0.631678  0.640218  0.048753  1
  N  N17  1  0.351039  0.352038  0.961793  1
  N  N18  1  0.004451  0.783782  0.133146  1
  N  N19  1  0.216218  0.995549  0.366854  1
