# generated using pymatgen
data_YbTcB3
_symmetry_space_group_name_H-M   'P 1'
_cell_length_a   3.09227600
_cell_length_b   5.40689964
_cell_length_c   6.77780684
_cell_angle_alpha   76.55060889
_cell_angle_beta   90.00000000
_cell_angle_gamma   90.00000000
_symmetry_Int_Tables_number   1
_chemical_formula_structural   YbTcB3
_chemical_formula_sum   'Yb2 Tc2 B6'
_cell_volume   110.21461266
_cell_formula_units_Z   2
loop_
 _symmetry_equiv_pos_site_id
 _symmetry_equiv_pos_as_xyz
  1  'x, y, z'
loop_
 _atom_site_type_symbol
 _atom_site_label
 _atom_site_symmetry_multiplicity
 _atom_site_fract_x
 _atom_site_fract_y
 _atom_site_fract_z
 _atom_site_occupancy
  Yb  Yb0  1  0.250000  0.336529  0.705415  1
  Yb  Yb1  1  0.750000  0.663471  0.294585  1
  Tc  Tc2  1  0.250000  0.182908  0.219281  1
  Tc  Tc3  1  0.750000  0.817092  0.780719  1
  B  B4  1  0.250000  0.929189  0.530211  1
  B  B5  1  0.750000  0.070811  0.469789  1
  B  B6  1  0.250000  0.908878  0.006889  1
  B  B7  1  0.750000  0.091122  0.993111  1
  B  B8  1  0.250000  0.586063  0.009070  1
  B  B9  1  0.750000  0.413937  0.990930  1
