# generated using pymatgen
data_Tb2Y11Lu7Bi12
_symmetry_space_group_name_H-M   'P 1'
_cell_length_a   8.22318052
_cell_length_b   9.49220299
_cell_length_c   12.04295911
_cell_angle_alpha   89.98546880
_cell_angle_beta   90.08838242
_cell_angle_gamma   89.97713048
_symmetry_Int_Tables_number   1
_chemical_formula_structural   Tb2Y11Lu7Bi12
_chemical_formula_sum   'Tb2 Y11 Lu7 Bi12'
_cell_volume   940.02518148
_cell_formula_units_Z   1
loop_
 _symmetry_equiv_pos_site_id
 _symmetry_equiv_pos_as_xyz
  1  'x, y, z'
loop_
 _atom_site_type_symbol
 _atom_site_label
 _atom_site_symmetry_multiplicity
 _atom_site_fract_x
 _atom_site_fract_y
 _atom_site_fract_z
 _atom_site_occupancy
  Tb  Tb0  1  0.185936  0.750365  0.719460  1
  Tb  Tb1  1  0.686344  0.750773  0.781471  1
  Y  Y2  1  0.813933  0.249564  0.281197  1
  Y  Y3  1  0.313912  0.250329  0.218806  1
  Y  Y4  1  0.192314  0.563407  0.440756  1
  Y  Y5  1  0.693450  0.562010  0.059135  1
  Y  Y6  1  0.193541  0.937592  0.440183  1
  Y  Y7  1  0.306364  0.061931  0.940755  1
  Y  Y8  1  0.806972  0.437691  0.559412  1
  Y  Y9  1  0.356286  0.752007  0.215547  1
  Y  Y10  1  0.853197  0.750950  0.283654  1
  Y  Y11  1  0.645556  0.250534  0.783932  1
  Y  Y12  1  0.146039  0.250515  0.716232  1
  Lu  Lu13  1  0.024559  0.750448  0.989219  1
  Lu  Lu14  1  0.525803  0.750524  0.510893  1
  Lu  Lu15  1  0.975394  0.250563  0.010542  1
  Lu  Lu16  1  0.475934  0.249734  0.489259  1
  Lu  Lu17  1  0.306904  0.432115  0.940694  1
  Lu  Lu18  1  0.806188  0.067282  0.559675  1
  Lu  Lu19  1  0.693064  0.932413  0.058888  1
  Bi  Bi20  1  0.434592  0.003848  0.671730  1
  Bi  Bi21  1  0.934145  0.496532  0.828568  1
  Bi  Bi22  1  0.566089  0.503825  0.327999  1
  Bi  Bi23  1  0.065563  0.996882  0.171459  1
  Bi  Bi24  1  0.566726  0.996802  0.328588  1
  Bi  Bi25  1  0.066406  0.504356  0.171084  1
  Bi  Bi26  1  0.433264  0.496489  0.671499  1
  Bi  Bi27  1  0.933441  0.004560  0.828768  1
  Bi  Bi28  1  0.405292  0.745861  0.957507  1
  Bi  Bi29  1  0.905780  0.754400  0.542226  1
  Bi  Bi30  1  0.594338  0.246228  0.042282  1
  Bi  Bi31  1  0.092675  0.249472  0.458580  1
