# generated using pymatgen
data_Hf18CrFeRe7Se
_symmetry_space_group_name_H-M   'P 1'
_cell_length_a   8.57503700
_cell_length_b   8.57503685
_cell_length_c   8.57158100
_cell_angle_alpha   90.00000000
_cell_angle_beta   90.00000000
_cell_angle_gamma   119.99999671
_symmetry_Int_Tables_number   1
_chemical_formula_structural   Hf18CrFeRe7Se
_chemical_formula_sum   'Hf18 Cr1 Fe1 Re7 Se1'
_cell_volume   545.83776181
_cell_formula_units_Z   1
loop_
 _symmetry_equiv_pos_site_id
 _symmetry_equiv_pos_as_xyz
  1  'x, y, z'
loop_
 _atom_site_type_symbol
 _atom_site_label
 _atom_site_symmetry_multiplicity
 _atom_site_fract_x
 _atom_site_fract_y
 _atom_site_fract_z
 _atom_site_occupancy
  Hf  Hf0  1  0.199170  0.800830  0.441817  1
  Hf  Hf1  1  0.199170  0.398340  0.441817  1
  Hf  Hf2  1  0.601660  0.800830  0.441817  1
  Hf  Hf3  1  0.810187  0.189813  0.548058  1
  Hf  Hf4  1  0.810187  0.620373  0.548058  1
  Hf  Hf5  1  0.379627  0.189813  0.548058  1
  Hf  Hf6  1  0.808943  0.191057  0.952798  1
  Hf  Hf7  1  0.808943  0.617887  0.952798  1
  Hf  Hf8  1  0.382113  0.191057  0.952798  1
  Hf  Hf9  1  0.200499  0.799501  0.058312  1
  Hf  Hf10  1  0.200499  0.400997  0.058312  1
  Hf  Hf11  1  0.599003  0.799501  0.058312  1
  Hf  Hf12  1  0.541014  0.458986  0.250370  1
  Hf  Hf13  1  0.541014  0.082027  0.250370  1
  Hf  Hf14  1  0.917973  0.458986  0.250370  1
  Hf  Hf15  1  0.455316  0.544684  0.749673  1
  Hf  Hf16  1  0.455316  0.910632  0.749673  1
  Hf  Hf17  1  0.089368  0.544684  0.749673  1
  Cr  Cr18  1  0.000000  0.000000  0.497523  1
  Fe  Fe19  1  0.333333  0.666667  0.249743  1
  Re  Re20  1  0.890852  0.109148  0.253898  1
  Re  Re21  1  0.890852  0.781703  0.253898  1
  Re  Re22  1  0.218297  0.109148  0.253898  1
  Re  Re23  1  0.109311  0.890689  0.745923  1
  Re  Re24  1  0.109311  0.218622  0.745923  1
  Re  Re25  1  0.781378  0.890689  0.745923  1
  Re  Re26  1  0.000000  0.000000  0.000482  1
  Se  Se27  1  0.666667  0.333333  0.749707  1
