# generated using pymatgen
data_Cs4Ni6Se7S
_symmetry_space_group_name_H-M   'P 1'
_cell_length_a   6.15493900
_cell_length_b   6.15493829
_cell_length_c   15.53935100
_cell_angle_alpha   90.00000000
_cell_angle_beta   90.00000000
_cell_angle_gamma   119.99999845
_symmetry_Int_Tables_number   1
_chemical_formula_structural   Cs4Ni6Se7S
_chemical_formula_sum   'Cs4 Ni6 Se7 S1'
_cell_volume   509.81307687
_cell_formula_units_Z   1
loop_
 _symmetry_equiv_pos_site_id
 _symmetry_equiv_pos_as_xyz
  1  'x, y, z'
loop_
 _atom_site_type_symbol
 _atom_site_label
 _atom_site_symmetry_multiplicity
 _atom_site_fract_x
 _atom_site_fract_y
 _atom_site_fract_z
 _atom_site_occupancy
  Cs  Cs0  1  0.333333  0.666667  0.903557  1
  Cs  Cs1  1  0.666667  0.333333  0.401134  1
  Cs  Cs2  1  0.666667  0.333333  0.097306  1
  Cs  Cs3  1  0.333333  0.666667  0.596743  1
  Ni  Ni4  1  0.163491  0.836509  0.251972  1
  Ni  Ni5  1  0.833569  0.667138  0.750086  1
  Ni  Ni6  1  0.833569  0.166431  0.750086  1
  Ni  Ni7  1  0.163491  0.326982  0.251972  1
  Ni  Ni8  1  0.332862  0.166431  0.750086  1
  Ni  Ni9  1  0.673018  0.836509  0.251972  1
  Se  Se10  1  0.333333  0.666667  0.349525  1
  Se  Se11  1  0.666667  0.333333  0.848312  1
  Se  Se12  1  0.666667  0.333333  0.651650  1
  Se  Se13  1  0.333333  0.666667  0.154944  1
  Se  Se14  1  0.000000  0.000000  0.652166  1
  Se  Se15  1  0.000000  0.000000  0.151388  1
  Se  Se16  1  0.000000  0.000000  0.847827  1
  S  S17  1  0.000000  0.000000  0.339274  1
