# generated using pymatgen
data_NdDy2MoO7
_symmetry_space_group_name_H-M   'P 1'
_cell_length_a   6.48982487
_cell_length_b   6.48982426
_cell_length_c   7.60017800
_cell_angle_alpha   90.00000000
_cell_angle_beta   90.00000000
_cell_angle_gamma   109.09367599
_symmetry_Int_Tables_number   1
_chemical_formula_structural   NdDy2MoO7
_chemical_formula_sum   'Nd2 Dy4 Mo2 O14'
_cell_volume   302.49249452
_cell_formula_units_Z   2
loop_
 _symmetry_equiv_pos_site_id
 _symmetry_equiv_pos_as_xyz
  1  'x, y, z'
loop_
 _atom_site_type_symbol
 _atom_site_label
 _atom_site_symmetry_multiplicity
 _atom_site_fract_x
 _atom_site_fract_y
 _atom_site_fract_z
 _atom_site_occupancy
  Nd  Nd0  1  0.500000  0.500000  0.500000  1
  Nd  Nd1  1  0.500000  0.500000  0.000000  1
  Dy  Dy2  1  0.535534  0.000880  0.750000  1
  Dy  Dy3  1  0.000880  0.535534  0.250000  1
  Dy  Dy4  1  0.464466  0.999120  0.250000  1
  Dy  Dy5  1  0.999120  0.464466  0.750000  1
  Mo  Mo6  1  0.000000  0.000000  0.500000  1
  Mo  Mo7  1  0.000000  0.000000  0.000000  1
  O  O8  1  0.679271  0.928374  0.470388  1
  O  O9  1  0.928374  0.679271  0.529612  1
  O  O10  1  0.679271  0.928374  0.029612  1
  O  O11  1  0.928374  0.679271  0.970388  1
  O  O12  1  0.320729  0.071626  0.529612  1
  O  O13  1  0.071626  0.320729  0.470388  1
  O  O14  1  0.320729  0.071626  0.970388  1
  O  O15  1  0.071626  0.320729  0.029612  1
  O  O16  1  0.929088  0.070912  0.750000  1
  O  O17  1  0.070912  0.929088  0.250000  1
  O  O18  1  0.362631  0.637369  0.750000  1
  O  O19  1  0.637369  0.362631  0.250000  1
  O  O20  1  0.641244  0.358756  0.750000  1
  O  O21  1  0.358756  0.641244  0.250000  1
