# generated using pymatgen
data_Dy4Er4Ti9Si16Tc3
_symmetry_space_group_name_H-M   'P 1'
_cell_length_a   6.96447787
_cell_length_b   6.96509791
_cell_length_c   12.78591305
_cell_angle_alpha   90.08328681
_cell_angle_beta   89.92858126
_cell_angle_gamma   90.06464270
_symmetry_Int_Tables_number   1
_chemical_formula_structural   Dy4Er4Ti9Si16Tc3
_chemical_formula_sum   'Dy4 Er4 Ti9 Si16 Tc3'
_cell_volume   620.22099514
_cell_formula_units_Z   1
loop_
 _symmetry_equiv_pos_site_id
 _symmetry_equiv_pos_as_xyz
  1  'x, y, z'
loop_
 _atom_site_type_symbol
 _atom_site_label
 _atom_site_symmetry_multiplicity
 _atom_site_fract_x
 _atom_site_fract_y
 _atom_site_fract_z
 _atom_site_occupancy
  Dy  Dy0  1  0.340104  0.001642  0.467589  1
  Dy  Dy1  1  0.498463  0.841365  0.719644  1
  Dy  Dy2  1  0.500814  0.158836  0.217748  1
  Dy  Dy3  1  0.841405  0.498275  0.280383  1
  Er  Er4  1  0.158642  0.500351  0.782124  1
  Er  Er5  1  0.659330  0.999918  0.968457  1
  Er  Er6  1  0.001196  0.340621  0.532801  1
  Er  Er7  1  0.999903  0.659258  0.031155  1
  Ti  Ti8  1  0.674144  0.673799  0.500253  1
  Ti  Ti9  1  0.151550  0.006204  0.877597  1
  Ti  Ti10  1  0.494675  0.653892  0.123888  1
  Ti  Ti11  1  0.505002  0.347919  0.627921  1
  Ti  Ti12  1  0.653723  0.495006  0.875748  1
  Ti  Ti13  1  0.347449  0.504491  0.372570  1
  Ti  Ti14  1  0.847132  0.991226  0.376354  1
  Ti  Ti15  1  0.006121  0.151694  0.122212  1
  Ti  Ti16  1  0.991650  0.846942  0.623957  1
  Si  Si17  1  0.198966  0.130295  0.684145  1
  Si  Si18  1  0.369964  0.700788  0.932683  1
  Si  Si19  1  0.631585  0.297400  0.435121  1
  Si  Si20  1  0.701317  0.370655  0.066484  1
  Si  Si21  1  0.296458  0.630127  0.565825  1
  Si  Si22  1  0.799811  0.869707  0.183050  1
  Si  Si23  1  0.128888  0.199781  0.315923  1
  Si  Si24  1  0.870443  0.799019  0.816973  1
  Si  Si25  1  0.291305  0.951410  0.066443  1
  Si  Si26  1  0.547173  0.789699  0.315699  1
  Si  Si27  1  0.451832  0.210851  0.817058  1
  Si  Si28  1  0.791099  0.546706  0.684383  1
  Si  Si29  1  0.210305  0.452764  0.182821  1
  Si  Si30  1  0.708423  0.049882  0.567814  1
  Si  Si31  1  0.952189  0.291945  0.933012  1
  Si  Si32  1  0.049043  0.706883  0.432653  1
  Tc  Tc33  1  0.327630  0.328353  0.999497  1
  Tc  Tc34  1  0.173695  0.827941  0.248447  1
  Tc  Tc35  1  0.828573  0.174355  0.751569  1
