# generated using pymatgen
data_ZnCd3P6SN12
_symmetry_space_group_name_H-M   'P 1'
_cell_length_a   7.34741261
_cell_length_b   7.34741338
_cell_length_c   7.34741284
_cell_angle_alpha   109.55476952
_cell_angle_beta   109.55477966
_cell_angle_gamma   109.55476625
_symmetry_Int_Tables_number   1
_chemical_formula_structural   ZnCd3P6SN12
_chemical_formula_sum   'Zn1 Cd3 P6 S1 N12'
_cell_volume   304.39022407
_cell_formula_units_Z   1
loop_
 _symmetry_equiv_pos_site_id
 _symmetry_equiv_pos_as_xyz
  1  'x, y, z'
loop_
 _atom_site_type_symbol
 _atom_site_label
 _atom_site_symmetry_multiplicity
 _atom_site_fract_x
 _atom_site_fract_y
 _atom_site_fract_z
 _atom_site_occupancy
  Zn  Zn0  1  0.370367  0.370367  0.370367  1
  Cd  Cd1  1  0.997828  0.997828  0.676573  1
  Cd  Cd2  1  0.676573  0.997828  0.997828  1
  Cd  Cd3  1  0.997828  0.676573  0.997828  1
  P  P4  1  0.494244  0.246134  0.744100  1
  P  P5  1  0.494244  0.744100  0.246134  1
  P  P6  1  0.744100  0.494244  0.246134  1
  P  P7  1  0.246134  0.744100  0.494244  1
  P  P8  1  0.246134  0.494244  0.744100  1
  P  P9  1  0.744100  0.246134  0.494244  1
  S  S10  1  0.041584  0.041584  0.041584  1
  N  N11  1  0.563343  0.563343  0.288889  1
  N  N12  1  0.275941  0.275941  0.704577  1
  N  N13  1  0.428955  0.712058  0.996402  1
  N  N14  1  0.712058  0.428955  0.996402  1
  N  N15  1  0.288889  0.563343  0.563343  1
  N  N16  1  0.563343  0.288889  0.563343  1
  N  N17  1  0.996402  0.712058  0.428955  1
  N  N18  1  0.275941  0.704577  0.275941  1
  N  N19  1  0.704577  0.275941  0.275941  1
  N  N20  1  0.712058  0.996402  0.428955  1
  N  N21  1  0.996402  0.428955  0.712058  1
  N  N22  1  0.428955  0.996402  0.712058  1
