# generated using pymatgen
data_Yb4Tm2Si24Os7Ru
_symmetry_space_group_name_H-M   'P 1'
_cell_length_a   10.14262008
_cell_length_b   10.14262074
_cell_length_c   8.16220702
_cell_angle_alpha   90.01095081
_cell_angle_beta   90.01095770
_cell_angle_gamma   132.51927350
_symmetry_Int_Tables_number   1
_chemical_formula_structural   Yb4Tm2Si24Os7Ru
_chemical_formula_sum   'Yb4 Tm2 Si24 Os7 Ru1'
_cell_volume   618.87775519
_cell_formula_units_Z   1
loop_
 _symmetry_equiv_pos_site_id
 _symmetry_equiv_pos_as_xyz
  1  'x, y, z'
loop_
 _atom_site_type_symbol
 _atom_site_label
 _atom_site_symmetry_multiplicity
 _atom_site_fract_x
 _atom_site_fract_y
 _atom_site_fract_z
 _atom_site_occupancy
  Yb  Yb0  1  0.500077  0.000125  0.749934  1
  Yb  Yb1  1  0.999473  0.500072  0.250251  1
  Yb  Yb2  1  0.500072  0.999473  0.250251  1
  Yb  Yb3  1  0.000125  0.500077  0.749934  1
  Tm  Tm4  1  0.500046  0.500046  0.498975  1
  Tm  Tm5  1  0.001070  0.001070  0.000031  1
  Si  Si6  1  0.793302  0.206490  0.500024  1
  Si  Si7  1  0.293602  0.706425  0.999956  1
  Si  Si8  1  0.206490  0.793302  0.500024  1
  Si  Si9  1  0.706425  0.293602  0.999956  1
  Si  Si10  1  0.335170  0.335170  0.831571  1
  Si  Si11  1  0.667408  0.667408  0.165784  1
  Si  Si12  1  0.166310  0.166310  0.332042  1
  Si  Si13  1  0.833021  0.833021  0.668423  1
  Si  Si14  1  0.120607  0.886736  0.728303  1
  Si  Si15  1  0.112999  0.878662  0.271990  1
  Si  Si16  1  0.611186  0.376579  0.227890  1
  Si  Si17  1  0.622841  0.388759  0.772149  1
  Si  Si18  1  0.878662  0.112999  0.271990  1
  Si  Si19  1  0.886736  0.120607  0.728303  1
  Si  Si20  1  0.388759  0.622841  0.772149  1
  Si  Si21  1  0.376579  0.611186  0.227890  1
  Si  Si22  1  0.344881  0.110091  0.504492  1
  Si  Si23  1  0.889335  0.655011  0.496093  1
  Si  Si24  1  0.389966  0.154717  0.006035  1
  Si  Si25  1  0.845033  0.610334  0.994463  1
  Si  Si26  1  0.655011  0.889335  0.496093  1
  Si  Si27  1  0.110091  0.344881  0.504492  1
  Si  Si28  1  0.610334  0.845033  0.994463  1
  Si  Si29  1  0.154717  0.389966  0.006035  1
  Os  Os30  1  0.667721  0.332041  0.499954  1
  Os  Os31  1  0.168263  0.831872  0.999973  1
  Os  Os32  1  0.332041  0.667721  0.499954  1
  Os  Os33  1  0.831872  0.168263  0.999973  1
  Os  Os34  1  0.128094  0.128094  0.626485  1
  Os  Os35  1  0.871804  0.871804  0.373594  1
  Os  Os36  1  0.372432  0.372432  0.126009  1
  Ru  Ru37  1  0.627447  0.627447  0.874070  1
