# generated using pymatgen
data_Ac8TbPd6
_symmetry_space_group_name_H-M   'P 1'
_cell_length_a   8.09321077
_cell_length_b   8.09321042
_cell_length_c   8.09320900
_cell_angle_alpha   72.78450523
_cell_angle_beta   72.78450540
_cell_angle_gamma   72.78451052
_symmetry_Int_Tables_number   1
_chemical_formula_structural   Ac8TbPd6
_chemical_formula_sum   'Ac8 Tb1 Pd6'
_cell_volume   470.88863385
_cell_formula_units_Z   1
loop_
 _symmetry_equiv_pos_site_id
 _symmetry_equiv_pos_as_xyz
  1  'x, y, z'
loop_
 _atom_site_type_symbol
 _atom_site_label
 _atom_site_symmetry_multiplicity
 _atom_site_fract_x
 _atom_site_fract_y
 _atom_site_fract_z
 _atom_site_occupancy
  Ac  Ac0  1  0.797962  0.797962  0.797962  1
  Ac  Ac1  1  0.202038  0.202038  0.202038  1
  Ac  Ac2  1  0.326457  0.619688  0.833380  1
  Ac  Ac3  1  0.833380  0.326457  0.619688  1
  Ac  Ac4  1  0.619688  0.833380  0.326457  1
  Ac  Ac5  1  0.673543  0.380312  0.166620  1
  Ac  Ac6  1  0.166620  0.673543  0.380312  1
  Ac  Ac7  1  0.380312  0.166620  0.673543  1
  Tb  Tb8  1  0.000000  0.000000  0.000000  1
  Pd  Pd9  1  0.146442  0.962684  0.601584  1
  Pd  Pd10  1  0.601584  0.146442  0.962684  1
  Pd  Pd11  1  0.962684  0.601584  0.146442  1
  Pd  Pd12  1  0.853558  0.037316  0.398416  1
  Pd  Pd13  1  0.398416  0.853558  0.037316  1
  Pd  Pd14  1  0.037316  0.398416  0.853558  1
