# generated using pymatgen
data_Ca3Zn11
_symmetry_space_group_name_H-M   'P 1'
_cell_length_a   4.41797712
_cell_length_b   8.29219380
_cell_length_c   8.29219345
_cell_angle_alpha   66.02578504
_cell_angle_beta   74.55020130
_cell_angle_gamma   74.55020859
_symmetry_Int_Tables_number   1
_chemical_formula_structural   Ca3Zn11
_chemical_formula_sum   'Ca3 Zn11'
_cell_volume   263.19507614
_cell_formula_units_Z   1
loop_
 _symmetry_equiv_pos_site_id
 _symmetry_equiv_pos_as_xyz
  1  'x, y, z'
loop_
 _atom_site_type_symbol
 _atom_site_label
 _atom_site_symmetry_multiplicity
 _atom_site_fract_x
 _atom_site_fract_y
 _atom_site_fract_z
 _atom_site_occupancy
  Ca  Ca0  1  0.000000  0.000000  0.000000  1
  Ca  Ca1  1  0.704574  0.295426  0.295426  1
  Ca  Ca2  1  0.295426  0.704574  0.704574  1
  Zn  Zn3  1  0.000000  0.500000  0.500000  1
  Zn  Zn4  1  0.500000  0.684999  0.315001  1
  Zn  Zn5  1  0.500000  0.315001  0.684999  1
  Zn  Zn6  1  0.661979  0.694508  0.981534  1
  Zn  Zn7  1  0.338021  0.305492  0.018466  1
  Zn  Zn8  1  0.661979  0.981534  0.694508  1
  Zn  Zn9  1  0.338021  0.018466  0.305492  1
  Zn  Zn10  1  0.866291  0.420256  0.847162  1
  Zn  Zn11  1  0.133709  0.579744  0.152838  1
  Zn  Zn12  1  0.866291  0.847162  0.420256  1
  Zn  Zn13  1  0.133709  0.152838  0.579744  1
