# generated using pymatgen
data_Li3Er3ZnSn4
_symmetry_space_group_name_H-M   'P 1'
_cell_length_a   8.63278925
_cell_length_b   8.53573473
_cell_length_c   8.53573506
_cell_angle_alpha   149.20809825
_cell_angle_beta   130.86906841
_cell_angle_gamma   59.00590098
_symmetry_Int_Tables_number   1
_chemical_formula_structural   Li3Er3ZnSn4
_chemical_formula_sum   'Li3 Er3 Zn1 Sn4'
_cell_volume   241.67539455
_cell_formula_units_Z   1
loop_
 _symmetry_equiv_pos_site_id
 _symmetry_equiv_pos_as_xyz
  1  'x, y, z'
loop_
 _atom_site_type_symbol
 _atom_site_label
 _atom_site_symmetry_multiplicity
 _atom_site_fract_x
 _atom_site_fract_y
 _atom_site_fract_z
 _atom_site_occupancy
  Li  Li0  1  0.014411  0.326252  0.688160  1
  Li  Li1  1  0.982919  0.670602  0.312316  1
  Li  Li2  1  0.637876  0.327133  0.310744  1
  Er  Er3  1  0.994489  0.999812  0.994677  1
  Er  Er4  1  0.384774  0.875132  0.509642  1
  Er  Er5  1  0.620902  0.126491  0.494411  1
  Zn  Zn6  1  0.373206  0.675866  0.697341  1
  Sn  Sn7  1  0.211349  0.215291  0.996057  1
  Sn  Sn8  1  0.700223  0.499886  0.200336  1
  Sn  Sn9  1  0.292009  0.498252  0.793757  1
  Sn  Sn10  1  0.787841  0.785283  0.002559  1
