# generated using pymatgen
data_Zr6Ti4Al12Os3Pt4
_symmetry_space_group_name_H-M   'P 1'
_cell_length_a   8.81090838
_cell_length_b   8.81461005
_cell_length_c   8.84418008
_cell_angle_alpha   59.87936764
_cell_angle_beta   59.87424678
_cell_angle_gamma   60.24900698
_symmetry_Int_Tables_number   1
_chemical_formula_structural   Zr6Ti4Al12Os3Pt4
_chemical_formula_sum   'Zr6 Ti4 Al12 Os3 Pt4'
_cell_volume   485.69398196
_cell_formula_units_Z   1
loop_
 _symmetry_equiv_pos_site_id
 _symmetry_equiv_pos_as_xyz
  1  'x, y, z'
loop_
 _atom_site_type_symbol
 _atom_site_label
 _atom_site_symmetry_multiplicity
 _atom_site_fract_x
 _atom_site_fract_y
 _atom_site_fract_z
 _atom_site_occupancy
  Zr  Zr0  1  0.675550  0.670522  0.325539  1
  Zr  Zr1  1  0.304738  0.695325  0.304609  1
  Zr  Zr2  1  0.700805  0.303405  0.299169  1
  Zr  Zr3  1  0.325586  0.328342  0.675570  1
  Zr  Zr4  1  0.695759  0.304210  0.695788  1
  Zr  Zr5  1  0.299178  0.696640  0.700833  1
  Ti  Ti6  1  0.882951  0.871117  0.361559  1
  Ti  Ti7  1  0.888389  0.363406  0.874264  1
  Ti  Ti8  1  0.361677  0.884389  0.882934  1
  Ti  Ti9  1  0.874230  0.873950  0.888395  1
  Al  Al10  1  0.118648  0.127298  0.637253  1
  Al  Al11  1  0.114683  0.635745  0.124074  1
  Al  Al12  1  0.637217  0.116786  0.118652  1
  Al  Al13  1  0.124127  0.125468  0.114658  1
  Al  Al14  1  0.662391  0.661568  0.011765  1
  Al  Al15  1  0.663665  0.015093  0.660724  1
  Al  Al16  1  0.011743  0.664217  0.662545  1
  Al  Al17  1  0.660524  0.660521  0.663834  1
  Al  Al18  1  0.335973  0.336040  0.991029  1
  Al  Al19  1  0.337843  0.986102  0.336220  1
  Al  Al20  1  0.991006  0.336984  0.335979  1
  Al  Al21  1  0.336209  0.339846  0.337834  1
  Os  Os22  1  0.996781  0.504560  0.501583  1
  Os  Os23  1  0.997167  0.502885  0.997124  1
  Os  Os24  1  0.501563  0.997034  0.996614  1
  Pt  Pt25  1  0.000631  0.999443  0.000423  1
  Pt  Pt26  1  0.999318  0.998707  0.500701  1
  Pt  Pt27  1  0.500968  0.998987  0.501082  1
  Pt  Pt28  1  0.500679  0.501408  0.999248  1
