# generated using pymatgen
data_UAg(PO4)2
_symmetry_space_group_name_H-M   'P 1'
_cell_length_a   5.59254767
_cell_length_b   5.60037730
_cell_length_c   9.25081000
_cell_angle_alpha   105.27877045
_cell_angle_beta   106.53265245
_cell_angle_gamma   59.93574661
_symmetry_Int_Tables_number   1
_chemical_formula_structural   UAg(PO4)2
_chemical_formula_sum   'U1 Ag1 P2 O8'
_cell_volume   237.82325639
_cell_formula_units_Z   1
loop_
 _symmetry_equiv_pos_site_id
 _symmetry_equiv_pos_as_xyz
  1  'x, y, z'
loop_
 _atom_site_type_symbol
 _atom_site_label
 _atom_site_symmetry_multiplicity
 _atom_site_fract_x
 _atom_site_fract_y
 _atom_site_fract_z
 _atom_site_occupancy
  U  U0  1  0.000003  0.000004  0.999997  1
  Ag  Ag1  1  0.999977  0.999979  0.500019  1
  P  P2  1  0.731089  0.718789  0.202889  1
  P  P3  1  0.268916  0.281217  0.797109  1
  O  O4  1  0.852481  0.847266  0.129381  1
  O  O5  1  0.405984  0.854870  0.144173  1
  O  O6  1  0.851134  0.401243  0.137273  1
  O  O7  1  0.799869  0.759707  0.374206  1
  O  O8  1  0.200123  0.240232  0.625792  1
  O  O9  1  0.148860  0.598777  0.862696  1
  O  O10  1  0.594022  0.145156  0.855816  1
  O  O11  1  0.147547  0.152763  0.870648  1
