# generated using pymatgen
data_Er11Tm2Lu7(CoBi2)4
_symmetry_space_group_name_H-M   'P 1'
_cell_length_a   7.84486905
_cell_length_b   8.84696206
_cell_length_c   12.31978534
_cell_angle_alpha   89.99014266
_cell_angle_beta   90.00761931
_cell_angle_gamma   90.00861712
_symmetry_Int_Tables_number   1
_chemical_formula_structural   Er11Tm2Lu7(CoBi2)4
_chemical_formula_sum   'Er11 Tm2 Lu7 Co4 Bi8'
_cell_volume   855.03322045
_cell_formula_units_Z   1
loop_
 _symmetry_equiv_pos_site_id
 _symmetry_equiv_pos_as_xyz
  1  'x, y, z'
loop_
 _atom_site_type_symbol
 _atom_site_label
 _atom_site_symmetry_multiplicity
 _atom_site_fract_x
 _atom_site_fract_y
 _atom_site_fract_z
 _atom_site_occupancy
  Er  Er0  1  0.347137  0.250014  0.300518  1
  Er  Er1  1  0.152942  0.250043  0.800420  1
  Er  Er2  1  0.847108  0.749978  0.199548  1
  Er  Er3  1  0.118569  0.750009  0.814341  1
  Er  Er4  1  0.881266  0.250002  0.185636  1
  Er  Er5  1  0.618991  0.250075  0.685769  1
  Er  Er6  1  0.381186  0.749838  0.314074  1
  Er  Er7  1  0.555168  0.749999  0.997118  1
  Er  Er8  1  0.445093  0.250000  0.002656  1
  Er  Er9  1  0.054939  0.250136  0.502919  1
  Er  Er10  1  0.944386  0.749908  0.497318  1
  Tm  Tm11  1  0.652901  0.749907  0.699143  1
  Tm  Tm12  1  0.327232  0.962835  0.564001  1
  Lu  Lu13  1  0.828146  0.463186  0.936332  1
  Lu  Lu14  1  0.171888  0.536788  0.063636  1
  Lu  Lu15  1  0.328193  0.537213  0.563824  1
  Lu  Lu16  1  0.171880  0.963206  0.063599  1
  Lu  Lu17  1  0.671813  0.463146  0.436438  1
  Lu  Lu18  1  0.828143  0.036806  0.936333  1
  Lu  Lu19  1  0.672108  0.036844  0.436375  1
  Co  Co20  1  0.936624  0.749995  0.993267  1
  Co  Co21  1  0.063554  0.250004  0.006734  1
  Co  Co22  1  0.436734  0.250291  0.506893  1
  Co  Co23  1  0.564070  0.749716  0.493112  1
  Bi  Bi24  1  0.932286  0.007627  0.673422  1
  Bi  Bi25  1  0.067218  0.992250  0.326848  1
  Bi  Bi26  1  0.433282  0.991940  0.826680  1
  Bi  Bi27  1  0.067156  0.507741  0.326827  1
  Bi  Bi28  1  0.567076  0.007851  0.173159  1
  Bi  Bi29  1  0.932571  0.492410  0.673322  1
  Bi  Bi30  1  0.567085  0.492165  0.173150  1
  Bi  Bi31  1  0.433254  0.508077  0.826584  1
