# generated using pymatgen
data_ZrNb2B2Ru5
_symmetry_space_group_name_H-M   'P 1'
_cell_length_a   9.49938043
_cell_length_b   9.49938098
_cell_length_c   3.06923000
_cell_angle_alpha   90.00000000
_cell_angle_beta   90.00000000
_cell_angle_gamma   89.90766936
_symmetry_Int_Tables_number   1
_chemical_formula_structural   ZrNb2B2Ru5
_chemical_formula_sum   'Zr2 Nb4 B4 Ru10'
_cell_volume   276.96153468
_cell_formula_units_Z   2
loop_
 _symmetry_equiv_pos_site_id
 _symmetry_equiv_pos_as_xyz
  1  'x, y, z'
loop_
 _atom_site_type_symbol
 _atom_site_label
 _atom_site_symmetry_multiplicity
 _atom_site_fract_x
 _atom_site_fract_y
 _atom_site_fract_z
 _atom_site_occupancy
  Zr  Zr0  1  0.176743  0.176743  0.000000  1
  Zr  Zr1  1  0.823257  0.823257  0.000000  1
  Nb  Nb2  1  0.500000  0.000000  0.000000  1
  Nb  Nb3  1  0.000000  0.500000  0.000000  1
  Nb  Nb4  1  0.676596  0.323404  0.000000  1
  Nb  Nb5  1  0.323404  0.676596  0.000000  1
  B  B6  1  0.379425  0.379425  0.000000  1
  B  B7  1  0.620575  0.620575  0.000000  1
  B  B8  1  0.878472  0.121528  0.000000  1
  B  B9  1  0.121528  0.878472  0.000000  1
  Ru  Ru10  1  0.500000  0.500000  0.500000  1
  Ru  Ru11  1  0.000000  0.000000  0.500000  1
  Ru  Ru12  1  0.432628  0.220145  0.500000  1
  Ru  Ru13  1  0.567372  0.779855  0.500000  1
  Ru  Ru14  1  0.925722  0.282886  0.500000  1
  Ru  Ru15  1  0.074278  0.717114  0.500000  1
  Ru  Ru16  1  0.717114  0.074278  0.500000  1
  Ru  Ru17  1  0.282886  0.925722  0.500000  1
  Ru  Ru18  1  0.779855  0.567372  0.500000  1
  Ru  Ru19  1  0.220145  0.432628  0.500000  1
