# generated using pymatgen
data_Dy3As4Pd7
_symmetry_space_group_name_H-M   'P 1'
_cell_length_a   8.13330021
_cell_length_b   8.13330052
_cell_length_c   9.63717170
_cell_angle_alpha   55.66528151
_cell_angle_beta   55.66528182
_cell_angle_gamma   29.45768636
_symmetry_Int_Tables_number   1
_chemical_formula_structural   Dy3As4Pd7
_chemical_formula_sum   'Dy3 As4 Pd7'
_cell_volume   254.67725682
_cell_formula_units_Z   1
loop_
 _symmetry_equiv_pos_site_id
 _symmetry_equiv_pos_as_xyz
  1  'x, y, z'
loop_
 _atom_site_type_symbol
 _atom_site_label
 _atom_site_symmetry_multiplicity
 _atom_site_fract_x
 _atom_site_fract_y
 _atom_site_fract_z
 _atom_site_occupancy
  Dy  Dy0  1  0.500000  0.500000  0.500000  1
  Dy  Dy1  1  0.822974  0.822974  0.170962  1
  Dy  Dy2  1  0.177026  0.177026  0.829038  1
  As  As3  1  0.394230  0.394230  0.323351  1
  As  As4  1  0.605770  0.605770  0.676649  1
  As  As5  1  0.840874  0.840874  0.750765  1
  As  As6  1  0.159126  0.159126  0.249235  1
  Pd  Pd7  1  0.667612  0.667612  0.072220  1
  Pd  Pd8  1  0.012447  0.012447  0.205798  1
  Pd  Pd9  1  0.987553  0.987553  0.794202  1
  Pd  Pd10  1  0.500000  0.500000  0.000000  1
  Pd  Pd11  1  0.195042  0.195042  0.473703  1
  Pd  Pd12  1  0.804958  0.804958  0.526297  1
  Pd  Pd13  1  0.332388  0.332388  0.927780  1
