# generated using pymatgen
data_Er4Ga4Ir3Pd
_symmetry_space_group_name_H-M   'P 1'
_cell_length_a   4.33096000
_cell_length_b   6.78569263
_cell_length_c   7.77082056
_cell_angle_alpha   90.17101218
_cell_angle_beta   90.00000000
_cell_angle_gamma   90.00000000
_symmetry_Int_Tables_number   1
_chemical_formula_structural   Er4Ga4Ir3Pd
_chemical_formula_sum   'Er4 Ga4 Ir3 Pd1'
_cell_volume   228.37223537
_cell_formula_units_Z   1
loop_
 _symmetry_equiv_pos_site_id
 _symmetry_equiv_pos_as_xyz
  1  'x, y, z'
loop_
 _atom_site_type_symbol
 _atom_site_label
 _atom_site_symmetry_multiplicity
 _atom_site_fract_x
 _atom_site_fract_y
 _atom_site_fract_z
 _atom_site_occupancy
  Er  Er0  1  0.250000  0.977160  0.312507  1
  Er  Er1  1  0.250000  0.479482  0.193772  1
  Er  Er2  1  0.750000  0.021266  0.683647  1
  Er  Er3  1  0.750000  0.531744  0.811220  1
  Ga  Ga4  1  0.250000  0.346386  0.567153  1
  Ga  Ga5  1  0.250000  0.839400  0.931728  1
  Ga  Ga6  1  0.750000  0.655246  0.431068  1
  Ga  Ga7  1  0.750000  0.153989  0.068823  1
  Ir  Ir8  1  0.250000  0.733335  0.612647  1
  Ir  Ir9  1  0.750000  0.765819  0.111537  1
  Ir  Ir10  1  0.750000  0.265517  0.388364  1
  Pd  Pd11  1  0.250000  0.230657  0.887534  1
