# generated using pymatgen
data_Li2PrHoSi4
_symmetry_space_group_name_H-M   'P 1'
_cell_length_a   3.84681700
_cell_length_b   7.70113624
_cell_length_c   10.34369887
_cell_angle_alpha   89.57889118
_cell_angle_beta   90.00000000
_cell_angle_gamma   90.00000000
_symmetry_Int_Tables_number   1
_chemical_formula_structural   Li2PrHoSi4
_chemical_formula_sum   'Li4 Pr2 Ho2 Si8'
_cell_volume   306.42237297
_cell_formula_units_Z   2
loop_
 _symmetry_equiv_pos_site_id
 _symmetry_equiv_pos_as_xyz
  1  'x, y, z'
loop_
 _atom_site_type_symbol
 _atom_site_label
 _atom_site_symmetry_multiplicity
 _atom_site_fract_x
 _atom_site_fract_y
 _atom_site_fract_z
 _atom_site_occupancy
  Li  Li0  1  0.250000  0.996193  0.389439  1
  Li  Li1  1  0.750000  0.003807  0.610561  1
  Li  Li2  1  0.250000  0.490313  0.107960  1
  Li  Li3  1  0.750000  0.509687  0.892040  1
  Pr  Pr4  1  0.250000  0.639145  0.637016  1
  Pr  Pr5  1  0.750000  0.360855  0.362984  1
  Ho  Ho6  1  0.250000  0.132120  0.864647  1
  Ho  Ho7  1  0.750000  0.867880  0.135353  1
  Si  Si8  1  0.750000  0.263705  0.062411  1
  Si  Si9  1  0.250000  0.736295  0.937589  1
  Si  Si10  1  0.750000  0.777225  0.424678  1
  Si  Si11  1  0.250000  0.222775  0.575322  1
  Si  Si12  1  0.750000  0.843749  0.826730  1
  Si  Si13  1  0.250000  0.156251  0.173270  1
  Si  Si14  1  0.750000  0.331194  0.684665  1
  Si  Si15  1  0.250000  0.668806  0.315335  1
