# generated using pymatgen
data_Rb4Ba(TaS4)2
_symmetry_space_group_name_H-M   'P 1'
_cell_length_a   9.56853818
_cell_length_b   10.40492672
_cell_length_c   12.03726333
_cell_angle_alpha   115.60703971
_cell_angle_beta   113.41916732
_cell_angle_gamma   89.99999886
_symmetry_Int_Tables_number   1
_chemical_formula_structural   Rb4Ba(TaS4)2
_chemical_formula_sum   'Rb8 Ba2 Ta4 S16'
_cell_volume   970.08810050
_cell_formula_units_Z   2
loop_
 _symmetry_equiv_pos_site_id
 _symmetry_equiv_pos_as_xyz
  1  'x, y, z'
loop_
 _atom_site_type_symbol
 _atom_site_label
 _atom_site_symmetry_multiplicity
 _atom_site_fract_x
 _atom_site_fract_y
 _atom_site_fract_z
 _atom_site_occupancy
  Rb  Rb0  1  0.705164  0.076864  0.153727  1
  Rb  Rb1  1  0.448564  0.576864  0.153727  1
  Rb  Rb2  1  0.250957  0.500957  0.501914  1
  Rb  Rb3  1  0.250957  0.000956  0.501914  1
  Rb  Rb4  1  0.749043  0.999044  0.498086  1
  Rb  Rb5  1  0.749043  0.499043  0.498086  1
  Rb  Rb6  1  0.551437  0.423136  0.846273  1
  Rb  Rb7  1  0.294836  0.923136  0.846273  1
  Ba  Ba8  1  0.000000  0.250000  0.000000  1
  Ba  Ba9  1  0.000000  0.750000  0.000000  1
  Ta  Ta10  1  0.337241  0.131943  0.263885  1
  Ta  Ta11  1  0.926644  0.631943  0.263885  1
  Ta  Ta12  1  0.073356  0.368057  0.736116  1
  Ta  Ta13  1  0.662759  0.868057  0.736116  1
  S  S14  1  0.389902  0.265264  0.171463  1
  S  S15  1  0.781559  0.406199  0.171463  1
  S  S16  1  0.781559  0.765265  0.171463  1
  S  S17  1  0.389902  0.906199  0.171463  1
  S  S18  1  0.075334  0.102220  0.204441  1
  S  S19  1  0.129107  0.602220  0.204441  1
  S  S20  1  0.478719  0.248229  0.496459  1
  S  S21  1  0.017740  0.748229  0.496459  1
  S  S22  1  0.982260  0.251771  0.503542  1
  S  S23  1  0.521283  0.751771  0.503542  1
  S  S24  1  0.870893  0.397780  0.795559  1
  S  S25  1  0.924666  0.897780  0.795559  1
  S  S26  1  0.610096  0.093801  0.828536  1
  S  S27  1  0.218440  0.234736  0.828536  1
  S  S28  1  0.218440  0.593801  0.828536  1
  S  S29  1  0.610096  0.734736  0.828536  1
