# generated using pymatgen
data_Zr3Ga3RuPt2
_symmetry_space_group_name_H-M   'P 1'
_cell_length_a   7.33472200
_cell_length_b   7.33472236
_cell_length_c   6.82509000
_cell_angle_alpha   90.00000000
_cell_angle_beta   90.00000000
_cell_angle_gamma   119.99999055
_symmetry_Int_Tables_number   1
_chemical_formula_structural   Zr3Ga3RuPt2
_chemical_formula_sum   'Zr6 Ga6 Ru2 Pt4'
_cell_volume   317.98482354
_cell_formula_units_Z   2
loop_
 _symmetry_equiv_pos_site_id
 _symmetry_equiv_pos_as_xyz
  1  'x, y, z'
loop_
 _atom_site_type_symbol
 _atom_site_label
 _atom_site_symmetry_multiplicity
 _atom_site_fract_x
 _atom_site_fract_y
 _atom_site_fract_z
 _atom_site_occupancy
  Zr  Zr0  1  0.400360  0.390446  0.750000  1
  Zr  Zr1  1  0.990086  0.599640  0.750000  1
  Zr  Zr2  1  0.609554  0.009914  0.750000  1
  Zr  Zr3  1  0.613055  0.012265  0.250000  1
  Zr  Zr4  1  0.987735  0.600790  0.250000  1
  Zr  Zr5  1  0.399210  0.386945  0.250000  1
  Ga  Ga6  1  0.273390  0.000563  0.000080  1
  Ga  Ga7  1  0.727173  0.726610  0.000080  1
  Ga  Ga8  1  0.999437  0.272827  0.000080  1
  Ga  Ga9  1  0.727173  0.726610  0.499920  1
  Ga  Ga10  1  0.273390  0.000563  0.499920  1
  Ga  Ga11  1  0.999437  0.272827  0.499920  1
  Ru  Ru12  1  0.666667  0.333333  0.999309  1
  Ru  Ru13  1  0.666667  0.333333  0.500691  1
  Pt  Pt14  1  0.000000  0.000000  0.750000  1
  Pt  Pt15  1  0.333333  0.666667  0.496343  1
  Pt  Pt16  1  0.333333  0.666667  0.003657  1
  Pt  Pt17  1  0.000000  0.000000  0.250000  1
