# generated using pymatgen
data_YLu3CdNi
_symmetry_space_group_name_H-M   'P 1'
_cell_length_a   9.42642344
_cell_length_b   9.41052555
_cell_length_c   9.41052545
_cell_angle_alpha   60.11180357
_cell_angle_beta   59.94409471
_cell_angle_gamma   59.94409770
_symmetry_Int_Tables_number   1
_chemical_formula_structural   YLu3CdNi
_chemical_formula_sum   'Y4 Lu12 Cd4 Ni4'
_cell_volume   590.27882207
_cell_formula_units_Z   4
loop_
 _symmetry_equiv_pos_site_id
 _symmetry_equiv_pos_as_xyz
  1  'x, y, z'
loop_
 _atom_site_type_symbol
 _atom_site_label
 _atom_site_symmetry_multiplicity
 _atom_site_fract_x
 _atom_site_fract_y
 _atom_site_fract_z
 _atom_site_occupancy
  Y  Y0  1  0.813896  0.186104  0.813896  1
  Y  Y1  1  0.186104  0.813896  0.186104  1
  Y  Y2  1  0.813896  0.813896  0.186104  1
  Y  Y3  1  0.186104  0.186104  0.813896  1
  Lu  Lu4  1  0.598183  0.596683  0.596683  1
  Lu  Lu5  1  0.596683  0.598183  0.208450  1
  Lu  Lu6  1  0.596683  0.208450  0.598183  1
  Lu  Lu7  1  0.208450  0.596683  0.596683  1
  Lu  Lu8  1  0.062444  0.437556  0.437556  1
  Lu  Lu9  1  0.437556  0.062444  0.062444  1
  Lu  Lu10  1  0.436698  0.063302  0.436698  1
  Lu  Lu11  1  0.063302  0.436698  0.063302  1
  Lu  Lu12  1  0.436698  0.436698  0.063302  1
  Lu  Lu13  1  0.063302  0.063302  0.436698  1
  Lu  Lu14  1  0.191544  0.808456  0.808456  1
  Lu  Lu15  1  0.808456  0.191544  0.191544  1
  Cd  Cd16  1  0.832229  0.830123  0.830123  1
  Cd  Cd17  1  0.830123  0.832229  0.507524  1
  Cd  Cd18  1  0.830123  0.507524  0.832229  1
  Cd  Cd19  1  0.507524  0.830123  0.830123  1
  Ni  Ni20  1  0.395459  0.390686  0.390686  1
  Ni  Ni21  1  0.390686  0.395459  0.823171  1
  Ni  Ni22  1  0.390686  0.823171  0.395459  1
  Ni  Ni23  1  0.823171  0.390686  0.390686  1
