# generated using pymatgen
data_Th2TiGa6
_symmetry_space_group_name_H-M   'P 1'
_cell_length_a   6.39153863
_cell_length_b   6.39153832
_cell_length_c   6.39153800
_cell_angle_alpha   60.00000168
_cell_angle_beta   60.00000324
_cell_angle_gamma   59.99999462
_symmetry_Int_Tables_number   1
_chemical_formula_structural   Th2TiGa6
_chemical_formula_sum   'Th2 Ti1 Ga6'
_cell_volume   184.62954147
_cell_formula_units_Z   1
loop_
 _symmetry_equiv_pos_site_id
 _symmetry_equiv_pos_as_xyz
  1  'x, y, z'
loop_
 _atom_site_type_symbol
 _atom_site_label
 _atom_site_symmetry_multiplicity
 _atom_site_fract_x
 _atom_site_fract_y
 _atom_site_fract_z
 _atom_site_occupancy
  Th  Th0  1  0.750000  0.750000  0.750000  1
  Th  Th1  1  0.250000  0.250000  0.250000  1
  Ti  Ti2  1  0.500000  0.500000  0.500000  1
  Ga  Ga3  1  0.787019  0.787019  0.212981  1
  Ga  Ga4  1  0.212981  0.787019  0.212981  1
  Ga  Ga5  1  0.787019  0.212981  0.212981  1
  Ga  Ga6  1  0.212981  0.212981  0.787019  1
  Ga  Ga7  1  0.787019  0.212981  0.787019  1
  Ga  Ga8  1  0.212981  0.787019  0.787019  1
