# generated using pymatgen
data_Hf3ZrTaSi3N
_symmetry_space_group_name_H-M   'P 1'
_cell_length_a   7.81977813
_cell_length_b   7.79361117
_cell_length_c   5.48189109
_cell_angle_alpha   90.01067302
_cell_angle_beta   89.97872539
_cell_angle_gamma   120.11113564
_symmetry_Int_Tables_number   1
_chemical_formula_structural   Hf3ZrTaSi3N
_chemical_formula_sum   'Hf6 Zr2 Ta2 Si6 N2'
_cell_volume   289.00591057
_cell_formula_units_Z   2
loop_
 _symmetry_equiv_pos_site_id
 _symmetry_equiv_pos_as_xyz
  1  'x, y, z'
loop_
 _atom_site_type_symbol
 _atom_site_label
 _atom_site_symmetry_multiplicity
 _atom_site_fract_x
 _atom_site_fract_y
 _atom_site_fract_z
 _atom_site_occupancy
  Hf  Hf0  1  0.001069  0.234377  0.750635  1
  Hf  Hf1  1  0.998931  0.765623  0.249365  1
  Hf  Hf2  1  0.766692  0.765623  0.750635  1
  Hf  Hf3  1  0.233308  0.234377  0.249365  1
  Hf  Hf4  1  0.332881  0.665762  0.500000  1
  Hf  Hf5  1  0.667119  0.334238  0.500000  1
  Zr  Zr6  1  0.239770  0.000000  0.749411  1
  Zr  Zr7  1  0.760230  0.000000  0.250589  1
  Ta  Ta8  1  0.667093  0.334185  0.000000  1
  Ta  Ta9  1  0.332907  0.665815  0.000000  1
  Si  Si10  1  0.594495  0.000000  0.760727  1
  Si  Si11  1  0.405505  0.000000  0.239273  1
  Si  Si12  1  0.999592  0.591087  0.761606  1
  Si  Si13  1  0.000408  0.408913  0.238394  1
  Si  Si14  1  0.408505  0.408913  0.761606  1
  Si  Si15  1  0.591495  0.591087  0.238394  1
  N  N16  1  0.000000  0.000000  0.500000  1
  N  N17  1  0.000000  0.000000  0.000000  1
