# generated using pymatgen
data_DyY3Tm4(ReC2)4
_symmetry_space_group_name_H-M   'P 1'
_cell_length_a   5.07814800
_cell_length_b   6.57161500
_cell_length_c   9.80235500
_cell_angle_alpha   90.00131440
_cell_angle_beta   90.00000000
_cell_angle_gamma   90.00000000
_symmetry_Int_Tables_number   1
_chemical_formula_structural   DyY3Tm4(ReC2)4
_chemical_formula_sum   'Dy1 Y3 Tm4 Re4 C8'
_cell_volume   327.12059913
_cell_formula_units_Z   1
loop_
 _symmetry_equiv_pos_site_id
 _symmetry_equiv_pos_as_xyz
  1  'x, y, z'
loop_
 _atom_site_type_symbol
 _atom_site_label
 _atom_site_symmetry_multiplicity
 _atom_site_fract_x
 _atom_site_fract_y
 _atom_site_fract_z
 _atom_site_occupancy
  Dy  Dy0  1  0.750000  0.033497  0.715518  1
  Y  Y1  1  0.250000  0.466394  0.215583  1
  Y  Y2  1  0.250000  0.966403  0.284451  1
  Y  Y3  1  0.750000  0.533575  0.784435  1
  Tm  Tm4  1  0.250000  0.823400  0.942243  1
  Tm  Tm5  1  0.250000  0.323472  0.557767  1
  Tm  Tm6  1  0.750000  0.176508  0.057717  1
  Tm  Tm7  1  0.750000  0.676725  0.442200  1
  Re  Re8  1  0.250000  0.278693  0.866990  1
  Re  Re9  1  0.250000  0.778823  0.633011  1
  Re  Re10  1  0.750000  0.721303  0.132925  1
  Re  Re11  1  0.750000  0.221285  0.367099  1
  C  C12  1  0.250000  0.046868  0.740361  1
  C  C13  1  0.250000  0.546864  0.759652  1
  C  C14  1  0.750000  0.953168  0.259624  1
  C  C15  1  0.750000  0.453125  0.240364  1
  C  C16  1  0.250000  0.672742  0.449906  1
  C  C17  1  0.250000  0.172632  0.050070  1
  C  C18  1  0.750000  0.327002  0.550334  1
  C  C19  1  0.750000  0.827522  0.949752  1
