# generated using pymatgen
data_Dy7HoTi12Si15Ge
_symmetry_space_group_name_H-M   'P 1'
_cell_length_a   7.07529712
_cell_length_b   7.06664689
_cell_length_c   12.98531211
_cell_angle_alpha   90.00545418
_cell_angle_beta   89.92558572
_cell_angle_gamma   89.97603624
_symmetry_Int_Tables_number   1
_chemical_formula_structural   Dy7HoTi12Si15Ge
_chemical_formula_sum   'Dy7 Ho1 Ti12 Si15 Ge1'
_cell_volume   649.24716159
_cell_formula_units_Z   1
loop_
 _symmetry_equiv_pos_site_id
 _symmetry_equiv_pos_as_xyz
  1  'x, y, z'
loop_
 _atom_site_type_symbol
 _atom_site_label
 _atom_site_symmetry_multiplicity
 _atom_site_fract_x
 _atom_site_fract_y
 _atom_site_fract_z
 _atom_site_occupancy
  Dy  Dy0  1  0.341403  0.001821  0.465612  1
  Dy  Dy1  1  0.498533  0.840079  0.717077  1
  Dy  Dy2  1  0.502634  0.159456  0.216785  1
  Dy  Dy3  1  0.840721  0.497187  0.283096  1
  Dy  Dy4  1  0.159382  0.503301  0.783805  1
  Dy  Dy5  1  0.660203  0.996614  0.967274  1
  Dy  Dy6  1  0.000571  0.342312  0.532156  1
  Ho  Ho7  1  0.997809  0.659177  0.033563  1
  Ti  Ti8  1  0.326142  0.326549  0.000176  1
  Ti  Ti9  1  0.173579  0.826287  0.249937  1
  Ti  Ti10  1  0.823285  0.174201  0.750553  1
  Ti  Ti11  1  0.673426  0.673554  0.499955  1
  Ti  Ti12  1  0.152220  0.008690  0.877539  1
  Ti  Ti13  1  0.491751  0.651477  0.126340  1
  Ti  Ti14  1  0.510164  0.349296  0.626590  1
  Ti  Ti15  1  0.652561  0.492463  0.874236  1
  Ti  Ti16  1  0.347857  0.508755  0.373429  1
  Ti  Ti17  1  0.848018  0.991848  0.376166  1
  Ti  Ti18  1  0.008594  0.151500  0.123725  1
  Ti  Ti19  1  0.988992  0.845159  0.622586  1
  Si  Si20  1  0.369363  0.702891  0.934499  1
  Si  Si21  1  0.629702  0.297258  0.434203  1
  Si  Si22  1  0.703252  0.369875  0.065952  1
  Si  Si23  1  0.297499  0.630281  0.565697  1
  Si  Si24  1  0.797544  0.869344  0.184210  1
  Si  Si25  1  0.130207  0.202483  0.315735  1
  Si  Si26  1  0.870182  0.797744  0.815866  1
  Si  Si27  1  0.290807  0.952053  0.065296  1
  Si  Si28  1  0.548112  0.790422  0.314558  1
  Si  Si29  1  0.455418  0.209820  0.816611  1
  Si  Si30  1  0.791201  0.547323  0.685540  1
  Si  Si31  1  0.209028  0.452644  0.185116  1
  Si  Si32  1  0.708829  0.047848  0.564821  1
  Si  Si33  1  0.952487  0.291218  0.935254  1
  Si  Si34  1  0.047802  0.709813  0.434628  1
  Ge  Ge35  1  0.200721  0.129254  0.681414  1
