# generated using pymatgen
data_Sc3SiGePIr3
_symmetry_space_group_name_H-M   'P 1'
_cell_length_a   6.53893700
_cell_length_b   6.53893813
_cell_length_c   3.86733600
_cell_angle_alpha   90.00000000
_cell_angle_beta   90.00000000
_cell_angle_gamma   120.00000944
_symmetry_Int_Tables_number   1
_chemical_formula_structural   Sc3SiGePIr3
_chemical_formula_sum   'Sc3 Si1 Ge1 P1 Ir3'
_cell_volume   143.20457011
_cell_formula_units_Z   1
loop_
 _symmetry_equiv_pos_site_id
 _symmetry_equiv_pos_as_xyz
  1  'x, y, z'
loop_
 _atom_site_type_symbol
 _atom_site_label
 _atom_site_symmetry_multiplicity
 _atom_site_fract_x
 _atom_site_fract_y
 _atom_site_fract_z
 _atom_site_occupancy
  Sc  Sc0  1  0.006242  0.426824  0.500000  1
  Sc  Sc1  1  0.573176  0.579418  0.500000  1
  Sc  Sc2  1  0.420582  0.993758  0.500000  1
  Si  Si3  1  0.000000  0.000000  0.500000  1
  Ge  Ge4  1  0.666667  0.333333  0.000000  1
  P  P5  1  0.333333  0.666667  0.000000  1
  Ir  Ir6  1  0.012819  0.762164  0.000000  1
  Ir  Ir7  1  0.237836  0.250655  0.000000  1
  Ir  Ir8  1  0.749345  0.987181  0.000000  1
