# generated using pymatgen
data_Pr6UAl23Ru8
_symmetry_space_group_name_H-M   'P 1'
_cell_length_a   8.97527300
_cell_length_b   8.97527425
_cell_length_c   9.74689100
_cell_angle_alpha   90.00000000
_cell_angle_beta   90.00000000
_cell_angle_gamma   120.00000645
_symmetry_Int_Tables_number   1
_chemical_formula_structural   Pr6UAl23Ru8
_chemical_formula_sum   'Pr6 U1 Al23 Ru8'
_cell_volume   679.97368829
_cell_formula_units_Z   1
loop_
 _symmetry_equiv_pos_site_id
 _symmetry_equiv_pos_as_xyz
  1  'x, y, z'
loop_
 _atom_site_type_symbol
 _atom_site_label
 _atom_site_symmetry_multiplicity
 _atom_site_fract_x
 _atom_site_fract_y
 _atom_site_fract_z
 _atom_site_occupancy
  Pr  Pr0  1  0.187257  0.374511  0.258191  1
  Pr  Pr1  1  0.808448  0.616896  0.748033  1
  Pr  Pr2  1  0.625489  0.812743  0.258191  1
  Pr  Pr3  1  0.383104  0.191552  0.748033  1
  Pr  Pr4  1  0.187257  0.812743  0.258191  1
  Pr  Pr5  1  0.808448  0.191552  0.748033  1
  U  U6  1  0.333333  0.666667  0.014056  1
  Al  Al7  1  0.666667  0.333333  0.989224  1
  Al  Al8  1  0.666667  0.333333  0.510951  1
  Al  Al9  1  0.333333  0.666667  0.483926  1
  Al  Al10  1  0.162483  0.324967  0.575315  1
  Al  Al11  1  0.835996  0.671992  0.426385  1
  Al  Al12  1  0.675033  0.837517  0.575315  1
  Al  Al13  1  0.838629  0.677259  0.077930  1
  Al  Al14  1  0.328008  0.164004  0.426385  1
  Al  Al15  1  0.154105  0.308208  0.918930  1
  Al  Al16  1  0.162483  0.837517  0.575315  1
  Al  Al17  1  0.322741  0.161371  0.077930  1
  Al  Al18  1  0.835996  0.164004  0.426385  1
  Al  Al19  1  0.691792  0.845895  0.918930  1
  Al  Al20  1  0.838629  0.161371  0.077930  1
  Al  Al21  1  0.154105  0.845895  0.918930  1
  Al  Al22  1  0.562579  0.125158  0.251837  1
  Al  Al23  1  0.437988  0.875975  0.743482  1
  Al  Al24  1  0.874842  0.437421  0.251837  1
  Al  Al25  1  0.124025  0.562012  0.743482  1
  Al  Al26  1  0.562579  0.437421  0.251837  1
  Al  Al27  1  0.437988  0.562012  0.743482  1
  Al  Al28  1  0.000000  0.000000  0.248610  1
  Al  Al29  1  0.000000  0.000000  0.746078  1
  Ru  Ru30  1  0.491634  0.983266  0.003549  1
  Ru  Ru31  1  0.016734  0.508366  0.003549  1
  Ru  Ru32  1  0.499809  0.999618  0.499960  1
  Ru  Ru33  1  0.491634  0.508366  0.003549  1
  Ru  Ru34  1  0.000382  0.500191  0.499960  1
  Ru  Ru35  1  0.499809  0.500191  0.499960  1
  Ru  Ru36  1  0.000000  0.000000  0.999724  1
  Ru  Ru37  1  0.000000  0.000000  0.496594  1
