# generated using pymatgen
data_Eu3Hg(NO3)8
_symmetry_space_group_name_H-M   'P 1'
_cell_length_a   8.00054516
_cell_length_b   8.00054459
_cell_length_c   8.00054500
_cell_angle_alpha   89.65485015
_cell_angle_beta   89.65485017
_cell_angle_gamma   89.65484688
_symmetry_Int_Tables_number   1
_chemical_formula_structural   Eu3Hg(NO3)8
_chemical_formula_sum   'Eu3 Hg1 N8 O24'
_cell_volume   512.07686768
_cell_formula_units_Z   1
loop_
 _symmetry_equiv_pos_site_id
 _symmetry_equiv_pos_as_xyz
  1  'x, y, z'
loop_
 _atom_site_type_symbol
 _atom_site_label
 _atom_site_symmetry_multiplicity
 _atom_site_fract_x
 _atom_site_fract_y
 _atom_site_fract_z
 _atom_site_occupancy
  Eu  Eu0  1  0.000000  0.500000  0.500000  1
  Eu  Eu1  1  0.500000  0.500000  0.000000  1
  Eu  Eu2  1  0.500000  0.000000  0.500000  1
  Hg  Hg3  1  0.000000  0.000000  0.000000  1
  N  N4  1  0.336967  0.336967  0.336967  1
  N  N5  1  0.363209  0.174654  0.834895  1
  N  N6  1  0.174654  0.834895  0.363209  1
  N  N7  1  0.834895  0.363209  0.174654  1
  N  N8  1  0.663033  0.663033  0.663033  1
  N  N9  1  0.165105  0.636791  0.825346  1
  N  N10  1  0.825346  0.165105  0.636791  1
  N  N11  1  0.636791  0.825346  0.165105  1
  O  O12  1  0.761761  0.312166  0.044947  1
  O  O13  1  0.228750  0.966110  0.294179  1
  O  O14  1  0.253694  0.774019  0.488148  1
  O  O15  1  0.294179  0.228750  0.966110  1
  O  O16  1  0.260364  0.284663  0.466055  1
  O  O17  1  0.466055  0.260364  0.284663  1
  O  O18  1  0.284663  0.466055  0.260364  1
  O  O19  1  0.225981  0.511852  0.746306  1
  O  O20  1  0.955053  0.238239  0.687834  1
  O  O21  1  0.687834  0.955053  0.238239  1
  O  O22  1  0.033890  0.705821  0.771250  1
  O  O23  1  0.511852  0.746306  0.225981  1
  O  O24  1  0.771250  0.033890  0.705821  1
  O  O25  1  0.746306  0.225981  0.511852  1
  O  O26  1  0.705821  0.771250  0.033890  1
  O  O27  1  0.238239  0.687834  0.955053  1
  O  O28  1  0.739636  0.715337  0.533945  1
  O  O29  1  0.533945  0.739636  0.715337  1
  O  O30  1  0.715337  0.533945  0.739636  1
  O  O31  1  0.774019  0.488148  0.253694  1
  O  O32  1  0.044947  0.761761  0.312166  1
  O  O33  1  0.312166  0.044947  0.761761  1
  O  O34  1  0.966110  0.294179  0.228750  1
  O  O35  1  0.488148  0.253694  0.774019  1
