# generated using pymatgen
data_ErLu7Re3B24Ru
_symmetry_space_group_name_H-M   'P 1'
_cell_length_a   3.61733800
_cell_length_b   9.05939243
_cell_length_c   11.42259104
_cell_angle_alpha   90.09776724
_cell_angle_beta   90.00000000
_cell_angle_gamma   90.00000000
_symmetry_Int_Tables_number   1
_chemical_formula_structural   ErLu7Re3B24Ru
_chemical_formula_sum   'Er1 Lu7 Re3 B24 Ru1'
_cell_volume   374.32786651
_cell_formula_units_Z   1
loop_
 _symmetry_equiv_pos_site_id
 _symmetry_equiv_pos_as_xyz
  1  'x, y, z'
loop_
 _atom_site_type_symbol
 _atom_site_label
 _atom_site_symmetry_multiplicity
 _atom_site_fract_x
 _atom_site_fract_y
 _atom_site_fract_z
 _atom_site_occupancy
  Er  Er0  1  0.000000  0.321107  0.414080  1
  Lu  Lu1  1  0.000000  0.677938  0.587918  1
  Lu  Lu2  1  0.000000  0.824214  0.083990  1
  Lu  Lu3  1  0.000000  0.177264  0.913698  1
  Lu  Lu4  1  0.000000  0.941991  0.370131  1
  Lu  Lu5  1  0.000000  0.056023  0.629159  1
  Lu  Lu6  1  0.000000  0.443409  0.129847  1
  Lu  Lu7  1  0.000000  0.556910  0.871435  1
  Re  Re8  1  0.000000  0.361894  0.678947  1
  Re  Re9  1  0.000000  0.138189  0.179410  1
  Re  Re10  1  0.000000  0.861447  0.820637  1
  B  B11  1  0.500000  0.554287  0.433265  1
  B  B12  1  0.500000  0.447643  0.566500  1
  B  B13  1  0.500000  0.052870  0.065936  1
  B  B14  1  0.500000  0.947283  0.933478  1
  B  B15  1  0.500000  0.749754  0.419334  1
  B  B16  1  0.500000  0.249160  0.581001  1
  B  B17  1  0.500000  0.250584  0.080217  1
  B  B18  1  0.500000  0.750088  0.919730  1
  B  B19  1  0.500000  0.791992  0.264683  1
  B  B20  1  0.500000  0.206908  0.735264  1
  B  B21  1  0.500000  0.292786  0.235108  1
  B  B22  1  0.500000  0.706863  0.765278  1
  B  B23  1  0.500000  0.631278  0.184426  1
  B  B24  1  0.500000  0.369937  0.815528  1
  B  B25  1  0.500000  0.129969  0.315642  1
  B  B26  1  0.500000  0.869102  0.684415  1
  B  B27  1  0.500000  0.980505  0.211756  1
  B  B28  1  0.500000  0.019073  0.787678  1
  B  B29  1  0.500000  0.482827  0.287696  1
  B  B30  1  0.500000  0.519739  0.712425  1
  B  B31  1  0.500000  0.601197  0.028562  1
  B  B32  1  0.500000  0.399668  0.972491  1
  B  B33  1  0.500000  0.098533  0.472129  1
  B  B34  1  0.500000  0.898392  0.527719  1
  Ru  Ru35  1  0.000000  0.639176  0.320486  1
