# generated using pymatgen
data_Tm4VRe3B16
_symmetry_space_group_name_H-M   'P 1'
_cell_length_a   3.56275400
_cell_length_b   5.94486013
_cell_length_c   11.49111502
_cell_angle_alpha   89.88336351
_cell_angle_beta   90.00000000
_cell_angle_gamma   90.00000000
_symmetry_Int_Tables_number   1
_chemical_formula_structural   Tm4VRe3B16
_chemical_formula_sum   'Tm4 V1 Re3 B16'
_cell_volume   243.38216453
_cell_formula_units_Z   1
loop_
 _symmetry_equiv_pos_site_id
 _symmetry_equiv_pos_as_xyz
  1  'x, y, z'
loop_
 _atom_site_type_symbol
 _atom_site_label
 _atom_site_symmetry_multiplicity
 _atom_site_fract_x
 _atom_site_fract_y
 _atom_site_fract_z
 _atom_site_occupancy
  Tm  Tm0  1  0.500000  0.126055  0.851438  1
  Tm  Tm1  1  0.500000  0.874961  0.149076  1
  Tm  Tm2  1  0.500000  0.626576  0.650786  1
  Tm  Tm3  1  0.500000  0.372938  0.347738  1
  V  V4  1  0.500000  0.371164  0.083121  1
  Re  Re5  1  0.500000  0.133751  0.587570  1
  Re  Re6  1  0.500000  0.866115  0.413462  1
  Re  Re7  1  0.500000  0.627803  0.915647  1
  B  B8  1  0.000000  0.286693  0.686117  1
  B  B9  1  0.000000  0.713394  0.314066  1
  B  B10  1  0.000000  0.787117  0.815158  1
  B  B11  1  0.000000  0.213140  0.185041  1
  B  B12  1  0.000000  0.364944  0.531345  1
  B  B13  1  0.000000  0.635172  0.468602  1
  B  B14  1  0.000000  0.865449  0.968166  1
  B  B15  1  0.000000  0.134455  0.032307  1
  B  B16  1  0.000000  0.023910  0.306685  1
  B  B17  1  0.000000  0.976221  0.693216  1
  B  B18  1  0.000000  0.522945  0.192939  1
  B  B19  1  0.000000  0.476705  0.807142  1
  B  B20  1  0.000000  0.115089  0.452073  1
  B  B21  1  0.000000  0.885447  0.547869  1
  B  B22  1  0.000000  0.614887  0.047725  1
  B  B23  1  0.000000  0.385071  0.952710  1
