# generated using pymatgen
data_U2TcB8W
_symmetry_space_group_name_H-M   'P 1'
_cell_length_a   3.63232600
_cell_length_b   5.95092702
_cell_length_c   11.53212804
_cell_angle_alpha   89.99096293
_cell_angle_beta   90.00000000
_cell_angle_gamma   90.00000000
_symmetry_Int_Tables_number   1
_chemical_formula_structural   U2TcB8W
_chemical_formula_sum   'U4 Tc2 B16 W2'
_cell_volume   249.27509684
_cell_formula_units_Z   2
loop_
 _symmetry_equiv_pos_site_id
 _symmetry_equiv_pos_as_xyz
  1  'x, y, z'
loop_
 _atom_site_type_symbol
 _atom_site_label
 _atom_site_symmetry_multiplicity
 _atom_site_fract_x
 _atom_site_fract_y
 _atom_site_fract_z
 _atom_site_occupancy
  U  U0  1  0.000000  0.628212  0.651749  1
  U  U1  1  0.000000  0.371788  0.348251  1
  U  U2  1  0.000000  0.128096  0.851460  1
  U  U3  1  0.000000  0.871904  0.148540  1
  Tc  Tc4  1  0.000000  0.639869  0.907282  1
  Tc  Tc5  1  0.000000  0.360131  0.092718  1
  B  B6  1  0.500000  0.973191  0.694409  1
  B  B7  1  0.500000  0.026809  0.305591  1
  B  B8  1  0.500000  0.474983  0.808340  1
  B  B9  1  0.500000  0.525017  0.191660  1
  B  B10  1  0.500000  0.867172  0.968046  1
  B  B11  1  0.500000  0.132828  0.031954  1
  B  B12  1  0.500000  0.368408  0.532186  1
  B  B13  1  0.500000  0.631592  0.467814  1
  B  B14  1  0.500000  0.790765  0.813148  1
  B  B15  1  0.500000  0.209235  0.186852  1
  B  B16  1  0.500000  0.291799  0.690084  1
  B  B17  1  0.500000  0.708201  0.309916  1
  B  B18  1  0.500000  0.884254  0.547237  1
  B  B19  1  0.500000  0.115746  0.452763  1
  B  B20  1  0.500000  0.385883  0.953117  1
  B  B21  1  0.500000  0.614117  0.046883  1
  W  W22  1  0.000000  0.136371  0.592070  1
  W  W23  1  0.000000  0.863629  0.407930  1
