# generated using pymatgen
data_Tb2Mo3As2P5Rh9
_symmetry_space_group_name_H-M   'P 1'
_cell_length_a   3.97140265
_cell_length_b   9.60148002
_cell_length_c   9.64175687
_cell_angle_alpha   119.94375221
_cell_angle_beta   89.99913088
_cell_angle_gamma   90.00014435
_symmetry_Int_Tables_number   1
_chemical_formula_structural   Tb2Mo3As2P5Rh9
_chemical_formula_sum   'Tb2 Mo3 As2 P5 Rh9'
_cell_volume   318.57726943
_cell_formula_units_Z   1
loop_
 _symmetry_equiv_pos_site_id
 _symmetry_equiv_pos_as_xyz
  1  'x, y, z'
loop_
 _atom_site_type_symbol
 _atom_site_label
 _atom_site_symmetry_multiplicity
 _atom_site_fract_x
 _atom_site_fract_y
 _atom_site_fract_z
 _atom_site_occupancy
  Tb  Tb0  1  0.261867  0.668215  0.327541  1
  Tb  Tb1  1  0.761891  0.332808  0.666978  1
  Mo  Mo2  1  0.761947  0.095648  0.877195  1
  Mo  Mo3  1  0.761922  0.120020  0.211919  1
  Mo  Mo4  1  0.761944  0.783773  0.914032  1
  As  As5  1  0.761916  0.879596  0.592040  1
  As  As6  1  0.761814  0.409917  0.290546  1
  P  P7  1  0.262066  0.001996  0.002732  1
  P  P8  1  0.761902  0.712336  0.116341  1
  P  P9  1  0.261868  0.114061  0.410517  1
  P  P10  1  0.261891  0.585466  0.703864  1
  P  P11  1  0.261840  0.296448  0.882227  1
  Rh  Rh12  1  0.261932  0.883723  0.158957  1
  Rh  Rh13  1  0.261929  0.841196  0.732863  1
  Rh  Rh14  1  0.261861  0.274695  0.110916  1
  Rh  Rh15  1  0.761943  0.610020  0.573692  1
  Rh  Rh16  1  0.761872  0.441450  0.046884  1
  Rh  Rh17  1  0.761897  0.949394  0.381667  1
  Rh  Rh18  1  0.261893  0.364114  0.438874  1
  Rh  Rh19  1  0.261881  0.562729  0.928989  1
  Rh  Rh20  1  0.261923  0.072393  0.631231  1
