# generated using pymatgen
data_Pr8Er11ScSi15Cl
_symmetry_space_group_name_H-M   'P 1'
_cell_length_a   7.55711069
_cell_length_b   7.73030480
_cell_length_c   14.77719646
_cell_angle_alpha   89.59073263
_cell_angle_beta   87.11152372
_cell_angle_gamma   89.84484258
_symmetry_Int_Tables_number   1
_chemical_formula_structural   Pr8Er11ScSi15Cl
_chemical_formula_sum   'Pr8 Er11 Sc1 Si15 Cl1'
_cell_volume   862.14448124
_cell_formula_units_Z   1
loop_
 _symmetry_equiv_pos_site_id
 _symmetry_equiv_pos_as_xyz
  1  'x, y, z'
loop_
 _atom_site_type_symbol
 _atom_site_label
 _atom_site_symmetry_multiplicity
 _atom_site_fract_x
 _atom_site_fract_y
 _atom_site_fract_z
 _atom_site_occupancy
  Pr  Pr0  1  0.986686  0.168346  0.395741  1
  Pr  Pr1  1  0.499595  0.310447  0.398250  1
  Pr  Pr2  1  0.485901  0.677755  0.900252  1
  Pr  Pr3  1  0.511808  0.686243  0.601694  1
  Pr  Pr4  1  0.005664  0.827233  0.600383  1
  Pr  Pr5  1  0.986683  0.825561  0.899545  1
  Pr  Pr6  1  0.514132  0.322593  0.098379  1
  Pr  Pr7  1  0.013969  0.178328  0.098310  1
  Er  Er8  1  0.361040  0.161705  0.622737  1
  Er  Er9  1  0.640756  0.829934  0.379785  1
  Er  Er10  1  0.676354  0.996818  0.747850  1
  Er  Er11  1  0.140713  0.668019  0.376588  1
  Er  Er12  1  0.833977  0.325120  0.874130  1
  Er  Er13  1  0.850410  0.335118  0.619554  1
  Er  Er14  1  0.824729  0.493539  0.253263  1
  Er  Er15  1  0.323774  0.002831  0.251477  1
  Er  Er16  1  0.330590  0.180575  0.874333  1
  Er  Er17  1  0.167592  0.675824  0.122506  1
  Er  Er18  1  0.666822  0.821519  0.122510  1
  Sc  Sc19  1  0.174572  0.508142  0.758375  1
  Si  Si20  1  0.294320  0.874847  0.750574  1
  Si  Si21  1  0.448644  0.615659  0.250018  1
  Si  Si22  1  0.050768  0.122933  0.747435  1
  Si  Si23  1  0.545187  0.387389  0.747689  1
  Si  Si24  1  0.948545  0.879122  0.248220  1
  Si  Si25  1  0.704831  0.119619  0.247255  1
  Si  Si26  1  0.849999  0.532978  0.037998  1
  Si  Si27  1  0.349683  0.967700  0.038206  1
  Si  Si28  1  0.148043  0.471094  0.956959  1
  Si  Si29  1  0.696505  0.038190  0.544384  1
  Si  Si30  1  0.297310  0.959746  0.458566  1
  Si  Si31  1  0.803510  0.532827  0.455350  1
  Si  Si32  1  0.800753  0.624352  0.750199  1
  Si  Si33  1  0.208022  0.377056  0.248581  1
  Si  Si34  1  0.647675  0.034315  0.959110  1
  Cl  Cl35  1  0.210438  0.466523  0.563792  1
