# generated using pymatgen
data_Sr8Cd(Si4Au)3
_symmetry_space_group_name_H-M   'P 1'
_cell_length_a   11.88595965
_cell_length_b   10.26407026
_cell_length_c   8.45700473
_cell_angle_alpha   78.16825425
_cell_angle_beta   57.72137093
_cell_angle_gamma   44.13850417
_symmetry_Int_Tables_number   1
_chemical_formula_structural   Sr8Cd(Si4Au)3
_chemical_formula_sum   'Sr8 Cd1 Si12 Au3'
_cell_volume   578.96588708
_cell_formula_units_Z   1
loop_
 _symmetry_equiv_pos_site_id
 _symmetry_equiv_pos_as_xyz
  1  'x, y, z'
loop_
 _atom_site_type_symbol
 _atom_site_label
 _atom_site_symmetry_multiplicity
 _atom_site_fract_x
 _atom_site_fract_y
 _atom_site_fract_z
 _atom_site_occupancy
  Sr  Sr0  1  0.119556  0.124146  0.882220  1
  Sr  Sr1  1  0.882221  0.874079  0.119555  1
  Sr  Sr2  1  0.121373  0.125931  0.374614  1
  Sr  Sr3  1  0.374615  0.378083  0.121372  1
  Sr  Sr4  1  0.625929  0.618287  0.375762  1
  Sr  Sr5  1  0.375762  0.380024  0.625929  1
  Sr  Sr6  1  0.624072  0.624460  0.876367  1
  Sr  Sr7  1  0.876368  0.875102  0.624071  1
  Cd  Cd8  1  0.417141  0.082859  0.417141  1
  Si  Si9  1  0.916074  0.588714  0.419551  1
  Si  Si10  1  0.063538  0.432122  0.594371  1
  Si  Si11  1  0.419551  0.075661  0.916074  1
  Si  Si12  1  0.594371  0.909969  0.063538  1
  Si  Si13  1  0.336001  0.660605  0.826849  1
  Si  Si14  1  0.658747  0.334062  0.177922  1
  Si  Si15  1  0.826849  0.176546  0.336001  1
  Si  Si16  1  0.177922  0.829269  0.658747  1
  Si  Si17  1  0.914287  0.585714  0.914286  1
  Si  Si18  1  0.591967  0.908034  0.591966  1
  Si  Si19  1  0.337222  0.662779  0.337222  1
  Si  Si20  1  0.663088  0.336912  0.663088  1
  Au  Au21  1  0.083231  0.416769  0.083231  1
  Au  Au22  1  0.833160  0.166840  0.833160  1
  Au  Au23  1  0.166960  0.833040  0.166960  1
