# generated using pymatgen
data_Tb4Al18RePt4Rh
_symmetry_space_group_name_H-M   'P 1'
_cell_length_a   7.61232396
_cell_length_b   7.61232228
_cell_length_c   9.49775315
_cell_angle_alpha   89.82957510
_cell_angle_beta   89.82957402
_cell_angle_gamma   119.32120100
_symmetry_Int_Tables_number   1
_chemical_formula_structural   Tb4Al18RePt4Rh
_chemical_formula_sum   'Tb4 Al18 Re1 Pt4 Rh1'
_cell_volume   479.85336088
_cell_formula_units_Z   1
loop_
 _symmetry_equiv_pos_site_id
 _symmetry_equiv_pos_as_xyz
  1  'x, y, z'
loop_
 _atom_site_type_symbol
 _atom_site_label
 _atom_site_symmetry_multiplicity
 _atom_site_fract_x
 _atom_site_fract_y
 _atom_site_fract_z
 _atom_site_occupancy
  Tb  Tb0  1  0.994071  0.672171  0.248241  1
  Tb  Tb1  1  0.005929  0.327829  0.751759  1
  Tb  Tb2  1  0.672171  0.994071  0.248241  1
  Tb  Tb3  1  0.327829  0.005929  0.751759  1
  Al  Al4  1  0.126399  0.126399  0.250328  1
  Al  Al5  1  0.873601  0.873601  0.749672  1
  Al  Al6  1  0.000581  0.330562  0.075547  1
  Al  Al7  1  0.999419  0.669438  0.924453  1
  Al  Al8  1  0.999485  0.667473  0.576556  1
  Al  Al9  1  0.332527  0.000515  0.423444  1
  Al  Al10  1  0.000515  0.332527  0.423444  1
  Al  Al11  1  0.667473  0.999485  0.576556  1
  Al  Al12  1  0.669438  0.999419  0.924453  1
  Al  Al13  1  0.330562  0.000581  0.075547  1
  Al  Al14  1  0.329350  0.329350  0.553859  1
  Al  Al15  1  0.670650  0.670650  0.446141  1
  Al  Al16  1  0.670516  0.670516  0.052524  1
  Al  Al17  1  0.329484  0.329484  0.947476  1
  Al  Al18  1  0.341241  0.546350  0.250211  1
  Al  Al19  1  0.658759  0.453650  0.749789  1
  Al  Al20  1  0.546350  0.341241  0.250211  1
  Al  Al21  1  0.453650  0.658759  0.749789  1
  Re  Re22  1  0.000000  0.000000  0.000000  1
  Pt  Pt23  1  0.672111  0.327889  0.000000  1
  Pt  Pt24  1  0.327889  0.672111  0.000000  1
  Pt  Pt25  1  0.327567  0.672433  0.500000  1
  Pt  Pt26  1  0.672433  0.327567  0.500000  1
  Rh  Rh27  1  0.000000  0.000000  0.500000  1
