# generated using pymatgen
data_Lu4VRu7
_symmetry_space_group_name_H-M   'P 1'
_cell_length_a   5.41143400
_cell_length_b   5.13127057
_cell_length_c   8.85460100
_cell_angle_alpha   90.00000000
_cell_angle_beta   90.00000000
_cell_angle_gamma   121.82318164
_symmetry_Int_Tables_number   1
_chemical_formula_structural   Lu4VRu7
_chemical_formula_sum   'Lu4 V1 Ru7'
_cell_volume   208.91103309
_cell_formula_units_Z   1
loop_
 _symmetry_equiv_pos_site_id
 _symmetry_equiv_pos_as_xyz
  1  'x, y, z'
loop_
 _atom_site_type_symbol
 _atom_site_label
 _atom_site_symmetry_multiplicity
 _atom_site_fract_x
 _atom_site_fract_y
 _atom_site_fract_z
 _atom_site_occupancy
  Lu  Lu0  1  0.331409  0.662818  0.431626  1
  Lu  Lu1  1  0.669532  0.339064  0.564441  1
  Lu  Lu2  1  0.669532  0.339064  0.935559  1
  Lu  Lu3  1  0.331409  0.662818  0.068374  1
  V  V4  1  0.171529  0.343059  0.750000  1
  Ru  Ru5  1  0.168298  0.817772  0.750000  1
  Ru  Ru6  1  0.341690  0.169492  0.250000  1
  Ru  Ru7  1  0.829351  0.658702  0.250000  1
  Ru  Ru8  1  0.649473  0.817772  0.750000  1
  Ru  Ru9  1  0.004987  0.009974  0.997248  1
  Ru  Ru10  1  0.827803  0.169492  0.250000  1
  Ru  Ru11  1  0.004987  0.009974  0.502752  1
