# generated using pymatgen
data_Dy15LuIn4(RuRh)2
_symmetry_space_group_name_H-M   'P 1'
_cell_length_a   9.67470066
_cell_length_b   9.64931317
_cell_length_c   9.64931257
_cell_angle_alpha   59.77734627
_cell_angle_beta   59.91292774
_cell_angle_gamma   59.91293194
_symmetry_Int_Tables_number   1
_chemical_formula_structural   Dy15LuIn4(RuRh)2
_chemical_formula_sum   'Dy15 Lu1 In4 Ru2 Rh2'
_cell_volume   635.05055501
_cell_formula_units_Z   1
loop_
 _symmetry_equiv_pos_site_id
 _symmetry_equiv_pos_as_xyz
  1  'x, y, z'
loop_
 _atom_site_type_symbol
 _atom_site_label
 _atom_site_symmetry_multiplicity
 _atom_site_fract_x
 _atom_site_fract_y
 _atom_site_fract_z
 _atom_site_occupancy
  Dy  Dy0  1  0.692288  0.688493  0.310173  1
  Dy  Dy1  1  0.309046  0.688493  0.310173  1
  Dy  Dy2  1  0.936429  0.942735  0.560508  1
  Dy  Dy3  1  0.151558  0.151965  0.544917  1
  Dy  Dy4  1  0.560327  0.942735  0.560508  1
  Dy  Dy5  1  0.149354  0.151780  0.151780  1
  Dy  Dy6  1  0.309046  0.310173  0.688493  1
  Dy  Dy7  1  0.941301  0.558699  0.558699  1
  Dy  Dy8  1  0.560327  0.560508  0.942735  1
  Dy  Dy9  1  0.562039  0.937961  0.937961  1
  Dy  Dy10  1  0.936429  0.560508  0.942735  1
  Dy  Dy11  1  0.151558  0.544917  0.151965  1
  Dy  Dy12  1  0.307825  0.692175  0.692175  1
  Dy  Dy13  1  0.692288  0.310173  0.688493  1
  Dy  Dy14  1  0.547085  0.151780  0.151780  1
  Lu  Lu15  1  0.691015  0.308985  0.308985  1
  In  In16  1  0.917102  0.917752  0.248045  1
  In  In17  1  0.246560  0.918056  0.918056  1
  In  In18  1  0.917102  0.248045  0.917752  1
  In  In19  1  0.917327  0.918056  0.918056  1
  Ru  Ru20  1  0.363148  0.357880  0.357880  1
  Ru  Ru21  1  0.921093  0.357880  0.357880  1
  Rh  Rh22  1  0.359877  0.358001  0.922248  1
  Rh  Rh23  1  0.359877  0.922248  0.358001  1
