# generated using pymatgen
data_Rb10Ba2TaVAs8
_symmetry_space_group_name_H-M   'P 1'
_cell_length_a   10.80418285
_cell_length_b   10.79606227
_cell_length_c   8.34137495
_cell_angle_alpha   88.65778171
_cell_angle_beta   88.59663766
_cell_angle_gamma   120.77388944
_symmetry_Int_Tables_number   1
_chemical_formula_structural   Rb10Ba2TaVAs8
_chemical_formula_sum   'Rb10 Ba2 Ta1 V1 As8'
_cell_volume   834.97725809
_cell_formula_units_Z   1
loop_
 _symmetry_equiv_pos_site_id
 _symmetry_equiv_pos_as_xyz
  1  'x, y, z'
loop_
 _atom_site_type_symbol
 _atom_site_label
 _atom_site_symmetry_multiplicity
 _atom_site_fract_x
 _atom_site_fract_y
 _atom_site_fract_z
 _atom_site_occupancy
  Rb  Rb0  1  0.468071  0.525587  0.497778  1
  Rb  Rb1  1  0.057451  0.526454  0.500042  1
  Rb  Rb2  1  0.526767  0.465230  0.998361  1
  Rb  Rb3  1  0.528144  0.061703  0.999976  1
  Rb  Rb4  1  0.865162  0.141711  0.677233  1
  Rb  Rb5  1  0.295372  0.153655  0.712787  1
  Rb  Rb6  1  0.854815  0.715298  0.655749  1
  Rb  Rb7  1  0.140759  0.864783  0.181556  1
  Rb  Rb8  1  0.717392  0.856199  0.157942  1
  Rb  Rb9  1  0.152621  0.294211  0.216399  1
  Ba  Ba10  1  0.468358  0.940290  0.495067  1
  Ba  Ba11  1  0.932014  0.462645  0.994771  1
  Ta  Ta12  1  0.330777  0.669208  0.894008  1
  V  V13  1  0.669338  0.330824  0.392783  1
  As  As14  1  0.682024  0.334425  0.681356  1
  As  As15  1  0.337251  0.684829  0.194169  1
  As  As16  1  0.787131  0.204648  0.292326  1
  As  As17  1  0.418619  0.199495  0.322427  1
  As  As18  1  0.792541  0.572941  0.277227  1
  As  As19  1  0.199261  0.790873  0.790621  1
  As  As20  1  0.583124  0.797242  0.773298  1
  As  As21  1  0.193007  0.407746  0.822698  1
