# generated using pymatgen
data_Er6TmSn23Ru6
_symmetry_space_group_name_H-M   'P 1'
_cell_length_a   9.83488543
_cell_length_b   9.83721833
_cell_length_c   10.06611214
_cell_angle_alpha   90.00938772
_cell_angle_beta   89.98066447
_cell_angle_gamma   120.02009659
_symmetry_Int_Tables_number   1
_chemical_formula_structural   Er6TmSn23Ru6
_chemical_formula_sum   'Er6 Tm1 Sn23 Ru6'
_cell_volume   843.22991152
_cell_formula_units_Z   1
loop_
 _symmetry_equiv_pos_site_id
 _symmetry_equiv_pos_as_xyz
  1  'x, y, z'
loop_
 _atom_site_type_symbol
 _atom_site_label
 _atom_site_symmetry_multiplicity
 _atom_site_fract_x
 _atom_site_fract_y
 _atom_site_fract_z
 _atom_site_occupancy
  Er  Er0  1  0.514937  0.485029  0.697223  1
  Er  Er1  1  0.485087  0.970141  0.302736  1
  Er  Er2  1  0.514914  0.029915  0.697267  1
  Er  Er3  1  0.029875  0.514935  0.302757  1
  Er  Er4  1  0.970061  0.485059  0.697237  1
  Er  Er5  1  0.999995  0.000003  0.999992  1
  Tm  Tm6  1  0.485326  0.514695  0.302547  1
  Sn  Sn7  1  0.118725  0.881256  0.273946  1
  Sn  Sn8  1  0.881261  0.118754  0.726039  1
  Sn  Sn9  1  0.118840  0.237601  0.273964  1
  Sn  Sn10  1  0.881238  0.762495  0.726066  1
  Sn  Sn11  1  0.762397  0.881150  0.273946  1
  Sn  Sn12  1  0.237507  0.118772  0.726081  1
  Sn  Sn13  1  0.779855  0.220213  0.462784  1
  Sn  Sn14  1  0.220124  0.779808  0.537212  1
  Sn  Sn15  1  0.779714  0.559647  0.462699  1
  Sn  Sn16  1  0.220210  0.440347  0.537139  1
  Sn  Sn17  1  0.440382  0.220334  0.462690  1
  Sn  Sn18  1  0.559622  0.779734  0.537150  1
  Sn  Sn19  1  0.348858  0.000035  0.000026  1
  Sn  Sn20  1  0.651135  0.000000  0.999992  1
  Sn  Sn21  1  0.000002  0.348852  0.000002  1
  Sn  Sn22  1  0.999965  0.651156  0.000018  1
  Sn  Sn23  1  0.651114  0.651129  0.000008  1
  Sn  Sn24  1  0.348869  0.348890  0.000026  1
  Sn  Sn25  1  0.333474  0.666513  0.129614  1
  Sn  Sn26  1  0.666667  0.333345  0.870658  1
  Sn  Sn27  1  0.333329  0.666670  0.822407  1
  Sn  Sn28  1  0.666644  0.333364  0.177627  1
  Sn  Sn29  1  0.999991  0.000016  0.499998  1
  Ru  Ru30  1  0.829823  0.170138  0.202464  1
  Ru  Ru31  1  0.170192  0.829850  0.797553  1
  Ru  Ru32  1  0.829538  0.659513  0.202522  1
  Ru  Ru33  1  0.170211  0.340379  0.797540  1
  Ru  Ru34  1  0.340450  0.170430  0.202542  1
  Ru  Ru35  1  0.659668  0.829834  0.797526  1
