# generated using pymatgen
data_Dy15TmIn3AgRh4
_symmetry_space_group_name_H-M   'P 1'
_cell_length_a   9.61345139
_cell_length_b   9.61645751
_cell_length_c   9.60503518
_cell_angle_alpha   59.96943023
_cell_angle_beta   59.97136524
_cell_angle_gamma   60.01125747
_symmetry_Int_Tables_number   1
_chemical_formula_structural   Dy15TmIn3AgRh4
_chemical_formula_sum   'Dy15 Tm1 In3 Ag1 Rh4'
_cell_volume   627.65479524
_cell_formula_units_Z   1
loop_
 _symmetry_equiv_pos_site_id
 _symmetry_equiv_pos_as_xyz
  1  'x, y, z'
loop_
 _atom_site_type_symbol
 _atom_site_label
 _atom_site_symmetry_multiplicity
 _atom_site_fract_x
 _atom_site_fract_y
 _atom_site_fract_z
 _atom_site_occupancy
  Dy  Dy0  1  0.688737  0.688515  0.311873  1
  Dy  Dy1  1  0.310871  0.688521  0.311867  1
  Dy  Dy2  1  0.936929  0.938112  0.557174  1
  Dy  Dy3  1  0.150174  0.148902  0.550744  1
  Dy  Dy4  1  0.567777  0.938115  0.557177  1
  Dy  Dy5  1  0.151946  0.150622  0.149099  1
  Dy  Dy6  1  0.309247  0.310098  0.690562  1
  Dy  Dy7  1  0.938474  0.566116  0.556941  1
  Dy  Dy8  1  0.564469  0.563270  0.935871  1
  Dy  Dy9  1  0.564587  0.936464  0.934364  1
  Dy  Dy10  1  0.936391  0.563274  0.935865  1
  Dy  Dy11  1  0.150758  0.550890  0.147591  1
  Dy  Dy12  1  0.308963  0.690600  0.691480  1
  Dy  Dy13  1  0.690097  0.310100  0.690552  1
  Dy  Dy14  1  0.548335  0.150624  0.149097  1
  Tm  Tm15  1  0.688991  0.311567  0.310451  1
  In  In16  1  0.244659  0.917415  0.921778  1
  In  In17  1  0.916048  0.244805  0.923098  1
  In  In18  1  0.916147  0.917416  0.921781  1
  Ag  Ag19  1  0.916161  0.915856  0.251825  1
  Rh  Rh20  1  0.358206  0.357220  0.358064  1
  Rh  Rh21  1  0.926509  0.357209  0.358076  1
  Rh  Rh22  1  0.357877  0.357754  0.926500  1
  Rh  Rh23  1  0.357645  0.926532  0.358174  1
