# generated using pymatgen
data_Pr5In11Ir6
_symmetry_space_group_name_H-M   'P 1'
_cell_length_a   10.73200318
_cell_length_b   10.73200271
_cell_length_c   4.46176500
_cell_angle_alpha   90.00000000
_cell_angle_beta   90.00000000
_cell_angle_gamma   90.27133879
_symmetry_Int_Tables_number   1
_chemical_formula_structural   Pr5In11Ir6
_chemical_formula_sum   'Pr5 In11 Ir6'
_cell_volume   513.88197963
_cell_formula_units_Z   1
loop_
 _symmetry_equiv_pos_site_id
 _symmetry_equiv_pos_as_xyz
  1  'x, y, z'
loop_
 _atom_site_type_symbol
 _atom_site_label
 _atom_site_symmetry_multiplicity
 _atom_site_fract_x
 _atom_site_fract_y
 _atom_site_fract_z
 _atom_site_occupancy
  Pr  Pr0  1  0.043439  0.691644  0.000000  1
  Pr  Pr1  1  0.308356  0.956561  0.000000  1
  Pr  Pr2  1  0.691323  0.043578  0.000000  1
  Pr  Pr3  1  0.956422  0.308677  0.000000  1
  Pr  Pr4  1  0.499847  0.500153  0.500000  1
  In  In5  1  0.294972  0.294812  0.000000  1
  In  In6  1  0.705188  0.705028  0.000000  1
  In  In7  1  0.719440  0.280560  0.500000  1
  In  In8  1  0.848696  0.540817  0.500000  1
  In  In9  1  0.155511  0.155541  0.500000  1
  In  In10  1  0.844459  0.844489  0.500000  1
  In  In11  1  0.151596  0.458775  0.500000  1
  In  In12  1  0.280471  0.719529  0.500000  1
  In  In13  1  0.541225  0.848404  0.500000  1
  In  In14  1  0.999865  0.000135  0.000000  1
  In  In15  1  0.459183  0.151304  0.500000  1
  Ir  Ir16  1  0.548334  0.276856  0.000000  1
  Ir  Ir17  1  0.451736  0.723129  0.000000  1
  Ir  Ir18  1  0.101876  0.898124  0.500000  1
  Ir  Ir19  1  0.723144  0.451666  0.000000  1
  Ir  Ir20  1  0.276871  0.548264  0.000000  1
  Ir  Ir21  1  0.898042  0.101958  0.500000  1
