# generated using pymatgen
data_Zr16Ir5Au3N4
_symmetry_space_group_name_H-M   'P 1'
_cell_length_a   8.89227131
_cell_length_b   8.89227147
_cell_length_c   8.89227154
_cell_angle_alpha   60.22715356
_cell_angle_beta   60.22715427
_cell_angle_gamma   60.22715863
_symmetry_Int_Tables_number   1
_chemical_formula_structural   Zr16Ir5Au3N4
_chemical_formula_sum   'Zr16 Ir5 Au3 N4'
_cell_volume   499.74779128
_cell_formula_units_Z   1
loop_
 _symmetry_equiv_pos_site_id
 _symmetry_equiv_pos_as_xyz
  1  'x, y, z'
loop_
 _atom_site_type_symbol
 _atom_site_label
 _atom_site_symmetry_multiplicity
 _atom_site_fract_x
 _atom_site_fract_y
 _atom_site_fract_z
 _atom_site_occupancy
  Zr  Zr0  1  0.107826  0.628308  0.628308  1
  Zr  Zr1  1  0.628308  0.107826  0.628308  1
  Zr  Zr2  1  0.628308  0.628308  0.107826  1
  Zr  Zr3  1  0.635708  0.635708  0.635708  1
  Zr  Zr4  1  0.818879  0.818879  0.179916  1
  Zr  Zr5  1  0.181444  0.181444  0.817806  1
  Zr  Zr6  1  0.818879  0.179916  0.818879  1
  Zr  Zr7  1  0.181444  0.817806  0.181444  1
  Zr  Zr8  1  0.179916  0.818879  0.818879  1
  Zr  Zr9  1  0.817806  0.181444  0.181444  1
  Zr  Zr10  1  0.432257  0.432257  0.072794  1
  Zr  Zr11  1  0.068092  0.068092  0.432043  1
  Zr  Zr12  1  0.432257  0.072794  0.432257  1
  Zr  Zr13  1  0.068092  0.432043  0.068092  1
  Zr  Zr14  1  0.072794  0.432257  0.432257  1
  Zr  Zr15  1  0.432043  0.068092  0.068092  1
  Ir  Ir16  1  0.405173  0.405173  0.405173  1
  Ir  Ir17  1  0.458796  0.849237  0.849237  1
  Ir  Ir18  1  0.849237  0.458796  0.849237  1
  Ir  Ir19  1  0.849237  0.849237  0.458796  1
  Ir  Ir20  1  0.844640  0.844640  0.844640  1
  Au  Au21  1  0.761084  0.414429  0.414429  1
  Au  Au22  1  0.414429  0.761084  0.414429  1
  Au  Au23  1  0.414429  0.414429  0.761084  1
  N  N24  1  0.622942  0.124853  0.124853  1
  N  N25  1  0.124853  0.622942  0.124853  1
  N  N26  1  0.124853  0.124853  0.622942  1
  N  N27  1  0.126277  0.126277  0.126277  1
