# generated using pymatgen
data_ThSb13
_symmetry_space_group_name_H-M   'P 1'
_cell_length_a   4.25115300
_cell_length_b   13.39916717
_cell_length_c   15.96941064
_cell_angle_alpha   77.70129047
_cell_angle_beta   90.00000000
_cell_angle_gamma   90.00000000
_symmetry_Int_Tables_number   1
_chemical_formula_structural   ThSb13
_chemical_formula_sum   'Th2 Sb26'
_cell_volume   888.77204152
_cell_formula_units_Z   2
loop_
 _symmetry_equiv_pos_site_id
 _symmetry_equiv_pos_as_xyz
  1  'x, y, z'
loop_
 _atom_site_type_symbol
 _atom_site_label
 _atom_site_symmetry_multiplicity
 _atom_site_fract_x
 _atom_site_fract_y
 _atom_site_fract_z
 _atom_site_occupancy
  Th  Th0  1  0.250000  0.376085  0.761768  1
  Th  Th1  1  0.750000  0.623915  0.238232  1
  Sb  Sb2  1  0.250000  0.583401  0.851878  1
  Sb  Sb3  1  0.750000  0.416599  0.148122  1
  Sb  Sb4  1  0.250000  0.720697  0.617199  1
  Sb  Sb5  1  0.750000  0.279303  0.382801  1
  Sb  Sb6  1  0.250000  0.938889  0.391580  1
  Sb  Sb7  1  0.750000  0.061111  0.608420  1
  Sb  Sb8  1  0.250000  0.122272  0.787944  1
  Sb  Sb9  1  0.750000  0.877728  0.212056  1
  Sb  Sb10  1  0.250000  0.125315  0.475114  1
  Sb  Sb11  1  0.750000  0.874685  0.524886  1
  Sb  Sb12  1  0.250000  0.175078  0.154077  1
  Sb  Sb13  1  0.750000  0.824922  0.845923  1
  Sb  Sb14  1  0.250000  0.383569  0.975204  1
  Sb  Sb15  1  0.750000  0.616431  0.024796  1
  Sb  Sb16  1  0.750000  0.022768  0.901966  1
  Sb  Sb17  1  0.250000  0.977232  0.098034  1
  Sb  Sb18  1  0.750000  0.112931  0.281877  1
  Sb  Sb19  1  0.250000  0.887069  0.718123  1
  Sb  Sb20  1  0.750000  0.264365  0.913142  1
  Sb  Sb21  1  0.250000  0.735635  0.086858  1
  Sb  Sb22  1  0.750000  0.289614  0.632862  1
  Sb  Sb23  1  0.250000  0.710386  0.367138  1
  Sb  Sb24  1  0.750000  0.572383  0.720989  1
  Sb  Sb25  1  0.250000  0.427617  0.279011  1
  Sb  Sb26  1  0.750000  0.569020  0.442161  1
  Sb  Sb27  1  0.250000  0.430980  0.557839  1
