# generated using pymatgen
data_Y7Tm3(Ga2Sb)2
_symmetry_space_group_name_H-M   'P 1'
_cell_length_a   8.68519106
_cell_length_b   8.70600734
_cell_length_c   6.51330804
_cell_angle_alpha   90.01242970
_cell_angle_beta   89.99377151
_cell_angle_gamma   120.07931200
_symmetry_Int_Tables_number   1
_chemical_formula_structural   Y7Tm3(Ga2Sb)2
_chemical_formula_sum   'Y7 Tm3 Ga4 Sb2'
_cell_volume   426.17012491
_cell_formula_units_Z   1
loop_
 _symmetry_equiv_pos_site_id
 _symmetry_equiv_pos_as_xyz
  1  'x, y, z'
loop_
 _atom_site_type_symbol
 _atom_site_label
 _atom_site_symmetry_multiplicity
 _atom_site_fract_x
 _atom_site_fract_y
 _atom_site_fract_z
 _atom_site_occupancy
  Y  Y0  1  0.315243  0.657622  0.500000  1
  Y  Y1  1  0.236264  0.000595  0.249640  1
  Y  Y2  1  0.236264  0.235668  0.750360  1
  Y  Y3  1  0.012800  0.763579  0.750609  1
  Y  Y4  1  0.012800  0.249221  0.249391  1
  Y  Y5  1  0.762126  0.749348  0.249809  1
  Y  Y6  1  0.762126  0.012778  0.750191  1
  Tm  Tm7  1  0.314024  0.657012  0.000000  1
  Tm  Tm8  1  0.669059  0.334529  0.500000  1
  Tm  Tm9  1  0.668627  0.334313  0.000000  1
  Ga  Ga10  1  0.997188  0.398894  0.751483  1
  Ga  Ga11  1  0.997188  0.598293  0.248517  1
  Ga  Ga12  1  0.403359  0.398031  0.249240  1
  Ga  Ga13  1  0.403359  0.005328  0.750760  1
  Sb  Sb14  1  0.604787  0.996313  0.249085  1
  Sb  Sb15  1  0.604787  0.608474  0.750915  1
