# generated using pymatgen
data_Pr8TmPaIr4
_symmetry_space_group_name_H-M   'P 1'
_cell_length_a   6.65874475
_cell_length_b   7.23946404
_cell_length_c   9.10806800
_cell_angle_alpha   97.05271995
_cell_angle_beta   111.44087856
_cell_angle_gamma   89.99999961
_symmetry_Int_Tables_number   1
_chemical_formula_structural   Pr8TmPaIr4
_chemical_formula_sum   'Pr8 Tm1 Pa1 Ir4'
_cell_volume   405.10485326
_cell_formula_units_Z   1
loop_
 _symmetry_equiv_pos_site_id
 _symmetry_equiv_pos_as_xyz
  1  'x, y, z'
loop_
 _atom_site_type_symbol
 _atom_site_label
 _atom_site_symmetry_multiplicity
 _atom_site_fract_x
 _atom_site_fract_y
 _atom_site_fract_z
 _atom_site_occupancy
  Pr  Pr0  1  0.976295  0.929642  0.182914  1
  Pr  Pr1  1  0.793381  0.570358  0.817086  1
  Pr  Pr2  1  0.021786  0.079409  0.815491  1
  Pr  Pr3  1  0.206295  0.420591  0.184509  1
  Pr  Pr4  1  0.648789  0.815446  0.433334  1
  Pr  Pr5  1  0.215455  0.684554  0.566666  1
  Pr  Pr6  1  0.354488  0.186139  0.573122  1
  Pr  Pr7  1  0.781365  0.313861  0.426878  1
  Tm  Tm8  1  0.566890  0.250000  0.000000  1
  Pa  Pa9  1  0.435835  0.750000  0.000000  1
  Ir  Ir10  1  0.784172  0.576826  0.196544  1
  Ir  Ir11  1  0.587629  0.923174  0.803456  1
  Ir  Ir12  1  0.216381  0.444169  0.805144  1
  Ir  Ir13  1  0.411236  0.055831  0.194856  1
