# generated using pymatgen
data_Ce2Tm10Co5Pb
_symmetry_space_group_name_H-M   'P 1'
_cell_length_a   8.20441213
_cell_length_b   8.20441145
_cell_length_c   8.14373600
_cell_angle_alpha   107.97207291
_cell_angle_beta   109.71684328
_cell_angle_gamma   111.02967619
_symmetry_Int_Tables_number   1
_chemical_formula_structural   Ce2Tm10Co5Pb
_chemical_formula_sum   'Ce2 Tm10 Co5 Pb1'
_cell_volume   420.16386324
_cell_formula_units_Z   1
loop_
 _symmetry_equiv_pos_site_id
 _symmetry_equiv_pos_as_xyz
  1  'x, y, z'
loop_
 _atom_site_type_symbol
 _atom_site_label
 _atom_site_symmetry_multiplicity
 _atom_site_fract_x
 _atom_site_fract_y
 _atom_site_fract_z
 _atom_site_occupancy
  Ce  Ce0  1  0.195695  0.812765  0.008459  1
  Ce  Ce1  1  0.804305  0.187235  0.991541  1
  Tm  Tm2  1  0.480480  0.296527  0.184888  1
  Tm  Tm3  1  0.111639  0.295592  0.815112  1
  Tm  Tm4  1  0.888361  0.704408  0.184888  1
  Tm  Tm5  1  0.519520  0.703473  0.815112  1
  Tm  Tm6  1  0.314088  0.627658  0.324351  1
  Tm  Tm7  1  0.303307  0.989738  0.675649  1
  Tm  Tm8  1  0.685912  0.372342  0.675649  1
  Tm  Tm9  1  0.696693  0.010262  0.324351  1
  Tm  Tm10  1  0.194252  0.215138  0.409391  1
  Tm  Tm11  1  0.805748  0.784862  0.590609  1
  Co  Co12  1  0.506744  0.615252  0.121997  1
  Co  Co13  1  0.493256  0.384748  0.878003  1
  Co  Co14  1  0.354472  0.991555  0.346026  1
  Co  Co15  1  0.645528  0.008445  0.653974  1
  Co  Co16  1  0.000000  0.000000  0.000000  1
  Pb  Pb17  1  0.000000  0.500000  0.500000  1
