# generated using pymatgen
data_Ho2LuTh(AlRh)4
_symmetry_space_group_name_H-M   'P 1'
_cell_length_a   4.19632900
_cell_length_b   6.93064324
_cell_length_c   8.02408730
_cell_angle_alpha   90.22906549
_cell_angle_beta   90.00000000
_cell_angle_gamma   90.00000000
_symmetry_Int_Tables_number   1
_chemical_formula_structural   Ho2LuTh(AlRh)4
_chemical_formula_sum   'Ho2 Lu1 Th1 Al4 Rh4'
_cell_volume   233.36474575
_cell_formula_units_Z   1
loop_
 _symmetry_equiv_pos_site_id
 _symmetry_equiv_pos_as_xyz
  1  'x, y, z'
loop_
 _atom_site_type_symbol
 _atom_site_label
 _atom_site_symmetry_multiplicity
 _atom_site_fract_x
 _atom_site_fract_y
 _atom_site_fract_z
 _atom_site_occupancy
  Ho  Ho0  1  0.750000  0.959135  0.680327  1
  Ho  Ho1  1  0.250000  0.040187  0.323175  1
  Lu  Lu2  1  0.750000  0.457490  0.813648  1
  Th  Th3  1  0.250000  0.538223  0.175352  1
  Al  Al4  1  0.250000  0.632428  0.565865  1
  Al  Al5  1  0.750000  0.360849  0.445399  1
  Al  Al6  1  0.750000  0.876680  0.057818  1
  Al  Al7  1  0.250000  0.132483  0.936259  1
  Rh  Rh8  1  0.250000  0.758746  0.881277  1
  Rh  Rh9  1  0.750000  0.245394  0.121771  1
  Rh  Rh10  1  0.750000  0.736391  0.375864  1
  Rh  Rh11  1  0.250000  0.261995  0.623245  1
