# generated using pymatgen
data_CeNbP7Ru12
_symmetry_space_group_name_H-M   'P 1'
_cell_length_a   9.40416300
_cell_length_b   9.40416270
_cell_length_c   3.90932200
_cell_angle_alpha   90.00000000
_cell_angle_beta   90.00000000
_cell_angle_gamma   119.99999754
_symmetry_Int_Tables_number   1
_chemical_formula_structural   CeNbP7Ru12
_chemical_formula_sum   'Ce1 Nb1 P7 Ru12'
_cell_volume   299.41418264
_cell_formula_units_Z   1
loop_
 _symmetry_equiv_pos_site_id
 _symmetry_equiv_pos_as_xyz
  1  'x, y, z'
loop_
 _atom_site_type_symbol
 _atom_site_label
 _atom_site_symmetry_multiplicity
 _atom_site_fract_x
 _atom_site_fract_y
 _atom_site_fract_z
 _atom_site_occupancy
  Ce  Ce0  1  0.333333  0.666667  0.000000  1
  Nb  Nb1  1  0.666667  0.333333  0.500000  1
  P  P2  1  0.601539  0.718457  0.500000  1
  P  P3  1  0.000000  0.000000  0.000000  1
  P  P4  1  0.281543  0.883082  0.500000  1
  P  P5  1  0.116918  0.398461  0.500000  1
  P  P6  1  0.886202  0.573723  0.000000  1
  P  P7  1  0.426277  0.312479  0.000000  1
  P  P8  1  0.687521  0.113798  0.000000  1
  Ru  Ru9  1  0.559075  0.957021  0.500000  1
  Ru  Ru10  1  0.397946  0.440925  0.500000  1
  Ru  Ru11  1  0.912212  0.122582  0.500000  1
  Ru  Ru12  1  0.210370  0.087788  0.500000  1
  Ru  Ru13  1  0.877418  0.789630  0.500000  1
  Ru  Ru14  1  0.724138  0.886873  0.000000  1
  Ru  Ru15  1  0.113127  0.837264  0.000000  1
  Ru  Ru16  1  0.162736  0.275862  0.000000  1
  Ru  Ru17  1  0.431475  0.078781  0.000000  1
  Ru  Ru18  1  0.921219  0.352696  0.000000  1
  Ru  Ru19  1  0.647304  0.568525  0.000000  1
  Ru  Ru20  1  0.042979  0.602054  0.500000  1
