# generated using pymatgen
data_DyTm3(ZrRh)4
_symmetry_space_group_name_H-M   'P 1'
_cell_length_a   4.57977600
_cell_length_b   7.05587471
_cell_length_c   8.22761046
_cell_angle_alpha   89.93871200
_cell_angle_beta   90.00000000
_cell_angle_gamma   90.00000000
_symmetry_Int_Tables_number   1
_chemical_formula_structural   DyTm3(ZrRh)4
_chemical_formula_sum   'Dy1 Tm3 Zr4 Rh4'
_cell_volume   265.86953166
_cell_formula_units_Z   1
loop_
 _symmetry_equiv_pos_site_id
 _symmetry_equiv_pos_as_xyz
  1  'x, y, z'
loop_
 _atom_site_type_symbol
 _atom_site_label
 _atom_site_symmetry_multiplicity
 _atom_site_fract_x
 _atom_site_fract_y
 _atom_site_fract_z
 _atom_site_occupancy
  Dy  Dy0  1  0.250000  0.983427  0.324173  1
  Tm  Tm1  1  0.750000  0.517751  0.824269  1
  Tm  Tm2  1  0.250000  0.481693  0.174947  1
  Tm  Tm3  1  0.750000  0.018153  0.676473  1
  Zr  Zr4  1  0.750000  0.642965  0.423707  1
  Zr  Zr5  1  0.750000  0.143547  0.074726  1
  Zr  Zr6  1  0.250000  0.357111  0.577152  1
  Zr  Zr7  1  0.250000  0.855633  0.923099  1
  Rh  Rh8  1  0.750000  0.764331  0.090769  1
  Rh  Rh9  1  0.750000  0.266533  0.409416  1
  Rh  Rh10  1  0.250000  0.234629  0.908490  1
  Rh  Rh11  1  0.250000  0.734226  0.592779  1
