# generated using pymatgen
data_InBi3O7
_symmetry_space_group_name_H-M   'P 1'
_cell_length_a   6.62832042
_cell_length_b   6.69732527
_cell_length_c   7.87412232
_cell_angle_alpha   107.15707115
_cell_angle_beta   89.21561219
_cell_angle_gamma   99.28668309
_symmetry_Int_Tables_number   1
_chemical_formula_structural   InBi3O7
_chemical_formula_sum   'In2 Bi6 O14'
_cell_volume   329.40234944
_cell_formula_units_Z   2
loop_
 _symmetry_equiv_pos_site_id
 _symmetry_equiv_pos_as_xyz
  1  'x, y, z'
loop_
 _atom_site_type_symbol
 _atom_site_label
 _atom_site_symmetry_multiplicity
 _atom_site_fract_x
 _atom_site_fract_y
 _atom_site_fract_z
 _atom_site_occupancy
  In  In0  1  0.467830  0.006190  0.255202  1
  In  In1  1  0.532170  0.993810  0.744798  1
  Bi  Bi2  1  0.000000  0.000000  0.500000  1
  Bi  Bi3  1  0.000000  0.000000  0.000000  1
  Bi  Bi4  1  0.260032  0.535065  0.884370  1
  Bi  Bi5  1  0.739968  0.464935  0.115630  1
  Bi  Bi6  1  0.727976  0.459907  0.608897  1
  Bi  Bi7  1  0.272024  0.540093  0.391103  1
  O  O8  1  0.454079  0.671649  0.184261  1
  O  O9  1  0.545921  0.328351  0.815739  1
  O  O10  1  0.303289  0.936998  0.942103  1
  O  O11  1  0.696711  0.063002  0.057897  1
  O  O12  1  0.298855  0.920631  0.517219  1
  O  O13  1  0.701145  0.079369  0.482781  1
  O  O14  1  0.529973  0.345219  0.347480  1
  O  O15  1  0.470027  0.654781  0.652520  1
  O  O16  1  0.927046  0.665580  0.952639  1
  O  O17  1  0.072954  0.334420  0.047361  1
  O  O18  1  0.091217  0.333093  0.624494  1
  O  O19  1  0.908783  0.666907  0.375506  1
  O  O20  1  0.869634  0.937111  0.734650  1
  O  O21  1  0.130366  0.062889  0.265350  1
