# generated using pymatgen
data_Rb2S7
_symmetry_space_group_name_H-M   'P 1'
_cell_length_a   6.57033762
_cell_length_b   14.15870037
_cell_length_c   6.70143253
_cell_angle_alpha   116.07104287
_cell_angle_beta   85.66346784
_cell_angle_gamma   134.47885389
_symmetry_Int_Tables_number   1
_chemical_formula_structural   Rb2S7
_chemical_formula_sum   'Rb2 S7'
_cell_volume   372.38273903
_cell_formula_units_Z   1
loop_
 _symmetry_equiv_pos_site_id
 _symmetry_equiv_pos_as_xyz
  1  'x, y, z'
loop_
 _atom_site_type_symbol
 _atom_site_label
 _atom_site_symmetry_multiplicity
 _atom_site_fract_x
 _atom_site_fract_y
 _atom_site_fract_z
 _atom_site_occupancy
  Rb  Rb0  1  0.060131  0.834880  0.616469  1
  Rb  Rb1  1  0.282782  0.628706  0.955441  1
  S  S2  1  0.678979  0.307251  0.211431  1
  S  S3  1  0.372466  0.700372  0.517385  1
  S  S4  1  0.414667  0.941951  0.136547  1
  S  S5  1  0.147244  0.472773  0.298875  1
  S  S6  1  0.629207  0.136730  0.471087  1
  S  S7  1  0.542223  0.255124  0.470765  1
  S  S8  1  0.958067  0.748556  0.049843  1
