# generated using pymatgen
data_La4Ga14PtRh
_symmetry_space_group_name_H-M   'P 1'
_cell_length_a   6.19752209
_cell_length_b   6.19277335
_cell_length_c   11.48177900
_cell_angle_alpha   74.35487131
_cell_angle_beta   74.34257861
_cell_angle_gamma   90.00000007
_symmetry_Int_Tables_number   1
_chemical_formula_structural   La4Ga14PtRh
_chemical_formula_sum   'La4 Ga14 Pt1 Rh1'
_cell_volume   407.33538795
_cell_formula_units_Z   1
loop_
 _symmetry_equiv_pos_site_id
 _symmetry_equiv_pos_as_xyz
  1  'x, y, z'
loop_
 _atom_site_type_symbol
 _atom_site_label
 _atom_site_symmetry_multiplicity
 _atom_site_fract_x
 _atom_site_fract_y
 _atom_site_fract_z
 _atom_site_occupancy
  La  La0  1  0.995881  0.995881  0.008238  1
  La  La1  1  0.496606  0.496606  0.006788  1
  La  La2  1  0.748222  0.248222  0.503559  1
  La  La3  1  0.248508  0.748508  0.502984  1
  Ga  Ga4  1  0.200857  0.200857  0.598286  1
  Ga  Ga5  1  0.810793  0.810793  0.378414  1
  Ga  Ga6  1  0.615135  0.126423  0.253422  1
  Ga  Ga7  1  0.131441  0.620153  0.253422  1
  Ga  Ga8  1  0.615135  0.620153  0.253422  1
  Ga  Ga9  1  0.131441  0.126423  0.253422  1
  Ga  Ga10  1  0.876306  0.366824  0.751011  1
  Ga  Ga11  1  0.372683  0.882163  0.751011  1
  Ga  Ga12  1  0.876306  0.882163  0.751011  1
  Ga  Ga13  1  0.372683  0.366824  0.751011  1
  Ga  Ga14  1  0.693074  0.693074  0.613854  1
  Ga  Ga15  1  0.060195  0.560195  0.879610  1
  Ga  Ga16  1  0.447656  0.947656  0.104687  1
  Ga  Ga17  1  0.943101  0.443101  0.113798  1
  Pt  Pt18  1  0.563737  0.063737  0.872526  1
  Rh  Rh19  1  0.315069  0.315069  0.369862  1
