# generated using pymatgen
data_Lu20Cd3Ag3Ir2
_symmetry_space_group_name_H-M   'P 1'
_cell_length_a   9.42324600
_cell_length_b   9.42324563
_cell_length_c   9.48011500
_cell_angle_alpha   90.00000000
_cell_angle_beta   90.00000000
_cell_angle_gamma   120.00000128
_symmetry_Int_Tables_number   1
_chemical_formula_structural   Lu20Cd3Ag3Ir2
_chemical_formula_sum   'Lu20 Cd3 Ag3 Ir2'
_cell_volume   729.02978571
_cell_formula_units_Z   1
loop_
 _symmetry_equiv_pos_site_id
 _symmetry_equiv_pos_as_xyz
  1  'x, y, z'
loop_
 _atom_site_type_symbol
 _atom_site_label
 _atom_site_symmetry_multiplicity
 _atom_site_fract_x
 _atom_site_fract_y
 _atom_site_fract_z
 _atom_site_occupancy
  Lu  Lu0  1  0.000000  0.000000  0.475331  1
  Lu  Lu1  1  0.000000  0.000000  0.024669  1
  Lu  Lu2  1  0.209452  0.790548  0.442594  1
  Lu  Lu3  1  0.209452  0.418904  0.442594  1
  Lu  Lu4  1  0.581096  0.790548  0.442594  1
  Lu  Lu5  1  0.791663  0.208337  0.557738  1
  Lu  Lu6  1  0.791663  0.583325  0.557738  1
  Lu  Lu7  1  0.416675  0.208337  0.557738  1
  Lu  Lu8  1  0.791663  0.208337  0.942262  1
  Lu  Lu9  1  0.791663  0.583325  0.942262  1
  Lu  Lu10  1  0.416675  0.208337  0.942262  1
  Lu  Lu11  1  0.209452  0.790548  0.057406  1
  Lu  Lu12  1  0.209452  0.418904  0.057406  1
  Lu  Lu13  1  0.581096  0.790548  0.057406  1
  Lu  Lu14  1  0.541047  0.458953  0.250000  1
  Lu  Lu15  1  0.541047  0.082092  0.250000  1
  Lu  Lu16  1  0.917908  0.458953  0.250000  1
  Lu  Lu17  1  0.458347  0.541653  0.750000  1
  Lu  Lu18  1  0.458347  0.916691  0.750000  1
  Lu  Lu19  1  0.083309  0.541653  0.750000  1
  Cd  Cd20  1  0.111085  0.888915  0.750000  1
  Cd  Cd21  1  0.111085  0.222169  0.750000  1
  Cd  Cd22  1  0.777831  0.888915  0.750000  1
  Ag  Ag23  1  0.876401  0.123599  0.250000  1
  Ag  Ag24  1  0.876401  0.752802  0.250000  1
  Ag  Ag25  1  0.247198  0.123599  0.250000  1
  Ir  Ir26  1  0.333333  0.666667  0.250000  1
  Ir  Ir27  1  0.666667  0.333333  0.750000  1
