# generated using pymatgen
data_Sc5Nb3Co16(SiP3)3
_symmetry_space_group_name_H-M   'P 1'
_cell_length_a   12.08315500
_cell_length_b   12.08315459
_cell_length_c   3.63501900
_cell_angle_alpha   90.00000000
_cell_angle_beta   90.00000000
_cell_angle_gamma   119.99999839
_symmetry_Int_Tables_number   1
_chemical_formula_structural   Sc5Nb3Co16(SiP3)3
_chemical_formula_sum   'Sc5 Nb3 Co16 Si3 P9'
_cell_volume   459.61903040
_cell_formula_units_Z   1
loop_
 _symmetry_equiv_pos_site_id
 _symmetry_equiv_pos_as_xyz
  1  'x, y, z'
loop_
 _atom_site_type_symbol
 _atom_site_label
 _atom_site_symmetry_multiplicity
 _atom_site_fract_x
 _atom_site_fract_y
 _atom_site_fract_z
 _atom_site_occupancy
  Sc  Sc0  1  0.817488  0.998603  0.500000  1
  Sc  Sc1  1  0.001397  0.818885  0.500000  1
  Sc  Sc2  1  0.181115  0.182512  0.500000  1
  Sc  Sc3  1  0.333333  0.666667  0.000000  1
  Sc  Sc4  1  0.666667  0.333333  0.000000  1
  Nb  Nb5  1  0.445456  0.002828  0.000000  1
  Nb  Nb6  1  0.997172  0.442628  0.000000  1
  Nb  Nb7  1  0.557372  0.554544  0.000000  1
  Co  Co8  1  0.278253  0.004017  0.500000  1
  Co  Co9  1  0.995983  0.274235  0.500000  1
  Co  Co10  1  0.725765  0.721747  0.500000  1
  Co  Co11  1  0.632010  0.806670  0.000000  1
  Co  Co12  1  0.193330  0.825340  0.000000  1
  Co  Co13  1  0.174660  0.367990  0.000000  1
  Co  Co14  1  0.372917  0.179342  0.000000  1
  Co  Co15  1  0.806425  0.627083  0.000000  1
  Co  Co16  1  0.820658  0.193575  0.000000  1
  Co  Co17  1  0.527831  0.882033  0.500000  1
  Co  Co18  1  0.117967  0.645798  0.500000  1
  Co  Co19  1  0.354202  0.472169  0.500000  1
  Co  Co20  1  0.484657  0.354307  0.500000  1
  Co  Co21  1  0.869649  0.515343  0.500000  1
  Co  Co22  1  0.645693  0.130351  0.500000  1
  Co  Co23  1  0.000000  0.000000  0.000000  1
  Si  Si24  1  0.516417  0.688514  0.500000  1
  Si  Si25  1  0.311486  0.827903  0.500000  1
  Si  Si26  1  0.172097  0.483583  0.500000  1
  P  P27  1  0.176868  0.001600  0.000000  1
  P  P28  1  0.998400  0.175269  0.000000  1
  P  P29  1  0.824731  0.823132  0.000000  1
  P  P30  1  0.482677  0.171851  0.500000  1
  P  P31  1  0.689173  0.517323  0.500000  1
  P  P32  1  0.828149  0.310827  0.500000  1
  P  P33  1  0.649691  0.999281  0.000000  1
  P  P34  1  0.000719  0.650410  0.000000  1
  P  P35  1  0.349590  0.350309  0.000000  1
