# generated using pymatgen
data_Li6Y2VTc11Ge16
_symmetry_space_group_name_H-M   'P 1'
_cell_length_a   6.64338245
_cell_length_b   6.83033366
_cell_length_c   12.61803662
_cell_angle_alpha   89.61241812
_cell_angle_beta   90.00765980
_cell_angle_gamma   90.19504208
_symmetry_Int_Tables_number   1
_chemical_formula_structural   Li6Y2VTc11Ge16
_chemical_formula_sum   'Li6 Y2 V1 Tc11 Ge16'
_cell_volume   572.54615455
_cell_formula_units_Z   1
loop_
 _symmetry_equiv_pos_site_id
 _symmetry_equiv_pos_as_xyz
  1  'x, y, z'
loop_
 _atom_site_type_symbol
 _atom_site_label
 _atom_site_symmetry_multiplicity
 _atom_site_fract_x
 _atom_site_fract_y
 _atom_site_fract_z
 _atom_site_occupancy
  Li  Li0  1  0.028460  0.171685  0.081904  1
  Li  Li1  1  0.529508  0.325899  0.418813  1
  Li  Li2  1  0.468985  0.678179  0.911621  1
  Li  Li3  1  0.968176  0.823744  0.588248  1
  Li  Li4  1  0.970855  0.829311  0.912995  1
  Li  Li5  1  0.471873  0.671777  0.586937  1
  Y  Y6  1  0.507954  0.331038  0.080116  1
  Y  Y7  1  0.009985  0.167042  0.420273  1
  V  V8  1  0.353010  0.017407  0.752836  1
  Tc  Tc9  1  0.668326  0.000032  0.248346  1
  Tc  Tc10  1  0.168272  0.499964  0.251606  1
  Tc  Tc11  1  0.842567  0.495619  0.747711  1
  Tc  Tc12  1  0.823536  0.652926  0.127520  1
  Tc  Tc13  1  0.323636  0.846916  0.371704  1
  Tc  Tc14  1  0.671859  0.153328  0.868296  1
  Tc  Tc15  1  0.171502  0.342914  0.630238  1
  Tc  Tc16  1  0.176996  0.339747  0.871160  1
  Tc  Tc17  1  0.679495  0.154990  0.628771  1
  Tc  Tc18  1  0.332419  0.841579  0.129066  1
  Tc  Tc19  1  0.832735  0.658367  0.371556  1
  Ge  Ge20  1  0.820379  0.341294  0.245210  1
  Ge  Ge21  1  0.320644  0.159068  0.255347  1
  Ge  Ge22  1  0.685741  0.832525  0.749597  1
  Ge  Ge23  1  0.186977  0.674118  0.749986  1
  Ge  Ge24  1  0.026469  0.878836  0.243087  1
  Ge  Ge25  1  0.527242  0.621189  0.256737  1
  Ge  Ge26  1  0.477422  0.394544  0.748192  1
  Ge  Ge27  1  0.980653  0.103838  0.751255  1
  Ge  Ge28  1  0.829985  0.466639  0.945333  1
  Ge  Ge29  1  0.329980  0.029863  0.556287  1
  Ge  Ge30  1  0.678700  0.950364  0.042027  1
  Ge  Ge31  1  0.180785  0.547908  0.457968  1
  Ge  Ge32  1  0.159686  0.548254  0.043921  1
  Ge  Ge33  1  0.659138  0.950783  0.455830  1
  Ge  Ge34  1  0.317385  0.024709  0.950877  1
  Ge  Ge35  1  0.818669  0.473608  0.548628  1
