# generated using pymatgen
data_Sm2Fe7CoNi4P7
_symmetry_space_group_name_H-M   'P 1'
_cell_length_a   9.05178084
_cell_length_b   9.07573254
_cell_length_c   3.67253600
_cell_angle_alpha   90.00000000
_cell_angle_beta   90.00000000
_cell_angle_gamma   119.86617538
_symmetry_Int_Tables_number   1
_chemical_formula_structural   Sm2Fe7CoNi4P7
_chemical_formula_sum   'Sm2 Fe7 Co1 Ni4 P7'
_cell_volume   261.63538676
_cell_formula_units_Z   1
loop_
 _symmetry_equiv_pos_site_id
 _symmetry_equiv_pos_as_xyz
  1  'x, y, z'
loop_
 _atom_site_type_symbol
 _atom_site_label
 _atom_site_symmetry_multiplicity
 _atom_site_fract_x
 _atom_site_fract_y
 _atom_site_fract_z
 _atom_site_occupancy
  Sm  Sm0  1  0.333345  0.664951  0.000000  1
  Sm  Sm1  1  0.666442  0.334249  0.500000  1
  Fe  Fe2  1  0.154889  0.880545  0.000000  1
  Fe  Fe3  1  0.117855  0.272397  0.000000  1
  Fe  Fe4  1  0.730253  0.848427  0.000000  1
  Fe  Fe5  1  0.567375  0.615504  0.500000  1
  Fe  Fe6  1  0.218675  0.122529  0.500000  1
  Fe  Fe7  1  0.882704  0.096010  0.500000  1
  Fe  Fe8  1  0.904579  0.785946  0.500000  1
  Co  Co9  1  0.046050  0.432367  0.500000  1
  Ni  Ni10  1  0.429641  0.370389  0.000000  1
  Ni  Ni11  1  0.627796  0.060266  0.000000  1
  Ni  Ni12  1  0.937021  0.568251  0.000000  1
  Ni  Ni13  1  0.385951  0.950310  0.500000  1
  P  P14  1  0.402346  0.109079  0.000000  1
  P  P15  1  0.893194  0.297647  0.000000  1
  P  P16  1  0.698636  0.595484  0.000000  1
  P  P17  1  0.108975  0.711461  0.500000  1
  P  P18  1  0.285609  0.399634  0.500000  1
  P  P19  1  0.605895  0.883498  0.500000  1
  P  P20  1  0.002767  0.001054  0.000000  1
