# generated using pymatgen
data_Tb7ErTi4(Ge2Mo)8
_symmetry_space_group_name_H-M   'P 1'
_cell_length_a   6.90979704
_cell_length_b   7.09589912
_cell_length_c   13.34938818
_cell_angle_alpha   90.01788334
_cell_angle_beta   89.99344900
_cell_angle_gamma   90.01115240
_symmetry_Int_Tables_number   1
_chemical_formula_structural   Tb7ErTi4(Ge2Mo)8
_chemical_formula_sum   'Tb7 Er1 Ti4 Ge16 Mo8'
_cell_volume   654.53677728
_cell_formula_units_Z   1
loop_
 _symmetry_equiv_pos_site_id
 _symmetry_equiv_pos_as_xyz
  1  'x, y, z'
loop_
 _atom_site_type_symbol
 _atom_site_label
 _atom_site_symmetry_multiplicity
 _atom_site_fract_x
 _atom_site_fract_y
 _atom_site_fract_z
 _atom_site_occupancy
  Tb  Tb0  1  0.504332  0.325741  0.094448  1
  Tb  Tb1  1  0.495773  0.674400  0.594262  1
  Tb  Tb2  1  0.995693  0.825728  0.905669  1
  Tb  Tb3  1  0.993502  0.830286  0.593791  1
  Tb  Tb4  1  0.493483  0.669799  0.906071  1
  Tb  Tb5  1  0.506457  0.330107  0.406055  1
  Tb  Tb6  1  0.006495  0.169852  0.093885  1
  Er  Er7  1  0.004481  0.174671  0.405431  1
  Ti  Ti8  1  0.159624  0.333859  0.627708  1
  Ti  Ti9  1  0.659768  0.165990  0.872116  1
  Ti  Ti10  1  0.840229  0.665844  0.127992  1
  Ti  Ti11  1  0.340022  0.834213  0.372232  1
  Ge  Ge12  1  0.328584  0.044973  0.544718  1
  Ge  Ge13  1  0.829385  0.455202  0.954967  1
  Ge  Ge14  1  0.670698  0.955015  0.045143  1
  Ge  Ge15  1  0.170080  0.543632  0.454754  1
  Ge  Ge16  1  0.172362  0.544312  0.044223  1
  Ge  Ge17  1  0.673954  0.956563  0.455564  1
  Ge  Ge18  1  0.827745  0.455156  0.543742  1
  Ge  Ge19  1  0.327471  0.044318  0.955827  1
  Ge  Ge20  1  0.809492  0.363988  0.249372  1
  Ge  Ge21  1  0.307926  0.135396  0.251611  1
  Ge  Ge22  1  0.691343  0.864866  0.751217  1
  Ge  Ge23  1  0.191316  0.635220  0.748761  1
  Ge  Ge24  1  0.035900  0.871143  0.251808  1
  Ge  Ge25  1  0.536279  0.629453  0.248461  1
  Ge  Ge26  1  0.463844  0.370560  0.748448  1
  Ge  Ge27  1  0.963827  0.129424  0.751575  1
  Mo  Mo28  1  0.334102  0.836077  0.125039  1
  Mo  Mo29  1  0.834210  0.664070  0.375098  1
  Mo  Mo30  1  0.665818  0.164084  0.624814  1
  Mo  Mo31  1  0.165762  0.335953  0.875085  1
  Mo  Mo32  1  0.333196  0.011620  0.750270  1
  Mo  Mo33  1  0.666968  0.988604  0.250518  1
  Mo  Mo34  1  0.166626  0.511546  0.249716  1
  Mo  Mo35  1  0.833252  0.488334  0.749609  1
