# generated using pymatgen
data_Mg3AsRh4
_symmetry_space_group_name_H-M   'P 1'
_cell_length_a   7.53755048
_cell_length_b   7.53755044
_cell_length_c   7.53755103
_cell_angle_alpha   33.84689426
_cell_angle_beta   33.84689745
_cell_angle_gamma   33.84689511
_symmetry_Int_Tables_number   1
_chemical_formula_structural   Mg3AsRh4
_chemical_formula_sum   'Mg3 As1 Rh4'
_cell_volume   118.38961228
_cell_formula_units_Z   1
loop_
 _symmetry_equiv_pos_site_id
 _symmetry_equiv_pos_as_xyz
  1  'x, y, z'
loop_
 _atom_site_type_symbol
 _atom_site_label
 _atom_site_symmetry_multiplicity
 _atom_site_fract_x
 _atom_site_fract_y
 _atom_site_fract_z
 _atom_site_occupancy
  Mg  Mg0  1  0.245047  0.245047  0.245047  1
  Mg  Mg1  1  0.754953  0.754953  0.754953  1
  Mg  Mg2  1  0.500000  0.500000  0.500000  1
  As  As3  1  0.000000  0.000000  0.000000  1
  Rh  Rh4  1  0.629978  0.629978  0.629978  1
  Rh  Rh5  1  0.118182  0.118182  0.118182  1
  Rh  Rh6  1  0.881818  0.881818  0.881818  1
  Rh  Rh7  1  0.370022  0.370022  0.370022  1
