# generated using pymatgen
data_Y4Zn8Cd3In
_symmetry_space_group_name_H-M   'P 1'
_cell_length_a   4.46557200
_cell_length_b   7.21351139
_cell_length_c   10.10891093
_cell_angle_alpha   90.02948792
_cell_angle_beta   90.00000000
_cell_angle_gamma   90.00000000
_symmetry_Int_Tables_number   1
_chemical_formula_structural   Y4Zn8Cd3In
_chemical_formula_sum   'Y4 Zn8 Cd3 In1'
_cell_volume   325.63278998
_cell_formula_units_Z   1
loop_
 _symmetry_equiv_pos_site_id
 _symmetry_equiv_pos_as_xyz
  1  'x, y, z'
loop_
 _atom_site_type_symbol
 _atom_site_label
 _atom_site_symmetry_multiplicity
 _atom_site_fract_x
 _atom_site_fract_y
 _atom_site_fract_z
 _atom_site_occupancy
  Y  Y0  1  0.250000  0.305778  0.674068  1
  Y  Y1  1  0.750000  0.693173  0.323916  1
  Y  Y2  1  0.250000  0.805397  0.827880  1
  Y  Y3  1  0.750000  0.194643  0.171619  1
  Zn  Zn4  1  0.750000  0.313990  0.462225  1
  Zn  Zn5  1  0.250000  0.686385  0.536484  1
  Zn  Zn6  1  0.750000  0.811805  0.037317  1
  Zn  Zn7  1  0.250000  0.188592  0.963087  1
  Zn  Zn8  1  0.750000  0.585060  0.645635  1
  Zn  Zn9  1  0.250000  0.412558  0.354714  1
  Zn  Zn10  1  0.750000  0.089496  0.857584  1
  Zn  Zn11  1  0.250000  0.910781  0.145833  1
  Cd  Cd12  1  0.250000  0.530481  0.097974  1
  Cd  Cd13  1  0.750000  0.469415  0.902353  1
  Cd  Cd14  1  0.250000  0.033095  0.400286  1
  In  In15  1  0.750000  0.969348  0.599028  1
