# generated using pymatgen
data_Cs2Nd10Ru2Br17
_symmetry_space_group_name_H-M   'P 1'
_cell_length_a   9.61002837
_cell_length_b   11.24044883
_cell_length_c   11.24045733
_cell_angle_alpha   107.67447808
_cell_angle_beta   93.69626233
_cell_angle_gamma   93.69532740
_symmetry_Int_Tables_number   1
_chemical_formula_structural   Cs2Nd10Ru2Br17
_chemical_formula_sum   'Cs2 Nd10 Ru2 Br17'
_cell_volume   1149.96819150
_cell_formula_units_Z   1
loop_
 _symmetry_equiv_pos_site_id
 _symmetry_equiv_pos_as_xyz
  1  'x, y, z'
loop_
 _atom_site_type_symbol
 _atom_site_label
 _atom_site_symmetry_multiplicity
 _atom_site_fract_x
 _atom_site_fract_y
 _atom_site_fract_z
 _atom_site_occupancy
  Cs  Cs0  1  0.999481  0.820839  0.178591  1
  Cs  Cs1  1  0.999487  0.178575  0.820850  1
  Nd  Nd2  1  0.437265  0.164721  0.164724  1
  Nd  Nd3  1  0.573987  0.509550  0.206320  1
  Nd  Nd4  1  0.829049  0.290261  0.290264  1
  Nd  Nd5  1  0.308066  0.437999  0.438000  1
  Nd  Nd6  1  0.425799  0.801423  0.485375  1
  Nd  Nd7  1  0.574012  0.206341  0.509570  1
  Nd  Nd8  1  0.690334  0.568281  0.568273  1
  Nd  Nd9  1  0.176864  0.707678  0.707688  1
  Nd  Nd10  1  0.425788  0.485352  0.801406  1
  Nd  Nd11  1  0.561097  0.831923  0.831912  1
  Ru  Ru12  1  0.570314  0.359267  0.359263  1
  Ru  Ru13  1  0.430782  0.640776  0.640784  1
  Br  Br14  1  0.578899  0.682719  0.019918  1
  Br  Br15  1  0.709573  0.067508  0.067509  1
  Br  Br16  1  0.854053  0.450308  0.122453  1
  Br  Br17  1  0.133359  0.208438  0.208435  1
  Br  Br18  1  0.284114  0.603986  0.254392  1
  Br  Br19  1  0.421335  0.982430  0.313876  1
  Br  Br20  1  0.715250  0.745830  0.396620  1
  Br  Br21  1  0.854066  0.122479  0.450305  1
  Br  Br22  1  0.000069  0.500498  0.500502  1
  Br  Br23  1  0.145394  0.877976  0.548161  1
  Br  Br24  1  0.284120  0.254402  0.603992  1
  Br  Br25  1  0.578905  0.019909  0.682702  1
  Br  Br26  1  0.715269  0.396635  0.745831  1
  Br  Br27  1  0.866391  0.790767  0.790773  1
  Br  Br28  1  0.145406  0.548150  0.877956  1
  Br  Br29  1  0.290154  0.931126  0.931127  1
  Br  Br30  1  0.421321  0.313852  0.982430  1
