# generated using pymatgen
data_Ti13CrGa9Rh7
_symmetry_space_group_name_H-M   'P 1'
_cell_length_a   8.70143479
_cell_length_b   8.70143525
_cell_length_c   8.70143500
_cell_angle_alpha   59.85249011
_cell_angle_beta   59.85249599
_cell_angle_gamma   59.85250284
_symmetry_Int_Tables_number   1
_chemical_formula_structural   Ti13CrGa9Rh7
_chemical_formula_sum   'Ti13 Cr1 Ga9 Rh7'
_cell_volume   464.30297172
_cell_formula_units_Z   1
loop_
 _symmetry_equiv_pos_site_id
 _symmetry_equiv_pos_as_xyz
  1  'x, y, z'
loop_
 _atom_site_type_symbol
 _atom_site_label
 _atom_site_symmetry_multiplicity
 _atom_site_fract_x
 _atom_site_fract_y
 _atom_site_fract_z
 _atom_site_occupancy
  Ti  Ti0  1  0.210868  0.210868  0.789068  1
  Ti  Ti1  1  0.789068  0.210868  0.210868  1
  Ti  Ti2  1  0.210868  0.789068  0.210868  1
  Ti  Ti3  1  0.803608  0.803608  0.178204  1
  Ti  Ti4  1  0.178204  0.803608  0.803608  1
  Ti  Ti5  1  0.803608  0.178204  0.803608  1
  Ti  Ti6  1  0.376416  0.376416  0.376416  1
  Ti  Ti7  1  0.378202  0.870558  0.378202  1
  Ti  Ti8  1  0.870558  0.378202  0.378202  1
  Ti  Ti9  1  0.378202  0.378202  0.870558  1
  Ti  Ti10  1  0.845281  0.466406  0.845281  1
  Ti  Ti11  1  0.466406  0.845281  0.845281  1
  Ti  Ti12  1  0.845281  0.845281  0.466406  1
  Cr  Cr13  1  0.004815  0.004815  0.004815  1
  Ga  Ga14  1  0.147011  0.147011  0.147011  1
  Ga  Ga15  1  0.152390  0.548189  0.152390  1
  Ga  Ga16  1  0.548189  0.152390  0.152390  1
  Ga  Ga17  1  0.152390  0.152390  0.548189  1
  Ga  Ga18  1  0.619614  0.619614  0.619614  1
  Ga  Ga19  1  0.618356  0.144277  0.618356  1
  Ga  Ga20  1  0.144277  0.618356  0.618356  1
  Ga  Ga21  1  0.618356  0.618356  0.144277  1
  Ga  Ga22  1  0.830917  0.830917  0.830917  1
  Rh  Rh23  1  0.004388  0.004388  0.496311  1
  Rh  Rh24  1  0.496311  0.004388  0.004388  1
  Rh  Rh25  1  0.004388  0.496311  0.004388  1
  Rh  Rh26  1  0.500731  0.500731  0.000279  1
  Rh  Rh27  1  0.000279  0.500731  0.500731  1
  Rh  Rh28  1  0.500731  0.000279  0.500731  1
  Rh  Rh29  1  0.500287  0.500287  0.500287  1
