# generated using pymatgen
data_YHo5Al16(SiOs)8
_symmetry_space_group_name_H-M   'P 1'
_cell_length_a   8.69319901
_cell_length_b   8.69340374
_cell_length_c   9.41977500
_cell_angle_alpha   90.00000000
_cell_angle_beta   90.00000000
_cell_angle_gamma   120.09971363
_symmetry_Int_Tables_number   1
_chemical_formula_structural   YHo5Al16(SiOs)8
_chemical_formula_sum   'Y1 Ho5 Al16 Si8 Os8'
_cell_volume   615.89032863
_cell_formula_units_Z   1
loop_
 _symmetry_equiv_pos_site_id
 _symmetry_equiv_pos_as_xyz
  1  'x, y, z'
loop_
 _atom_site_type_symbol
 _atom_site_label
 _atom_site_symmetry_multiplicity
 _atom_site_fract_x
 _atom_site_fract_y
 _atom_site_fract_z
 _atom_site_occupancy
  Y  Y0  1  0.192088  0.387358  0.250000  1
  Ho  Ho1  1  0.807709  0.612105  0.750000  1
  Ho  Ho2  1  0.612384  0.807964  0.250000  1
  Ho  Ho3  1  0.387914  0.192339  0.750000  1
  Ho  Ho4  1  0.194775  0.805364  0.250000  1
  Ho  Ho5  1  0.805203  0.194861  0.750000  1
  Al  Al6  1  0.165430  0.329093  0.578479  1
  Al  Al7  1  0.834541  0.670943  0.421578  1
  Al  Al8  1  0.670867  0.834506  0.578300  1
  Al  Al9  1  0.834541  0.670943  0.078422  1
  Al  Al10  1  0.329108  0.165333  0.421677  1
  Al  Al11  1  0.165430  0.329093  0.921521  1
  Al  Al12  1  0.164475  0.835479  0.578255  1
  Al  Al13  1  0.329108  0.165333  0.078323  1
  Al  Al14  1  0.835399  0.164340  0.421767  1
  Al  Al15  1  0.670867  0.834506  0.921700  1
  Al  Al16  1  0.835399  0.164340  0.078233  1
  Al  Al17  1  0.164475  0.835479  0.921745  1
  Al  Al18  1  0.565050  0.435259  0.250000  1
  Al  Al19  1  0.435056  0.564967  0.750000  1
  Al  Al20  1  0.999803  0.999530  0.250000  1
  Al  Al21  1  0.999920  0.000035  0.750000  1
  Si  Si22  1  0.335173  0.665324  0.040032  1
  Si  Si23  1  0.665135  0.334904  0.959659  1
  Si  Si24  1  0.665135  0.334904  0.540341  1
  Si  Si25  1  0.335173  0.665324  0.459968  1
  Si  Si26  1  0.564041  0.124062  0.250000  1
  Si  Si27  1  0.436048  0.875814  0.750000  1
  Si  Si28  1  0.875635  0.436067  0.250000  1
  Si  Si29  1  0.124181  0.563987  0.750000  1
  Os  Os30  1  0.500057  0.000145  0.999898  1
  Os  Os31  1  0.999771  0.499981  0.999819  1
  Os  Os32  1  0.500057  0.000145  0.500102  1
  Os  Os33  1  0.500171  0.500110  0.999735  1
  Os  Os34  1  0.999771  0.499981  0.500181  1
  Os  Os35  1  0.500171  0.500110  0.500265  1
  Os  Os36  1  0.999970  0.999985  0.999957  1
  Os  Os37  1  0.999970  0.999985  0.500043  1
