# generated using pymatgen
data_PuRh3F24
_symmetry_space_group_name_H-M   'P 1'
_cell_length_a   5.19860613
_cell_length_b   8.93021900
_cell_length_c   9.94800800
_cell_angle_alpha   90.00000000
_cell_angle_beta   89.92776590
_cell_angle_gamma   90.00000000
_symmetry_Int_Tables_number   1
_chemical_formula_structural   PuRh3F24
_chemical_formula_sum   'Pu1 Rh3 F24'
_cell_volume   461.83283291
_cell_formula_units_Z   1
loop_
 _symmetry_equiv_pos_site_id
 _symmetry_equiv_pos_as_xyz
  1  'x, y, z'
loop_
 _atom_site_type_symbol
 _atom_site_label
 _atom_site_symmetry_multiplicity
 _atom_site_fract_x
 _atom_site_fract_y
 _atom_site_fract_z
 _atom_site_occupancy
  Pu  Pu0  1  0.597201  0.750000  0.627109  1
  Rh  Rh1  1  0.095937  0.250000  0.873360  1
  Rh  Rh2  1  0.403099  0.250000  0.371278  1
  Rh  Rh3  1  0.904198  0.750000  0.127987  1
  F  F4  1  0.556767  0.398383  0.265570  1
  F  F5  1  0.058021  0.601765  0.233772  1
  F  F6  1  0.433787  0.906614  0.740134  1
  F  F7  1  0.941861  0.101597  0.767037  1
  F  F8  1  0.190267  0.750000  0.013420  1
  F  F9  1  0.688900  0.250000  0.485665  1
  F  F10  1  0.809252  0.250000  0.987185  1
  F  F11  1  0.290034  0.750000  0.506449  1
  F  F12  1  0.617718  0.750000  0.242888  1
  F  F13  1  0.115344  0.250000  0.258263  1
  F  F14  1  0.382382  0.250000  0.758756  1
  F  F15  1  0.904409  0.750000  0.747939  1
  F  F16  1  0.748582  0.897884  0.022048  1
  F  F17  1  0.249542  0.101402  0.477895  1
  F  F18  1  0.250629  0.398292  0.978701  1
  F  F19  1  0.761442  0.593022  0.514695  1
  F  F20  1  0.250629  0.101708  0.978701  1
  F  F21  1  0.761442  0.906978  0.514695  1
  F  F22  1  0.748582  0.602116  0.022048  1
  F  F23  1  0.249542  0.398598  0.477895  1
  F  F24  1  0.058021  0.898235  0.233772  1
  F  F25  1  0.556767  0.101617  0.265570  1
  F  F26  1  0.941861  0.398403  0.767037  1
  F  F27  1  0.433787  0.593386  0.740134  1
