# generated using pymatgen
data_Nd2Dy3YTa2O14
_symmetry_space_group_name_H-M   'P 1'
_cell_length_a   6.51443373
_cell_length_b   6.51454327
_cell_length_c   7.61266800
_cell_angle_alpha   90.00000000
_cell_angle_beta   90.00000000
_cell_angle_gamma   109.40217882
_symmetry_Int_Tables_number   1
_chemical_formula_structural   Nd2Dy3YTa2O14
_chemical_formula_sum   'Nd2 Dy3 Y1 Ta2 O14'
_cell_volume   304.72349612
_cell_formula_units_Z   1
loop_
 _symmetry_equiv_pos_site_id
 _symmetry_equiv_pos_as_xyz
  1  'x, y, z'
loop_
 _atom_site_type_symbol
 _atom_site_label
 _atom_site_symmetry_multiplicity
 _atom_site_fract_x
 _atom_site_fract_y
 _atom_site_fract_z
 _atom_site_occupancy
  Nd  Nd0  1  0.500021  0.500000  0.499956  1
  Nd  Nd1  1  0.500021  0.500000  0.000044  1
  Dy  Dy2  1  0.533245  0.000720  0.750000  1
  Dy  Dy3  1  0.000703  0.533244  0.250000  1
  Dy  Dy4  1  0.466782  0.999285  0.250000  1
  Y  Y5  1  0.999546  0.466933  0.750000  1
  Ta  Ta6  1  0.999962  0.999858  0.500000  1
  Ta  Ta7  1  0.999962  0.999858  0.000000  1
  O  O8  1  0.679738  0.930804  0.468157  1
  O  O9  1  0.930716  0.680125  0.531493  1
  O  O10  1  0.679738  0.930804  0.031843  1
  O  O11  1  0.930716  0.680125  0.968507  1
  O  O12  1  0.320278  0.069198  0.531871  1
  O  O13  1  0.069261  0.320140  0.467947  1
  O  O14  1  0.320278  0.069198  0.968129  1
  O  O15  1  0.069261  0.320140  0.032053  1
  O  O16  1  0.936883  0.062795  0.750000  1
  O  O17  1  0.063096  0.936940  0.250000  1
  O  O18  1  0.364789  0.635455  0.750000  1
  O  O19  1  0.635413  0.364583  0.250000  1
  O  O20  1  0.642244  0.357140  0.750000  1
  O  O21  1  0.357344  0.642657  0.250000  1
