# generated using pymatgen
data_Tb3Pr3Dy10(CdPt)4
_symmetry_space_group_name_H-M   'P 1'
_cell_length_a   9.78316263
_cell_length_b   9.72047402
_cell_length_c   9.73568605
_cell_angle_alpha   60.37490559
_cell_angle_beta   60.03296985
_cell_angle_gamma   59.88956141
_symmetry_Int_Tables_number   1
_chemical_formula_structural   Tb3Pr3Dy10(CdPt)4
_chemical_formula_sum   'Tb3 Pr3 Dy10 Cd4 Pt4'
_cell_volume   656.10958535
_cell_formula_units_Z   1
loop_
 _symmetry_equiv_pos_site_id
 _symmetry_equiv_pos_as_xyz
  1  'x, y, z'
loop_
 _atom_site_type_symbol
 _atom_site_label
 _atom_site_symmetry_multiplicity
 _atom_site_fract_x
 _atom_site_fract_y
 _atom_site_fract_z
 _atom_site_occupancy
  Tb  Tb0  1  0.938905  0.561840  0.558785  1
  Tb  Tb1  1  0.558785  0.940470  0.938905  1
  Tb  Tb2  1  0.561840  0.938160  0.561840  1
  Pr  Pr3  1  0.936576  0.563424  0.936576  1
  Pr  Pr4  1  0.563435  0.567154  0.934437  1
  Pr  Pr5  1  0.934437  0.934974  0.563435  1
  Dy  Dy6  1  0.350719  0.349399  0.351476  1
  Dy  Dy7  1  0.352862  0.350379  0.945898  1
  Dy  Dy8  1  0.351476  0.948406  0.350719  1
  Dy  Dy9  1  0.945898  0.350862  0.352862  1
  Dy  Dy10  1  0.810655  0.187786  0.191059  1
  Dy  Dy11  1  0.191059  0.810499  0.810655  1
  Dy  Dy12  1  0.189866  0.810134  0.189866  1
  Dy  Dy13  1  0.810892  0.189108  0.810892  1
  Dy  Dy14  1  0.189950  0.188803  0.810811  1
  Dy  Dy15  1  0.810811  0.810436  0.189950  1
  Cd  Cd16  1  0.582303  0.581789  0.578354  1
  Cd  Cd17  1  0.579374  0.582103  0.259680  1
  Cd  Cd18  1  0.578354  0.257553  0.582303  1
  Cd  Cd19  1  0.259680  0.578841  0.579374  1
  Pt  Pt20  1  0.144946  0.142491  0.141617  1
  Pt  Pt21  1  0.143441  0.143782  0.572114  1
  Pt  Pt22  1  0.141617  0.570944  0.144946  1
  Pt  Pt23  1  0.572114  0.140661  0.143441  1
