# generated using pymatgen
data_Sm2ThSn7
_symmetry_space_group_name_H-M   'P 1'
_cell_length_a   12.83871400
_cell_length_b   12.83871392
_cell_length_c   4.59365900
_cell_angle_alpha   90.00000000
_cell_angle_beta   90.00000000
_cell_angle_gamma   158.81161340
_symmetry_Int_Tables_number   1
_chemical_formula_structural   Sm2ThSn7
_chemical_formula_sum   'Sm2 Th1 Sn7'
_cell_volume   273.67347796
_cell_formula_units_Z   1
loop_
 _symmetry_equiv_pos_site_id
 _symmetry_equiv_pos_as_xyz
  1  'x, y, z'
loop_
 _atom_site_type_symbol
 _atom_site_label
 _atom_site_symmetry_multiplicity
 _atom_site_fract_x
 _atom_site_fract_y
 _atom_site_fract_z
 _atom_site_occupancy
  Sm  Sm0  1  0.815357  0.184643  0.000000  1
  Sm  Sm1  1  0.184643  0.815357  0.000000  1
  Th  Th2  1  0.000000  0.000000  0.000000  1
  Sn  Sn3  1  0.709896  0.290104  0.500000  1
  Sn  Sn4  1  0.290104  0.709896  0.500000  1
  Sn  Sn5  1  0.904204  0.095796  0.500000  1
  Sn  Sn6  1  0.500000  0.500000  0.500000  1
  Sn  Sn7  1  0.403663  0.596337  0.000000  1
  Sn  Sn8  1  0.596337  0.403663  0.000000  1
  Sn  Sn9  1  0.095796  0.904204  0.500000  1
