# generated using pymatgen
data_Ho4B16Mo2IrRh
_symmetry_space_group_name_H-M   'P 1'
_cell_length_a   3.58713200
_cell_length_b   5.99246649
_cell_length_c   11.60703457
_cell_angle_alpha   89.68620022
_cell_angle_beta   90.00000000
_cell_angle_gamma   90.00000000
_symmetry_Int_Tables_number   1
_chemical_formula_structural   Ho4B16Mo2IrRh
_chemical_formula_sum   'Ho4 B16 Mo2 Ir1 Rh1'
_cell_volume   249.49838396
_cell_formula_units_Z   1
loop_
 _symmetry_equiv_pos_site_id
 _symmetry_equiv_pos_as_xyz
  1  'x, y, z'
loop_
 _atom_site_type_symbol
 _atom_site_label
 _atom_site_symmetry_multiplicity
 _atom_site_fract_x
 _atom_site_fract_y
 _atom_site_fract_z
 _atom_site_occupancy
  Ho  Ho0  1  0.000000  0.627339  0.349558  1
  Ho  Ho1  1  0.000000  0.372596  0.650177  1
  Ho  Ho2  1  0.000000  0.129554  0.148356  1
  Ho  Ho3  1  0.000000  0.870266  0.851557  1
  B  B4  1  0.500000  0.788623  0.185671  1
  B  B5  1  0.500000  0.211085  0.814208  1
  B  B6  1  0.500000  0.290277  0.311979  1
  B  B7  1  0.500000  0.709769  0.687869  1
  B  B8  1  0.500000  0.864463  0.030901  1
  B  B9  1  0.500000  0.135250  0.969407  1
  B  B10  1  0.500000  0.367534  0.467781  1
  B  B11  1  0.500000  0.632435  0.532144  1
  B  B12  1  0.500000  0.885162  0.453076  1
  B  B13  1  0.500000  0.114707  0.546907  1
  B  B14  1  0.500000  0.386511  0.046772  1
  B  B15  1  0.500000  0.613029  0.952789  1
  B  B16  1  0.500000  0.975477  0.305521  1
  B  B17  1  0.500000  0.024112  0.694361  1
  B  B18  1  0.500000  0.475768  0.191585  1
  B  B19  1  0.500000  0.524773  0.808560  1
  Mo  Mo20  1  0.000000  0.128617  0.414278  1
  Mo  Mo21  1  0.000000  0.871434  0.586137  1
  Ir  Ir22  1  0.000000  0.357275  0.906226  1
  Rh  Rh23  1  0.000000  0.643943  0.094179  1
