# generated using pymatgen
data_In13Sn5
_symmetry_space_group_name_H-M   'P 1'
_cell_length_a   17.97089682
_cell_length_b   17.97089674
_cell_length_c   7.62081200
_cell_angle_alpha   95.88449630
_cell_angle_beta   95.88449307
_cell_angle_gamma   11.47330266
_symmetry_Int_Tables_number   1
_chemical_formula_structural   In13Sn5
_chemical_formula_sum   'In13 Sn5'
_cell_volume   486.94781698
_cell_formula_units_Z   1
loop_
 _symmetry_equiv_pos_site_id
 _symmetry_equiv_pos_as_xyz
  1  'x, y, z'
loop_
 _atom_site_type_symbol
 _atom_site_label
 _atom_site_symmetry_multiplicity
 _atom_site_fract_x
 _atom_site_fract_y
 _atom_site_fract_z
 _atom_site_occupancy
  In  In0  1  0.108042  0.108042  0.053860  1
  In  In1  1  0.223693  0.223693  0.113313  1
  In  In2  1  0.332890  0.332890  0.149576  1
  In  In3  1  0.446441  0.446441  0.222423  1
  In  In4  1  0.556560  0.556560  0.286624  1
  In  In5  1  0.778615  0.778615  0.383222  1
  In  In6  1  0.000000  0.000000  0.500000  1
  In  In7  1  0.221385  0.221385  0.616779  1
  In  In8  1  0.443440  0.443440  0.713376  1
  In  In9  1  0.553559  0.553559  0.777576  1
  In  In10  1  0.667109  0.667109  0.850424  1
  In  In11  1  0.776306  0.776306  0.886686  1
  In  In12  1  0.891959  0.891959  0.946141  1
  Sn  Sn13  1  0.000000  0.000000  0.000000  1
  Sn  Sn14  1  0.667341  0.667341  0.329140  1
  Sn  Sn15  1  0.889111  0.889111  0.428625  1
  Sn  Sn16  1  0.110889  0.110889  0.571376  1
  Sn  Sn17  1  0.332659  0.332659  0.670860  1
