# generated using pymatgen
data_V10SiB4As
_symmetry_space_group_name_H-M   'P 1'
_cell_length_a   6.77462691
_cell_length_b   6.77462711
_cell_length_c   6.77462824
_cell_angle_alpha   129.36928879
_cell_angle_beta   129.36929617
_cell_angle_gamma   74.41709387
_symmetry_Int_Tables_number   1
_chemical_formula_structural   V10SiB4As
_chemical_formula_sum   'V10 Si1 B4 As1'
_cell_volume   181.11098091
_cell_formula_units_Z   1
loop_
 _symmetry_equiv_pos_site_id
 _symmetry_equiv_pos_as_xyz
  1  'x, y, z'
loop_
 _atom_site_type_symbol
 _atom_site_label
 _atom_site_symmetry_multiplicity
 _atom_site_fract_x
 _atom_site_fract_y
 _atom_site_fract_z
 _atom_site_occupancy
  V  V0  1  0.534177  0.696862  0.503905  1
  V  V1  1  0.030272  0.534177  0.837315  1
  V  V2  1  0.696862  0.192957  0.162685  1
  V  V3  1  0.965823  0.469728  0.162685  1
  V  V4  1  0.192957  0.030272  0.496095  1
  V  V5  1  0.469728  0.307043  0.503905  1
  V  V6  1  0.803138  0.965823  0.496095  1
  V  V7  1  0.307043  0.803138  0.837315  1
  V  V8  1  0.999010  0.999010  0.000000  1
  V  V9  1  0.500990  0.500990  0.000000  1
  Si  Si10  1  0.750000  0.750000  0.000000  1
  B  B11  1  0.615321  0.115321  0.730641  1
  B  B12  1  0.115321  0.384679  0.500000  1
  B  B13  1  0.884679  0.615321  0.500000  1
  B  B14  1  0.384679  0.884679  0.269359  1
  As  As15  1  0.250000  0.250000  0.000000  1
