# generated using pymatgen
data_ErLu9(CoSb2)2
_symmetry_space_group_name_H-M   'P 1'
_cell_length_a   7.68297200
_cell_length_b   8.70095000
_cell_length_c   11.97868100
_cell_angle_alpha   90.00000000
_cell_angle_beta   90.00000000
_cell_angle_gamma   90.00000000
_symmetry_Int_Tables_number   1
_chemical_formula_structural   ErLu9(CoSb2)2
_chemical_formula_sum   'Er2 Lu18 Co4 Sb8'
_cell_volume   800.76470554
_cell_formula_units_Z   2
loop_
 _symmetry_equiv_pos_site_id
 _symmetry_equiv_pos_as_xyz
  1  'x, y, z'
loop_
 _atom_site_type_symbol
 _atom_site_label
 _atom_site_symmetry_multiplicity
 _atom_site_fract_x
 _atom_site_fract_y
 _atom_site_fract_z
 _atom_site_occupancy
  Er  Er0  1  0.377242  0.250000  0.691119  1
  Er  Er1  1  0.877242  0.750000  0.808881  1
  Lu  Lu2  1  0.156766  0.750000  0.204485  1
  Lu  Lu3  1  0.656766  0.250000  0.295515  1
  Lu  Lu4  1  0.843807  0.250000  0.795782  1
  Lu  Lu5  1  0.343807  0.750000  0.704218  1
  Lu  Lu6  1  0.446932  0.750000  0.998005  1
  Lu  Lu7  1  0.946932  0.250000  0.501995  1
  Lu  Lu8  1  0.553068  0.250000  0.002317  1
  Lu  Lu9  1  0.053068  0.750000  0.497683  1
  Lu  Lu10  1  0.621804  0.750000  0.309813  1
  Lu  Lu11  1  0.121804  0.250000  0.190187  1
  Lu  Lu12  1  0.825068  0.963104  0.066529  1
  Lu  Lu13  1  0.325068  0.036896  0.433471  1
  Lu  Lu14  1  0.175298  0.461472  0.934928  1
  Lu  Lu15  1  0.675298  0.538528  0.565072  1
  Lu  Lu16  1  0.175298  0.038528  0.934928  1
  Lu  Lu17  1  0.675298  0.961472  0.565072  1
  Lu  Lu18  1  0.825068  0.536896  0.066529  1
  Lu  Lu19  1  0.325068  0.463104  0.433471  1
  Co  Co20  1  0.431983  0.750000  0.491268  1
  Co  Co21  1  0.931983  0.250000  0.008732  1
  Co  Co22  1  0.568068  0.250000  0.507504  1
  Co  Co23  1  0.068068  0.750000  0.992496  1
  Sb  Sb24  1  0.932257  0.991849  0.328051  1
  Sb  Sb25  1  0.432257  0.008151  0.171949  1
  Sb  Sb26  1  0.067542  0.491783  0.671689  1
  Sb  Sb27  1  0.567542  0.508217  0.828311  1
  Sb  Sb28  1  0.067542  0.008217  0.671689  1
  Sb  Sb29  1  0.567542  0.991783  0.828311  1
  Sb  Sb30  1  0.932257  0.508151  0.328051  1
  Sb  Sb31  1  0.432257  0.491849  0.171949  1
