# generated using pymatgen
data_DyErCo2(SnH)2
_symmetry_space_group_name_H-M   'P 1'
_cell_length_a   4.25117200
_cell_length_b   7.09374302
_cell_length_c   8.15261703
_cell_angle_alpha   89.99025182
_cell_angle_beta   90.00000000
_cell_angle_gamma   90.00000000
_symmetry_Int_Tables_number   1
_chemical_formula_structural   DyErCo2(SnH)2
_chemical_formula_sum   'Dy2 Er2 Co4 Sn4 H4'
_cell_volume   245.85619954
_cell_formula_units_Z   2
loop_
 _symmetry_equiv_pos_site_id
 _symmetry_equiv_pos_as_xyz
  1  'x, y, z'
loop_
 _atom_site_type_symbol
 _atom_site_label
 _atom_site_symmetry_multiplicity
 _atom_site_fract_x
 _atom_site_fract_y
 _atom_site_fract_z
 _atom_site_occupancy
  Dy  Dy0  1  0.750000  0.013851  0.685734  1
  Dy  Dy1  1  0.250000  0.986149  0.314266  1
  Er  Er2  1  0.250000  0.486112  0.184877  1
  Er  Er3  1  0.750000  0.513888  0.815123  1
  Co  Co4  1  0.750000  0.771705  0.103632  1
  Co  Co5  1  0.250000  0.228295  0.896368  1
  Co  Co6  1  0.250000  0.726425  0.604874  1
  Co  Co7  1  0.750000  0.273575  0.395126  1
  Sn  Sn8  1  0.750000  0.653590  0.426548  1
  Sn  Sn9  1  0.250000  0.346410  0.573452  1
  Sn  Sn10  1  0.250000  0.845128  0.927217  1
  Sn  Sn11  1  0.750000  0.154872  0.072783  1
  H  H12  1  0.250000  0.449381  0.919857  1
  H  H13  1  0.750000  0.550619  0.080143  1
  H  H14  1  0.750000  0.052460  0.419170  1
  H  H15  1  0.250000  0.947540  0.580830  1
