# generated using pymatgen
data_Tb12Nd8Si15Tc
_symmetry_space_group_name_H-M   'P 1'
_cell_length_a   7.77229031
_cell_length_b   7.82049380
_cell_length_c   14.48138199
_cell_angle_alpha   89.64422668
_cell_angle_beta   89.96069740
_cell_angle_gamma   90.17240667
_symmetry_Int_Tables_number   1
_chemical_formula_structural   Tb12Nd8Si15Tc
_chemical_formula_sum   'Tb12 Nd8 Si15 Tc1'
_cell_volume   880.20281530
_cell_formula_units_Z   1
loop_
 _symmetry_equiv_pos_site_id
 _symmetry_equiv_pos_as_xyz
  1  'x, y, z'
loop_
 _atom_site_type_symbol
 _atom_site_label
 _atom_site_symmetry_multiplicity
 _atom_site_fract_x
 _atom_site_fract_y
 _atom_site_fract_z
 _atom_site_occupancy
  Tb  Tb0  1  0.486946  0.363864  0.123019  1
  Tb  Tb1  1  0.992898  0.134171  0.624687  1
  Tb  Tb2  1  0.863844  0.011281  0.876034  1
  Tb  Tb3  1  0.138336  0.983797  0.380072  1
  Tb  Tb4  1  0.504243  0.642334  0.620295  1
  Tb  Tb5  1  0.362564  0.490914  0.876047  1
  Tb  Tb6  1  0.635822  0.506350  0.374565  1
  Tb  Tb7  1  0.010334  0.867582  0.125206  1
  Tb  Tb8  1  0.316061  0.305464  0.502715  1
  Tb  Tb9  1  0.189035  0.823370  0.743804  1
  Tb  Tb10  1  0.818434  0.182278  0.253340  1
  Tb  Tb11  1  0.688905  0.688148  0.001394  1
  Nd  Nd12  1  0.627973  0.990880  0.458439  1
  Nd  Nd13  1  0.364755  0.009597  0.955925  1
  Nd  Nd14  1  0.992828  0.638154  0.542491  1
  Nd  Nd15  1  0.488731  0.862611  0.206682  1
  Nd  Nd16  1  0.507450  0.133564  0.702451  1
  Nd  Nd17  1  0.862395  0.489312  0.793494  1
  Nd  Nd18  1  0.136520  0.505898  0.293149  1
  Nd  Nd19  1  0.011626  0.361520  0.041400  1
  Si  Si20  1  0.710997  0.071239  0.062910  1
  Si  Si21  1  0.931321  0.292913  0.439488  1
  Si  Si22  1  0.430447  0.209614  0.309535  1
  Si  Si23  1  0.570821  0.786690  0.811306  1
  Si  Si24  1  0.209553  0.434882  0.690634  1
  Si  Si25  1  0.789243  0.567660  0.189049  1
  Si  Si26  1  0.067423  0.711134  0.938911  1
  Si  Si27  1  0.797915  0.841434  0.694100  1
  Si  Si28  1  0.204158  0.153355  0.191442  1
  Si  Si29  1  0.840848  0.794815  0.308147  1
  Si  Si30  1  0.344265  0.697533  0.438235  1
  Si  Si31  1  0.656443  0.299654  0.943912  1
  Si  Si32  1  0.706213  0.348638  0.558571  1
  Si  Si33  1  0.296757  0.658058  0.057571  1
  Si  Si34  1  0.153882  0.207907  0.810065  1
  Tc  Tc35  1  0.290012  0.933383  0.560916  1
