# generated using pymatgen
data_Dy16TlIn3(RuPt)2
_symmetry_space_group_name_H-M   'P 1'
_cell_length_a   9.71919911
_cell_length_b   9.70070430
_cell_length_c   9.70775436
_cell_angle_alpha   59.78919373
_cell_angle_beta   59.96099056
_cell_angle_gamma   59.93691025
_symmetry_Int_Tables_number   1
_chemical_formula_structural   Dy16TlIn3(RuPt)2
_chemical_formula_sum   'Dy16 Tl1 In3 Ru2 Pt2'
_cell_volume   645.66364026
_cell_formula_units_Z   1
loop_
 _symmetry_equiv_pos_site_id
 _symmetry_equiv_pos_as_xyz
  1  'x, y, z'
loop_
 _atom_site_type_symbol
 _atom_site_label
 _atom_site_symmetry_multiplicity
 _atom_site_fract_x
 _atom_site_fract_y
 _atom_site_fract_z
 _atom_site_occupancy
  Dy  Dy0  1  0.689178  0.311390  0.310255  1
  Dy  Dy1  1  0.695012  0.683632  0.310337  1
  Dy  Dy2  1  0.311019  0.683632  0.310337  1
  Dy  Dy3  1  0.935703  0.942432  0.562440  1
  Dy  Dy4  1  0.150083  0.154309  0.545522  1
  Dy  Dy5  1  0.559425  0.942432  0.562440  1
  Dy  Dy6  1  0.146570  0.151750  0.150926  1
  Dy  Dy7  1  0.309777  0.310982  0.683849  1
  Dy  Dy8  1  0.940782  0.558474  0.559962  1
  Dy  Dy9  1  0.561127  0.562457  0.941447  1
  Dy  Dy10  1  0.562902  0.937126  0.937069  1
  Dy  Dy11  1  0.934969  0.562457  0.941447  1
  Dy  Dy12  1  0.150306  0.545472  0.153914  1
  Dy  Dy13  1  0.308690  0.691480  0.691141  1
  Dy  Dy14  1  0.695392  0.310982  0.683849  1
  Dy  Dy15  1  0.550754  0.151750  0.150926  1
  Tl  Tl16  1  0.914397  0.915031  0.256174  1
  In  In17  1  0.248278  0.917961  0.916587  1
  In  In18  1  0.916682  0.249851  0.916786  1
  In  In19  1  0.917173  0.917961  0.916587  1
  Ru  Ru20  1  0.360197  0.357757  0.357944  1
  Ru  Ru21  1  0.924101  0.357757  0.357944  1
  Pt  Pt22  1  0.358825  0.356903  0.925448  1
  Pt  Pt23  1  0.358655  0.926022  0.356669  1
