# generated using pymatgen
data_Hf8Ta12Si3Ge13
_symmetry_space_group_name_H-M   'P 1'
_cell_length_a   6.77626291
_cell_length_b   6.91297000
_cell_length_c   13.24599300
_cell_angle_alpha   90.00000000
_cell_angle_beta   90.00000000
_cell_angle_gamma   89.87682314
_symmetry_Int_Tables_number   1
_chemical_formula_structural   Hf8Ta12Si3Ge13
_chemical_formula_sum   'Hf8 Ta12 Si3 Ge13'
_cell_volume   620.49521593
_cell_formula_units_Z   1
loop_
 _symmetry_equiv_pos_site_id
 _symmetry_equiv_pos_as_xyz
  1  'x, y, z'
loop_
 _atom_site_type_symbol
 _atom_site_label
 _atom_site_symmetry_multiplicity
 _atom_site_fract_x
 _atom_site_fract_y
 _atom_site_fract_z
 _atom_site_occupancy
  Hf  Hf0  1  0.488508  0.672089  0.592122  1
  Hf  Hf1  1  0.987966  0.828378  0.906821  1
  Hf  Hf2  1  0.512522  0.329150  0.091572  1
  Hf  Hf3  1  0.012760  0.176481  0.408903  1
  Hf  Hf4  1  0.512522  0.329150  0.408428  1
  Hf  Hf5  1  0.012760  0.176481  0.091097  1
  Hf  Hf6  1  0.488508  0.672089  0.907878  1
  Hf  Hf7  1  0.987966  0.828378  0.593179  1
  Ta  Ta8  1  0.658354  0.167702  0.626498  1
  Ta  Ta9  1  0.158706  0.332064  0.873943  1
  Ta  Ta10  1  0.346744  0.830816  0.125137  1
  Ta  Ta11  1  0.835357  0.663016  0.374762  1
  Ta  Ta12  1  0.346744  0.830816  0.374863  1
  Ta  Ta13  1  0.835357  0.663016  0.125238  1
  Ta  Ta14  1  0.658354  0.167702  0.873502  1
  Ta  Ta15  1  0.158706  0.332064  0.626057  1
  Ta  Ta16  1  0.831179  0.489555  0.750000  1
  Ta  Ta17  1  0.330713  0.009839  0.750000  1
  Ta  Ta18  1  0.167757  0.508213  0.250000  1
  Ta  Ta19  1  0.665658  0.989859  0.250000  1
  Si  Si20  1  0.458258  0.386325  0.750000  1
  Si  Si21  1  0.959159  0.113076  0.750000  1
  Si  Si22  1  0.539350  0.611438  0.250000  1
  Ge  Ge23  1  0.686017  0.963223  0.461051  1
  Ge  Ge24  1  0.181790  0.539431  0.039272  1
  Ge  Ge25  1  0.317056  0.037353  0.960948  1
  Ge  Ge26  1  0.816806  0.462002  0.540249  1
  Ge  Ge27  1  0.317056  0.037353  0.539052  1
  Ge  Ge28  1  0.816806  0.462002  0.959751  1
  Ge  Ge29  1  0.686017  0.963223  0.038949  1
  Ge  Ge30  1  0.181790  0.539431  0.460728  1
  Ge  Ge31  1  0.039809  0.887734  0.250000  1
  Ge  Ge32  1  0.694211  0.851977  0.750000  1
  Ge  Ge33  1  0.195107  0.647674  0.750000  1
  Ge  Ge34  1  0.308465  0.150902  0.250000  1
  Ge  Ge35  1  0.805159  0.350000  0.250000  1
