# generated using pymatgen
data_Tm10Ga2SnSb3
_symmetry_space_group_name_H-M   'P 1'
_cell_length_a   8.70293753
_cell_length_b   8.73047934
_cell_length_c   6.37545700
_cell_angle_alpha   90.00000000
_cell_angle_beta   90.00000000
_cell_angle_gamma   119.93569858
_symmetry_Int_Tables_number   1
_chemical_formula_structural   Tm10Ga2SnSb3
_chemical_formula_sum   'Tm10 Ga2 Sn1 Sb3'
_cell_volume   419.78502471
_cell_formula_units_Z   1
loop_
 _symmetry_equiv_pos_site_id
 _symmetry_equiv_pos_as_xyz
  1  'x, y, z'
loop_
 _atom_site_type_symbol
 _atom_site_label
 _atom_site_symmetry_multiplicity
 _atom_site_fract_x
 _atom_site_fract_y
 _atom_site_fract_z
 _atom_site_occupancy
  Tm  Tm0  1  0.342052  0.686010  0.000524  1
  Tm  Tm1  1  0.657867  0.314410  0.499550  1
  Tm  Tm2  1  0.657867  0.314410  0.000450  1
  Tm  Tm3  1  0.342052  0.686010  0.499476  1
  Tm  Tm4  1  0.242543  0.997966  0.250000  1
  Tm  Tm5  1  0.756605  0.000684  0.750000  1
  Tm  Tm6  1  0.985575  0.230848  0.250000  1
  Tm  Tm7  1  0.756737  0.769303  0.250000  1
  Tm  Tm8  1  0.244174  0.230444  0.750000  1
  Tm  Tm9  1  0.014338  0.769812  0.750000  1
  Ga  Ga10  1  0.603855  0.000095  0.250000  1
  Ga  Ga11  1  0.397060  0.000733  0.750000  1
  Sn  Sn12  1  0.993461  0.604586  0.250000  1
  Sb  Sb13  1  0.387773  0.394304  0.250000  1
  Sb  Sb14  1  0.611940  0.605813  0.750000  1
  Sb  Sb15  1  0.006102  0.394571  0.750000  1
