# generated using pymatgen
data_Ca3CrReC6
_symmetry_space_group_name_H-M   'P 1'
_cell_length_a   8.30184700
_cell_length_b   8.30184640
_cell_length_c   5.04866800
_cell_angle_alpha   90.00000000
_cell_angle_beta   90.00000000
_cell_angle_gamma   119.99999839
_symmetry_Int_Tables_number   1
_chemical_formula_structural   Ca3CrReC6
_chemical_formula_sum   'Ca6 Cr2 Re2 C12'
_cell_volume   301.34006002
_cell_formula_units_Z   2
loop_
 _symmetry_equiv_pos_site_id
 _symmetry_equiv_pos_as_xyz
  1  'x, y, z'
loop_
 _atom_site_type_symbol
 _atom_site_label
 _atom_site_symmetry_multiplicity
 _atom_site_fract_x
 _atom_site_fract_y
 _atom_site_fract_z
 _atom_site_occupancy
  Ca  Ca0  1  0.610197  0.695328  0.750000  1
  Ca  Ca1  1  0.914870  0.610197  0.250000  1
  Ca  Ca2  1  0.695328  0.085130  0.250000  1
  Ca  Ca3  1  0.304672  0.914870  0.750000  1
  Ca  Ca4  1  0.085130  0.389803  0.750000  1
  Ca  Ca5  1  0.389803  0.304672  0.250000  1
  Cr  Cr6  1  0.000000  0.000000  0.500000  1
  Cr  Cr7  1  0.000000  0.000000  0.000000  1
  Re  Re8  1  0.666667  0.333333  0.750000  1
  Re  Re9  1  0.333333  0.666667  0.250000  1
  C  C10  1  0.951514  0.779930  0.750000  1
  C  C11  1  0.171584  0.951514  0.250000  1
  C  C12  1  0.779930  0.828416  0.250000  1
  C  C13  1  0.220070  0.171584  0.750000  1
  C  C14  1  0.828416  0.048486  0.750000  1
  C  C15  1  0.048486  0.220070  0.250000  1
  C  C16  1  0.855972  0.592195  0.750000  1
  C  C17  1  0.263776  0.855972  0.250000  1
  C  C18  1  0.592195  0.736224  0.250000  1
  C  C19  1  0.407805  0.263776  0.750000  1
  C  C20  1  0.144028  0.407805  0.250000  1
  C  C21  1  0.736224  0.144028  0.750000  1
