# generated using pymatgen
data_I10BrCl
_symmetry_space_group_name_H-M   'P 1'
_cell_length_a   10.52481993
_cell_length_b   8.98067069
_cell_length_c   10.77683215
_cell_angle_alpha   88.61518984
_cell_angle_beta   90.41639985
_cell_angle_gamma   123.81172098
_symmetry_Int_Tables_number   1
_chemical_formula_structural   I10BrCl
_chemical_formula_sum   'I10 Br1 Cl1'
_cell_volume   846.07545839
_cell_formula_units_Z   1
loop_
 _symmetry_equiv_pos_site_id
 _symmetry_equiv_pos_as_xyz
  1  'x, y, z'
loop_
 _atom_site_type_symbol
 _atom_site_label
 _atom_site_symmetry_multiplicity
 _atom_site_fract_x
 _atom_site_fract_y
 _atom_site_fract_z
 _atom_site_occupancy
  I  I0  1  0.993037  0.038684  0.030909  1
  I  I1  1  0.730302  0.903664  0.888890  1
  I  I2  1  0.292900  0.219042  0.228946  1
  I  I3  1  0.838722  0.219548  0.723053  1
  I  I4  1  0.113485  0.570522  0.215258  1
  I  I5  1  0.273699  0.651934  0.977154  1
  I  I6  1  0.491902  0.254241  0.027805  1
  I  I7  1  0.004644  0.834052  0.521116  1
  I  I8  1  0.082818  0.176881  0.432126  1
  I  I9  1  0.800095  0.408957  0.132818  1
  Br  Br10  1  0.957978  0.491519  0.550050  1
  Cl  Cl11  1  0.420419  0.730956  0.771873  1
