# generated using pymatgen
data_Dy3SiPt5
_symmetry_space_group_name_H-M   'P 1'
_cell_length_a   8.21988594
_cell_length_b   8.21988586
_cell_length_c   8.21988568
_cell_angle_alpha   127.48892553
_cell_angle_beta   125.89855437
_cell_angle_gamma   78.75761277
_symmetry_Int_Tables_number   1
_chemical_formula_structural   Dy3SiPt5
_chemical_formula_sum   'Dy6 Si2 Pt10'
_cell_volume   345.47010894
_cell_formula_units_Z   2
loop_
 _symmetry_equiv_pos_site_id
 _symmetry_equiv_pos_as_xyz
  1  'x, y, z'
loop_
 _atom_site_type_symbol
 _atom_site_label
 _atom_site_symmetry_multiplicity
 _atom_site_fract_x
 _atom_site_fract_y
 _atom_site_fract_z
 _atom_site_occupancy
  Dy  Dy0  1  0.827768  0.548992  0.278776  1
  Dy  Dy1  1  0.611822  0.250000  0.361822  1
  Dy  Dy2  1  0.172232  0.451008  0.721224  1
  Dy  Dy3  1  0.388178  0.750000  0.638178  1
  Dy  Dy4  1  0.229784  0.951008  0.278776  1
  Dy  Dy5  1  0.770216  0.048992  0.721224  1
  Si  Si6  1  0.220896  0.250000  0.970896  1
  Si  Si7  1  0.779104  0.750000  0.029104  1
  Pt  Pt8  1  0.169340  0.899210  0.855633  1
  Pt  Pt9  1  0.830660  0.100790  0.144367  1
  Pt  Pt10  1  0.456423  0.186293  0.855633  1
  Pt  Pt11  1  0.543577  0.399210  0.729870  1
  Pt  Pt12  1  0.830660  0.686293  0.729870  1
  Pt  Pt13  1  0.456423  0.600790  0.270130  1
  Pt  Pt14  1  0.543577  0.813707  0.144367  1
  Pt  Pt15  1  0.169340  0.313707  0.270130  1
  Pt  Pt16  1  0.000000  0.000000  0.500000  1
  Pt  Pt17  1  0.000000  0.500000  0.000000  1
