# generated using pymatgen
data_DySc6Fe6Sn23
_symmetry_space_group_name_H-M   'P 1'
_cell_length_a   9.56865500
_cell_length_b   9.56865498
_cell_length_c   9.80245800
_cell_angle_alpha   90.00000000
_cell_angle_beta   90.00000000
_cell_angle_gamma   120.00000352
_symmetry_Int_Tables_number   1
_chemical_formula_structural   DySc6Fe6Sn23
_chemical_formula_sum   'Dy1 Sc6 Fe6 Sn23'
_cell_volume   777.26193276
_cell_formula_units_Z   1
loop_
 _symmetry_equiv_pos_site_id
 _symmetry_equiv_pos_as_xyz
  1  'x, y, z'
loop_
 _atom_site_type_symbol
 _atom_site_label
 _atom_site_symmetry_multiplicity
 _atom_site_fract_x
 _atom_site_fract_y
 _atom_site_fract_z
 _atom_site_occupancy
  Dy  Dy0  1  0.000000  0.000000  0.000000  1
  Sc  Sc1  1  0.487182  0.512818  0.302787  1
  Sc  Sc2  1  0.512818  0.487182  0.697213  1
  Sc  Sc3  1  0.487182  0.974362  0.302787  1
  Sc  Sc4  1  0.512818  0.025638  0.697213  1
  Sc  Sc5  1  0.025638  0.512818  0.302787  1
  Sc  Sc6  1  0.974362  0.487182  0.697213  1
  Fe  Fe7  1  0.829749  0.170251  0.202561  1
  Fe  Fe8  1  0.170251  0.829749  0.797439  1
  Fe  Fe9  1  0.829749  0.659495  0.202561  1
  Fe  Fe10  1  0.170251  0.340505  0.797439  1
  Fe  Fe11  1  0.340505  0.170251  0.202561  1
  Fe  Fe12  1  0.659495  0.829749  0.797439  1
  Sn  Sn13  1  0.346415  0.000000  0.000000  1
  Sn  Sn14  1  0.653585  0.000000  0.000000  1
  Sn  Sn15  1  0.000000  0.346415  0.000000  1
  Sn  Sn16  1  0.000000  0.653585  0.000000  1
  Sn  Sn17  1  0.653585  0.653585  0.000000  1
  Sn  Sn18  1  0.346415  0.346415  0.000000  1
  Sn  Sn19  1  0.333333  0.666667  0.822836  1
  Sn  Sn20  1  0.666667  0.333333  0.177164  1
  Sn  Sn21  1  0.000000  0.000000  0.500000  1
  Sn  Sn22  1  0.779829  0.220171  0.458986  1
  Sn  Sn23  1  0.220171  0.779829  0.541014  1
  Sn  Sn24  1  0.779829  0.559660  0.458986  1
  Sn  Sn25  1  0.220171  0.440340  0.541014  1
  Sn  Sn26  1  0.440340  0.220171  0.458986  1
  Sn  Sn27  1  0.559660  0.779829  0.541014  1
  Sn  Sn28  1  0.333333  0.666667  0.140999  1
  Sn  Sn29  1  0.666667  0.333333  0.859001  1
  Sn  Sn30  1  0.121185  0.878815  0.272479  1
  Sn  Sn31  1  0.878815  0.121185  0.727521  1
  Sn  Sn32  1  0.121185  0.242371  0.272479  1
  Sn  Sn33  1  0.878815  0.757629  0.727521  1
  Sn  Sn34  1  0.757629  0.878815  0.272479  1
  Sn  Sn35  1  0.242371  0.121185  0.727521  1
