# generated using pymatgen
data_Ti11Mn6AlIr6
_symmetry_space_group_name_H-M   'P 1'
_cell_length_a   4.29606400
_cell_length_b   6.09867400
_cell_length_c   12.88855600
_cell_angle_alpha   90.00000000
_cell_angle_beta   89.99965769
_cell_angle_gamma   90.00000000
_symmetry_Int_Tables_number   1
_chemical_formula_structural   Ti11Mn6AlIr6
_chemical_formula_sum   'Ti11 Mn6 Al1 Ir6'
_cell_volume   337.68395410
_cell_formula_units_Z   1
loop_
 _symmetry_equiv_pos_site_id
 _symmetry_equiv_pos_as_xyz
  1  'x, y, z'
loop_
 _atom_site_type_symbol
 _atom_site_label
 _atom_site_symmetry_multiplicity
 _atom_site_fract_x
 _atom_site_fract_y
 _atom_site_fract_z
 _atom_site_occupancy
  Ti  Ti0  1  0.500000  0.748933  0.000000  1
  Ti  Ti1  1  0.000009  0.249381  0.162113  1
  Ti  Ti2  1  0.000007  0.750315  0.165844  1
  Ti  Ti3  1  0.500011  0.251611  0.332119  1
  Ti  Ti4  1  0.500011  0.751059  0.332498  1
  Ti  Ti5  1  0.000000  0.249355  0.500000  1
  Ti  Ti6  1  0.000000  0.749653  0.500000  1
  Ti  Ti7  1  0.499991  0.251611  0.667881  1
  Ti  Ti8  1  0.499991  0.751059  0.667502  1
  Ti  Ti9  1  0.999991  0.249381  0.837887  1
  Ti  Ti10  1  0.999993  0.750315  0.834156  1
  Mn  Mn11  1  0.000000  0.991707  0.000000  1
  Mn  Mn12  1  0.500020  0.502259  0.169193  1
  Mn  Mn13  1  0.000014  0.001211  0.333463  1
  Mn  Mn14  1  0.500000  0.498958  0.500000  1
  Mn  Mn15  1  0.999986  0.001211  0.666537  1
  Mn  Mn16  1  0.499978  0.502259  0.830806  1
  Al  Al17  1  0.500000  0.249685  0.000000  1
  Ir  Ir18  1  0.000000  0.498187  0.000000  1
  Ir  Ir19  1  0.500012  0.000777  0.166376  1
  Ir  Ir20  1  0.000015  0.500225  0.333116  1
  Ir  Ir21  1  0.500000  0.999844  0.500000  1
  Ir  Ir22  1  0.999985  0.500225  0.666884  1
  Ir  Ir23  1  0.499987  0.000777  0.833624  1
