# generated using pymatgen
data_Ca7Lu(Si4Tc3)4
_symmetry_space_group_name_H-M   'P 1'
_cell_length_a   6.79391729
_cell_length_b   6.85120570
_cell_length_c   12.59041764
_cell_angle_alpha   89.86554605
_cell_angle_beta   90.02223869
_cell_angle_gamma   89.95559831
_symmetry_Int_Tables_number   1
_chemical_formula_structural   Ca7Lu(Si4Tc3)4
_chemical_formula_sum   'Ca7 Lu1 Si16 Tc12'
_cell_volume   586.03835351
_cell_formula_units_Z   1
loop_
 _symmetry_equiv_pos_site_id
 _symmetry_equiv_pos_as_xyz
  1  'x, y, z'
loop_
 _atom_site_type_symbol
 _atom_site_label
 _atom_site_symmetry_multiplicity
 _atom_site_fract_x
 _atom_site_fract_y
 _atom_site_fract_z
 _atom_site_occupancy
  Ca  Ca0  1  0.492708  0.339926  0.089301  1
  Ca  Ca1  1  0.991560  0.159765  0.409922  1
  Ca  Ca2  1  0.507600  0.659703  0.590607  1
  Ca  Ca3  1  0.007186  0.837885  0.908788  1
  Ca  Ca4  1  0.507261  0.661489  0.909869  1
  Ca  Ca5  1  0.007484  0.838859  0.590358  1
  Ca  Ca6  1  0.492646  0.340941  0.410491  1
  Lu  Lu7  1  0.991018  0.164281  0.094726  1
  Si  Si8  1  0.650974  0.047923  0.551826  1
  Si  Si9  1  0.152397  0.450537  0.949370  1
  Si  Si10  1  0.344048  0.952161  0.050584  1
  Si  Si11  1  0.848955  0.549991  0.447377  1
  Si  Si12  1  0.347716  0.951241  0.447901  1
  Si  Si13  1  0.847948  0.549989  0.051001  1
  Si  Si14  1  0.653623  0.049437  0.948792  1
  Si  Si15  1  0.151351  0.451211  0.552045  1
  Si  Si16  1  0.529978  0.353216  0.751787  1
  Si  Si17  1  0.029308  0.144584  0.749389  1
  Si  Si18  1  0.472189  0.646922  0.248251  1
  Si  Si19  1  0.970841  0.853089  0.249462  1
  Si  Si20  1  0.813011  0.634018  0.750153  1
  Si  Si21  1  0.313101  0.863848  0.750045  1
  Si  Si22  1  0.189706  0.363931  0.250789  1
  Si  Si23  1  0.685166  0.137573  0.250714  1
  Tc  Tc24  1  0.824719  0.347127  0.627589  1
  Tc  Tc25  1  0.322320  0.150530  0.873840  1
  Tc  Tc26  1  0.176942  0.650597  0.126739  1
  Tc  Tc27  1  0.672710  0.848118  0.371421  1
  Tc  Tc28  1  0.176284  0.651984  0.371562  1
  Tc  Tc29  1  0.677676  0.854349  0.125920  1
  Tc  Tc30  1  0.828045  0.345742  0.874702  1
  Tc  Tc31  1  0.326016  0.151865  0.627667  1
  Tc  Tc32  1  0.673835  0.998948  0.750459  1
  Tc  Tc33  1  0.174448  0.498970  0.750359  1
  Tc  Tc34  1  0.322040  0.002864  0.248234  1
  Tc  Tc35  1  0.827190  0.496386  0.247959  1
