# generated using pymatgen
data_Sm3Y3(CoSn6)2
_symmetry_space_group_name_H-M   'P 1'
_cell_length_a   8.53146129
_cell_length_b   8.53146103
_cell_length_c   13.25537781
_cell_angle_alpha   90.03858241
_cell_angle_beta   89.96141807
_cell_angle_gamma   148.83256465
_symmetry_Int_Tables_number   1
_chemical_formula_structural   Sm3Y3(CoSn6)2
_chemical_formula_sum   'Sm3 Y3 Co2 Sn12'
_cell_volume   499.32511291
_cell_formula_units_Z   1
loop_
 _symmetry_equiv_pos_site_id
 _symmetry_equiv_pos_as_xyz
  1  'x, y, z'
loop_
 _atom_site_type_symbol
 _atom_site_label
 _atom_site_symmetry_multiplicity
 _atom_site_fract_x
 _atom_site_fract_y
 _atom_site_fract_z
 _atom_site_occupancy
  Sm  Sm0  1  0.899718  0.100282  0.093116  1
  Sm  Sm1  1  0.100186  0.899814  0.592404  1
  Sm  Sm2  1  0.100314  0.899686  0.907368  1
  Y  Y3  1  0.899741  0.100259  0.749913  1
  Y  Y4  1  0.100096  0.899904  0.250256  1
  Y  Y5  1  0.899135  0.100865  0.407135  1
  Co  Co6  1  0.298773  0.701227  0.250502  1
  Co  Co7  1  0.701635  0.298365  0.749530  1
  Sn  Sn8  1  0.755645  0.244355  0.571217  1
  Sn  Sn9  1  0.427902  0.572098  0.576177  1
  Sn  Sn10  1  0.571557  0.428443  0.422121  1
  Sn  Sn11  1  0.734119  0.265881  0.250228  1
  Sn  Sn12  1  0.266200  0.733800  0.749988  1
  Sn  Sn13  1  0.245033  0.754967  0.072124  1
  Sn  Sn14  1  0.245460  0.754540  0.428264  1
  Sn  Sn15  1  0.571673  0.428327  0.078099  1
  Sn  Sn16  1  0.453162  0.546838  0.251414  1
  Sn  Sn17  1  0.546529  0.453471  0.749800  1
  Sn  Sn18  1  0.754959  0.245041  0.928109  1
  Sn  Sn19  1  0.428163  0.571837  0.922236  1
