# generated using pymatgen
data_TbEr(AlRu)2
_symmetry_space_group_name_H-M   'P 1'
_cell_length_a   4.01873000
_cell_length_b   7.04126284
_cell_length_c   8.08394139
_cell_angle_alpha   90.21202295
_cell_angle_beta   90.00000000
_cell_angle_gamma   90.00000000
_symmetry_Int_Tables_number   1
_chemical_formula_structural   TbEr(AlRu)2
_chemical_formula_sum   'Tb2 Er2 Al4 Ru4'
_cell_volume   228.74919158
_cell_formula_units_Z   2
loop_
 _symmetry_equiv_pos_site_id
 _symmetry_equiv_pos_as_xyz
  1  'x, y, z'
loop_
 _atom_site_type_symbol
 _atom_site_label
 _atom_site_symmetry_multiplicity
 _atom_site_fract_x
 _atom_site_fract_y
 _atom_site_fract_z
 _atom_site_occupancy
  Tb  Tb0  1  0.250000  0.468723  0.179787  1
  Tb  Tb1  1  0.750000  0.531277  0.820213  1
  Er  Er2  1  0.750000  0.032318  0.677016  1
  Er  Er3  1  0.250000  0.967682  0.322984  1
  Al  Al4  1  0.250000  0.863754  0.941785  1
  Al  Al5  1  0.750000  0.136246  0.058215  1
  Al  Al6  1  0.750000  0.639013  0.441527  1
  Al  Al7  1  0.250000  0.360987  0.558473  1
  Ru  Ru8  1  0.250000  0.732025  0.625663  1
  Ru  Ru9  1  0.750000  0.267975  0.374337  1
  Ru  Ru10  1  0.750000  0.772820  0.127591  1
  Ru  Ru11  1  0.250000  0.227180  0.872409  1
