# generated using pymatgen
data_Tb6Zn4Pt11Rh2
_symmetry_space_group_name_H-M   'P 1'
_cell_length_a   8.25384637
_cell_length_b   8.29413484
_cell_length_c   8.21277200
_cell_angle_alpha   109.17520218
_cell_angle_beta   109.41944547
_cell_angle_gamma   109.81771909
_symmetry_Int_Tables_number   1
_chemical_formula_structural   Tb6Zn4Pt11Rh2
_chemical_formula_sum   'Tb6 Zn4 Pt11 Rh2'
_cell_volume   432.80457900
_cell_formula_units_Z   1
loop_
 _symmetry_equiv_pos_site_id
 _symmetry_equiv_pos_as_xyz
  1  'x, y, z'
loop_
 _atom_site_type_symbol
 _atom_site_label
 _atom_site_symmetry_multiplicity
 _atom_site_fract_x
 _atom_site_fract_y
 _atom_site_fract_z
 _atom_site_occupancy
  Tb  Tb0  1  0.696384  0.696816  0.997692  1
  Tb  Tb1  1  0.303623  0.000416  0.301305  1
  Tb  Tb2  1  0.999990  0.300246  0.301470  1
  Tb  Tb3  1  0.301231  0.301954  0.997720  1
  Tb  Tb4  1  0.698757  0.000728  0.696485  1
  Tb  Tb5  1  0.000010  0.697756  0.699079  1
  Zn  Zn6  1  0.000009  0.004175  0.494976  1
  Zn  Zn7  1  0.999993  0.499227  0.998261  1
  Zn  Zn8  1  0.504585  0.999542  0.003382  1
  Zn  Zn9  1  0.495397  0.494940  0.498779  1
  Pt  Pt10  1  0.000001  0.666653  0.333193  1
  Pt  Pt11  1  0.665658  0.332205  0.997959  1
  Pt  Pt12  1  0.334415  0.666563  0.332311  1
  Pt  Pt13  1  0.999908  0.331416  0.664048  1
  Pt  Pt14  1  0.334247  0.667396  0.999067  1
  Pt  Pt15  1  0.331057  0.000410  0.666782  1
  Pt  Pt16  1  0.667051  0.332422  0.332299  1
  Pt  Pt17  1  0.668901  0.669411  0.335704  1
  Pt  Pt18  1  0.665805  0.333102  0.664737  1
  Pt  Pt19  1  0.332943  0.665376  0.665164  1
  Pt  Pt20  1  0.999997  0.000029  0.999968  1
  Rh  Rh21  1  0.339894  0.339548  0.679792  1
  Rh  Rh22  1  0.660146  0.999666  0.339826  1
