# generated using pymatgen
data_AlCd2AgS4
_symmetry_space_group_name_H-M   'P 1'
_cell_length_a   6.67713500
_cell_length_b   6.98456800
_cell_length_c   8.21088700
_cell_angle_alpha   90.00000000
_cell_angle_beta   90.00000000
_cell_angle_gamma   90.00000000
_symmetry_Int_Tables_number   1
_chemical_formula_structural   AlCd2AgS4
_chemical_formula_sum   'Al2 Cd4 Ag2 S8'
_cell_volume   382.93034428
_cell_formula_units_Z   2
loop_
 _symmetry_equiv_pos_site_id
 _symmetry_equiv_pos_as_xyz
  1  'x, y, z'
loop_
 _atom_site_type_symbol
 _atom_site_label
 _atom_site_symmetry_multiplicity
 _atom_site_fract_x
 _atom_site_fract_y
 _atom_site_fract_z
 _atom_site_occupancy
  Al  Al0  1  0.490916  0.676777  0.500000  1
  Al  Al1  1  0.990916  0.323223  0.000000  1
  Cd  Cd2  1  0.487220  0.175108  0.252690  1
  Cd  Cd3  1  0.987220  0.824892  0.752690  1
  Cd  Cd4  1  0.487220  0.175108  0.747310  1
  Cd  Cd5  1  0.987220  0.824892  0.247310  1
  Ag  Ag6  1  0.990299  0.341255  0.500000  1
  Ag  Ag7  1  0.490299  0.658745  0.000000  1
  S  S8  1  0.105114  0.630631  0.000000  1
  S  S9  1  0.605114  0.369369  0.500000  1
  S  S10  1  0.150482  0.678650  0.500000  1
  S  S11  1  0.650482  0.321350  0.000000  1
  S  S12  1  0.602254  0.822901  0.269171  1
  S  S13  1  0.102254  0.177099  0.769171  1
  S  S14  1  0.102254  0.177099  0.230829  1
  S  S15  1  0.602254  0.822901  0.730829  1
