# generated using pymatgen
data_LiPd2Au5
_symmetry_space_group_name_H-M   'P 1'
_cell_length_a   5.75993385
_cell_length_b   5.75682314
_cell_length_c   5.75682284
_cell_angle_alpha   60.03575306
_cell_angle_beta   59.98212738
_cell_angle_gamma   59.98212690
_symmetry_Int_Tables_number   1
_chemical_formula_structural   LiPd2Au5
_chemical_formula_sum   'Li1 Pd2 Au5'
_cell_volume   134.97956392
_cell_formula_units_Z   1
loop_
 _symmetry_equiv_pos_site_id
 _symmetry_equiv_pos_as_xyz
  1  'x, y, z'
loop_
 _atom_site_type_symbol
 _atom_site_label
 _atom_site_symmetry_multiplicity
 _atom_site_fract_x
 _atom_site_fract_y
 _atom_site_fract_z
 _atom_site_occupancy
  Li  Li0  1  0.000000  0.000000  0.000000  1
  Pd  Pd1  1  0.000000  0.500000  0.500000  1
  Pd  Pd2  1  0.500000  0.000000  0.000000  1
  Au  Au3  1  0.500000  0.500000  0.500000  1
  Au  Au4  1  0.000000  0.000000  0.500000  1
  Au  Au5  1  0.500000  0.000000  0.500000  1
  Au  Au6  1  0.500000  0.500000  0.000000  1
  Au  Au7  1  0.000000  0.500000  0.000000  1
