# generated using pymatgen
data_CsRbBi3Pb
_symmetry_space_group_name_H-M   'P 1'
_cell_length_a   6.91164474
_cell_length_b   6.91164430
_cell_length_c   6.91164420
_cell_angle_alpha   60.92047085
_cell_angle_beta   60.92046978
_cell_angle_gamma   60.92046880
_symmetry_Int_Tables_number   1
_chemical_formula_structural   CsRbBi3Pb
_chemical_formula_sum   'Cs1 Rb1 Bi3 Pb1'
_cell_volume   238.31218714
_cell_formula_units_Z   1
loop_
 _symmetry_equiv_pos_site_id
 _symmetry_equiv_pos_as_xyz
  1  'x, y, z'
loop_
 _atom_site_type_symbol
 _atom_site_label
 _atom_site_symmetry_multiplicity
 _atom_site_fract_x
 _atom_site_fract_y
 _atom_site_fract_z
 _atom_site_occupancy
  Cs  Cs0  1  0.251163  0.251163  0.251163  1
  Rb  Rb1  1  0.002302  0.002302  0.002302  1
  Bi  Bi2  1  0.621325  0.139605  0.621325  1
  Bi  Bi3  1  0.621325  0.621325  0.139605  1
  Bi  Bi4  1  0.139605  0.621325  0.621325  1
  Pb  Pb5  1  0.614279  0.614279  0.614279  1
