# generated using pymatgen
data_Y4Al18IrPd4Ru
_symmetry_space_group_name_H-M   'P 1'
_cell_length_a   7.61507698
_cell_length_b   7.61507897
_cell_length_c   9.48453507
_cell_angle_alpha   89.98018371
_cell_angle_beta   89.98017266
_cell_angle_gamma   119.58352546
_symmetry_Int_Tables_number   1
_chemical_formula_structural   Y4Al18IrPd4Ru
_chemical_formula_sum   'Y4 Al18 Ir1 Pd4 Ru1'
_cell_volume   478.30246916
_cell_formula_units_Z   1
loop_
 _symmetry_equiv_pos_site_id
 _symmetry_equiv_pos_as_xyz
  1  'x, y, z'
loop_
 _atom_site_type_symbol
 _atom_site_label
 _atom_site_symmetry_multiplicity
 _atom_site_fract_x
 _atom_site_fract_y
 _atom_site_fract_z
 _atom_site_occupancy
  Y  Y0  1  0.995711  0.671232  0.250906  1
  Y  Y1  1  0.005534  0.329747  0.749289  1
  Y  Y2  1  0.670253  0.994466  0.250711  1
  Y  Y3  1  0.328768  0.004289  0.749094  1
  Al  Al4  1  0.128777  0.130379  0.252928  1
  Al  Al5  1  0.869621  0.871223  0.747072  1
  Al  Al6  1  0.001417  0.335194  0.077753  1
  Al  Al7  1  0.997994  0.665607  0.921206  1
  Al  Al8  1  0.995064  0.662594  0.573199  1
  Al  Al9  1  0.337406  0.004936  0.426801  1
  Al  Al10  1  0.993669  0.330348  0.426764  1
  Al  Al11  1  0.669652  0.006331  0.573236  1
  Al  Al12  1  0.664806  0.998583  0.922247  1
  Al  Al13  1  0.334393  0.002006  0.078794  1
  Al  Al14  1  0.334835  0.328848  0.549959  1
  Al  Al15  1  0.671152  0.665165  0.450041  1
  Al  Al16  1  0.665063  0.665287  0.058357  1
  Al  Al17  1  0.334713  0.334937  0.941643  1
  Al  Al18  1  0.339256  0.546398  0.251815  1
  Al  Al19  1  0.659408  0.450617  0.744777  1
  Al  Al20  1  0.549383  0.340592  0.255223  1
  Al  Al21  1  0.453602  0.660744  0.748185  1
  Ir  Ir22  1  0.000493  0.999507  0.500000  1
  Pd  Pd23  1  0.672054  0.327946  0.000000  1
  Pd  Pd24  1  0.327486  0.672514  0.000000  1
  Pd  Pd25  1  0.327881  0.672119  0.500000  1
  Pd  Pd26  1  0.999901  0.000099  0.000000  1
  Ru  Ru27  1  0.671712  0.328288  0.500000  1
