# generated using pymatgen
data_Ca3MgPa8O24
_symmetry_space_group_name_H-M   'P 1'
_cell_length_a   5.41708100
_cell_length_b   5.39638134
_cell_length_c   16.38509300
_cell_angle_alpha   89.91942419
_cell_angle_beta   90.00000000
_cell_angle_gamma   90.00000000
_symmetry_Int_Tables_number   1
_chemical_formula_structural   Ca3MgPa8O24
_chemical_formula_sum   'Ca3 Mg1 Pa8 O24'
_cell_volume   478.97896628
_cell_formula_units_Z   1
loop_
 _symmetry_equiv_pos_site_id
 _symmetry_equiv_pos_as_xyz
  1  'x, y, z'
loop_
 _atom_site_type_symbol
 _atom_site_label
 _atom_site_symmetry_multiplicity
 _atom_site_fract_x
 _atom_site_fract_y
 _atom_site_fract_z
 _atom_site_occupancy
  Ca  Ca0  1  0.250942  0.500000  0.000000  1
  Ca  Ca1  1  0.236291  0.000000  0.500000  1
  Ca  Ca2  1  0.751749  0.000000  0.000000  1
  Mg  Mg3  1  0.772678  0.500000  0.500000  1
  Pa  Pa4  1  0.250065  0.477041  0.658359  1
  Pa  Pa5  1  0.252368  0.985476  0.836863  1
  Pa  Pa6  1  0.252368  0.014524  0.163137  1
  Pa  Pa7  1  0.250065  0.522959  0.341641  1
  Pa  Pa8  1  0.748830  0.027243  0.341816  1
  Pa  Pa9  1  0.750682  0.517150  0.162762  1
  Pa  Pa10  1  0.750682  0.482850  0.837238  1
  Pa  Pa11  1  0.748830  0.972757  0.658184  1
  O  O12  1  0.002068  0.740034  0.906979  1
  O  O13  1  0.465011  0.194390  0.597179  1
  O  O14  1  0.465011  0.805610  0.402821  1
  O  O15  1  0.002068  0.259966  0.093021  1
  O  O16  1  0.000604  0.760422  0.094024  1
  O  O17  1  0.530691  0.309091  0.415878  1
  O  O18  1  0.530691  0.690909  0.584122  1
  O  O19  1  0.000604  0.239578  0.905976  1
  O  O20  1  0.014242  0.781568  0.254510  1
  O  O21  1  0.490737  0.268814  0.255304  1
  O  O22  1  0.490737  0.731186  0.744696  1
  O  O23  1  0.014242  0.218432  0.745490  1
  O  O24  1  0.991673  0.719407  0.747928  1
  O  O25  1  0.514758  0.230626  0.751769  1
  O  O26  1  0.514758  0.769374  0.248231  1
  O  O27  1  0.991673  0.280593  0.252072  1
  O  O28  1  0.020440  0.743232  0.589958  1
  O  O29  1  0.498517  0.244347  0.909019  1
  O  O30  1  0.498517  0.755653  0.090981  1
  O  O31  1  0.020440  0.256768  0.410042  1
  O  O32  1  0.959636  0.746140  0.414440  1
  O  O33  1  0.503847  0.256063  0.094859  1
  O  O34  1  0.503847  0.743937  0.905141  1
  O  O35  1  0.959636  0.253860  0.585560  1
