# generated using pymatgen
data_La4Zn3GaGe4
_symmetry_space_group_name_H-M   'P 1'
_cell_length_a   4.32127900
_cell_length_b   4.32127891
_cell_length_c   17.48416000
_cell_angle_alpha   90.00000000
_cell_angle_beta   90.00000000
_cell_angle_gamma   120.00000833
_symmetry_Int_Tables_number   1
_chemical_formula_structural   La4Zn3GaGe4
_chemical_formula_sum   'La4 Zn3 Ga1 Ge4'
_cell_volume   282.74828061
_cell_formula_units_Z   1
loop_
 _symmetry_equiv_pos_site_id
 _symmetry_equiv_pos_as_xyz
  1  'x, y, z'
loop_
 _atom_site_type_symbol
 _atom_site_label
 _atom_site_symmetry_multiplicity
 _atom_site_fract_x
 _atom_site_fract_y
 _atom_site_fract_z
 _atom_site_occupancy
  La  La0  1  0.000000  0.000000  0.996001  1
  La  La1  1  0.000000  0.000000  0.251786  1
  La  La2  1  0.000000  0.000000  0.501990  1
  La  La3  1  0.000000  0.000000  0.749078  1
  Zn  Zn4  1  0.666666  0.333334  0.371360  1
  Zn  Zn5  1  0.333333  0.666666  0.640248  1
  Zn  Zn6  1  0.333333  0.666666  0.859440  1
  Ga  Ga7  1  0.666666  0.333334  0.144959  1
  Ge  Ge8  1  0.333333  0.666666  0.108550  1
  Ge  Ge9  1  0.333333  0.666666  0.379649  1
  Ge  Ge10  1  0.666666  0.333334  0.615221  1
  Ge  Ge11  1  0.666666  0.333334  0.881719  1
