# generated using pymatgen
data_Dy20(Ir3Rh)3
_symmetry_space_group_name_H-M   'P 1'
_cell_length_a   10.88485300
_cell_length_b   10.88485300
_cell_length_c   6.39211200
_cell_angle_alpha   90.00000000
_cell_angle_beta   90.00000000
_cell_angle_gamma   90.00000000
_symmetry_Int_Tables_number   1
_chemical_formula_structural   Dy20(Ir3Rh)3
_chemical_formula_sum   'Dy20 Ir9 Rh3'
_cell_volume   757.33758849
_cell_formula_units_Z   1
loop_
 _symmetry_equiv_pos_site_id
 _symmetry_equiv_pos_as_xyz
  1  'x, y, z'
loop_
 _atom_site_type_symbol
 _atom_site_label
 _atom_site_symmetry_multiplicity
 _atom_site_fract_x
 _atom_site_fract_y
 _atom_site_fract_z
 _atom_site_occupancy
  Dy  Dy0  1  0.290527  0.088817  0.379568  1
  Dy  Dy1  1  0.290409  0.910827  0.879410  1
  Dy  Dy2  1  0.709591  0.089173  0.879410  1
  Dy  Dy3  1  0.709473  0.911183  0.379568  1
  Dy  Dy4  1  0.589173  0.790409  0.879410  1
  Dy  Dy5  1  0.588817  0.209473  0.379568  1
  Dy  Dy6  1  0.411183  0.790527  0.379568  1
  Dy  Dy7  1  0.410827  0.209591  0.879410  1
  Dy  Dy8  1  0.208772  0.411207  0.619462  1
  Dy  Dy9  1  0.209150  0.589064  0.121816  1
  Dy  Dy10  1  0.790850  0.410936  0.121816  1
  Dy  Dy11  1  0.791228  0.588793  0.619462  1
  Dy  Dy12  1  0.910936  0.709150  0.121816  1
  Dy  Dy13  1  0.911207  0.291228  0.619462  1
  Dy  Dy14  1  0.088793  0.708772  0.619462  1
  Dy  Dy15  1  0.089064  0.290850  0.121816  1
  Dy  Dy16  1  0.000000  0.000000  0.500229  1
  Dy  Dy17  1  0.000000  0.000000  0.000021  1
  Dy  Dy18  1  0.500000  0.500000  0.000021  1
  Dy  Dy19  1  0.500000  0.500000  0.500229  1
  Ir  Ir20  1  0.845617  0.153288  0.249762  1
  Ir  Ir21  1  0.845795  0.846368  0.749810  1
  Ir  Ir22  1  0.154205  0.153632  0.749810  1
  Ir  Ir23  1  0.154383  0.846712  0.249762  1
  Ir  Ir24  1  0.653632  0.345795  0.749810  1
  Ir  Ir25  1  0.653288  0.654383  0.249762  1
  Ir  Ir26  1  0.346712  0.345617  0.249762  1
  Ir  Ir27  1  0.346368  0.654205  0.749810  1
  Ir  Ir28  1  0.000000  0.500000  0.375428  1
  Rh  Rh29  1  0.500000  0.000000  0.124187  1
  Rh  Rh30  1  0.500000  0.000000  0.624381  1
  Rh  Rh31  1  0.000000  0.500000  0.876192  1
