# generated using pymatgen
data_Cu2SiRh3Se8
_symmetry_space_group_name_H-M   'P 1'
_cell_length_a   7.32139664
_cell_length_b   7.32139649
_cell_length_c   7.32139589
_cell_angle_alpha   60.57383328
_cell_angle_beta   60.57383427
_cell_angle_gamma   60.57383092
_symmetry_Int_Tables_number   1
_chemical_formula_structural   Cu2SiRh3Se8
_chemical_formula_sum   'Cu2 Si1 Rh3 Se8'
_cell_volume   281.09947437
_cell_formula_units_Z   1
loop_
 _symmetry_equiv_pos_site_id
 _symmetry_equiv_pos_as_xyz
  1  'x, y, z'
loop_
 _atom_site_type_symbol
 _atom_site_label
 _atom_site_symmetry_multiplicity
 _atom_site_fract_x
 _atom_site_fract_y
 _atom_site_fract_z
 _atom_site_occupancy
  Cu  Cu0  1  0.500096  0.500096  0.500096  1
  Cu  Cu1  1  0.749904  0.749904  0.749904  1
  Si  Si2  1  0.125000  0.125000  0.125000  1
  Rh  Rh3  1  0.125000  0.125000  0.625000  1
  Rh  Rh4  1  0.125000  0.625000  0.125000  1
  Rh  Rh5  1  0.625000  0.125000  0.125000  1
  Se  Se6  1  0.344455  0.885913  0.885913  1
  Se  Se7  1  0.365308  0.365308  0.365308  1
  Se  Se8  1  0.905545  0.364087  0.364087  1
  Se  Se9  1  0.885913  0.885913  0.344455  1
  Se  Se10  1  0.884692  0.884692  0.884692  1
  Se  Se11  1  0.364087  0.905545  0.364087  1
  Se  Se12  1  0.364087  0.364087  0.905545  1
  Se  Se13  1  0.885913  0.344455  0.885913  1
