# generated using pymatgen
data_CeScFeB6
_symmetry_space_group_name_H-M   'P 1'
_cell_length_a   3.48941800
_cell_length_b   8.97975500
_cell_length_c   11.36254000
_cell_angle_alpha   90.00000000
_cell_angle_beta   90.00000000
_cell_angle_gamma   90.00000000
_symmetry_Int_Tables_number   1
_chemical_formula_structural   CeScFeB6
_chemical_formula_sum   'Ce4 Sc4 Fe4 B24'
_cell_volume   356.03517746
_cell_formula_units_Z   4
loop_
 _symmetry_equiv_pos_site_id
 _symmetry_equiv_pos_as_xyz
  1  'x, y, z'
loop_
 _atom_site_type_symbol
 _atom_site_label
 _atom_site_symmetry_multiplicity
 _atom_site_fract_x
 _atom_site_fract_y
 _atom_site_fract_z
 _atom_site_occupancy
  Ce  Ce0  1  0.000000  0.322289  0.414227  1
  Ce  Ce1  1  0.000000  0.677711  0.585773  1
  Ce  Ce2  1  0.000000  0.822289  0.085773  1
  Ce  Ce3  1  0.000000  0.177711  0.914227  1
  Sc  Sc4  1  0.000000  0.944309  0.372831  1
  Sc  Sc5  1  0.000000  0.055691  0.627169  1
  Sc  Sc6  1  0.000000  0.444309  0.127169  1
  Sc  Sc7  1  0.000000  0.555691  0.872831  1
  Fe  Fe8  1  0.000000  0.641676  0.317802  1
  Fe  Fe9  1  0.000000  0.358324  0.682198  1
  Fe  Fe10  1  0.000000  0.141676  0.182198  1
  Fe  Fe11  1  0.000000  0.858324  0.817802  1
  B  B12  1  0.500000  0.557206  0.429606  1
  B  B13  1  0.500000  0.442794  0.570394  1
  B  B14  1  0.500000  0.057206  0.070394  1
  B  B15  1  0.500000  0.942794  0.929606  1
  B  B16  1  0.500000  0.752318  0.416643  1
  B  B17  1  0.500000  0.247682  0.583357  1
  B  B18  1  0.500000  0.252318  0.083357  1
  B  B19  1  0.500000  0.747682  0.916643  1
  B  B20  1  0.500000  0.792657  0.266216  1
  B  B21  1  0.500000  0.207343  0.733784  1
  B  B22  1  0.500000  0.292657  0.233784  1
  B  B23  1  0.500000  0.707343  0.766216  1
  B  B24  1  0.500000  0.629820  0.183965  1
  B  B25  1  0.500000  0.370180  0.816035  1
  B  B26  1  0.500000  0.129820  0.316035  1
  B  B27  1  0.500000  0.870180  0.683965  1
  B  B28  1  0.500000  0.985424  0.214690  1
  B  B29  1  0.500000  0.014576  0.785310  1
  B  B30  1  0.500000  0.485424  0.285310  1
  B  B31  1  0.500000  0.514576  0.714690  1
  B  B32  1  0.500000  0.598732  0.026616  1
  B  B33  1  0.500000  0.401268  0.973384  1
  B  B34  1  0.500000  0.098732  0.473384  1
  B  B35  1  0.500000  0.901268  0.526616  1
