# generated using pymatgen
data_LiZn3InIr
_symmetry_space_group_name_H-M   'P 1'
_cell_length_a   5.13249107
_cell_length_b   5.13249121
_cell_length_c   5.18522021
_cell_angle_alpha   60.33581932
_cell_angle_beta   60.33583404
_cell_angle_gamma   59.99999029
_symmetry_Int_Tables_number   1
_chemical_formula_structural   LiZn3InIr
_chemical_formula_sum   'Li1 Zn3 In1 Ir1'
_cell_volume   97.07212326
_cell_formula_units_Z   1
loop_
 _symmetry_equiv_pos_site_id
 _symmetry_equiv_pos_as_xyz
  1  'x, y, z'
loop_
 _atom_site_type_symbol
 _atom_site_label
 _atom_site_symmetry_multiplicity
 _atom_site_fract_x
 _atom_site_fract_y
 _atom_site_fract_z
 _atom_site_occupancy
  Li  Li0  1  0.993330  0.993330  0.020009  1
  Zn  Zn1  1  0.625013  0.122029  0.627945  1
  Zn  Zn2  1  0.122029  0.625013  0.627945  1
  Zn  Zn3  1  0.625013  0.625013  0.627945  1
  In  In4  1  0.260866  0.260866  0.217400  1
  Ir  Ir5  1  0.623748  0.623748  0.128755  1
