# generated using pymatgen
data_HoNbB2SbRu5
_symmetry_space_group_name_H-M   'P 1'
_cell_length_a   9.59772530
_cell_length_b   9.59772606
_cell_length_c   3.09806200
_cell_angle_alpha   90.00000000
_cell_angle_beta   90.00000000
_cell_angle_gamma   91.20662310
_symmetry_Int_Tables_number   1
_chemical_formula_structural   HoNbB2SbRu5
_chemical_formula_sum   'Ho2 Nb2 B4 Sb2 Ru10'
_cell_volume   285.31884511
_cell_formula_units_Z   2
loop_
 _symmetry_equiv_pos_site_id
 _symmetry_equiv_pos_as_xyz
  1  'x, y, z'
loop_
 _atom_site_type_symbol
 _atom_site_label
 _atom_site_symmetry_multiplicity
 _atom_site_fract_x
 _atom_site_fract_y
 _atom_site_fract_z
 _atom_site_occupancy
  Ho  Ho0  1  0.824246  0.675754  0.000000  1
  Ho  Ho1  1  0.175754  0.324246  0.000000  1
  Nb  Nb2  1  0.325870  0.825870  0.000000  1
  Nb  Nb3  1  0.674130  0.174130  0.000000  1
  B  B4  1  0.620038  0.879962  0.000000  1
  B  B5  1  0.379962  0.120038  0.000000  1
  B  B6  1  0.121529  0.621529  0.000000  1
  B  B7  1  0.878471  0.378471  0.000000  1
  Sb  Sb8  1  0.500000  0.500000  0.000000  1
  Sb  Sb9  1  0.000000  0.000000  0.000000  1
  Ru  Ru10  1  0.557576  0.725928  0.500000  1
  Ru  Ru11  1  0.442424  0.274072  0.500000  1
  Ru  Ru12  1  0.083174  0.783888  0.500000  1
  Ru  Ru13  1  0.916826  0.216112  0.500000  1
  Ru  Ru14  1  0.283888  0.583174  0.500000  1
  Ru  Ru15  1  0.716112  0.416826  0.500000  1
  Ru  Ru16  1  0.225928  0.057576  0.500000  1
  Ru  Ru17  1  0.774072  0.942424  0.500000  1
  Ru  Ru18  1  0.500000  0.000000  0.500000  1
  Ru  Ru19  1  0.000000  0.500000  0.500000  1
