# generated using pymatgen
data_Sm10Co2Br15
_symmetry_space_group_name_H-M   'P 1'
_cell_length_a   9.41876988
_cell_length_b   10.31004524
_cell_length_c   11.05468716
_cell_angle_alpha   92.34591169
_cell_angle_beta   114.16618072
_cell_angle_gamma   110.52902837
_symmetry_Int_Tables_number   1
_chemical_formula_structural   Sm10Co2Br15
_chemical_formula_sum   'Sm10 Co2 Br15'
_cell_volume   895.58181542
_cell_formula_units_Z   1
loop_
 _symmetry_equiv_pos_site_id
 _symmetry_equiv_pos_as_xyz
  1  'x, y, z'
loop_
 _atom_site_type_symbol
 _atom_site_label
 _atom_site_symmetry_multiplicity
 _atom_site_fract_x
 _atom_site_fract_y
 _atom_site_fract_z
 _atom_site_occupancy
  Sm  Sm0  1  0.800286  0.402069  0.270634  1
  Sm  Sm1  1  0.199714  0.597931  0.729366  1
  Sm  Sm2  1  0.669241  0.750828  0.822590  1
  Sm  Sm3  1  0.330759  0.249172  0.177410  1
  Sm  Sm4  1  0.528916  0.706456  0.102952  1
  Sm  Sm5  1  0.471084  0.293544  0.897048  1
  Sm  Sm6  1  0.594701  0.047384  0.338593  1
  Sm  Sm7  1  0.405299  0.952616  0.661407  1
  Sm  Sm8  1  0.732026  0.079013  0.049659  1
  Sm  Sm9  1  0.267974  0.920987  0.950341  1
  Co  Co10  1  0.467052  0.829058  0.882057  1
  Co  Co11  1  0.532948  0.170942  0.117943  1
  Br  Br12  1  0.000000  0.000000  0.000000  1
  Br  Br13  1  0.639082  0.885459  0.586194  1
  Br  Br14  1  0.360918  0.114541  0.413806  1
  Br  Br15  1  0.888805  0.305832  0.526778  1
  Br  Br16  1  0.111195  0.694168  0.473222  1
  Br  Br17  1  0.301012  0.767536  0.188483  1
  Br  Br18  1  0.698988  0.232464  0.811517  1
  Br  Br19  1  0.062190  0.341307  0.224144  1
  Br  Br20  1  0.167161  0.057191  0.699179  1
  Br  Br21  1  0.832839  0.942809  0.300821  1
  Br  Br22  1  0.245258  0.415212  0.947745  1
  Br  Br23  1  0.754742  0.584788  0.052255  1
  Br  Br24  1  0.407465  0.468647  0.669150  1
  Br  Br25  1  0.592535  0.531353  0.330850  1
  Br  Br26  1  0.937810  0.658693  0.775856  1
