# generated using pymatgen
data_PaCo2CuP
_symmetry_space_group_name_H-M   'P 1'
_cell_length_a   3.65563400
_cell_length_b   3.65563400
_cell_length_c   10.66283600
_cell_angle_alpha   90.00000000
_cell_angle_beta   90.00000000
_cell_angle_gamma   90.00000000
_symmetry_Int_Tables_number   1
_chemical_formula_structural   PaCo2CuP
_chemical_formula_sum   'Pa2 Co4 Cu2 P2'
_cell_volume   142.49451432
_cell_formula_units_Z   2
loop_
 _symmetry_equiv_pos_site_id
 _symmetry_equiv_pos_as_xyz
  1  'x, y, z'
loop_
 _atom_site_type_symbol
 _atom_site_label
 _atom_site_symmetry_multiplicity
 _atom_site_fract_x
 _atom_site_fract_y
 _atom_site_fract_z
 _atom_site_occupancy
  Pa  Pa0  1  0.500000  0.000000  0.242738  1
  Pa  Pa1  1  0.000000  0.500000  0.757426  1
  Co  Co2  1  0.000000  0.500000  0.174441  1
  Co  Co3  1  0.500000  0.000000  0.825466  1
  Co  Co4  1  0.000000  0.000000  0.500181  1
  Co  Co5  1  0.500000  0.500000  0.500181  1
  Cu  Cu6  1  0.500000  0.500000  0.999685  1
  Cu  Cu7  1  0.000000  0.000000  0.999685  1
  P  P8  1  0.000000  0.500000  0.382242  1
  P  P9  1  0.500000  0.000000  0.617957  1
