# generated using pymatgen
data_NdLu19Ir12
_symmetry_space_group_name_H-M   'P 1'
_cell_length_a   10.68645115
_cell_length_b   10.69562792
_cell_length_c   6.28023308
_cell_angle_alpha   89.91127541
_cell_angle_beta   89.99799427
_cell_angle_gamma   90.04875646
_symmetry_Int_Tables_number   1
_chemical_formula_structural   NdLu19Ir12
_chemical_formula_sum   'Nd1 Lu19 Ir12'
_cell_volume   717.81887662
_cell_formula_units_Z   1
loop_
 _symmetry_equiv_pos_site_id
 _symmetry_equiv_pos_as_xyz
  1  'x, y, z'
loop_
 _atom_site_type_symbol
 _atom_site_label
 _atom_site_symmetry_multiplicity
 _atom_site_fract_x
 _atom_site_fract_y
 _atom_site_fract_z
 _atom_site_occupancy
  Nd  Nd0  1  0.088985  0.287443  0.126517  1
  Lu  Lu1  1  0.293699  0.084495  0.378709  1
  Lu  Lu2  1  0.291684  0.912805  0.878487  1
  Lu  Lu3  1  0.708295  0.087085  0.876262  1
  Lu  Lu4  1  0.708296  0.912747  0.377606  1
  Lu  Lu5  1  0.587090  0.791763  0.877965  1
  Lu  Lu6  1  0.587056  0.208359  0.377858  1
  Lu  Lu7  1  0.412986  0.791337  0.377275  1
  Lu  Lu8  1  0.413343  0.208267  0.876582  1
  Lu  Lu9  1  0.208805  0.414595  0.622343  1
  Lu  Lu10  1  0.208454  0.589530  0.122140  1
  Lu  Lu11  1  0.790206  0.413817  0.122711  1
  Lu  Lu12  1  0.790766  0.588015  0.623081  1
  Lu  Lu13  1  0.912281  0.708851  0.122991  1
  Lu  Lu14  1  0.910964  0.292538  0.622234  1
  Lu  Lu15  1  0.087354  0.709254  0.622962  1
  Lu  Lu16  1  0.999416  0.999575  0.499541  1
  Lu  Lu17  1  0.998733  0.997550  0.998535  1
  Lu  Lu18  1  0.500104  0.500537  0.999254  1
  Lu  Lu19  1  0.500694  0.500396  0.499951  1
  Ir  Ir20  1  0.842375  0.151229  0.252169  1
  Ir  Ir21  1  0.846238  0.845912  0.750117  1
  Ir  Ir22  1  0.155099  0.150911  0.741520  1
  Ir  Ir23  1  0.153520  0.846316  0.249460  1
  Ir  Ir24  1  0.653825  0.346339  0.750432  1
  Ir  Ir25  1  0.653723  0.653665  0.249910  1
  Ir  Ir26  1  0.351591  0.346689  0.253141  1
  Ir  Ir27  1  0.346624  0.653796  0.749977  1
  Ir  Ir28  1  0.500727  0.999797  0.122013  1
  Ir  Ir29  1  0.500179  0.999431  0.622801  1
  Ir  Ir30  1  0.998501  0.503525  0.874777  1
  Ir  Ir31  1  0.998386  0.503431  0.380684  1
