# generated using pymatgen
data_Ho3ScHgAu4
_symmetry_space_group_name_H-M   'P 1'
_cell_length_a   7.96607956
_cell_length_b   7.96607888
_cell_length_c   7.96607696
_cell_angle_alpha   65.74530190
_cell_angle_beta   65.74530664
_cell_angle_gamma   65.74529389
_symmetry_Int_Tables_number   1
_chemical_formula_structural   Ho3ScHgAu4
_chemical_formula_sum   'Ho6 Sc2 Hg2 Au8'
_cell_volume   402.00010218
_cell_formula_units_Z   2
loop_
 _symmetry_equiv_pos_site_id
 _symmetry_equiv_pos_as_xyz
  1  'x, y, z'
loop_
 _atom_site_type_symbol
 _atom_site_label
 _atom_site_symmetry_multiplicity
 _atom_site_fract_x
 _atom_site_fract_y
 _atom_site_fract_z
 _atom_site_occupancy
  Ho  Ho0  1  0.893572  0.192190  0.606739  1
  Ho  Ho1  1  0.606739  0.893572  0.192190  1
  Ho  Ho2  1  0.192190  0.606739  0.893572  1
  Ho  Ho3  1  0.106428  0.807810  0.393261  1
  Ho  Ho4  1  0.393261  0.106428  0.807810  1
  Ho  Ho5  1  0.807810  0.393261  0.106428  1
  Sc  Sc6  1  0.663194  0.663194  0.663194  1
  Sc  Sc7  1  0.336806  0.336806  0.336806  1
  Hg  Hg8  1  0.000000  0.000000  0.000000  1
  Hg  Hg9  1  0.500000  0.500000  0.500000  1
  Au  Au10  1  0.809396  0.809396  0.809396  1
  Au  Au11  1  0.190604  0.190604  0.190604  1
  Au  Au12  1  0.935639  0.555371  0.317186  1
  Au  Au13  1  0.317186  0.935639  0.555371  1
  Au  Au14  1  0.555371  0.317186  0.935639  1
  Au  Au15  1  0.064361  0.444629  0.682814  1
  Au  Au16  1  0.682814  0.064361  0.444629  1
  Au  Au17  1  0.444629  0.682814  0.064361  1
