# generated using pymatgen
data_TbTm2Ni2Rh7
_symmetry_space_group_name_H-M   'P 1'
_cell_length_a   5.26023476
_cell_length_b   5.26023376
_cell_length_c   8.93053984
_cell_angle_alpha   72.87195872
_cell_angle_beta   72.87196486
_cell_angle_gamma   60.00000293
_symmetry_Int_Tables_number   1
_chemical_formula_structural   TbTm2Ni2Rh7
_chemical_formula_sum   'Tb1 Tm2 Ni2 Rh7'
_cell_volume   201.24794084
_cell_formula_units_Z   1
loop_
 _symmetry_equiv_pos_site_id
 _symmetry_equiv_pos_as_xyz
  1  'x, y, z'
loop_
 _atom_site_type_symbol
 _atom_site_label
 _atom_site_symmetry_multiplicity
 _atom_site_fract_x
 _atom_site_fract_y
 _atom_site_fract_z
 _atom_site_occupancy
  Tb  Tb0  1  0.000000  0.000000  0.000000  1
  Tm  Tm1  1  0.139514  0.139514  0.581457  1
  Tm  Tm2  1  0.860486  0.860486  0.418543  1
  Ni  Ni3  1  0.333403  0.333403  0.999788  1
  Ni  Ni4  1  0.666597  0.666597  0.000212  1
  Rh  Rh5  1  0.077835  0.581816  0.758532  1
  Rh  Rh6  1  0.581816  0.581816  0.758532  1
  Rh  Rh7  1  0.581816  0.077835  0.758532  1
  Rh  Rh8  1  0.922165  0.418184  0.241468  1
  Rh  Rh9  1  0.418184  0.418184  0.241468  1
  Rh  Rh10  1  0.418184  0.922165  0.241468  1
  Rh  Rh11  1  0.500000  0.500000  0.500000  1
