# generated using pymatgen
data_LaNd(IO4)2
_symmetry_space_group_name_H-M   'P 1'
_cell_length_a   5.70520967
_cell_length_b   5.73039100
_cell_length_c   11.16286800
_cell_angle_alpha   90.00000000
_cell_angle_beta   89.31086251
_cell_angle_gamma   90.00000000
_symmetry_Int_Tables_number   1
_chemical_formula_structural   LaNd(IO4)2
_chemical_formula_sum   'La2 Nd2 I4 O16'
_cell_volume   364.92216300
_cell_formula_units_Z   2
loop_
 _symmetry_equiv_pos_site_id
 _symmetry_equiv_pos_as_xyz
  1  'x, y, z'
loop_
 _atom_site_type_symbol
 _atom_site_label
 _atom_site_symmetry_multiplicity
 _atom_site_fract_x
 _atom_site_fract_y
 _atom_site_fract_z
 _atom_site_occupancy
  La  La0  1  0.497591  0.313544  0.889382  1
  La  La1  1  0.502409  0.813544  0.110618  1
  Nd  Nd2  1  0.007484  0.815006  0.893375  1
  Nd  Nd3  1  0.992516  0.315006  0.106625  1
  I  I4  1  0.000324  0.328025  0.634567  1
  I  I5  1  0.999676  0.828025  0.365433  1
  I  I6  1  0.494572  0.828097  0.632009  1
  I  I7  1  0.505428  0.328097  0.367991  1
  O  O8  1  0.244414  0.065569  0.006898  1
  O  O9  1  0.755586  0.565569  0.993102  1
  O  O10  1  0.253634  0.565540  0.006289  1
  O  O11  1  0.746366  0.065540  0.993711  1
  O  O12  1  0.124690  0.434376  0.775975  1
  O  O13  1  0.875310  0.934376  0.224025  1
  O  O14  1  0.363921  0.927853  0.774761  1
  O  O15  1  0.636079  0.427853  0.225239  1
  O  O16  1  0.842575  0.084772  0.713749  1
  O  O17  1  0.157425  0.584772  0.286251  1
  O  O18  1  0.653516  0.586277  0.708559  1
  O  O19  1  0.346484  0.086277  0.291441  1
  O  O20  1  0.245288  0.164010  0.564098  1
  O  O21  1  0.754712  0.664010  0.435902  1
  O  O22  1  0.252982  0.663753  0.561721  1
  O  O23  1  0.747018  0.163753  0.438279  1
