# generated using pymatgen
data_Tm2TiNb3Co16(P6Ru)2
_symmetry_space_group_name_H-M   'P 1'
_cell_length_a   11.84204900
_cell_length_b   11.84204852
_cell_length_c   3.64197800
_cell_angle_alpha   90.00000000
_cell_angle_beta   90.00000000
_cell_angle_gamma   119.99999855
_symmetry_Int_Tables_number   1
_chemical_formula_structural   Tm2TiNb3Co16(P6Ru)2
_chemical_formula_sum   'Tm2 Ti1 Nb3 Co16 P12 Ru2'
_cell_volume   442.30479339
_cell_formula_units_Z   1
loop_
 _symmetry_equiv_pos_site_id
 _symmetry_equiv_pos_as_xyz
  1  'x, y, z'
loop_
 _atom_site_type_symbol
 _atom_site_label
 _atom_site_symmetry_multiplicity
 _atom_site_fract_x
 _atom_site_fract_y
 _atom_site_fract_z
 _atom_site_occupancy
  Tm  Tm0  1  0.333061  0.665820  0.000000  1
  Tm  Tm1  1  0.667242  0.334180  0.000000  1
  Ti  Ti2  1  0.441892  0.000000  0.000000  1
  Nb  Nb3  1  0.821319  0.000000  0.500000  1
  Nb  Nb4  1  0.001637  0.821714  0.500000  1
  Nb  Nb5  1  0.179923  0.178286  0.500000  1
  Co  Co6  1  0.275535  0.000000  0.500000  1
  Co  Co7  1  0.000480  0.276700  0.500000  1
  Co  Co8  1  0.723779  0.723300  0.500000  1
  Co  Co9  1  0.632312  0.808668  0.000000  1
  Co  Co10  1  0.190584  0.822303  0.000000  1
  Co  Co11  1  0.178056  0.368591  0.000000  1
  Co  Co12  1  0.368283  0.177697  0.000000  1
  Co  Co13  1  0.809466  0.631409  0.000000  1
  Co  Co14  1  0.823646  0.191332  0.000000  1
  Co  Co15  1  0.521502  0.875019  0.500000  1
  Co  Co16  1  0.125303  0.645402  0.500000  1
  Co  Co17  1  0.354026  0.480426  0.500000  1
  Co  Co18  1  0.479900  0.354598  0.500000  1
  Co  Co19  1  0.873599  0.519574  0.500000  1
  Co  Co20  1  0.646483  0.124981  0.500000  1
  Co  Co21  1  0.999556  0.000000  0.000000  1
  P  P22  1  0.173605  0.000000  0.000000  1
  P  P23  1  0.000517  0.174542  0.000000  1
  P  P24  1  0.825976  0.825458  0.000000  1
  P  P25  1  0.522358  0.685847  0.500000  1
  P  P26  1  0.312590  0.832532  0.500000  1
  P  P27  1  0.163578  0.478090  0.500000  1
  P  P28  1  0.480057  0.167468  0.500000  1
  P  P29  1  0.685487  0.521910  0.500000  1
  P  P30  1  0.836510  0.314153  0.500000  1
  P  P31  1  0.647294  0.000000  0.000000  1
  P  P32  1  0.998803  0.642897  0.000000  1
  P  P33  1  0.355906  0.357103  0.000000  1
  Ru  Ru34  1  0.999510  0.449288  0.000000  1
  Ru  Ru35  1  0.550222  0.550712  0.000000  1
