# generated using pymatgen
data_Y3AlIn2Ga2Pt
_symmetry_space_group_name_H-M   'P 1'
_cell_length_a   7.09964500
_cell_length_b   7.22420136
_cell_length_c   4.37296600
_cell_angle_alpha   90.00000000
_cell_angle_beta   90.00000000
_cell_angle_gamma   119.43127925
_symmetry_Int_Tables_number   1
_chemical_formula_structural   Y3AlIn2Ga2Pt
_chemical_formula_sum   'Y3 Al1 In2 Ga2 Pt1'
_cell_volume   195.34110874
_cell_formula_units_Z   1
loop_
 _symmetry_equiv_pos_site_id
 _symmetry_equiv_pos_as_xyz
  1  'x, y, z'
loop_
 _atom_site_type_symbol
 _atom_site_label
 _atom_site_symmetry_multiplicity
 _atom_site_fract_x
 _atom_site_fract_y
 _atom_site_fract_z
 _atom_site_occupancy
  Y  Y0  1  0.417419  0.000000  0.500000  1
  Y  Y1  1  0.000103  0.412096  0.500000  1
  Y  Y2  1  0.588007  0.587904  0.500000  1
  Al  Al3  1  0.762614  0.000000  0.000000  1
  In  In4  1  0.245645  0.249684  0.000000  1
  In  In5  1  0.995961  0.750316  0.000000  1
  Ga  Ga6  1  0.668502  0.321144  0.000000  1
  Ga  Ga7  1  0.347357  0.678856  0.000000  1
  Pt  Pt8  1  0.974392  0.000000  0.500000  1
