# generated using pymatgen
data_Ho2H4BrCl
_symmetry_space_group_name_H-M   'P 1'
_cell_length_a   10.98972537
_cell_length_b   10.98972528
_cell_length_c   10.98972446
_cell_angle_alpha   19.48433298
_cell_angle_beta   19.48433434
_cell_angle_gamma   19.48433446
_symmetry_Int_Tables_number   1
_chemical_formula_structural   Ho2H4BrCl
_chemical_formula_sum   'Ho2 H4 Br1 Cl1'
_cell_volume   129.11447187
_cell_formula_units_Z   1
loop_
 _symmetry_equiv_pos_site_id
 _symmetry_equiv_pos_as_xyz
  1  'x, y, z'
loop_
 _atom_site_type_symbol
 _atom_site_label
 _atom_site_symmetry_multiplicity
 _atom_site_fract_x
 _atom_site_fract_y
 _atom_site_fract_z
 _atom_site_occupancy
  Ho  Ho0  1  0.881702  0.881702  0.881702  1
  Ho  Ho1  1  0.116589  0.116589  0.116589  1
  H  H2  1  0.813773  0.813773  0.813773  1
  H  H3  1  0.184561  0.184561  0.184561  1
  H  H4  1  0.542082  0.542082  0.542082  1
  H  H5  1  0.457117  0.457117  0.457117  1
  Br  Br6  1  0.275170  0.275170  0.275170  1
  Cl  Cl7  1  0.729005  0.729005  0.729005  1
