# generated using pymatgen
data_Yb2Al20Tc3Ni
_symmetry_space_group_name_H-M   'P 1'
_cell_length_a   6.93697298
_cell_length_b   6.89138959
_cell_length_c   9.11624338
_cell_angle_alpha   90.46977997
_cell_angle_beta   89.99252885
_cell_angle_gamma   97.34148544
_symmetry_Int_Tables_number   1
_chemical_formula_structural   Yb2Al20Tc3Ni
_chemical_formula_sum   'Yb2 Al20 Tc3 Ni1'
_cell_volume   432.21814085
_cell_formula_units_Z   1
loop_
 _symmetry_equiv_pos_site_id
 _symmetry_equiv_pos_as_xyz
  1  'x, y, z'
loop_
 _atom_site_type_symbol
 _atom_site_label
 _atom_site_symmetry_multiplicity
 _atom_site_fract_x
 _atom_site_fract_y
 _atom_site_fract_z
 _atom_site_occupancy
  Yb  Yb0  1  0.627939  0.378682  0.750585  1
  Yb  Yb1  1  0.372061  0.621318  0.249415  1
  Al  Al2  1  0.282038  0.026280  0.748066  1
  Al  Al3  1  0.026308  0.279997  0.247599  1
  Al  Al4  1  0.717962  0.973720  0.251934  1
  Al  Al5  1  0.973692  0.720003  0.752401  1
  Al  Al6  1  0.877488  0.122836  0.954914  1
  Al  Al7  1  0.122512  0.877164  0.045086  1
  Al  Al8  1  0.875157  0.123915  0.544135  1
  Al  Al9  1  0.124843  0.876085  0.455865  1
  Al  Al10  1  0.637363  0.913472  0.752733  1
  Al  Al11  1  0.910702  0.639238  0.249863  1
  Al  Al12  1  0.362637  0.086528  0.247267  1
  Al  Al13  1  0.089298  0.360762  0.750137  1
  Al  Al14  1  0.345189  0.656824  0.900445  1
  Al  Al15  1  0.654811  0.343176  0.099555  1
  Al  Al16  1  0.343522  0.658031  0.598882  1
  Al  Al17  1  0.656478  0.341969  0.401118  1
  Al  Al18  1  0.724906  0.726472  0.999074  1
  Al  Al19  1  0.727587  0.728057  0.501370  1
  Al  Al20  1  0.275094  0.273528  0.000926  1
  Al  Al21  1  0.272413  0.271943  0.498630  1
  Tc  Tc22  1  0.000000  0.500000  0.000000  1
  Tc  Tc23  1  0.500000  0.000000  0.500000  1
  Tc  Tc24  1  0.000000  0.500000  0.500000  1
  Ni  Ni25  1  0.500000  0.000000  0.000000  1
