# generated using pymatgen
data_K3P5OsSe10
_symmetry_space_group_name_H-M   'P 1'
_cell_length_a   7.43909000
_cell_length_b   11.36795922
_cell_length_c   12.74459112
_cell_angle_alpha   86.56168311
_cell_angle_beta   90.00000000
_cell_angle_gamma   90.00000000
_symmetry_Int_Tables_number   1
_chemical_formula_structural   K3P5OsSe10
_chemical_formula_sum   'K6 P10 Os2 Se20'
_cell_volume   1075.83524434
_cell_formula_units_Z   2
loop_
 _symmetry_equiv_pos_site_id
 _symmetry_equiv_pos_as_xyz
  1  'x, y, z'
loop_
 _atom_site_type_symbol
 _atom_site_label
 _atom_site_symmetry_multiplicity
 _atom_site_fract_x
 _atom_site_fract_y
 _atom_site_fract_z
 _atom_site_occupancy
  K  K0  1  0.250000  0.984664  0.607936  1
  K  K1  1  0.750000  0.015336  0.392064  1
  K  K2  1  0.250000  0.097757  0.069556  1
  K  K3  1  0.250000  0.473126  0.612928  1
  K  K4  1  0.750000  0.902243  0.930444  1
  K  K5  1  0.750000  0.526874  0.387072  1
  P  P6  1  0.750000  0.275735  0.591435  1
  P  P7  1  0.520398  0.476412  0.916550  1
  P  P8  1  0.479602  0.523588  0.083450  1
  P  P9  1  0.250000  0.865006  0.274365  1
  P  P10  1  0.250000  0.724265  0.408565  1
  P  P11  1  0.750000  0.134994  0.725635  1
  P  P12  1  0.250000  0.722318  0.942450  1
  P  P13  1  0.979602  0.476412  0.916550  1
  P  P14  1  0.020398  0.523588  0.083450  1
  P  P15  1  0.750000  0.277682  0.057550  1
  Os  Os16  1  0.250000  0.649860  0.114247  1
  Os  Os17  1  0.750000  0.350140  0.885753  1
  Se  Se18  1  0.250000  0.906529  0.881664  1
  Se  Se19  1  0.750000  0.961992  0.666368  1
  Se  Se20  1  0.250000  0.379931  0.879865  1
  Se  Se21  1  0.994932  0.258697  0.500765  1
  Se  Se22  1  0.474529  0.813404  0.168874  1
  Se  Se23  1  0.489626  0.659909  0.838172  1
  Se  Se24  1  0.010374  0.659909  0.838172  1
  Se  Se25  1  0.505068  0.258697  0.500765  1
  Se  Se26  1  0.250000  0.038008  0.333632  1
  Se  Se27  1  0.510374  0.340091  0.161828  1
  Se  Se28  1  0.750000  0.620069  0.120135  1
  Se  Se29  1  0.525471  0.186596  0.831126  1
  Se  Se30  1  0.250000  0.563319  0.311539  1
  Se  Se31  1  0.974529  0.186596  0.831126  1
  Se  Se32  1  0.494932  0.741303  0.499235  1
  Se  Se33  1  0.989626  0.340091  0.161828  1
  Se  Se34  1  0.750000  0.093471  0.118336  1
  Se  Se35  1  0.025471  0.813404  0.168874  1
  Se  Se36  1  0.005068  0.741303  0.499235  1
  Se  Se37  1  0.750000  0.436681  0.688461  1
