# generated using pymatgen
data_Y16TmLu3Sn16
_symmetry_space_group_name_H-M   'P 1'
_cell_length_a   8.01538116
_cell_length_b   8.15740170
_cell_length_c   15.46428400
_cell_angle_alpha   90.00000000
_cell_angle_beta   90.00000000
_cell_angle_gamma   89.98773129
_symmetry_Int_Tables_number   1
_chemical_formula_structural   Y16TmLu3Sn16
_chemical_formula_sum   'Y16 Tm1 Lu3 Sn16'
_cell_volume   1011.12729726
_cell_formula_units_Z   1
loop_
 _symmetry_equiv_pos_site_id
 _symmetry_equiv_pos_as_xyz
  1  'x, y, z'
loop_
 _atom_site_type_symbol
 _atom_site_label
 _atom_site_symmetry_multiplicity
 _atom_site_fract_x
 _atom_site_fract_y
 _atom_site_fract_z
 _atom_site_occupancy
  Y  Y0  1  0.367306  0.836963  0.877511  1
  Y  Y1  1  0.867308  0.663018  0.622327  1
  Y  Y2  1  0.632863  0.163212  0.377778  1
  Y  Y3  1  0.132584  0.336991  0.122217  1
  Y  Y4  1  0.632863  0.163212  0.122222  1
  Y  Y5  1  0.132584  0.336991  0.377783  1
  Y  Y6  1  0.367306  0.836963  0.622489  1
  Y  Y7  1  0.867308  0.663018  0.877673  1
  Y  Y8  1  0.521906  0.321006  0.902394  1
  Y  Y9  1  0.021943  0.178992  0.597705  1
  Y  Y10  1  0.478227  0.678881  0.402455  1
  Y  Y11  1  0.978049  0.820856  0.097569  1
  Y  Y12  1  0.478227  0.678881  0.097545  1
  Y  Y13  1  0.978049  0.820856  0.402431  1
  Y  Y14  1  0.521906  0.321006  0.597606  1
  Y  Y15  1  0.021943  0.178992  0.902295  1
  Tm  Tm16  1  0.301344  0.002674  0.250000  1
  Lu  Lu17  1  0.198673  0.502912  0.750000  1
  Lu  Lu18  1  0.698678  0.997129  0.750000  1
  Lu  Lu19  1  0.801199  0.496961  0.250000  1
  Sn  Sn20  1  0.292777  0.035421  0.042355  1
  Sn  Sn21  1  0.792946  0.464754  0.457417  1
  Sn  Sn22  1  0.707171  0.964678  0.542784  1
  Sn  Sn23  1  0.207256  0.535544  0.957235  1
  Sn  Sn24  1  0.707171  0.964678  0.957216  1
  Sn  Sn25  1  0.207256  0.535544  0.542765  1
  Sn  Sn26  1  0.292777  0.035421  0.457645  1
  Sn  Sn27  1  0.792946  0.464754  0.042583  1
  Sn  Sn28  1  0.564057  0.618351  0.750000  1
  Sn  Sn29  1  0.063827  0.881554  0.750000  1
  Sn  Sn30  1  0.436070  0.381750  0.250000  1
  Sn  Sn31  1  0.935629  0.118868  0.250000  1
  Sn  Sn32  1  0.330613  0.149357  0.750000  1
  Sn  Sn33  1  0.830590  0.350811  0.750000  1
  Sn  Sn34  1  0.669479  0.850697  0.250000  1
  Sn  Sn35  1  0.169170  0.648305  0.250000  1
