# generated using pymatgen
data_Tb2As3Rh4
_symmetry_space_group_name_H-M   'P 1'
_cell_length_a   13.46148900
_cell_length_b   13.46148973
_cell_length_c   4.04851600
_cell_angle_alpha   90.00000000
_cell_angle_beta   90.00000000
_cell_angle_gamma   120.00000067
_symmetry_Int_Tables_number   1
_chemical_formula_structural   Tb2As3Rh4
_chemical_formula_sum   'Tb8 As12 Rh16'
_cell_volume   635.34953088
_cell_formula_units_Z   4
loop_
 _symmetry_equiv_pos_site_id
 _symmetry_equiv_pos_as_xyz
  1  'x, y, z'
loop_
 _atom_site_type_symbol
 _atom_site_label
 _atom_site_symmetry_multiplicity
 _atom_site_fract_x
 _atom_site_fract_y
 _atom_site_fract_z
 _atom_site_occupancy
  Tb  Tb0  1  0.188227  0.188227  0.500000  1
  Tb  Tb1  1  0.811773  0.000000  0.500000  1
  Tb  Tb2  1  0.000000  0.811773  0.500000  1
  Tb  Tb3  1  0.333333  0.666667  0.000000  1
  Tb  Tb4  1  0.666667  0.333333  0.000000  1
  Tb  Tb5  1  0.558347  0.558347  0.000000  1
  Tb  Tb6  1  0.441653  0.000000  0.000000  1
  Tb  Tb7  1  0.000000  0.441653  0.000000  1
  As  As8  1  0.824246  0.824246  0.000000  1
  As  As9  1  0.175754  0.000000  0.000000  1
  As  As10  1  0.000000  0.175754  0.000000  1
  As  As11  1  0.174931  0.486266  0.500000  1
  As  As12  1  0.513734  0.688664  0.500000  1
  As  As13  1  0.311336  0.825069  0.500000  1
  As  As14  1  0.688664  0.513734  0.500000  1
  As  As15  1  0.825069  0.311336  0.500000  1
  As  As16  1  0.486266  0.174931  0.500000  1
  As  As17  1  0.349233  0.349233  0.000000  1
  As  As18  1  0.650767  0.000000  0.000000  1
  As  As19  1  0.000000  0.650767  0.000000  1
  Rh  Rh20  1  0.723720  0.723720  0.500000  1
  Rh  Rh21  1  0.276280  0.000000  0.500000  1
  Rh  Rh22  1  0.000000  0.276280  0.500000  1
  Rh  Rh23  1  0.177247  0.374041  0.000000  1
  Rh  Rh24  1  0.625959  0.803207  0.000000  1
  Rh  Rh25  1  0.196793  0.822753  0.000000  1
  Rh  Rh26  1  0.803207  0.625959  0.000000  1
  Rh  Rh27  1  0.822753  0.196793  0.000000  1
  Rh  Rh28  1  0.374041  0.177247  0.000000  1
  Rh  Rh29  1  0.353923  0.480306  0.500000  1
  Rh  Rh30  1  0.519694  0.873619  0.500000  1
  Rh  Rh31  1  0.126381  0.646077  0.500000  1
  Rh  Rh32  1  0.873619  0.519694  0.500000  1
  Rh  Rh33  1  0.646077  0.126381  0.500000  1
  Rh  Rh34  1  0.480306  0.353923  0.500000  1
  Rh  Rh35  1  0.000000  0.000000  0.000000  1
