# generated using pymatgen
data_HfScNi12AsP6
_symmetry_space_group_name_H-M   'P 1'
_cell_length_a   9.08271300
_cell_length_b   9.08271395
_cell_length_c   3.58049500
_cell_angle_alpha   90.00000000
_cell_angle_beta   90.00000000
_cell_angle_gamma   120.00000019
_symmetry_Int_Tables_number   1
_chemical_formula_structural   HfScNi12AsP6
_chemical_formula_sum   'Hf1 Sc1 Ni12 As1 P6'
_cell_volume   255.80258596
_cell_formula_units_Z   1
loop_
 _symmetry_equiv_pos_site_id
 _symmetry_equiv_pos_as_xyz
  1  'x, y, z'
loop_
 _atom_site_type_symbol
 _atom_site_label
 _atom_site_symmetry_multiplicity
 _atom_site_fract_x
 _atom_site_fract_y
 _atom_site_fract_z
 _atom_site_occupancy
  Hf  Hf0  1  0.333333  0.666667  0.000000  1
  Sc  Sc1  1  0.666667  0.333333  0.500000  1
  Ni  Ni2  1  0.384995  0.437083  0.500000  1
  Ni  Ni3  1  0.052087  0.615005  0.500000  1
  Ni  Ni4  1  0.246429  0.104972  0.500000  1
  Ni  Ni5  1  0.858542  0.753571  0.500000  1
  Ni  Ni6  1  0.895028  0.141458  0.500000  1
  Ni  Ni7  1  0.711861  0.872959  0.000000  1
  Ni  Ni8  1  0.127041  0.838900  0.000000  1
  Ni  Ni9  1  0.161100  0.288139  0.000000  1
  Ni  Ni10  1  0.936709  0.376608  0.000000  1
  Ni  Ni11  1  0.623392  0.560101  0.000000  1
  Ni  Ni12  1  0.439899  0.063291  0.000000  1
  Ni  Ni13  1  0.562917  0.947913  0.500000  1
  As  As14  1  0.000000  0.000000  0.000000  1
  P  P15  1  0.412340  0.292049  0.000000  1
  P  P16  1  0.584315  0.705468  0.500000  1
  P  P17  1  0.294532  0.878847  0.500000  1
  P  P18  1  0.121153  0.415685  0.500000  1
  P  P19  1  0.707951  0.120290  0.000000  1
  P  P20  1  0.879710  0.587660  0.000000  1
