# generated using pymatgen
data_Ho5In2BiP
_symmetry_space_group_name_H-M   'P 1'
_cell_length_a   9.12686900
_cell_length_b   9.14097305
_cell_length_c   6.74736900
_cell_angle_alpha   90.00000000
_cell_angle_beta   90.00000000
_cell_angle_gamma   120.05114360
_symmetry_Int_Tables_number   1
_chemical_formula_structural   Ho5In2BiP
_chemical_formula_sum   'Ho10 In4 Bi2 P2'
_cell_volume   487.25386371
_cell_formula_units_Z   2
loop_
 _symmetry_equiv_pos_site_id
 _symmetry_equiv_pos_as_xyz
  1  'x, y, z'
loop_
 _atom_site_type_symbol
 _atom_site_label
 _atom_site_symmetry_multiplicity
 _atom_site_fract_x
 _atom_site_fract_y
 _atom_site_fract_z
 _atom_site_occupancy
  Ho  Ho0  1  0.764443  0.760578  0.750000  1
  Ho  Ho1  1  0.235557  0.996135  0.750000  1
  Ho  Ho2  1  0.000000  0.235496  0.750000  1
  Ho  Ho3  1  0.240384  0.238236  0.250000  1
  Ho  Ho4  1  0.759616  0.997851  0.250000  1
  Ho  Ho5  1  0.000000  0.762229  0.250000  1
  Ho  Ho6  1  0.668671  0.335866  0.007484  1
  Ho  Ho7  1  0.331329  0.667196  0.007484  1
  Ho  Ho8  1  0.331329  0.667196  0.492516  1
  Ho  Ho9  1  0.668671  0.335866  0.492516  1
  In  In10  1  0.000000  0.596432  0.750000  1
  In  In11  1  0.598517  0.600147  0.250000  1
  In  In12  1  0.401483  0.001630  0.250000  1
  In  In13  1  0.000000  0.402472  0.250000  1
  Bi  Bi14  1  0.401098  0.400973  0.750000  1
  Bi  Bi15  1  0.598902  0.999875  0.750000  1
  P  P16  1  0.000000  0.000912  0.998136  1
  P  P17  1  0.000000  0.000912  0.501864  1
