# generated using pymatgen
data_Tm(SiRh2)2
_symmetry_space_group_name_H-M   'P 1'
_cell_length_a   4.11013300
_cell_length_b   9.05907600
_cell_length_c   11.26450700
_cell_angle_alpha   90.00000000
_cell_angle_beta   90.00000000
_cell_angle_gamma   90.00000000
_symmetry_Int_Tables_number   1
_chemical_formula_structural   Tm(SiRh2)2
_chemical_formula_sum   'Tm4 Si8 Rh16'
_cell_volume   419.42273494
_cell_formula_units_Z   4
loop_
 _symmetry_equiv_pos_site_id
 _symmetry_equiv_pos_as_xyz
  1  'x, y, z'
loop_
 _atom_site_type_symbol
 _atom_site_label
 _atom_site_symmetry_multiplicity
 _atom_site_fract_x
 _atom_site_fract_y
 _atom_site_fract_z
 _atom_site_occupancy
  Tm  Tm0  1  0.250000  0.147236  0.825077  1
  Tm  Tm1  1  0.250000  0.352764  0.325077  1
  Tm  Tm2  1  0.750000  0.852764  0.174923  1
  Tm  Tm3  1  0.750000  0.647236  0.674923  1
  Si  Si4  1  0.250000  0.411995  0.637348  1
  Si  Si5  1  0.250000  0.088005  0.137348  1
  Si  Si6  1  0.750000  0.588005  0.362652  1
  Si  Si7  1  0.750000  0.911995  0.862652  1
  Si  Si8  1  0.250000  0.616901  0.058351  1
  Si  Si9  1  0.250000  0.883099  0.558351  1
  Si  Si10  1  0.750000  0.383099  0.941649  1
  Si  Si11  1  0.750000  0.116901  0.441649  1
  Rh  Rh12  1  0.250000  0.615349  0.501244  1
  Rh  Rh13  1  0.250000  0.884651  0.001244  1
  Rh  Rh14  1  0.750000  0.384651  0.498756  1
  Rh  Rh15  1  0.750000  0.115349  0.998756  1
  Rh  Rh16  1  0.250000  0.686252  0.268650  1
  Rh  Rh17  1  0.250000  0.813748  0.768650  1
  Rh  Rh18  1  0.750000  0.313748  0.731350  1
  Rh  Rh19  1  0.750000  0.186252  0.231350  1
  Rh  Rh20  1  0.250000  0.172672  0.559642  1
  Rh  Rh21  1  0.250000  0.327328  0.059642  1
  Rh  Rh22  1  0.750000  0.827328  0.440358  1
  Rh  Rh23  1  0.750000  0.672672  0.940358  1
  Rh  Rh24  1  0.250000  0.006974  0.344017  1
  Rh  Rh25  1  0.250000  0.493026  0.844017  1
  Rh  Rh26  1  0.750000  0.993026  0.655983  1
  Rh  Rh27  1  0.750000  0.506974  0.155983  1
