# generated using pymatgen
data_Y2B4IrOsRu2
_symmetry_space_group_name_H-M   'P 1'
_cell_length_a   6.70117391
_cell_length_b   5.94174058
_cell_length_c   5.55871335
_cell_angle_alpha   71.19085678
_cell_angle_beta   57.06852174
_cell_angle_gamma   52.04148907
_symmetry_Int_Tables_number   1
_chemical_formula_structural   Y2B4IrOsRu2
_chemical_formula_sum   'Y2 B4 Ir1 Os1 Ru2'
_cell_volume   146.44472454
_cell_formula_units_Z   1
loop_
 _symmetry_equiv_pos_site_id
 _symmetry_equiv_pos_as_xyz
  1  'x, y, z'
loop_
 _atom_site_type_symbol
 _atom_site_label
 _atom_site_symmetry_multiplicity
 _atom_site_fract_x
 _atom_site_fract_y
 _atom_site_fract_z
 _atom_site_occupancy
  Y  Y0  1  0.747307  0.747307  0.752693  1
  Y  Y1  1  0.499919  0.499919  0.500081  1
  B  B2  1  0.067532  0.438465  0.055731  1
  B  B3  1  0.812266  0.185126  0.813871  1
  B  B4  1  0.438465  0.067532  0.438272  1
  B  B5  1  0.185126  0.812266  0.188738  1
  Ir  Ir6  1  0.112887  0.112887  0.387113  1
  Os  Os7  1  0.386936  0.386936  0.113064  1
  Ru  Ru8  1  0.136993  0.136993  0.863007  1
  Ru  Ru9  1  0.862570  0.862570  0.137430  1
