# generated using pymatgen
data_Tm3Al2Ga3Ni
_symmetry_space_group_name_H-M   'P 1'
_cell_length_a   6.81157197
_cell_length_b   6.81157157
_cell_length_c   4.20002100
_cell_angle_alpha   90.00000000
_cell_angle_beta   90.00000000
_cell_angle_gamma   119.75189644
_symmetry_Int_Tables_number   1
_chemical_formula_structural   Tm3Al2Ga3Ni
_chemical_formula_sum   'Tm3 Al2 Ga3 Ni1'
_cell_volume   169.18315044
_cell_formula_units_Z   1
loop_
 _symmetry_equiv_pos_site_id
 _symmetry_equiv_pos_as_xyz
  1  'x, y, z'
loop_
 _atom_site_type_symbol
 _atom_site_label
 _atom_site_symmetry_multiplicity
 _atom_site_fract_x
 _atom_site_fract_y
 _atom_site_fract_z
 _atom_site_occupancy
  Tm  Tm0  1  0.592185  0.999774  0.000000  1
  Tm  Tm1  1  0.999774  0.592185  0.000000  1
  Tm  Tm2  1  0.408417  0.408417  0.000000  1
  Al  Al3  1  0.232044  0.000884  0.500000  1
  Al  Al4  1  0.000884  0.232044  0.500000  1
  Ga  Ga5  1  0.763995  0.763995  0.500000  1
  Ga  Ga6  1  0.331515  0.666589  0.500000  1
  Ga  Ga7  1  0.666589  0.331515  0.500000  1
  Ni  Ni8  1  0.004597  0.004597  0.000000  1
