# generated using pymatgen
data_YbY19(Cd3Tc)2
_symmetry_space_group_name_H-M   'P 1'
_cell_length_a   9.62860800
_cell_length_b   9.62860789
_cell_length_c   9.93126200
_cell_angle_alpha   90.00000000
_cell_angle_beta   90.00000000
_cell_angle_gamma   120.00000039
_symmetry_Int_Tables_number   1
_chemical_formula_structural   YbY19(Cd3Tc)2
_chemical_formula_sum   'Yb1 Y19 Cd6 Tc2'
_cell_volume   797.37401066
_cell_formula_units_Z   1
loop_
 _symmetry_equiv_pos_site_id
 _symmetry_equiv_pos_as_xyz
  1  'x, y, z'
loop_
 _atom_site_type_symbol
 _atom_site_label
 _atom_site_symmetry_multiplicity
 _atom_site_fract_x
 _atom_site_fract_y
 _atom_site_fract_z
 _atom_site_occupancy
  Yb  Yb0  1  0.000000  0.000000  0.500000  1
  Y  Y1  1  0.000000  0.000000  0.000000  1
  Y  Y2  1  0.210617  0.789383  0.439778  1
  Y  Y3  1  0.210617  0.421234  0.439778  1
  Y  Y4  1  0.578766  0.789383  0.439778  1
  Y  Y5  1  0.789383  0.210617  0.560222  1
  Y  Y6  1  0.789383  0.578766  0.560222  1
  Y  Y7  1  0.421234  0.210617  0.560222  1
  Y  Y8  1  0.789781  0.210219  0.940510  1
  Y  Y9  1  0.789781  0.579561  0.940510  1
  Y  Y10  1  0.420439  0.210219  0.940510  1
  Y  Y11  1  0.210219  0.789781  0.059490  1
  Y  Y12  1  0.210219  0.420439  0.059490  1
  Y  Y13  1  0.579561  0.789781  0.059490  1
  Y  Y14  1  0.540722  0.459278  0.250961  1
  Y  Y15  1  0.540722  0.081445  0.250961  1
  Y  Y16  1  0.918555  0.459278  0.250961  1
  Y  Y17  1  0.459278  0.540722  0.749039  1
  Y  Y18  1  0.459278  0.918555  0.749039  1
  Y  Y19  1  0.081445  0.540722  0.749039  1
  Cd  Cd20  1  0.884906  0.115094  0.250076  1
  Cd  Cd21  1  0.884906  0.769813  0.250076  1
  Cd  Cd22  1  0.230187  0.115094  0.250076  1
  Cd  Cd23  1  0.115094  0.884906  0.749924  1
  Cd  Cd24  1  0.115094  0.230187  0.749924  1
  Cd  Cd25  1  0.769813  0.884906  0.749924  1
  Tc  Tc26  1  0.333333  0.666667  0.250031  1
  Tc  Tc27  1  0.666667  0.333333  0.749969  1
