# generated using pymatgen
data_Cs4Rb2In2Sb3As
_symmetry_space_group_name_H-M   'P 1'
_cell_length_a   10.17950060
_cell_length_b   10.18102694
_cell_length_c   10.17950152
_cell_angle_alpha   129.73311804
_cell_angle_beta   135.85905941
_cell_angle_gamma   69.09106889
_symmetry_Int_Tables_number   1
_chemical_formula_structural   Cs4Rb2In2Sb3As
_chemical_formula_sum   'Cs4 Rb2 In2 Sb3 As1'
_cell_volume   554.71103398
_cell_formula_units_Z   1
loop_
 _symmetry_equiv_pos_site_id
 _symmetry_equiv_pos_as_xyz
  1  'x, y, z'
loop_
 _atom_site_type_symbol
 _atom_site_label
 _atom_site_symmetry_multiplicity
 _atom_site_fract_x
 _atom_site_fract_y
 _atom_site_fract_z
 _atom_site_occupancy
  Cs  Cs0  1  0.675920  0.461523  0.785604  1
  Cs  Cs1  1  0.825358  0.121082  0.295723  1
  Cs  Cs2  1  0.174786  0.890010  0.715224  1
  Cs  Cs3  1  0.325845  0.540857  0.215011  1
  Rb  Rb4  1  0.752116  0.991244  0.749073  1
  Rb  Rb5  1  0.242171  0.991244  0.239129  1
  In  In6  1  0.241475  0.502888  0.747437  1
  In  In7  1  0.755451  0.502888  0.261412  1
  Sb  Sb8  1  0.406932  0.219818  0.812886  1
  Sb  Sb9  1  0.591963  0.781803  0.189841  1
  Sb  Sb10  1  0.093633  0.402633  0.309000  1
  As  As11  1  0.914350  0.594009  0.679660  1
