# generated using pymatgen
data_Eu2ZnCuAs3
_symmetry_space_group_name_H-M   'P 1'
_cell_length_a   8.16398677
_cell_length_b   8.16398519
_cell_length_c   11.80324756
_cell_angle_alpha   54.61654315
_cell_angle_beta   54.61655185
_cell_angle_gamma   29.77452416
_symmetry_Int_Tables_number   1
_chemical_formula_structural   Eu2ZnCuAs3
_chemical_formula_sum   'Eu4 Zn2 Cu2 As6'
_cell_volume   312.77698651
_cell_formula_units_Z   2
loop_
 _symmetry_equiv_pos_site_id
 _symmetry_equiv_pos_as_xyz
  1  'x, y, z'
loop_
 _atom_site_type_symbol
 _atom_site_label
 _atom_site_symmetry_multiplicity
 _atom_site_fract_x
 _atom_site_fract_y
 _atom_site_fract_z
 _atom_site_occupancy
  Eu  Eu0  1  0.265188  0.265188  0.339088  1
  Eu  Eu1  1  0.734812  0.734812  0.660912  1
  Eu  Eu2  1  0.398514  0.398514  0.940466  1
  Eu  Eu3  1  0.601486  0.601486  0.059534  1
  Zn  Zn4  1  0.411645  0.411645  0.651277  1
  Zn  Zn5  1  0.588355  0.588355  0.348723  1
  Cu  Cu6  1  0.043175  0.043175  0.684092  1
  Cu  Cu7  1  0.956825  0.956825  0.315908  1
  As  As8  1  0.076824  0.076824  0.870090  1
  As  As9  1  0.923176  0.923176  0.129910  1
  As  As10  1  0.158480  0.158480  0.194685  1
  As  As11  1  0.841520  0.841520  0.805315  1
  As  As12  1  0.387884  0.387884  0.456918  1
  As  As13  1  0.612116  0.612116  0.543082  1
