# generated using pymatgen
data_Na5Zr3(Ni4As3)4
_symmetry_space_group_name_H-M   'P 1'
_cell_length_a   12.76996500
_cell_length_b   12.76996430
_cell_length_c   3.89888100
_cell_angle_alpha   90.00000000
_cell_angle_beta   90.00000000
_cell_angle_gamma   120.00000440
_symmetry_Int_Tables_number   1
_chemical_formula_structural   Na5Zr3(Ni4As3)4
_chemical_formula_sum   'Na5 Zr3 Ni16 As12'
_cell_volume   550.61746497
_cell_formula_units_Z   1
loop_
 _symmetry_equiv_pos_site_id
 _symmetry_equiv_pos_as_xyz
  1  'x, y, z'
loop_
 _atom_site_type_symbol
 _atom_site_label
 _atom_site_symmetry_multiplicity
 _atom_site_fract_x
 _atom_site_fract_y
 _atom_site_fract_z
 _atom_site_occupancy
  Na  Na0  1  0.179696  0.179696  0.500000  1
  Na  Na1  1  0.820304  0.000000  0.500000  1
  Na  Na2  1  0.000000  0.820304  0.500000  1
  Na  Na3  1  0.333333  0.666667  0.000000  1
  Na  Na4  1  0.666667  0.333333  0.000000  1
  Zr  Zr5  1  0.558419  0.558419  0.000000  1
  Zr  Zr6  1  0.441581  0.000000  0.000000  1
  Zr  Zr7  1  0.000000  0.441581  0.000000  1
  Ni  Ni8  1  0.722648  0.722648  0.500000  1
  Ni  Ni9  1  0.277352  0.000000  0.500000  1
  Ni  Ni10  1  0.000000  0.277352  0.500000  1
  Ni  Ni11  1  0.181607  0.377059  0.000000  1
  Ni  Ni12  1  0.622941  0.804548  0.000000  1
  Ni  Ni13  1  0.195452  0.818393  0.000000  1
  Ni  Ni14  1  0.804548  0.622941  0.000000  1
  Ni  Ni15  1  0.818393  0.195452  0.000000  1
  Ni  Ni16  1  0.377059  0.181607  0.000000  1
  Ni  Ni17  1  0.356837  0.478339  0.500000  1
  Ni  Ni18  1  0.521661  0.878499  0.500000  1
  Ni  Ni19  1  0.121501  0.643163  0.500000  1
  Ni  Ni20  1  0.878499  0.521661  0.500000  1
  Ni  Ni21  1  0.643163  0.121501  0.500000  1
  Ni  Ni22  1  0.478339  0.356837  0.500000  1
  Ni  Ni23  1  0.000000  0.000000  0.000000  1
  As  As24  1  0.822077  0.822077  0.000000  1
  As  As25  1  0.177923  0.000000  0.000000  1
  As  As26  1  0.000000  0.177923  0.000000  1
  As  As27  1  0.171801  0.481459  0.500000  1
  As  As28  1  0.518541  0.690342  0.500000  1
  As  As29  1  0.309658  0.828199  0.500000  1
  As  As30  1  0.690342  0.518541  0.500000  1
  As  As31  1  0.828199  0.309658  0.500000  1
  As  As32  1  0.481459  0.171801  0.500000  1
  As  As33  1  0.350173  0.350173  0.000000  1
  As  As34  1  0.649827  0.000000  0.000000  1
  As  As35  1  0.000000  0.649827  0.000000  1
