# generated using pymatgen
data_DyY5(WO7)2
_symmetry_space_group_name_H-M   'P 1'
_cell_length_a   6.49792453
_cell_length_b   6.48687331
_cell_length_c   7.49822200
_cell_angle_alpha   89.99895704
_cell_angle_beta   89.99956535
_cell_angle_gamma   109.11073517
_symmetry_Int_Tables_number   1
_chemical_formula_structural   DyY5(WO7)2
_chemical_formula_sum   'Dy1 Y5 W2 O14'
_cell_volume   298.64037160
_cell_formula_units_Z   1
loop_
 _symmetry_equiv_pos_site_id
 _symmetry_equiv_pos_as_xyz
  1  'x, y, z'
loop_
 _atom_site_type_symbol
 _atom_site_label
 _atom_site_symmetry_multiplicity
 _atom_site_fract_x
 _atom_site_fract_y
 _atom_site_fract_z
 _atom_site_occupancy
  Dy  Dy0  1  0.466795  0.998571  0.002569  1
  Y  Y1  1  0.518868  0.518878  0.249917  1
  Y  Y2  1  0.481147  0.481101  0.750074  1
  Y  Y3  1  0.998797  0.466827  0.497408  1
  Y  Y4  1  0.532951  0.001179  0.502597  1
  Y  Y5  1  0.001173  0.533115  0.997443  1
  W  W6  1  0.000835  0.000813  0.249962  1
  W  W7  1  0.999226  0.999145  0.750048  1
  O  O8  1  0.066681  0.317406  0.217621  1
  O  O9  1  0.681779  0.933200  0.782605  1
  O  O10  1  0.933337  0.682693  0.717606  1
  O  O11  1  0.318051  0.066844  0.282045  1
  O  O12  1  0.674811  0.919028  0.221930  1
  O  O13  1  0.080769  0.324347  0.777838  1
  O  O14  1  0.325108  0.081044  0.722495  1
  O  O15  1  0.919207  0.675616  0.277841  1
  O  O16  1  0.368645  0.630952  0.499999  1
  O  O17  1  0.631320  0.368844  0.999996  1
  O  O18  1  0.363297  0.636690  0.000000  1
  O  O19  1  0.636813  0.363681  0.500004  1
  O  O20  1  0.925352  0.074415  0.499998  1
  O  O21  1  0.075039  0.925611  0.000005  1
