# generated using pymatgen
data_LaPr9(Bi3Se)2
_symmetry_space_group_name_H-M   'P 1'
_cell_length_a   9.58397500
_cell_length_b   9.59222772
_cell_length_c   6.84724400
_cell_angle_alpha   90.00000000
_cell_angle_beta   90.00000000
_cell_angle_gamma   120.03409966
_symmetry_Int_Tables_number   1
_chemical_formula_structural   LaPr9(Bi3Se)2
_chemical_formula_sum   'La1 Pr9 Bi6 Se2'
_cell_volume   544.95702770
_cell_formula_units_Z   1
loop_
 _symmetry_equiv_pos_site_id
 _symmetry_equiv_pos_as_xyz
  1  'x, y, z'
loop_
 _atom_site_type_symbol
 _atom_site_label
 _atom_site_symmetry_multiplicity
 _atom_site_fract_x
 _atom_site_fract_y
 _atom_site_fract_z
 _atom_site_occupancy
  La  La0  1  0.999993  0.745518  0.250000  1
  Pr  Pr1  1  0.744614  0.745254  0.750000  1
  Pr  Pr2  1  0.255383  0.000629  0.750000  1
  Pr  Pr3  1  0.000004  0.255040  0.750000  1
  Pr  Pr4  1  0.254450  0.254506  0.250000  1
  Pr  Pr5  1  0.745559  0.000031  0.250000  1
  Pr  Pr6  1  0.666747  0.333211  0.999751  1
  Pr  Pr7  1  0.333249  0.666501  0.999749  1
  Pr  Pr8  1  0.333249  0.666501  0.500251  1
  Pr  Pr9  1  0.666747  0.333211  0.500249  1
  Bi  Bi10  1  0.393659  0.393693  0.750000  1
  Bi  Bi11  1  0.606367  0.000030  0.750000  1
  Bi  Bi12  1  0.999973  0.606712  0.750000  1
  Bi  Bi13  1  0.605170  0.605879  0.250000  1
  Bi  Bi14  1  0.394815  0.000735  0.250000  1
  Bi  Bi15  1  0.000013  0.391937  0.250000  1
  Se  Se16  1  0.000003  0.000304  0.999517  1
  Se  Se17  1  0.000003  0.000304  0.500483  1
