# generated using pymatgen
data_V2P3PbO12
_symmetry_space_group_name_H-M   'P 1'
_cell_length_a   8.61625724
_cell_length_b   8.61625784
_cell_length_c   9.06351580
_cell_angle_alpha   61.88296705
_cell_angle_beta   61.88296640
_cell_angle_gamma   60.05692338
_symmetry_Int_Tables_number   1
_chemical_formula_structural   V2P3PbO12
_chemical_formula_sum   'V4 P6 Pb2 O24'
_cell_volume   489.10999269
_cell_formula_units_Z   2
loop_
 _symmetry_equiv_pos_site_id
 _symmetry_equiv_pos_as_xyz
  1  'x, y, z'
loop_
 _atom_site_type_symbol
 _atom_site_label
 _atom_site_symmetry_multiplicity
 _atom_site_fract_x
 _atom_site_fract_y
 _atom_site_fract_z
 _atom_site_occupancy
  V  V0  1  0.348333  0.848044  0.944249  1
  V  V1  1  0.848044  0.348333  0.444249  1
  V  V2  1  0.145937  0.646348  0.550449  1
  V  V3  1  0.646348  0.145937  0.050449  1
  P  P4  1  0.034308  0.962194  0.746743  1
  P  P5  1  0.744519  0.534954  0.747176  1
  P  P6  1  0.534954  0.744519  0.247176  1
  P  P7  1  0.962194  0.034308  0.246743  1
  P  P8  1  0.462997  0.244187  0.747301  1
  P  P9  1  0.244187  0.462997  0.247301  1
  Pb  Pb10  1  0.000946  0.496984  0.989063  1
  Pb  Pb11  1  0.496984  0.000946  0.489063  1
  O  O12  1  0.939947  0.214132  0.268874  1
  O  O13  1  0.723975  0.367885  0.910978  1
  O  O14  1  0.509810  0.769911  0.075946  1
  O  O15  1  0.367885  0.723975  0.410978  1
  O  O16  1  0.214132  0.939947  0.768874  1
  O  O17  1  0.916100  0.568451  0.723341  1
  O  O18  1  0.568451  0.916100  0.223341  1
  O  O19  1  0.715113  0.565267  0.268665  1
  O  O20  1  0.133213  0.008589  0.076402  1
  O  O21  1  0.983275  0.866804  0.410931  1
  O  O22  1  0.565267  0.715113  0.768665  1
  O  O23  1  0.220836  0.486312  0.414134  1
  O  O24  1  0.769911  0.509810  0.575946  1
  O  O25  1  0.070167  0.781264  0.720029  1
  O  O26  1  0.008589  0.133213  0.576402  1
  O  O27  1  0.282397  0.416222  0.724470  1
  O  O28  1  0.866804  0.983275  0.910931  1
  O  O29  1  0.781264  0.070167  0.220029  1
  O  O30  1  0.065585  0.439940  0.268507  1
  O  O31  1  0.632400  0.270074  0.576655  1
  O  O32  1  0.486312  0.220836  0.914134  1
  O  O33  1  0.270074  0.632400  0.076655  1
  O  O34  1  0.416222  0.282397  0.224470  1
  O  O35  1  0.439940  0.065585  0.768507  1
