# generated using pymatgen
data_NdZnSiH
_symmetry_space_group_name_H-M   'P 1'
_cell_length_a   4.12153400
_cell_length_b   4.12153400
_cell_length_c   7.57666800
_cell_angle_alpha   90.00000000
_cell_angle_beta   90.00000000
_cell_angle_gamma   90.00000000
_symmetry_Int_Tables_number   1
_chemical_formula_structural   NdZnSiH
_chemical_formula_sum   'Nd2 Zn2 Si2 H2'
_cell_volume   128.70518142
_cell_formula_units_Z   2
loop_
 _symmetry_equiv_pos_site_id
 _symmetry_equiv_pos_as_xyz
  1  'x, y, z'
loop_
 _atom_site_type_symbol
 _atom_site_label
 _atom_site_symmetry_multiplicity
 _atom_site_fract_x
 _atom_site_fract_y
 _atom_site_fract_z
 _atom_site_occupancy
  Nd  Nd0  1  0.500000  0.000000  0.660974  1
  Nd  Nd1  1  0.000000  0.500000  0.339026  1
  Zn  Zn2  1  0.000000  0.000000  0.000000  1
  Zn  Zn3  1  0.500000  0.500000  0.000000  1
  Si  Si4  1  0.500000  0.000000  0.199928  1
  Si  Si5  1  0.000000  0.500000  0.800072  1
  H  H6  1  0.000000  0.000000  0.500000  1
  H  H7  1  0.500000  0.500000  0.500000  1
