# generated using pymatgen
data_Ho3Er2Tm11(InRh)4
_symmetry_space_group_name_H-M   'P 1'
_cell_length_a   9.54884741
_cell_length_b   9.54768407
_cell_length_c   9.54740705
_cell_angle_alpha   60.01627755
_cell_angle_beta   59.98935657
_cell_angle_gamma   59.99566135
_symmetry_Int_Tables_number   1
_chemical_formula_structural   Ho3Er2Tm11(InRh)4
_chemical_formula_sum   'Ho3 Er2 Tm11 In4 Rh4'
_cell_volume   615.49373085
_cell_formula_units_Z   1
loop_
 _symmetry_equiv_pos_site_id
 _symmetry_equiv_pos_as_xyz
  1  'x, y, z'
loop_
 _atom_site_type_symbol
 _atom_site_label
 _atom_site_symmetry_multiplicity
 _atom_site_fract_x
 _atom_site_fract_y
 _atom_site_fract_z
 _atom_site_occupancy
  Ho  Ho0  1  0.061896  0.062050  0.438021  1
  Ho  Ho1  1  0.438161  0.061977  0.438029  1
  Ho  Ho2  1  0.062055  0.438001  0.062041  1
  Er  Er3  1  0.049582  0.650087  0.650105  1
  Er  Er4  1  0.438161  0.438220  0.061811  1
  Tm  Tm5  1  0.650213  0.049218  0.650351  1
  Tm  Tm6  1  0.188591  0.811447  0.188317  1
  Tm  Tm7  1  0.188527  0.188338  0.811555  1
  Tm  Tm8  1  0.811448  0.811477  0.188531  1
  Tm  Tm9  1  0.438795  0.061362  0.061203  1
  Tm  Tm10  1  0.811422  0.188491  0.188419  1
  Tm  Tm11  1  0.061427  0.438632  0.438518  1
  Tm  Tm12  1  0.811345  0.188585  0.811552  1
  Tm  Tm13  1  0.188479  0.811546  0.811752  1
  Tm  Tm14  1  0.650199  0.650304  0.049219  1
  Tm  Tm15  1  0.650349  0.650169  0.650285  1
  In  In16  1  0.416741  0.416844  0.416739  1
  In  In17  1  0.749509  0.416901  0.416913  1
  In  In18  1  0.417001  0.749503  0.416623  1
  In  In19  1  0.416985  0.416611  0.749659  1
  Rh  Rh20  1  0.857352  0.857465  0.427244  1
  Rh  Rh21  1  0.856820  0.857964  0.857960  1
  Rh  Rh22  1  0.427726  0.857491  0.857645  1
  Rh  Rh23  1  0.857217  0.427313  0.857504  1
