# generated using pymatgen
data_Eu7Se8
_symmetry_space_group_name_H-M   'P 1'
_cell_length_a   8.57879400
_cell_length_b   8.57879271
_cell_length_c   8.57879400
_cell_angle_alpha   119.99999727
_cell_angle_beta   90.00000000
_cell_angle_gamma   119.99999727
_symmetry_Int_Tables_number   1
_chemical_formula_structural   Eu7Se8
_chemical_formula_sum   'Eu7 Se8'
_cell_volume   446.44060787
_cell_formula_units_Z   1
loop_
 _symmetry_equiv_pos_site_id
 _symmetry_equiv_pos_as_xyz
  1  'x, y, z'
loop_
 _atom_site_type_symbol
 _atom_site_label
 _atom_site_symmetry_multiplicity
 _atom_site_fract_x
 _atom_site_fract_y
 _atom_site_fract_z
 _atom_site_occupancy
  Eu  Eu0  1  0.250001  0.000000  0.250001  1
  Eu  Eu1  1  0.250001  0.500002  0.250001  1
  Eu  Eu2  1  0.749999  0.000000  0.250002  1
  Eu  Eu3  1  0.250001  0.500001  0.750002  1
  Eu  Eu4  1  0.250002  0.000000  0.749999  1
  Eu  Eu5  1  0.749999  0.000000  0.749999  1
  Eu  Eu6  1  0.749999  0.499997  0.749999  1
  Se  Se7  1  0.000000  0.000000  0.000000  1
  Se  Se8  1  0.500000  0.000000  0.500000  1
  Se  Se9  1  0.003243  0.006488  0.503245  1
  Se  Se10  1  0.003243  0.500001  0.503245  1
  Se  Se11  1  0.496758  0.500001  0.503245  1
  Se  Se12  1  0.003245  0.500001  0.996757  1
  Se  Se13  1  0.496756  0.500001  0.996757  1
  Se  Se14  1  0.496756  0.993511  0.996757  1
