# generated using pymatgen
data_RbTaH5
_symmetry_space_group_name_H-M   'P 1'
_cell_length_a   11.15206100
_cell_length_b   7.31284000
_cell_length_c   5.16523400
_cell_angle_alpha   90.00000000
_cell_angle_beta   90.00000000
_cell_angle_gamma   90.00000000
_symmetry_Int_Tables_number   1
_chemical_formula_structural   RbTaH5
_chemical_formula_sum   'Rb4 Ta4 H20'
_cell_volume   421.24155650
_cell_formula_units_Z   4
loop_
 _symmetry_equiv_pos_site_id
 _symmetry_equiv_pos_as_xyz
  1  'x, y, z'
loop_
 _atom_site_type_symbol
 _atom_site_label
 _atom_site_symmetry_multiplicity
 _atom_site_fract_x
 _atom_site_fract_y
 _atom_site_fract_z
 _atom_site_occupancy
  Rb  Rb0  1  0.667471  0.073744  0.338241  1
  Rb  Rb1  1  0.167471  0.426255  0.338241  1
  Rb  Rb2  1  0.832529  0.573744  0.838241  1
  Rb  Rb3  1  0.332529  0.926256  0.838241  1
  Ta  Ta4  1  0.516508  0.564408  0.306880  1
  Ta  Ta5  1  0.016508  0.935592  0.306880  1
  Ta  Ta6  1  0.983492  0.064407  0.806879  1
  Ta  Ta7  1  0.483492  0.435593  0.806879  1
  H  H8  1  0.338882  0.318067  0.806447  1
  H  H9  1  0.838882  0.181933  0.806447  1
  H  H10  1  0.969937  0.695217  0.312421  1
  H  H11  1  0.469937  0.804782  0.312421  1
  H  H12  1  0.602473  0.404849  0.075485  1
  H  H13  1  0.102472  0.095151  0.075485  1
  H  H14  1  0.383123  0.536056  0.072182  1
  H  H15  1  0.883123  0.963945  0.072182  1
  H  H16  1  0.957521  0.161081  0.455341  1
  H  H17  1  0.457521  0.338920  0.455341  1
  H  H18  1  0.161118  0.818067  0.306446  1
  H  H19  1  0.661118  0.681932  0.306446  1
  H  H20  1  0.530064  0.195217  0.812423  1
  H  H21  1  0.030064  0.304782  0.812423  1
  H  H22  1  0.897528  0.904848  0.575485  1
  H  H23  1  0.397528  0.595152  0.575485  1
  H  H24  1  0.116877  0.036055  0.572182  1
  H  H25  1  0.616877  0.463945  0.572182  1
  H  H26  1  0.542479  0.661081  0.955343  1
  H  H27  1  0.042479  0.838920  0.955343  1
