# generated using pymatgen
data_PrNdB8(IrRu3)2
_symmetry_space_group_name_H-M   'P 1'
_cell_length_a   7.57379101
_cell_length_b   7.59714416
_cell_length_c   4.01467200
_cell_angle_alpha   90.00197251
_cell_angle_beta   89.99903080
_cell_angle_gamma   90.28621829
_symmetry_Int_Tables_number   1
_chemical_formula_structural   PrNdB8(IrRu3)2
_chemical_formula_sum   'Pr1 Nd1 B8 Ir2 Ru6'
_cell_volume   230.99806105
_cell_formula_units_Z   1
loop_
 _symmetry_equiv_pos_site_id
 _symmetry_equiv_pos_as_xyz
  1  'x, y, z'
loop_
 _atom_site_type_symbol
 _atom_site_label
 _atom_site_symmetry_multiplicity
 _atom_site_fract_x
 _atom_site_fract_y
 _atom_site_fract_z
 _atom_site_occupancy
  Pr  Pr0  1  0.500006  0.500098  0.998598  1
  Nd  Nd1  1  0.999996  0.000084  0.501429  1
  B  B2  1  0.668527  0.789108  0.610476  1
  B  B3  1  0.168400  0.288986  0.889393  1
  B  B4  1  0.285266  0.836395  0.108514  1
  B  B5  1  0.709265  0.162967  0.112606  1
  B  B6  1  0.337138  0.217295  0.608601  1
  B  B7  1  0.837258  0.717433  0.891261  1
  B  B8  1  0.209130  0.663078  0.387513  1
  B  B9  1  0.785403  0.336280  0.391594  1
  Ir  Ir10  1  0.891047  0.350688  0.890526  1
  Ir  Ir11  1  0.390861  0.850927  0.609353  1
  Ru  Ru12  1  0.355255  0.108973  0.108353  1
  Ru  Ru13  1  0.644621  0.890136  0.109882  1
  Ru  Ru14  1  0.609049  0.144129  0.610112  1
  Ru  Ru15  1  0.108881  0.644331  0.889785  1
  Ru  Ru16  1  0.144424  0.389958  0.390241  1
  Ru  Ru17  1  0.855474  0.609131  0.391765  1
