# generated using pymatgen
data_Dy17Tm2LuPb16
_symmetry_space_group_name_H-M   'P 1'
_cell_length_a   8.18974701
_cell_length_b   8.27291419
_cell_length_c   15.64010100
_cell_angle_alpha   90.00000000
_cell_angle_beta   90.00000000
_cell_angle_gamma   89.94655771
_symmetry_Int_Tables_number   1
_chemical_formula_structural   Dy17Tm2LuPb16
_chemical_formula_sum   'Dy17 Tm2 Lu1 Pb16'
_cell_volume   1059.66446399
_cell_formula_units_Z   1
loop_
 _symmetry_equiv_pos_site_id
 _symmetry_equiv_pos_as_xyz
  1  'x, y, z'
loop_
 _atom_site_type_symbol
 _atom_site_label
 _atom_site_symmetry_multiplicity
 _atom_site_fract_x
 _atom_site_fract_y
 _atom_site_fract_z
 _atom_site_occupancy
  Dy  Dy0  1  0.376307  0.841183  0.879088  1
  Dy  Dy1  1  0.877404  0.658155  0.620990  1
  Dy  Dy2  1  0.623070  0.158592  0.379034  1
  Dy  Dy3  1  0.123147  0.341425  0.120726  1
  Dy  Dy4  1  0.623070  0.158592  0.120966  1
  Dy  Dy5  1  0.123147  0.341425  0.379274  1
  Dy  Dy6  1  0.376307  0.841183  0.620912  1
  Dy  Dy7  1  0.877404  0.658155  0.879010  1
  Dy  Dy8  1  0.535596  0.324165  0.899948  1
  Dy  Dy9  1  0.036181  0.176692  0.600029  1
  Dy  Dy10  1  0.464173  0.676232  0.400054  1
  Dy  Dy11  1  0.964088  0.823779  0.100154  1
  Dy  Dy12  1  0.464173  0.676232  0.099946  1
  Dy  Dy13  1  0.964088  0.823779  0.399846  1
  Dy  Dy14  1  0.535596  0.324165  0.600052  1
  Dy  Dy15  1  0.036181  0.176692  0.899971  1
  Dy  Dy16  1  0.708487  0.996006  0.750000  1
  Tm  Tm17  1  0.791181  0.495999  0.250000  1
  Tm  Tm18  1  0.291205  0.004222  0.250000  1
  Lu  Lu19  1  0.208922  0.504485  0.750000  1
  Pb  Pb20  1  0.281181  0.033181  0.043133  1
  Pb  Pb21  1  0.781114  0.466647  0.456903  1
  Pb  Pb22  1  0.718894  0.966646  0.542876  1
  Pb  Pb23  1  0.218826  0.532945  0.956455  1
  Pb  Pb24  1  0.718894  0.966646  0.957124  1
  Pb  Pb25  1  0.218826  0.532945  0.543545  1
  Pb  Pb26  1  0.281181  0.033181  0.456867  1
  Pb  Pb27  1  0.781114  0.466647  0.043097  1
  Pb  Pb28  1  0.571075  0.625015  0.750000  1
  Pb  Pb29  1  0.072796  0.873303  0.750000  1
  Pb  Pb30  1  0.428184  0.374045  0.250000  1
  Pb  Pb31  1  0.928214  0.126078  0.250000  1
  Pb  Pb32  1  0.347136  0.155501  0.750000  1
  Pb  Pb33  1  0.847908  0.346604  0.750000  1
  Pb  Pb34  1  0.652355  0.845279  0.250000  1
  Pb  Pb35  1  0.152573  0.654174  0.250000  1
