# generated using pymatgen
data_CsPu(OF2)2
_symmetry_space_group_name_H-M   'P 1'
_cell_length_a   7.48825252
_cell_length_b   7.48825240
_cell_length_c   9.21638873
_cell_angle_alpha   60.69200957
_cell_angle_beta   60.69200936
_cell_angle_gamma   56.78795228
_symmetry_Int_Tables_number   1
_chemical_formula_structural   CsPu(OF2)2
_chemical_formula_sum   'Cs2 Pu2 O4 F8'
_cell_volume   359.25735649
_cell_formula_units_Z   2
loop_
 _symmetry_equiv_pos_site_id
 _symmetry_equiv_pos_as_xyz
  1  'x, y, z'
loop_
 _atom_site_type_symbol
 _atom_site_label
 _atom_site_symmetry_multiplicity
 _atom_site_fract_x
 _atom_site_fract_y
 _atom_site_fract_z
 _atom_site_occupancy
  Cs  Cs0  1  0.731012  0.268988  0.750000  1
  Cs  Cs1  1  0.268988  0.731012  0.250000  1
  Pu  Pu2  1  0.000000  0.500000  0.000000  1
  Pu  Pu3  1  0.500000  0.000000  0.500000  1
  O  O4  1  0.040463  0.664547  0.776690  1
  O  O5  1  0.335453  0.959537  0.723310  1
  O  O6  1  0.959537  0.335453  0.223310  1
  O  O7  1  0.664547  0.040463  0.276690  1
  F  F8  1  0.238243  0.560665  0.007954  1
  F  F9  1  0.439335  0.761757  0.492046  1
  F  F10  1  0.761757  0.439335  0.992046  1
  F  F11  1  0.560665  0.238243  0.507954  1
  F  F12  1  0.262768  0.208600  0.933160  1
  F  F13  1  0.791400  0.737232  0.566840  1
  F  F14  1  0.737232  0.791400  0.066840  1
  F  F15  1  0.208600  0.262768  0.433160  1
