# generated using pymatgen
data_Hf8In4Cu5Pd2Pt
_symmetry_space_group_name_H-M   'P 1'
_cell_length_a   7.32704386
_cell_length_b   7.32193622
_cell_length_c   6.84907288
_cell_angle_alpha   89.89264824
_cell_angle_beta   89.99970479
_cell_angle_gamma   90.15667811
_symmetry_Int_Tables_number   1
_chemical_formula_structural   Hf8In4Cu5Pd2Pt
_chemical_formula_sum   'Hf8 In4 Cu5 Pd2 Pt1'
_cell_volume   367.43805564
_cell_formula_units_Z   1
loop_
 _symmetry_equiv_pos_site_id
 _symmetry_equiv_pos_as_xyz
  1  'x, y, z'
loop_
 _atom_site_type_symbol
 _atom_site_label
 _atom_site_symmetry_multiplicity
 _atom_site_fract_x
 _atom_site_fract_y
 _atom_site_fract_z
 _atom_site_occupancy
  Hf  Hf0  1  0.149612  0.151749  0.999442  1
  Hf  Hf1  1  0.847850  0.850409  0.001491  1
  Hf  Hf2  1  0.648021  0.349894  0.500848  1
  Hf  Hf3  1  0.351697  0.646963  0.501875  1
  Hf  Hf4  1  0.692094  0.307728  0.998227  1
  Hf  Hf5  1  0.310988  0.688097  0.999502  1
  Hf  Hf6  1  0.807368  0.809113  0.499517  1
  Hf  Hf7  1  0.191326  0.192138  0.501570  1
  In  In8  1  0.503754  0.002015  0.249620  1
  In  In9  1  0.505933  0.996385  0.750735  1
  In  In10  1  0.997213  0.496261  0.250686  1
  In  In11  1  0.992589  0.499152  0.750105  1
  Cu  Cu12  1  0.377897  0.375670  0.205757  1
  Cu  Cu13  1  0.630794  0.629857  0.796145  1
  Cu  Cu14  1  0.623937  0.622169  0.206653  1
  Cu  Cu15  1  0.871555  0.128129  0.704083  1
  Cu  Cu16  1  0.871435  0.128168  0.295625  1
  Pd  Pd17  1  0.124849  0.874622  0.287298  1
  Pd  Pd18  1  0.124154  0.875120  0.712264  1
  Pt  Pt19  1  0.376933  0.376362  0.788558  1
