# generated using pymatgen
data_Er4ReTc5W2
_symmetry_space_group_name_H-M   'P 1'
_cell_length_a   5.47561275
_cell_length_b   5.49350038
_cell_length_c   8.63252200
_cell_angle_alpha   90.00000000
_cell_angle_beta   90.00000000
_cell_angle_gamma   120.10812031
_symmetry_Int_Tables_number   1
_chemical_formula_structural   Er4ReTc5W2
_chemical_formula_sum   'Er4 Re1 Tc5 W2'
_cell_volume   224.63427320
_cell_formula_units_Z   1
loop_
 _symmetry_equiv_pos_site_id
 _symmetry_equiv_pos_as_xyz
  1  'x, y, z'
loop_
 _atom_site_type_symbol
 _atom_site_label
 _atom_site_symmetry_multiplicity
 _atom_site_fract_x
 _atom_site_fract_y
 _atom_site_fract_z
 _atom_site_occupancy
  Er  Er0  1  0.333523  0.666762  0.437682  1
  Er  Er1  1  0.666603  0.333301  0.562364  1
  Er  Er2  1  0.666603  0.333301  0.937636  1
  Er  Er3  1  0.333523  0.666762  0.062318  1
  Re  Re4  1  0.657317  0.828659  0.750000  1
  Tc  Tc5  1  0.827521  0.171145  0.250000  1
  Tc  Tc6  1  0.827521  0.656375  0.250000  1
  Tc  Tc7  1  0.344162  0.172080  0.250000  1
  Tc  Tc8  1  0.172233  0.828899  0.750000  1
  Tc  Tc9  1  0.172233  0.343335  0.750000  1
  W  W10  1  0.999381  0.999691  0.499389  1
  W  W11  1  0.999381  0.999691  0.000611  1
