# generated using pymatgen
data_Ho4GaTcRu6
_symmetry_space_group_name_H-M   'P 1'
_cell_length_a   5.18624047
_cell_length_b   5.38201855
_cell_length_c   8.86212900
_cell_angle_alpha   90.00000000
_cell_angle_beta   90.00000000
_cell_angle_gamma   119.44113063
_symmetry_Int_Tables_number   1
_chemical_formula_structural   Ho4GaTcRu6
_chemical_formula_sum   'Ho4 Ga1 Tc1 Ru6'
_cell_volume   215.41941428
_cell_formula_units_Z   1
loop_
 _symmetry_equiv_pos_site_id
 _symmetry_equiv_pos_as_xyz
  1  'x, y, z'
loop_
 _atom_site_type_symbol
 _atom_site_label
 _atom_site_symmetry_multiplicity
 _atom_site_fract_x
 _atom_site_fract_y
 _atom_site_fract_z
 _atom_site_occupancy
  Ho  Ho0  1  0.335624  0.669577  0.437251  1
  Ho  Ho1  1  0.663442  0.328714  0.566384  1
  Ho  Ho2  1  0.663442  0.328714  0.933616  1
  Ho  Ho3  1  0.335624  0.669577  0.062749  1
  Ga  Ga4  1  0.835318  0.171028  0.250000  1
  Tc  Tc5  1  0.653971  0.828134  0.750000  1
  Ru  Ru6  1  0.996501  0.988604  0.500078  1
  Ru  Ru7  1  0.996501  0.988604  0.999922  1
  Ru  Ru8  1  0.826514  0.659600  0.250000  1
  Ru  Ru9  1  0.348702  0.183151  0.250000  1
  Ru  Ru10  1  0.166059  0.835379  0.750000  1
  Ru  Ru11  1  0.178303  0.348917  0.750000  1
