# generated using pymatgen
data_TbHo15Cd4(CoOs)2
_symmetry_space_group_name_H-M   'P 1'
_cell_length_a   9.65079516
_cell_length_b   9.54886499
_cell_length_c   9.53908491
_cell_angle_alpha   59.21732779
_cell_angle_beta   59.45512479
_cell_angle_gamma   59.43325107
_symmetry_Int_Tables_number   1
_chemical_formula_structural   TbHo15Cd4(CoOs)2
_chemical_formula_sum   'Tb1 Ho15 Cd4 Co2 Os2'
_cell_volume   612.65362819
_cell_formula_units_Z   1
loop_
 _symmetry_equiv_pos_site_id
 _symmetry_equiv_pos_as_xyz
  1  'x, y, z'
loop_
 _atom_site_type_symbol
 _atom_site_label
 _atom_site_symmetry_multiplicity
 _atom_site_fract_x
 _atom_site_fract_y
 _atom_site_fract_z
 _atom_site_occupancy
  Tb  Tb0  1  0.940108  0.940128  0.555173  1
  Ho  Ho1  1  0.811129  0.188995  0.187712  1
  Ho  Ho2  1  0.936989  0.563274  0.563195  1
  Ho  Ho3  1  0.939465  0.555813  0.939992  1
  Ho  Ho4  1  0.815107  0.806998  0.185462  1
  Ho  Ho5  1  0.340397  0.349701  0.349732  1
  Ho  Ho6  1  0.556084  0.943485  0.943622  1
  Ho  Ho7  1  0.565294  0.939700  0.554419  1
  Ho  Ho8  1  0.188958  0.809721  0.810516  1
  Ho  Ho9  1  0.188778  0.187001  0.807129  1
  Ho  Ho10  1  0.343525  0.353527  0.961071  1
  Ho  Ho11  1  0.343215  0.960652  0.354232  1
  Ho  Ho12  1  0.815192  0.185648  0.807234  1
  Ho  Ho13  1  0.566149  0.556112  0.938744  1
  Ho  Ho14  1  0.189363  0.807243  0.186247  1
  Ho  Ho15  1  0.963274  0.349818  0.349733  1
  Cd  Cd16  1  0.580986  0.579645  0.256922  1
  Cd  Cd17  1  0.257764  0.579107  0.579833  1
  Cd  Cd18  1  0.581303  0.579518  0.579651  1
  Cd  Cd19  1  0.580248  0.257745  0.579356  1
  Co  Co20  1  0.138743  0.581247  0.144399  1
  Co  Co21  1  0.139393  0.143522  0.581607  1
  Os  Os22  1  0.578530  0.140949  0.143089  1
  Os  Os23  1  0.140011  0.140457  0.140934  1
