# generated using pymatgen
data_K2Ga(GePt2)3
_symmetry_space_group_name_H-M   'P 1'
_cell_length_a   7.04030153
_cell_length_b   7.04030083
_cell_length_c   6.10808929
_cell_angle_alpha   114.90807175
_cell_angle_beta   114.90807238
_cell_angle_gamma   61.46126971
_symmetry_Int_Tables_number   1
_chemical_formula_structural   K2Ga(GePt2)3
_chemical_formula_sum   'K2 Ga1 Ge3 Pt6'
_cell_volume   231.85416061
_cell_formula_units_Z   1
loop_
 _symmetry_equiv_pos_site_id
 _symmetry_equiv_pos_as_xyz
  1  'x, y, z'
loop_
 _atom_site_type_symbol
 _atom_site_label
 _atom_site_symmetry_multiplicity
 _atom_site_fract_x
 _atom_site_fract_y
 _atom_site_fract_z
 _atom_site_occupancy
  K  K0  1  0.500516  0.500516  0.006483  1
  K  K1  1  0.999632  0.999632  0.976466  1
  Ga  Ga2  1  0.842759  0.842759  0.292782  1
  Ge  Ge3  1  0.317768  0.317768  0.374061  1
  Ge  Ge4  1  0.152145  0.152145  0.611871  1
  Ge  Ge5  1  0.685236  0.685236  0.748326  1
  Pt  Pt6  1  0.455003  0.049134  0.998754  1
  Pt  Pt7  1  0.049134  0.455003  0.998754  1
  Pt  Pt8  1  0.720170  0.281249  0.492041  1
  Pt  Pt9  1  0.281249  0.720170  0.492041  1
  Pt  Pt10  1  0.954667  0.541309  0.496388  1
  Pt  Pt11  1  0.541309  0.954667  0.496388  1
