# generated using pymatgen
data_Ca2DyTm3(Si3Ru)8
_symmetry_space_group_name_H-M   'P 1'
_cell_length_a   10.13803635
_cell_length_b   10.13803609
_cell_length_c   8.14706501
_cell_angle_alpha   89.97817190
_cell_angle_beta   90.02182923
_cell_angle_gamma   132.62195398
_symmetry_Int_Tables_number   1
_chemical_formula_structural   Ca2DyTm3(Si3Ru)8
_chemical_formula_sum   'Ca2 Dy1 Tm3 Si24 Ru8'
_cell_volume   616.15622610
_cell_formula_units_Z   1
loop_
 _symmetry_equiv_pos_site_id
 _symmetry_equiv_pos_as_xyz
  1  'x, y, z'
loop_
 _atom_site_type_symbol
 _atom_site_label
 _atom_site_symmetry_multiplicity
 _atom_site_fract_x
 _atom_site_fract_y
 _atom_site_fract_z
 _atom_site_occupancy
  Ca  Ca0  1  0.997931  0.497931  0.250000  1
  Ca  Ca1  1  0.498148  0.998148  0.250000  1
  Dy  Dy2  1  0.001222  0.501222  0.750000  1
  Tm  Tm3  1  0.499453  0.499426  0.499265  1
  Tm  Tm4  1  0.999426  0.999453  0.000735  1
  Tm  Tm5  1  0.501377  0.001377  0.750000  1
  Si  Si6  1  0.793214  0.204941  0.499498  1
  Si  Si7  1  0.294597  0.706270  0.000563  1
  Si  Si8  1  0.206270  0.794597  0.499437  1
  Si  Si9  1  0.704941  0.293214  0.000502  1
  Si  Si10  1  0.331577  0.331974  0.833160  1
  Si  Si11  1  0.666603  0.666626  0.167259  1
  Si  Si12  1  0.166626  0.166603  0.332741  1
  Si  Si13  1  0.831974  0.831577  0.666840  1
  Si  Si14  1  0.122665  0.889980  0.727256  1
  Si  Si15  1  0.111808  0.877642  0.271574  1
  Si  Si16  1  0.612140  0.378081  0.228195  1
  Si  Si17  1  0.621543  0.388956  0.772957  1
  Si  Si18  1  0.878081  0.112140  0.271805  1
  Si  Si19  1  0.888956  0.121543  0.727043  1
  Si  Si20  1  0.389980  0.622665  0.772744  1
  Si  Si21  1  0.377642  0.611808  0.228426  1
  Si  Si22  1  0.344418  0.111292  0.506018  1
  Si  Si23  1  0.888240  0.655546  0.496276  1
  Si  Si24  1  0.388851  0.156680  0.002658  1
  Si  Si25  1  0.845155  0.611687  0.994503  1
  Si  Si26  1  0.656680  0.888851  0.497342  1
  Si  Si27  1  0.111687  0.345155  0.505497  1
  Si  Si28  1  0.611292  0.844418  0.993982  1
  Si  Si29  1  0.155546  0.388240  0.003724  1
  Ru  Ru30  1  0.668531  0.331212  0.503895  1
  Ru  Ru31  1  0.170344  0.832938  0.996166  1
  Ru  Ru32  1  0.332938  0.670344  0.503834  1
  Ru  Ru33  1  0.831212  0.168531  0.996105  1
  Ru  Ru34  1  0.125932  0.126102  0.626217  1
  Ru  Ru35  1  0.873554  0.873343  0.372825  1
  Ru  Ru36  1  0.373343  0.373554  0.127175  1
  Ru  Ru37  1  0.626102  0.625932  0.873783  1
