# generated using pymatgen
data_Ca2La2NdPb4
_symmetry_space_group_name_H-M   'P 1'
_cell_length_a   8.09959600
_cell_length_b   8.67384900
_cell_length_c   16.34411600
_cell_angle_alpha   90.00000000
_cell_angle_beta   90.00000000
_cell_angle_gamma   90.00000000
_symmetry_Int_Tables_number   1
_chemical_formula_structural   Ca2La2NdPb4
_chemical_formula_sum   'Ca8 La8 Nd4 Pb16'
_cell_volume   1148.25051958
_cell_formula_units_Z   4
loop_
 _symmetry_equiv_pos_site_id
 _symmetry_equiv_pos_as_xyz
  1  'x, y, z'
loop_
 _atom_site_type_symbol
 _atom_site_label
 _atom_site_symmetry_multiplicity
 _atom_site_fract_x
 _atom_site_fract_y
 _atom_site_fract_z
 _atom_site_occupancy
  Ca  Ca0  1  0.666639  0.166336  0.622510  1
  Ca  Ca1  1  0.166639  0.333664  0.877490  1
  Ca  Ca2  1  0.333361  0.833664  0.122510  1
  Ca  Ca3  1  0.833361  0.666336  0.377490  1
  Ca  Ca4  1  0.835054  0.497437  0.749926  1
  Ca  Ca5  1  0.335054  0.002563  0.750074  1
  Ca  Ca6  1  0.164946  0.502563  0.249926  1
  Ca  Ca7  1  0.664946  0.997437  0.250074  1
  La  La8  1  0.502551  0.685620  0.595007  1
  La  La9  1  0.002551  0.814380  0.904993  1
  La  La10  1  0.497449  0.314380  0.095007  1
  La  La11  1  0.997449  0.185620  0.404993  1
  La  La12  1  0.499323  0.314438  0.405133  1
  La  La13  1  0.999323  0.185562  0.094867  1
  La  La14  1  0.500677  0.685562  0.905133  1
  La  La15  1  0.000677  0.814438  0.594867  1
  Nd  Nd16  1  0.334556  0.831723  0.376432  1
  Nd  Nd17  1  0.834556  0.668277  0.123568  1
  Nd  Nd18  1  0.665444  0.168277  0.876432  1
  Nd  Nd19  1  0.165444  0.331723  0.623568  1
  Pb  Pb20  1  0.679257  0.962058  0.459399  1
  Pb  Pb21  1  0.179257  0.537942  0.040601  1
  Pb  Pb22  1  0.320743  0.037942  0.959399  1
  Pb  Pb23  1  0.820743  0.462058  0.540601  1
  Pb  Pb24  1  0.320621  0.038531  0.540182  1
  Pb  Pb25  1  0.820621  0.461469  0.959818  1
  Pb  Pb26  1  0.679379  0.961469  0.040182  1
  Pb  Pb27  1  0.179379  0.538531  0.459818  1
  Pb  Pb28  1  0.467997  0.390584  0.750044  1
  Pb  Pb29  1  0.967997  0.109416  0.749956  1
  Pb  Pb30  1  0.532003  0.609416  0.250044  1
  Pb  Pb31  1  0.032003  0.890584  0.249956  1
  Pb  Pb32  1  0.703248  0.853491  0.750295  1
  Pb  Pb33  1  0.203248  0.646509  0.749705  1
  Pb  Pb34  1  0.296752  0.146509  0.250295  1
  Pb  Pb35  1  0.796752  0.353491  0.249705  1
