# generated using pymatgen
data_Yb7Mn(Tc3Ge4)4
_symmetry_space_group_name_H-M   'P 1'
_cell_length_a   6.90199239
_cell_length_b   6.92934415
_cell_length_c   12.76173100
_cell_angle_alpha   90.19178988
_cell_angle_beta   89.98074089
_cell_angle_gamma   90.05623288
_symmetry_Int_Tables_number   1
_chemical_formula_structural   Yb7Mn(Tc3Ge4)4
_chemical_formula_sum   'Yb7 Mn1 Tc12 Ge16'
_cell_volume   610.34238052
_cell_formula_units_Z   1
loop_
 _symmetry_equiv_pos_site_id
 _symmetry_equiv_pos_as_xyz
  1  'x, y, z'
loop_
 _atom_site_type_symbol
 _atom_site_label
 _atom_site_symmetry_multiplicity
 _atom_site_fract_x
 _atom_site_fract_y
 _atom_site_fract_z
 _atom_site_occupancy
  Yb  Yb0  1  0.485724  0.665077  0.589111  1
  Yb  Yb1  1  0.988111  0.835559  0.911771  1
  Yb  Yb2  1  0.515479  0.336455  0.089500  1
  Yb  Yb3  1  0.011800  0.161690  0.415890  1
  Yb  Yb4  1  0.511408  0.334732  0.414282  1
  Yb  Yb5  1  0.014769  0.165548  0.088816  1
  Yb  Yb6  1  0.483463  0.665298  0.907310  1
  Mn  Mn7  1  0.965850  0.826939  0.593829  1
  Tc  Tc8  1  0.682064  0.143332  0.626148  1
  Tc  Tc9  1  0.172755  0.352859  0.868660  1
  Tc  Tc10  1  0.327037  0.854351  0.128393  1
  Tc  Tc11  1  0.825277  0.651179  0.373497  1
  Tc  Tc12  1  0.325971  0.853386  0.371448  1
  Tc  Tc13  1  0.824986  0.647154  0.130018  1
  Tc  Tc14  1  0.680809  0.146073  0.869564  1
  Tc  Tc15  1  0.177134  0.352233  0.628399  1
  Tc  Tc16  1  0.831713  0.498969  0.748529  1
  Tc  Tc17  1  0.332270  0.000481  0.748223  1
  Tc  Tc18  1  0.170782  0.504343  0.250573  1
  Tc  Tc19  1  0.670659  0.998365  0.251284  1
  Ge  Ge20  1  0.665907  0.950044  0.452550  1
  Ge  Ge21  1  0.163397  0.550901  0.050461  1
  Ge  Ge22  1  0.339453  0.053251  0.947821  1
  Ge  Ge23  1  0.838584  0.456549  0.550440  1
  Ge  Ge24  1  0.325283  0.041948  0.550865  1
  Ge  Ge25  1  0.836949  0.449528  0.948802  1
  Ge  Ge26  1  0.663131  0.948869  0.050407  1
  Ge  Ge27  1  0.159781  0.556957  0.452722  1
  Ge  Ge28  1  0.478018  0.358896  0.748597  1
  Ge  Ge29  1  0.979242  0.130887  0.745103  1
  Ge  Ge30  1  0.525391  0.637999  0.251170  1
  Ge  Ge31  1  0.026005  0.863481  0.250091  1
  Ge  Ge32  1  0.688683  0.847240  0.748087  1
  Ge  Ge33  1  0.176545  0.657227  0.743801  1
  Ge  Ge34  1  0.316398  0.152827  0.251400  1
  Ge  Ge35  1  0.819170  0.349372  0.252439  1
