# generated using pymatgen
data_Ca5TmSi24Ir3Ru5
_symmetry_space_group_name_H-M   'P 1'
_cell_length_a   10.13750009
_cell_length_b   10.13749785
_cell_length_c   8.18671000
_cell_angle_alpha   90.00500610
_cell_angle_beta   90.00501167
_cell_angle_gamma   132.38148732
_symmetry_Int_Tables_number   1
_chemical_formula_structural   Ca5TmSi24Ir3Ru5
_chemical_formula_sum   'Ca5 Tm1 Si24 Ir3 Ru5'
_cell_volume   621.47458039
_cell_formula_units_Z   1
loop_
 _symmetry_equiv_pos_site_id
 _symmetry_equiv_pos_as_xyz
  1  'x, y, z'
loop_
 _atom_site_type_symbol
 _atom_site_label
 _atom_site_symmetry_multiplicity
 _atom_site_fract_x
 _atom_site_fract_y
 _atom_site_fract_z
 _atom_site_occupancy
  Ca  Ca0  1  0.499850  0.500150  0.500000  1
  Ca  Ca1  1  0.502112  0.001484  0.749945  1
  Ca  Ca2  1  0.998516  0.497888  0.250055  1
  Ca  Ca3  1  0.498741  0.998178  0.249308  1
  Ca  Ca4  1  0.001822  0.501259  0.750692  1
  Tm  Tm5  1  0.999253  0.000747  0.000000  1
  Si  Si6  1  0.795760  0.204240  0.500000  1
  Si  Si7  1  0.295218  0.704782  0.000000  1
  Si  Si8  1  0.205467  0.794533  0.500000  1
  Si  Si9  1  0.706765  0.293235  0.000000  1
  Si  Si10  1  0.331948  0.335151  0.831888  1
  Si  Si11  1  0.664849  0.668052  0.168112  1
  Si  Si12  1  0.167662  0.168549  0.333288  1
  Si  Si13  1  0.831451  0.832338  0.666712  1
  Si  Si14  1  0.119878  0.887354  0.724757  1
  Si  Si15  1  0.112646  0.880122  0.275243  1
  Si  Si16  1  0.610987  0.379229  0.225552  1
  Si  Si17  1  0.620771  0.389013  0.774448  1
  Si  Si18  1  0.876730  0.109144  0.270791  1
  Si  Si19  1  0.890856  0.123270  0.729209  1
  Si  Si20  1  0.387213  0.619757  0.775206  1
  Si  Si21  1  0.380243  0.612787  0.224794  1
  Si  Si22  1  0.341818  0.110207  0.501628  1
  Si  Si23  1  0.889793  0.658182  0.498372  1
  Si  Si24  1  0.391654  0.159986  0.003507  1
  Si  Si25  1  0.840014  0.608346  0.996493  1
  Si  Si26  1  0.659195  0.890380  0.496465  1
  Si  Si27  1  0.109620  0.340805  0.503535  1
  Si  Si28  1  0.612301  0.844910  0.997052  1
  Si  Si29  1  0.155090  0.387699  0.002948  1
  Ir  Ir30  1  0.668663  0.331337  0.500000  1
  Ir  Ir31  1  0.166764  0.833236  0.000000  1
  Ir  Ir32  1  0.332024  0.667976  0.500000  1
  Ru  Ru33  1  0.832364  0.167636  0.000000  1
  Ru  Ru34  1  0.125018  0.123298  0.627826  1
  Ru  Ru35  1  0.876702  0.874982  0.372174  1
  Ru  Ru36  1  0.372396  0.372151  0.124128  1
  Ru  Ru37  1  0.627849  0.627604  0.875872  1
