# generated using pymatgen
data_Er5Tm3(OsBr4)2
_symmetry_space_group_name_H-M   'P 1'
_cell_length_a   8.87706909
_cell_length_b   8.88881503
_cell_length_c   6.50165396
_cell_angle_alpha   89.50022173
_cell_angle_beta   89.58142899
_cell_angle_gamma   89.28138183
_symmetry_Int_Tables_number   1
_chemical_formula_structural   Er5Tm3(OsBr4)2
_chemical_formula_sum   'Er5 Tm3 Os2 Br8'
_cell_volume   512.95042055
_cell_formula_units_Z   1
loop_
 _symmetry_equiv_pos_site_id
 _symmetry_equiv_pos_as_xyz
  1  'x, y, z'
loop_
 _atom_site_type_symbol
 _atom_site_label
 _atom_site_symmetry_multiplicity
 _atom_site_fract_x
 _atom_site_fract_y
 _atom_site_fract_z
 _atom_site_occupancy
  Er  Er0  1  0.901166  0.248729  0.509803  1
  Er  Er1  1  0.751825  0.902643  0.507819  1
  Er  Er2  1  0.248265  0.097127  0.491535  1
  Er  Er3  1  0.097548  0.247804  0.991576  1
  Er  Er4  1  0.902735  0.751556  0.008168  1
  Tm  Tm5  1  0.247408  0.901713  0.010812  1
  Tm  Tm6  1  0.752717  0.097742  0.989043  1
  Tm  Tm7  1  0.098166  0.752779  0.489380  1
  Os  Os8  1  0.994919  0.004962  0.249770  1
  Os  Os9  1  0.005412  0.994896  0.749972  1
  Br  Br10  1  0.419513  0.816277  0.405973  1
  Br  Br11  1  0.580226  0.183125  0.594382  1
  Br  Br12  1  0.183461  0.580781  0.093996  1
  Br  Br13  1  0.816190  0.419188  0.907601  1
  Br  Br14  1  0.416021  0.190106  0.095491  1
  Br  Br15  1  0.584419  0.809703  0.904441  1
  Br  Br16  1  0.809092  0.585169  0.404515  1
  Br  Br17  1  0.190917  0.415701  0.595723  1
