# generated using pymatgen
data_Er5ZnIn4Ir
_symmetry_space_group_name_H-M   'P 1'
_cell_length_a   3.60467600
_cell_length_b   8.14137149
_cell_length_c   18.19096639
_cell_angle_alpha   89.36224829
_cell_angle_beta   90.00000000
_cell_angle_gamma   90.00000000
_symmetry_Int_Tables_number   1
_chemical_formula_structural   Er5ZnIn4Ir
_chemical_formula_sum   'Er10 Zn2 In8 Ir2'
_cell_volume   533.81733679
_cell_formula_units_Z   2
loop_
 _symmetry_equiv_pos_site_id
 _symmetry_equiv_pos_as_xyz
  1  'x, y, z'
loop_
 _atom_site_type_symbol
 _atom_site_label
 _atom_site_symmetry_multiplicity
 _atom_site_fract_x
 _atom_site_fract_y
 _atom_site_fract_z
 _atom_site_occupancy
  Er  Er0  1  0.000000  0.500000  0.500000  1
  Er  Er1  1  0.000000  0.000000  0.000000  1
  Er  Er2  1  0.000000  0.716710  0.276783  1
  Er  Er3  1  0.000000  0.283290  0.723217  1
  Er  Er4  1  0.000000  0.740542  0.781883  1
  Er  Er5  1  0.000000  0.259458  0.218117  1
  Er  Er6  1  0.000000  0.614316  0.085713  1
  Er  Er7  1  0.000000  0.385684  0.914287  1
  Er  Er8  1  0.000000  0.881339  0.580496  1
  Er  Er9  1  0.000000  0.118661  0.419504  1
  Zn  Zn10  1  0.500000  0.981298  0.698442  1
  Zn  Zn11  1  0.500000  0.018702  0.301558  1
  In  In12  1  0.500000  0.707630  0.932949  1
  In  In13  1  0.500000  0.292370  0.067051  1
  In  In14  1  0.500000  0.790883  0.430444  1
  In  In15  1  0.500000  0.209117  0.569556  1
  In  In16  1  0.500000  0.580665  0.647500  1
  In  In17  1  0.500000  0.419335  0.352500  1
  In  In18  1  0.500000  0.919905  0.149792  1
  In  In19  1  0.500000  0.080095  0.850208  1
  Ir  Ir20  1  0.500000  0.520845  0.196053  1
  Ir  Ir21  1  0.500000  0.479155  0.803947  1
