# generated using pymatgen
data_Ho4Sc4B24IrW3
_symmetry_space_group_name_H-M   'P 1'
_cell_length_a   3.51715800
_cell_length_b   9.11328406
_cell_length_c   11.50768634
_cell_angle_alpha   90.05520959
_cell_angle_beta   90.00000000
_cell_angle_gamma   90.00000000
_symmetry_Int_Tables_number   1
_chemical_formula_structural   Ho4Sc4B24IrW3
_chemical_formula_sum   'Ho4 Sc4 B24 Ir1 W3'
_cell_volume   368.85408699
_cell_formula_units_Z   1
loop_
 _symmetry_equiv_pos_site_id
 _symmetry_equiv_pos_as_xyz
  1  'x, y, z'
loop_
 _atom_site_type_symbol
 _atom_site_label
 _atom_site_symmetry_multiplicity
 _atom_site_fract_x
 _atom_site_fract_y
 _atom_site_fract_z
 _atom_site_occupancy
  Ho  Ho0  1  0.500000  0.318037  0.414552  1
  Ho  Ho1  1  0.500000  0.680714  0.587637  1
  Ho  Ho2  1  0.500000  0.179366  0.913145  1
  Ho  Ho3  1  0.500000  0.821957  0.083703  1
  Sc  Sc4  1  0.500000  0.443723  0.126704  1
  Sc  Sc5  1  0.500000  0.555265  0.873223  1
  Sc  Sc6  1  0.500000  0.053821  0.626681  1
  Sc  Sc7  1  0.500000  0.945584  0.372851  1
  B  B8  1  0.000000  0.095580  0.473443  1
  B  B9  1  0.000000  0.900942  0.524968  1
  B  B10  1  0.000000  0.403541  0.974445  1
  B  B11  1  0.000000  0.597438  0.028231  1
  B  B12  1  0.000000  0.129481  0.320411  1
  B  B13  1  0.000000  0.870376  0.680337  1
  B  B14  1  0.000000  0.371320  0.819143  1
  B  B15  1  0.000000  0.629779  0.182461  1
  B  B16  1  0.000000  0.051882  0.065696  1
  B  B17  1  0.000000  0.947565  0.934940  1
  B  B18  1  0.000000  0.448831  0.563531  1
  B  B19  1  0.000000  0.556363  0.432577  1
  B  B20  1  0.000000  0.483287  0.285859  1
  B  B21  1  0.000000  0.522143  0.714909  1
  B  B22  1  0.000000  0.021453  0.784389  1
  B  B23  1  0.000000  0.976898  0.215207  1
  B  B24  1  0.000000  0.256837  0.079359  1
  B  B25  1  0.000000  0.743402  0.921387  1
  B  B26  1  0.000000  0.242412  0.578677  1
  B  B27  1  0.000000  0.753845  0.419059  1
  B  B28  1  0.000000  0.299579  0.237077  1
  B  B29  1  0.000000  0.702057  0.764723  1
  B  B30  1  0.000000  0.202384  0.735615  1
  B  B31  1  0.000000  0.793427  0.265172  1
  Ir  Ir32  1  0.500000  0.640700  0.318578  1
  W  W33  1  0.500000  0.141397  0.182575  1
  W  W34  1  0.500000  0.859067  0.818794  1
  W  W35  1  0.500000  0.359549  0.679941  1
