# generated using pymatgen
data_CeNd2(ZnPt)4
_symmetry_space_group_name_H-M   'P 1'
_cell_length_a   8.36448829
_cell_length_b   8.36448942
_cell_length_c   8.36448824
_cell_angle_alpha   151.73186329
_cell_angle_beta   126.24802913
_cell_angle_gamma   61.83431750
_symmetry_Int_Tables_number   1
_chemical_formula_structural   CeNd2(ZnPt)4
_chemical_formula_sum   'Ce1 Nd2 Zn4 Pt4'
_cell_volume   221.69107689
_cell_formula_units_Z   1
loop_
 _symmetry_equiv_pos_site_id
 _symmetry_equiv_pos_as_xyz
  1  'x, y, z'
loop_
 _atom_site_type_symbol
 _atom_site_label
 _atom_site_symmetry_multiplicity
 _atom_site_fract_x
 _atom_site_fract_y
 _atom_site_fract_z
 _atom_site_occupancy
  Ce  Ce0  1  0.124792  0.124792  0.000000  1
  Nd  Nd1  1  0.500921  0.000921  0.500000  1
  Nd  Nd2  1  0.873174  0.873174  0.000000  1
  Zn  Zn3  1  0.478166  0.674264  0.803903  1
  Zn  Zn4  1  0.870362  0.674264  0.196097  1
  Zn  Zn5  1  0.131009  0.326775  0.804234  1
  Zn  Zn6  1  0.522542  0.326775  0.195766  1
  Pt  Pt7  1  0.276521  0.776521  0.500000  1
  Pt  Pt8  1  0.718229  0.218229  0.500000  1
  Pt  Pt9  1  0.807095  0.502140  0.304954  1
  Pt  Pt10  1  0.197187  0.502140  0.695046  1
