# generated using pymatgen
data_Er8Tm4InCo4Os
_symmetry_space_group_name_H-M   'P 1'
_cell_length_a   8.20080367
_cell_length_b   8.20080342
_cell_length_c   8.20080371
_cell_angle_alpha   111.52797972
_cell_angle_beta   110.81284537
_cell_angle_gamma   106.12464013
_symmetry_Int_Tables_number   1
_chemical_formula_structural   Er8Tm4InCo4Os
_chemical_formula_sum   'Er8 Tm4 In1 Co4 Os1'
_cell_volume   423.47233960
_cell_formula_units_Z   1
loop_
 _symmetry_equiv_pos_site_id
 _symmetry_equiv_pos_as_xyz
  1  'x, y, z'
loop_
 _atom_site_type_symbol
 _atom_site_label
 _atom_site_symmetry_multiplicity
 _atom_site_fract_x
 _atom_site_fract_y
 _atom_site_fract_z
 _atom_site_occupancy
  Er  Er0  1  0.417656  0.223208  0.194447  1
  Er  Er1  1  0.582344  0.776792  0.805553  1
  Er  Er2  1  0.028760  0.223208  0.805553  1
  Er  Er3  1  0.971240  0.776792  0.194447  1
  Er  Er4  1  0.181990  0.278190  0.460179  1
  Er  Er5  1  0.818010  0.721810  0.539821  1
  Er  Er6  1  0.181990  0.721810  0.903800  1
  Er  Er7  1  0.818010  0.278190  0.096200  1
  Tm  Tm8  1  0.314941  0.620997  0.306056  1
  Tm  Tm9  1  0.685059  0.379003  0.693944  1
  Tm  Tm10  1  0.314941  0.008884  0.693944  1
  Tm  Tm11  1  0.685059  0.991116  0.306056  1
  In  In12  1  0.500000  0.500000  0.000000  1
  Co  Co13  1  0.375006  0.000000  0.375006  1
  Co  Co14  1  0.624994  0.000000  0.624994  1
  Co  Co15  1  0.112074  0.612074  0.500000  1
  Co  Co16  1  0.887926  0.387926  0.500000  1
  Os  Os17  1  0.000000  0.000000  0.000000  1
