# generated using pymatgen
data_Yb4ZnGaPd10
_symmetry_space_group_name_H-M   'P 1'
_cell_length_a   4.20993400
_cell_length_b   5.71811232
_cell_length_c   11.23783500
_cell_angle_alpha   89.35677935
_cell_angle_beta   90.00000000
_cell_angle_gamma   90.00000000
_symmetry_Int_Tables_number   1
_chemical_formula_structural   Yb4ZnGaPd10
_chemical_formula_sum   'Yb4 Zn1 Ga1 Pd10'
_cell_volume   270.50995559
_cell_formula_units_Z   1
loop_
 _symmetry_equiv_pos_site_id
 _symmetry_equiv_pos_as_xyz
  1  'x, y, z'
loop_
 _atom_site_type_symbol
 _atom_site_label
 _atom_site_symmetry_multiplicity
 _atom_site_fract_x
 _atom_site_fract_y
 _atom_site_fract_z
 _atom_site_occupancy
  Yb  Yb0  1  0.500000  0.182382  0.359977  1
  Yb  Yb1  1  0.500000  0.817618  0.640023  1
  Yb  Yb2  1  0.500000  0.687969  0.137291  1
  Yb  Yb3  1  0.500000  0.312031  0.862709  1
  Zn  Zn4  1  0.000000  0.000000  0.000000  1
  Ga  Ga5  1  0.000000  0.500000  0.500000  1
  Pd  Pd6  1  0.500000  0.190810  0.108606  1
  Pd  Pd7  1  0.500000  0.809190  0.891394  1
  Pd  Pd8  1  0.500000  0.684641  0.394615  1
  Pd  Pd9  1  0.500000  0.315359  0.605385  1
  Pd  Pd10  1  0.000000  0.000000  0.500000  1
  Pd  Pd11  1  0.000000  0.500000  0.000000  1
  Pd  Pd12  1  0.000000  0.936119  0.244616  1
  Pd  Pd13  1  0.000000  0.063881  0.755384  1
  Pd  Pd14  1  0.000000  0.437106  0.258215  1
  Pd  Pd15  1  0.000000  0.562894  0.741785  1
