# generated using pymatgen
data_Nd2Rh2O7
_symmetry_space_group_name_H-M   'P 1'
_cell_length_a   7.39411012
_cell_length_b   7.39214052
_cell_length_c   7.39410611
_cell_angle_alpha   119.99204160
_cell_angle_beta   90.00100555
_cell_angle_gamma   119.99125818
_symmetry_Int_Tables_number   1
_chemical_formula_structural   Nd2Rh2O7
_chemical_formula_sum   'Nd4 Rh4 O14'
_cell_volume   285.84631079
_cell_formula_units_Z   2
loop_
 _symmetry_equiv_pos_site_id
 _symmetry_equiv_pos_as_xyz
  1  'x, y, z'
loop_
 _atom_site_type_symbol
 _atom_site_label
 _atom_site_symmetry_multiplicity
 _atom_site_fract_x
 _atom_site_fract_y
 _atom_site_fract_z
 _atom_site_occupancy
  Nd  Nd0  1  0.000000  0.500001  0.000001  1
  Nd  Nd1  1  0.500000  0.000001  0.500000  1
  Nd  Nd2  1  0.000000  0.000000  0.500001  1
  Nd  Nd3  1  0.000000  0.500000  0.500001  1
  Rh  Rh4  1  0.000000  0.000000  0.000001  1
  Rh  Rh5  1  0.499999  0.000000  0.000000  1
  Rh  Rh6  1  0.500000  0.499999  0.000000  1
  Rh  Rh7  1  0.499999  0.499999  0.500000  1
  O  O8  1  0.831485  0.749855  0.081620  1
  O  O9  1  0.831656  0.163377  0.081683  1
  O  O10  1  0.418379  0.749889  0.081615  1
  O  O11  1  0.168300  0.249997  0.331695  1
  O  O12  1  0.581677  0.249965  0.331646  1
  O  O13  1  0.581620  0.663243  0.331466  1
  O  O14  1  0.125000  0.749991  0.374992  1
  O  O15  1  0.875001  0.250008  0.625008  1
  O  O16  1  0.418323  0.750034  0.668354  1
  O  O17  1  0.418381  0.336758  0.668534  1
  O  O18  1  0.831699  0.750003  0.668306  1
  O  O19  1  0.168515  0.250144  0.918380  1
  O  O20  1  0.581621  0.250111  0.918384  1
  O  O21  1  0.168344  0.836623  0.918317  1
