# generated using pymatgen
data_Ho12Er4In4OsRh3
_symmetry_space_group_name_H-M   'P 1'
_cell_length_a   9.59835677
_cell_length_b   9.63244828
_cell_length_c   9.60670414
_cell_angle_alpha   60.01117683
_cell_angle_beta   59.74826100
_cell_angle_gamma   60.12704953
_symmetry_Int_Tables_number   1
_chemical_formula_structural   Ho12Er4In4OsRh3
_chemical_formula_sum   'Ho12 Er4 In4 Os1 Rh3'
_cell_volume   627.49491308
_cell_formula_units_Z   1
loop_
 _symmetry_equiv_pos_site_id
 _symmetry_equiv_pos_as_xyz
  1  'x, y, z'
loop_
 _atom_site_type_symbol
 _atom_site_label
 _atom_site_symmetry_multiplicity
 _atom_site_fract_x
 _atom_site_fract_y
 _atom_site_fract_z
 _atom_site_occupancy
  Ho  Ho0  1  0.188724  0.192096  0.810556  1
  Ho  Ho1  1  0.438588  0.060758  0.061528  1
  Ho  Ho2  1  0.437250  0.062141  0.436178  1
  Ho  Ho3  1  0.059085  0.436655  0.058562  1
  Ho  Ho4  1  0.647810  0.049833  0.649221  1
  Ho  Ho5  1  0.192224  0.807816  0.810371  1
  Ho  Ho6  1  0.060598  0.059218  0.439800  1
  Ho  Ho7  1  0.809968  0.192646  0.189433  1
  Ho  Ho8  1  0.810890  0.808886  0.191544  1
  Ho  Ho9  1  0.651120  0.649924  0.047130  1
  Ho  Ho10  1  0.652221  0.651900  0.650794  1
  Ho  Ho11  1  0.060176  0.436453  0.442955  1
  Er  Er12  1  0.046663  0.648535  0.651027  1
  Er  Er13  1  0.808214  0.193991  0.808301  1
  Er  Er14  1  0.445817  0.437410  0.058132  1
  Er  Er15  1  0.192727  0.807551  0.192903  1
  In  In16  1  0.417923  0.748002  0.418016  1
  In  In17  1  0.416642  0.416949  0.749609  1
  In  In18  1  0.748930  0.417123  0.417019  1
  In  In19  1  0.416161  0.416438  0.418341  1
  Os  Os20  1  0.857285  0.424147  0.858623  1
  Rh  Rh21  1  0.859688  0.860228  0.423167  1
  Rh  Rh22  1  0.422946  0.858612  0.860017  1
  Rh  Rh23  1  0.858352  0.862688  0.856771  1
