# generated using pymatgen
data_Sr9Pr3(Si7Br3)2
_symmetry_space_group_name_H-M   'P 1'
_cell_length_a   4.13058300
_cell_length_b   11.94817974
_cell_length_c   16.87884400
_cell_angle_alpha   89.64314646
_cell_angle_beta   90.00000000
_cell_angle_gamma   90.00000000
_symmetry_Int_Tables_number   1
_chemical_formula_structural   Sr9Pr3(Si7Br3)2
_chemical_formula_sum   'Sr9 Pr3 Si14 Br6'
_cell_volume   833.00455538
_cell_formula_units_Z   1
loop_
 _symmetry_equiv_pos_site_id
 _symmetry_equiv_pos_as_xyz
  1  'x, y, z'
loop_
 _atom_site_type_symbol
 _atom_site_label
 _atom_site_symmetry_multiplicity
 _atom_site_fract_x
 _atom_site_fract_y
 _atom_site_fract_z
 _atom_site_occupancy
  Sr  Sr0  1  0.500000  0.324865  0.502758  1
  Sr  Sr1  1  0.000000  0.673389  0.997940  1
  Sr  Sr2  1  0.000000  0.653334  0.748771  1
  Sr  Sr3  1  0.500000  0.347988  0.247956  1
  Sr  Sr4  1  0.000000  0.651155  0.251023  1
  Sr  Sr5  1  0.500000  0.055797  0.875180  1
  Sr  Sr6  1  0.000000  0.945734  0.624714  1
  Sr  Sr7  1  0.500000  0.055492  0.122946  1
  Sr  Sr8  1  0.000000  0.943938  0.375549  1
  Pr  Pr9  1  0.500000  0.357661  0.755532  1
  Pr  Pr10  1  0.500000  0.359840  0.997285  1
  Pr  Pr11  1  0.000000  0.637585  0.501945  1
  Si  Si12  1  0.000000  0.164128  0.997819  1
  Si  Si13  1  0.500000  0.834639  0.501128  1
  Si  Si14  1  0.500000  0.559413  0.874717  1
  Si  Si15  1  0.000000  0.435421  0.629375  1
  Si  Si16  1  0.500000  0.559081  0.123093  1
  Si  Si17  1  0.000000  0.439136  0.378857  1
  Si  Si18  1  0.000000  0.260380  0.875359  1
  Si  Si19  1  0.500000  0.739772  0.622128  1
  Si  Si20  1  0.000000  0.258260  0.119439  1
  Si  Si21  1  0.500000  0.740310  0.379776  1
  Si  Si22  1  0.000000  0.456914  0.878880  1
  Si  Si23  1  0.500000  0.540633  0.621926  1
  Si  Si24  1  0.500000  0.542998  0.380501  1
  Si  Si25  1  0.000000  0.455940  0.116824  1
  Br  Br26  1  0.500000  0.116153  0.691475  1
  Br  Br27  1  0.000000  0.892166  0.808362  1
  Br  Br28  1  0.000000  0.135138  0.499558  1
  Br  Br29  1  0.500000  0.863390  0.999475  1
  Br  Br30  1  0.500000  0.108241  0.307984  1
  Br  Br31  1  0.000000  0.891113  0.191725  1
