# generated using pymatgen
data_Y3HoAl18(IrRh)3
_symmetry_space_group_name_H-M   'P 1'
_cell_length_a   7.55678702
_cell_length_b   7.55603676
_cell_length_c   9.47506313
_cell_angle_alpha   89.99718394
_cell_angle_beta   89.99666026
_cell_angle_gamma   119.49077194
_symmetry_Int_Tables_number   1
_chemical_formula_structural   Y3HoAl18(IrRh)3
_chemical_formula_sum   'Y3 Ho1 Al18 Ir3 Rh3'
_cell_volume   470.92277793
_cell_formula_units_Z   1
loop_
 _symmetry_equiv_pos_site_id
 _symmetry_equiv_pos_as_xyz
  1  'x, y, z'
loop_
 _atom_site_type_symbol
 _atom_site_label
 _atom_site_symmetry_multiplicity
 _atom_site_fract_x
 _atom_site_fract_y
 _atom_site_fract_z
 _atom_site_occupancy
  Y  Y0  1  0.005232  0.329107  0.751673  1
  Y  Y1  1  0.670868  0.994737  0.248329  1
  Y  Y2  1  0.329143  0.005219  0.751669  1
  Ho  Ho3  1  0.994862  0.670952  0.248251  1
  Al  Al4  1  0.128227  0.128016  0.250316  1
  Al  Al5  1  0.871801  0.871795  0.749690  1
  Al  Al6  1  0.001067  0.335273  0.074347  1
  Al  Al7  1  0.998940  0.664946  0.925926  1
  Al  Al8  1  0.999232  0.664647  0.573941  1
  Al  Al9  1  0.335154  0.000568  0.425796  1
  Al  Al10  1  0.000766  0.335566  0.425783  1
  Al  Al11  1  0.664639  0.999236  0.574150  1
  Al  Al12  1  0.664933  0.998937  0.925710  1
  Al  Al13  1  0.334860  0.000864  0.074334  1
  Al  Al14  1  0.333151  0.333148  0.551067  1
  Al  Al15  1  0.667025  0.666861  0.448817  1
  Al  Al16  1  0.666693  0.666534  0.049970  1
  Al  Al17  1  0.333472  0.333473  0.950146  1
  Al  Al18  1  0.339011  0.548777  0.250475  1
  Al  Al19  1  0.660804  0.451197  0.749524  1
  Al  Al20  1  0.549007  0.339440  0.250477  1
  Al  Al21  1  0.451195  0.660796  0.749528  1
  Ir  Ir22  1  0.671961  0.328175  0.000112  1
  Ir  Ir23  1  0.328074  0.671916  0.000115  1
  Ir  Ir24  1  0.999927  0.999885  0.000148  1
  Rh  Rh25  1  0.328184  0.671811  0.499918  1
  Rh  Rh26  1  0.671847  0.328231  0.499925  1
  Rh  Rh27  1  0.999925  0.999893  0.499864  1
