# generated using pymatgen
data_NdEu3CrMo3O14
_symmetry_space_group_name_H-M   'P 1'
_cell_length_a   7.53335395
_cell_length_b   7.40315772
_cell_length_c   7.53335369
_cell_angle_alpha   59.19659726
_cell_angle_beta   59.84495435
_cell_angle_gamma   59.19658839
_symmetry_Int_Tables_number   1
_chemical_formula_structural   NdEu3CrMo3O14
_chemical_formula_sum   'Nd1 Eu3 Cr1 Mo3 O14'
_cell_volume   293.08796788
_cell_formula_units_Z   1
loop_
 _symmetry_equiv_pos_site_id
 _symmetry_equiv_pos_as_xyz
  1  'x, y, z'
loop_
 _atom_site_type_symbol
 _atom_site_label
 _atom_site_symmetry_multiplicity
 _atom_site_fract_x
 _atom_site_fract_y
 _atom_site_fract_z
 _atom_site_occupancy
  Nd  Nd0  1  0.125000  0.125000  0.125000  1
  Eu  Eu1  1  0.625000  0.125000  0.125000  1
  Eu  Eu2  1  0.125000  0.625000  0.125000  1
  Eu  Eu3  1  0.125000  0.125000  0.625000  1
  Cr  Cr4  1  0.625000  0.125000  0.625000  1
  Mo  Mo5  1  0.125000  0.625000  0.625000  1
  Mo  Mo6  1  0.625000  0.625000  0.125000  1
  Mo  Mo7  1  0.625000  0.625000  0.625000  1
  O  O8  1  0.251810  0.243736  0.251810  1
  O  O9  1  0.998190  0.006264  0.998190  1
  O  O10  1  0.704103  0.699826  0.297393  1
  O  O11  1  0.296275  0.302688  0.702832  1
  O  O12  1  0.696891  0.307494  0.696891  1
  O  O13  1  0.296260  0.703292  0.296260  1
  O  O14  1  0.297393  0.699826  0.704103  1
  O  O15  1  0.702832  0.302688  0.296275  1
  O  O16  1  0.545897  0.550174  0.952607  1
  O  O17  1  0.953725  0.947312  0.547168  1
  O  O18  1  0.553109  0.942506  0.553109  1
  O  O19  1  0.953740  0.546708  0.953740  1
  O  O20  1  0.952607  0.550174  0.545897  1
  O  O21  1  0.547168  0.947312  0.953725  1
