# generated using pymatgen
data_Eu4Al18PdPt5
_symmetry_space_group_name_H-M   'P 1'
_cell_length_a   7.67317726
_cell_length_b   7.67317675
_cell_length_c   9.59515193
_cell_angle_alpha   89.97762278
_cell_angle_beta   89.97761691
_cell_angle_gamma   119.55186197
_symmetry_Int_Tables_number   1
_chemical_formula_structural   Eu4Al18PdPt5
_chemical_formula_sum   'Eu4 Al18 Pd1 Pt5'
_cell_volume   491.44654926
_cell_formula_units_Z   1
loop_
 _symmetry_equiv_pos_site_id
 _symmetry_equiv_pos_as_xyz
  1  'x, y, z'
loop_
 _atom_site_type_symbol
 _atom_site_label
 _atom_site_symmetry_multiplicity
 _atom_site_fract_x
 _atom_site_fract_y
 _atom_site_fract_z
 _atom_site_occupancy
  Eu  Eu0  1  0.670361  0.997243  0.250064  1
  Eu  Eu1  1  0.002757  0.329639  0.749936  1
  Eu  Eu2  1  0.997243  0.670361  0.250064  1
  Eu  Eu3  1  0.329639  0.002757  0.749936  1
  Al  Al4  1  0.664784  0.998360  0.924748  1
  Al  Al5  1  0.131859  0.131859  0.249802  1
  Al  Al6  1  0.000824  0.334635  0.425100  1
  Al  Al7  1  0.332893  0.332893  0.556075  1
  Al  Al8  1  0.339953  0.545202  0.250129  1
  Al  Al9  1  0.454798  0.660047  0.749871  1
  Al  Al10  1  0.868141  0.868141  0.750198  1
  Al  Al11  1  0.666425  0.666425  0.057122  1
  Al  Al12  1  0.667107  0.667107  0.443925  1
  Al  Al13  1  0.999176  0.665365  0.574900  1
  Al  Al14  1  0.998360  0.664784  0.924748  1
  Al  Al15  1  0.334635  0.000824  0.425100  1
  Al  Al16  1  0.660047  0.454798  0.749871  1
  Al  Al17  1  0.545202  0.339953  0.250129  1
  Al  Al18  1  0.333575  0.333575  0.942878  1
  Al  Al19  1  0.335216  0.001640  0.075252  1
  Al  Al20  1  0.665365  0.999176  0.574900  1
  Al  Al21  1  0.001640  0.335216  0.075252  1
  Pd  Pd22  1  0.000000  0.000000  0.000000  1
  Pt  Pt23  1  0.329399  0.670601  0.500000  1
  Pt  Pt24  1  0.329272  0.670728  0.000000  1
  Pt  Pt25  1  0.670601  0.329399  0.500000  1
  Pt  Pt26  1  0.000000  0.000000  0.500000  1
  Pt  Pt27  1  0.670728  0.329272  0.000000  1
