# generated using pymatgen
data_Tb3Zn3Si2Hg
_symmetry_space_group_name_H-M   'P 1'
_cell_length_a   6.95297900
_cell_length_b   6.95297873
_cell_length_c   4.35302700
_cell_angle_alpha   90.00000000
_cell_angle_beta   90.00000000
_cell_angle_gamma   119.99998701
_symmetry_Int_Tables_number   1
_chemical_formula_structural   Tb3Zn3Si2Hg
_chemical_formula_sum   'Tb3 Zn3 Si2 Hg1'
_cell_volume   182.24846031
_cell_formula_units_Z   1
loop_
 _symmetry_equiv_pos_site_id
 _symmetry_equiv_pos_as_xyz
  1  'x, y, z'
loop_
 _atom_site_type_symbol
 _atom_site_label
 _atom_site_symmetry_multiplicity
 _atom_site_fract_x
 _atom_site_fract_y
 _atom_site_fract_z
 _atom_site_occupancy
  Tb  Tb0  1  0.000000  0.429869  0.000000  1
  Tb  Tb1  1  0.570131  0.570131  0.000000  1
  Tb  Tb2  1  0.429869  0.000000  0.000000  1
  Zn  Zn3  1  0.000000  0.743360  0.500000  1
  Zn  Zn4  1  0.256640  0.256640  0.500000  1
  Zn  Zn5  1  0.743360  0.000000  0.500000  1
  Si  Si6  1  0.333333  0.666667  0.500000  1
  Si  Si7  1  0.666667  0.333333  0.500000  1
  Hg  Hg8  1  0.000000  0.000000  0.000000  1
