# generated using pymatgen
data_Hf18Ta4Re4GeP
_symmetry_space_group_name_H-M   'P 1'
_cell_length_a   8.64855213
_cell_length_b   8.69148413
_cell_length_c   8.73994300
_cell_angle_alpha   90.00000000
_cell_angle_beta   90.00000000
_cell_angle_gamma   119.89475949
_symmetry_Int_Tables_number   1
_chemical_formula_structural   Hf18Ta4Re4GeP
_chemical_formula_sum   'Hf18 Ta4 Re4 Ge1 P1'
_cell_volume   569.55564756
_cell_formula_units_Z   1
loop_
 _symmetry_equiv_pos_site_id
 _symmetry_equiv_pos_as_xyz
  1  'x, y, z'
loop_
 _atom_site_type_symbol
 _atom_site_label
 _atom_site_symmetry_multiplicity
 _atom_site_fract_x
 _atom_site_fract_y
 _atom_site_fract_z
 _atom_site_occupancy
  Hf  Hf0  1  0.803778  0.607517  0.544620  1
  Hf  Hf1  1  0.804414  0.195510  0.541046  1
  Hf  Hf2  1  0.391135  0.195524  0.541015  1
  Hf  Hf3  1  0.196152  0.392361  0.446253  1
  Hf  Hf4  1  0.198170  0.803285  0.447604  1
  Hf  Hf5  1  0.605096  0.803286  0.447635  1
  Hf  Hf6  1  0.196152  0.392361  0.053747  1
  Hf  Hf7  1  0.198170  0.803285  0.052396  1
  Hf  Hf8  1  0.605096  0.803286  0.052365  1
  Hf  Hf9  1  0.803778  0.607517  0.955380  1
  Hf  Hf10  1  0.804414  0.195510  0.958954  1
  Hf  Hf11  1  0.391135  0.195524  0.958985  1
  Hf  Hf12  1  0.463250  0.926556  0.750000  1
  Hf  Hf13  1  0.460902  0.537663  0.750000  1
  Hf  Hf14  1  0.076707  0.537640  0.750000  1
  Hf  Hf15  1  0.541139  0.082257  0.250000  1
  Hf  Hf16  1  0.537553  0.459656  0.250000  1
  Hf  Hf17  1  0.922083  0.459552  0.250000  1
  Ta  Ta18  1  0.110368  0.220805  0.750000  1
  Ta  Ta19  1  0.111218  0.889162  0.750000  1
  Ta  Ta20  1  0.778013  0.889252  0.750000  1
  Ta  Ta21  1  0.891878  0.783776  0.250000  1
  Re  Re22  1  0.890675  0.111229  0.250000  1
  Re  Re23  1  0.220393  0.111146  0.250000  1
  Re  Re24  1  0.000422  0.000842  0.500466  1
  Re  Re25  1  0.000422  0.000842  0.999534  1
  Ge  Ge26  1  0.665801  0.331481  0.750000  1
  P  P27  1  0.331685  0.663176  0.250000  1
