# generated using pymatgen
data_AuS8Cl3
_symmetry_space_group_name_H-M   'P 1'
_cell_length_a   8.24802236
_cell_length_b   10.69997207
_cell_length_c   11.64425140
_cell_angle_alpha   100.72570757
_cell_angle_beta   108.78592979
_cell_angle_gamma   104.38369926
_symmetry_Int_Tables_number   1
_chemical_formula_structural   AuS8Cl3
_chemical_formula_sum   'Au2 S16 Cl6'
_cell_volume   901.85783759
_cell_formula_units_Z   2
loop_
 _symmetry_equiv_pos_site_id
 _symmetry_equiv_pos_as_xyz
  1  'x, y, z'
loop_
 _atom_site_type_symbol
 _atom_site_label
 _atom_site_symmetry_multiplicity
 _atom_site_fract_x
 _atom_site_fract_y
 _atom_site_fract_z
 _atom_site_occupancy
  Au  Au0  1  0.816180  0.966314  0.855974  1
  Au  Au1  1  0.183820  0.033686  0.144026  1
  S  S2  1  0.856237  0.515202  0.814976  1
  S  S3  1  0.143763  0.484798  0.185024  1
  S  S4  1  0.724035  0.430481  0.621080  1
  S  S5  1  0.275965  0.569519  0.378920  1
  S  S6  1  0.739076  0.239393  0.574644  1
  S  S7  1  0.260924  0.760607  0.425356  1
  S  S8  1  0.941079  0.245432  0.506667  1
  S  S9  1  0.058921  0.754568  0.493333  1
  S  S10  1  0.881432  0.366235  0.143294  1
  S  S11  1  0.118568  0.633765  0.856706  1
  S  S12  1  0.708792  0.476243  0.102531  1
  S  S13  1  0.291208  0.523757  0.897469  1
  S  S14  1  0.662228  0.547151  0.262163  1
  S  S15  1  0.337772  0.452849  0.737837  1
  S  S16  1  0.826242  0.745867  0.349937  1
  S  S17  1  0.173758  0.254133  0.650063  1
  Cl  Cl18  1  0.522016  0.959028  0.802924  1
  Cl  Cl19  1  0.477984  0.040972  0.197076  1
  Cl  Cl20  1  0.872780  0.021238  0.077164  1
  Cl  Cl21  1  0.127220  0.978762  0.922836  1
  Cl  Cl22  1  0.779817  0.910854  0.648377  1
  Cl  Cl23  1  0.220183  0.089146  0.351623  1
