# generated using pymatgen
data_AcPrNd2(Al3Ir)6
_symmetry_space_group_name_H-M   'P 1'
_cell_length_a   7.63858503
_cell_length_b   7.66012819
_cell_length_c   9.66829800
_cell_angle_alpha   90.00000000
_cell_angle_beta   90.00000000
_cell_angle_gamma   119.20503093
_symmetry_Int_Tables_number   1
_chemical_formula_structural   AcPrNd2(Al3Ir)6
_chemical_formula_sum   'Ac1 Pr1 Nd2 Al18 Ir6'
_cell_volume   493.80234259
_cell_formula_units_Z   1
loop_
 _symmetry_equiv_pos_site_id
 _symmetry_equiv_pos_as_xyz
  1  'x, y, z'
loop_
 _atom_site_type_symbol
 _atom_site_label
 _atom_site_symmetry_multiplicity
 _atom_site_fract_x
 _atom_site_fract_y
 _atom_site_fract_z
 _atom_site_occupancy
  Ac  Ac0  1  0.991887  0.670971  0.250000  1
  Pr  Pr1  1  0.671993  0.993445  0.250000  1
  Nd  Nd2  1  0.004227  0.328674  0.750000  1
  Nd  Nd3  1  0.326982  0.003878  0.750000  1
  Al  Al4  1  0.133067  0.138291  0.250000  1
  Al  Al5  1  0.869001  0.871801  0.750000  1
  Al  Al6  1  0.004107  0.332612  0.068557  1
  Al  Al7  1  0.997663  0.663676  0.920019  1
  Al  Al8  1  0.997663  0.663676  0.579981  1
  Al  Al9  1  0.339396  0.006349  0.431610  1
  Al  Al10  1  0.004107  0.332612  0.431443  1
  Al  Al11  1  0.664562  0.999963  0.574615  1
  Al  Al12  1  0.664562  0.999963  0.925385  1
  Al  Al13  1  0.339396  0.006349  0.068390  1
  Al  Al14  1  0.333206  0.332959  0.550772  1
  Al  Al15  1  0.664107  0.666360  0.466472  1
  Al  Al16  1  0.664107  0.666360  0.033528  1
  Al  Al17  1  0.333206  0.332959  0.949228  1
  Al  Al18  1  0.345784  0.546118  0.250000  1
  Al  Al19  1  0.657252  0.450007  0.750000  1
  Al  Al20  1  0.538874  0.329466  0.250000  1
  Al  Al21  1  0.451358  0.660864  0.750000  1
  Ir  Ir22  1  0.671175  0.329981  0.998890  1
  Ir  Ir23  1  0.329722  0.670909  0.998758  1
  Ir  Ir24  1  0.329722  0.670909  0.501242  1
  Ir  Ir25  1  0.671175  0.329981  0.501110  1
  Ir  Ir26  1  0.000849  0.000432  0.998117  1
  Ir  Ir27  1  0.000849  0.000432  0.501883  1
