# generated using pymatgen
data_TbTiP7Ru12
_symmetry_space_group_name_H-M   'P 1'
_cell_length_a   9.38590900
_cell_length_b   9.38590770
_cell_length_c   3.90327300
_cell_angle_alpha   90.00000000
_cell_angle_beta   90.00000000
_cell_angle_gamma   120.00000010
_symmetry_Int_Tables_number   1
_chemical_formula_structural   TbTiP7Ru12
_chemical_formula_sum   'Tb1 Ti1 P7 Ru12'
_cell_volume   297.79141762
_cell_formula_units_Z   1
loop_
 _symmetry_equiv_pos_site_id
 _symmetry_equiv_pos_as_xyz
  1  'x, y, z'
loop_
 _atom_site_type_symbol
 _atom_site_label
 _atom_site_symmetry_multiplicity
 _atom_site_fract_x
 _atom_site_fract_y
 _atom_site_fract_z
 _atom_site_occupancy
  Tb  Tb0  1  0.333333  0.666667  0.000000  1
  Ti  Ti1  1  0.666667  0.333333  0.500000  1
  P  P2  1  0.600246  0.719334  0.500000  1
  P  P3  1  0.000000  0.000000  0.000000  1
  P  P4  1  0.280666  0.880912  0.500000  1
  P  P5  1  0.119088  0.399754  0.500000  1
  P  P6  1  0.884148  0.570821  0.000000  1
  P  P7  1  0.429179  0.313327  0.000000  1
  P  P8  1  0.686673  0.115852  0.000000  1
  Ru  Ru9  1  0.558115  0.956246  0.500000  1
  Ru  Ru10  1  0.398131  0.441885  0.500000  1
  Ru  Ru11  1  0.913719  0.121557  0.500000  1
  Ru  Ru12  1  0.207838  0.086281  0.500000  1
  Ru  Ru13  1  0.878443  0.792162  0.500000  1
  Ru  Ru14  1  0.725994  0.889769  0.000000  1
  Ru  Ru15  1  0.110231  0.836223  0.000000  1
  Ru  Ru16  1  0.163777  0.274006  0.000000  1
  Ru  Ru17  1  0.428636  0.075990  0.000000  1
  Ru  Ru18  1  0.924010  0.352647  0.000000  1
  Ru  Ru19  1  0.647353  0.571364  0.000000  1
  Ru  Ru20  1  0.043754  0.601869  0.500000  1
