# generated using pymatgen
data_Dy2Tm2Si4TcRh3
_symmetry_space_group_name_H-M   'P 1'
_cell_length_a   4.31467700
_cell_length_b   6.92741991
_cell_length_c   7.22009493
_cell_angle_alpha   90.00021111
_cell_angle_beta   90.00000000
_cell_angle_gamma   90.00000000
_symmetry_Int_Tables_number   1
_chemical_formula_structural   Dy2Tm2Si4TcRh3
_chemical_formula_sum   'Dy2 Tm2 Si4 Tc1 Rh3'
_cell_volume   215.80560019
_cell_formula_units_Z   1
loop_
 _symmetry_equiv_pos_site_id
 _symmetry_equiv_pos_as_xyz
  1  'x, y, z'
loop_
 _atom_site_type_symbol
 _atom_site_label
 _atom_site_symmetry_multiplicity
 _atom_site_fract_x
 _atom_site_fract_y
 _atom_site_fract_z
 _atom_site_occupancy
  Dy  Dy0  1  0.250000  0.493907  0.184202  1
  Dy  Dy1  1  0.250000  0.986508  0.312191  1
  Tm  Tm2  1  0.750000  0.505721  0.812526  1
  Tm  Tm3  1  0.750000  0.009575  0.691776  1
  Si  Si4  1  0.250000  0.799638  0.884421  1
  Si  Si5  1  0.750000  0.201848  0.108227  1
  Si  Si6  1  0.750000  0.701856  0.402925  1
  Si  Si7  1  0.250000  0.300304  0.604958  1
  Tc  Tc8  1  0.250000  0.653658  0.569329  1
  Rh  Rh9  1  0.750000  0.343616  0.433361  1
  Rh  Rh10  1  0.750000  0.846932  0.064957  1
  Rh  Rh11  1  0.250000  0.156437  0.931127  1
