# generated using pymatgen
data_K4RbBaVAs4
_symmetry_space_group_name_H-M   'P 1'
_cell_length_a   10.48286233
_cell_length_b   10.48809882
_cell_length_c   8.12616495
_cell_angle_alpha   89.43884108
_cell_angle_beta   88.92165230
_cell_angle_gamma   121.01426546
_symmetry_Int_Tables_number   1
_chemical_formula_structural   K4RbBaVAs4
_chemical_formula_sum   'K8 Rb2 Ba2 V2 As8'
_cell_volume   765.37380315
_cell_formula_units_Z   2
loop_
 _symmetry_equiv_pos_site_id
 _symmetry_equiv_pos_as_xyz
  1  'x, y, z'
loop_
 _atom_site_type_symbol
 _atom_site_label
 _atom_site_symmetry_multiplicity
 _atom_site_fract_x
 _atom_site_fract_y
 _atom_site_fract_z
 _atom_site_occupancy
  K  K0  1  0.469238  0.524249  0.609949  1
  K  K1  1  0.055347  0.527280  0.609095  1
  K  K2  1  0.524985  0.468629  0.110281  1
  K  K3  1  0.524969  0.055562  0.109717  1
  K  K4  1  0.862247  0.143863  0.785268  1
  K  K5  1  0.296368  0.154283  0.814340  1
  K  K6  1  0.854576  0.712489  0.771501  1
  K  K7  1  0.144412  0.862891  0.287127  1
  Rb  Rb8  1  0.725011  0.859667  0.273132  1
  Rb  Rb9  1  0.150113  0.287972  0.320429  1
  Ba  Ba10  1  0.464236  0.935556  0.601916  1
  Ba  Ba11  1  0.937029  0.466853  0.105204  1
  V  V12  1  0.667658  0.333822  0.504780  1
  V  V13  1  0.332305  0.668300  0.996254  1
  As  As14  1  0.676899  0.333748  0.801002  1
  As  As15  1  0.332020  0.678436  0.292093  1
  As  As16  1  0.202253  0.792030  0.900523  1
  As  As17  1  0.583526  0.795662  0.886013  1
  As  As18  1  0.198841  0.410943  0.915409  1
  As  As19  1  0.789003  0.205511  0.404133  1
  As  As20  1  0.412024  0.198517  0.422923  1
  As  As21  1  0.796942  0.583737  0.393311  1
