# generated using pymatgen
data_Tb3Y(Br3N)2
_symmetry_space_group_name_H-M   'P 1'
_cell_length_a   9.72797288
_cell_length_b   9.72797199
_cell_length_c   11.91327000
_cell_angle_alpha   125.79499765
_cell_angle_beta   125.79499387
_cell_angle_gamma   23.24750421
_symmetry_Int_Tables_number   1
_chemical_formula_structural   Tb3Y(Br3N)2
_chemical_formula_sum   'Tb3 Y1 Br6 N2'
_cell_volume   356.94261465
_cell_formula_units_Z   1
loop_
 _symmetry_equiv_pos_site_id
 _symmetry_equiv_pos_as_xyz
  1  'x, y, z'
loop_
 _atom_site_type_symbol
 _atom_site_label
 _atom_site_symmetry_multiplicity
 _atom_site_fract_x
 _atom_site_fract_y
 _atom_site_fract_z
 _atom_site_occupancy
  Tb  Tb0  1  0.428312  0.428312  0.038370  1
  Tb  Tb1  1  0.135879  0.135879  0.284067  1
  Tb  Tb2  1  0.864436  0.864436  0.715766  1
  Y  Y3  1  0.571244  0.571244  0.961899  1
  Br  Br4  1  0.209545  0.209545  0.119188  1
  Br  Br5  1  0.967595  0.967595  0.248846  1
  Br  Br6  1  0.328692  0.328692  0.491119  1
  Br  Br7  1  0.671496  0.671496  0.508689  1
  Br  Br8  1  0.033112  0.033112  0.752836  1
  Br  Br9  1  0.789619  0.789619  0.879276  1
  N  N10  1  0.574941  0.574941  0.153994  1
  N  N11  1  0.425128  0.425128  0.845949  1
