# generated using pymatgen
data_Na3Ga(BPt3)2
_symmetry_space_group_name_H-M   'P 1'
_cell_length_a   8.13836629
_cell_length_b   8.13836579
_cell_length_c   8.13836500
_cell_angle_alpha   40.51618080
_cell_angle_beta   40.51618485
_cell_angle_gamma   40.51618922
_symmetry_Int_Tables_number   1
_chemical_formula_structural   Na3Ga(BPt3)2
_chemical_formula_sum   'Na3 Ga1 B2 Pt6'
_cell_volume   205.19117459
_cell_formula_units_Z   1
loop_
 _symmetry_equiv_pos_site_id
 _symmetry_equiv_pos_as_xyz
  1  'x, y, z'
loop_
 _atom_site_type_symbol
 _atom_site_label
 _atom_site_symmetry_multiplicity
 _atom_site_fract_x
 _atom_site_fract_y
 _atom_site_fract_z
 _atom_site_occupancy
  Na  Na0  1  0.860619  0.860619  0.860619  1
  Na  Na1  1  0.139381  0.139381  0.139381  1
  Na  Na2  1  0.000000  0.000000  0.000000  1
  Ga  Ga3  1  0.500000  0.500000  0.500000  1
  B  B4  1  0.668054  0.668054  0.668054  1
  B  B5  1  0.331946  0.331946  0.331946  1
  Pt  Pt6  1  0.434488  0.932551  0.434488  1
  Pt  Pt7  1  0.434488  0.434488  0.932551  1
  Pt  Pt8  1  0.932551  0.434488  0.434488  1
  Pt  Pt9  1  0.565512  0.067449  0.565512  1
  Pt  Pt10  1  0.565512  0.565512  0.067449  1
  Pt  Pt11  1  0.067449  0.565512  0.565512  1
