# generated using pymatgen
data_La4Tb2Sn7Hg3
_symmetry_space_group_name_H-M   'P 1'
_cell_length_a   6.62466894
_cell_length_b   6.62466793
_cell_length_c   10.46482929
_cell_angle_alpha   90.49013258
_cell_angle_beta   90.49013972
_cell_angle_gamma   102.40367895
_symmetry_Int_Tables_number   1
_chemical_formula_structural   La4Tb2Sn7Hg3
_chemical_formula_sum   'La4 Tb2 Sn7 Hg3'
_cell_volume   448.50025258
_cell_formula_units_Z   1
loop_
 _symmetry_equiv_pos_site_id
 _symmetry_equiv_pos_as_xyz
  1  'x, y, z'
loop_
 _atom_site_type_symbol
 _atom_site_label
 _atom_site_symmetry_multiplicity
 _atom_site_fract_x
 _atom_site_fract_y
 _atom_site_fract_z
 _atom_site_occupancy
  La  La0  1  0.205954  0.796911  0.500065  1
  La  La1  1  0.206647  0.791679  0.000229  1
  La  La2  1  0.796911  0.205954  0.500065  1
  La  La3  1  0.791679  0.206647  0.000229  1
  Tb  Tb4  1  0.630073  0.630073  0.251099  1
  Tb  Tb5  1  0.370037  0.370037  0.744987  1
  Sn  Sn6  1  0.015476  0.015476  0.246476  1
  Sn  Sn7  1  0.984415  0.984415  0.752273  1
  Sn  Sn8  1  0.687863  0.687863  0.545483  1
  Sn  Sn9  1  0.490269  0.070571  0.248596  1
  Sn  Sn10  1  0.931510  0.509567  0.752460  1
  Sn  Sn11  1  0.509567  0.931510  0.752460  1
  Sn  Sn12  1  0.070571  0.490269  0.248596  1
  Hg  Hg13  1  0.313757  0.313757  0.037739  1
  Hg  Hg14  1  0.685477  0.685477  0.961974  1
  Hg  Hg15  1  0.309794  0.309794  0.457269  1
