# generated using pymatgen
data_Ac5Zr(SnIr)6
_symmetry_space_group_name_H-M   'P 1'
_cell_length_a   7.68012935
_cell_length_b   7.67058411
_cell_length_c   8.52361600
_cell_angle_alpha   90.00000000
_cell_angle_beta   90.00000000
_cell_angle_gamma   120.01882145
_symmetry_Int_Tables_number   1
_chemical_formula_structural   Ac5Zr(SnIr)6
_chemical_formula_sum   'Ac5 Zr1 Sn6 Ir6'
_cell_volume   434.77952112
_cell_formula_units_Z   1
loop_
 _symmetry_equiv_pos_site_id
 _symmetry_equiv_pos_as_xyz
  1  'x, y, z'
loop_
 _atom_site_type_symbol
 _atom_site_label
 _atom_site_symmetry_multiplicity
 _atom_site_fract_x
 _atom_site_fract_y
 _atom_site_fract_z
 _atom_site_occupancy
  Ac  Ac0  1  0.418828  0.999682  0.250000  1
  Ac  Ac1  1  0.582847  0.580128  0.750000  1
  Ac  Ac2  1  0.585334  0.590015  0.250000  1
  Ac  Ac3  1  0.994368  0.409746  0.250000  1
  Ac  Ac4  1  0.003494  0.420793  0.750000  1
  Zr  Zr5  1  0.400135  0.001478  0.750000  1
  Sn  Sn6  1  0.247055  0.244564  0.500084  1
  Sn  Sn7  1  0.247055  0.244564  0.999916  1
  Sn  Sn8  1  0.752638  0.999897  0.983255  1
  Sn  Sn9  1  0.003712  0.756465  0.500506  1
  Sn  Sn10  1  0.752638  0.999897  0.516745  1
  Sn  Sn11  1  0.003712  0.756465  0.999494  1
  Ir  Ir12  1  0.646238  0.305015  0.517867  1
  Ir  Ir13  1  0.646238  0.305015  0.982133  1
  Ir  Ir14  1  0.340883  0.692851  0.983878  1
  Ir  Ir15  1  0.340883  0.692851  0.516122  1
  Ir  Ir16  1  0.029471  0.000700  0.750000  1
  Ir  Ir17  1  0.004475  0.999873  0.250000  1
