# generated using pymatgen
data_Hf12Ta4Fe7CoN4
_symmetry_space_group_name_H-M   'P 1'
_cell_length_a   8.42789445
_cell_length_b   8.44717291
_cell_length_c   8.44717400
_cell_angle_alpha   60.00000357
_cell_angle_beta   59.92430616
_cell_angle_gamma   59.92430343
_symmetry_Int_Tables_number   1
_chemical_formula_structural   Hf12Ta4Fe7CoN4
_chemical_formula_sum   'Hf12 Ta4 Fe7 Co1 N4'
_cell_volume   424.74579384
_cell_formula_units_Z   1
loop_
 _symmetry_equiv_pos_site_id
 _symmetry_equiv_pos_as_xyz
  1  'x, y, z'
loop_
 _atom_site_type_symbol
 _atom_site_label
 _atom_site_symmetry_multiplicity
 _atom_site_fract_x
 _atom_site_fract_y
 _atom_site_fract_z
 _atom_site_occupancy
  Hf  Hf0  1  0.812009  0.813165  0.187413  1
  Hf  Hf1  1  0.188417  0.187379  0.812102  1
  Hf  Hf2  1  0.812009  0.187413  0.813165  1
  Hf  Hf3  1  0.188417  0.812102  0.187379  1
  Hf  Hf4  1  0.188417  0.812102  0.812102  1
  Hf  Hf5  1  0.812009  0.187413  0.187413  1
  Hf  Hf6  1  0.437793  0.438106  0.062051  1
  Hf  Hf7  1  0.064043  0.059825  0.438066  1
  Hf  Hf8  1  0.437793  0.062051  0.438106  1
  Hf  Hf9  1  0.064043  0.438066  0.059825  1
  Hf  Hf10  1  0.064043  0.438066  0.438066  1
  Hf  Hf11  1  0.437793  0.062051  0.062051  1
  Ta  Ta12  1  0.124813  0.625062  0.625062  1
  Ta  Ta13  1  0.624936  0.123486  0.625789  1
  Ta  Ta14  1  0.624936  0.625789  0.123486  1
  Ta  Ta15  1  0.624936  0.625789  0.625789  1
  Fe  Fe16  1  0.418106  0.744291  0.418802  1
  Fe  Fe17  1  0.418106  0.418802  0.744291  1
  Fe  Fe18  1  0.418106  0.418802  0.418802  1
  Fe  Fe19  1  0.505038  0.831654  0.831654  1
  Fe  Fe20  1  0.831635  0.504547  0.831909  1
  Fe  Fe21  1  0.831635  0.831909  0.504547  1
  Fe  Fe22  1  0.831635  0.831909  0.831909  1
  Co  Co23  1  0.742068  0.419311  0.419311  1
  N  N24  1  0.624784  0.125072  0.125072  1
  N  N25  1  0.124160  0.625229  0.125306  1
  N  N26  1  0.124160  0.125306  0.625229  1
  N  N27  1  0.124160  0.125306  0.125306  1
