# generated using pymatgen
data_Tb2Fe3Si7Ni9
_symmetry_space_group_name_H-M   'P 1'
_cell_length_a   3.71519400
_cell_length_b   9.19087624
_cell_length_c   9.20003895
_cell_angle_alpha   120.17145832
_cell_angle_beta   90.00000000
_cell_angle_gamma   90.00000000
_symmetry_Int_Tables_number   1
_chemical_formula_structural   Tb2Fe3Si7Ni9
_chemical_formula_sum   'Tb2 Fe3 Si7 Ni9'
_cell_volume   271.58499657
_cell_formula_units_Z   1
loop_
 _symmetry_equiv_pos_site_id
 _symmetry_equiv_pos_as_xyz
  1  'x, y, z'
loop_
 _atom_site_type_symbol
 _atom_site_label
 _atom_site_symmetry_multiplicity
 _atom_site_fract_x
 _atom_site_fract_y
 _atom_site_fract_z
 _atom_site_occupancy
  Tb  Tb0  1  0.000000  0.666748  0.333402  1
  Tb  Tb1  1  0.500000  0.333243  0.666595  1
  Fe  Fe2  1  0.500000  0.113073  0.903581  1
  Fe  Fe3  1  0.500000  0.096402  0.209495  1
  Fe  Fe4  1  0.500000  0.790360  0.886802  1
  Si  Si5  1  0.000000  0.114809  0.716279  1
  Si  Si6  1  0.000000  0.283775  0.398557  1
  Si  Si7  1  0.000000  0.601362  0.885148  1
  Si  Si8  1  0.500000  0.704860  0.599021  1
  Si  Si9  1  0.500000  0.400877  0.105852  1
  Si  Si10  1  0.500000  0.894226  0.295071  1
  Si  Si11  1  0.000000  0.000096  0.999986  1
  Ni  Ni12  1  0.000000  0.382303  0.944322  1
  Ni  Ni13  1  0.000000  0.055861  0.438048  1
  Ni  Ni14  1  0.000000  0.562016  0.617798  1
  Ni  Ni15  1  0.000000  0.871710  0.719706  1
  Ni  Ni16  1  0.000000  0.280434  0.152165  1
  Ni  Ni17  1  0.000000  0.848047  0.128349  1
  Ni  Ni18  1  0.500000  0.949578  0.571570  1
  Ni  Ni19  1  0.500000  0.428326  0.377973  1
  Ni  Ni20  1  0.500000  0.621895  0.050277  1
