# generated using pymatgen
data_Hf20(HgSb3)3
_symmetry_space_group_name_H-M   'P 1'
_cell_length_a   7.42508992
_cell_length_b   8.85939492
_cell_length_c   10.77240259
_cell_angle_alpha   89.88774628
_cell_angle_beta   90.02766135
_cell_angle_gamma   90.25559325
_symmetry_Int_Tables_number   1
_chemical_formula_structural   Hf20(HgSb3)3
_chemical_formula_sum   'Hf20 Hg3 Sb9'
_cell_volume   708.61958364
_cell_formula_units_Z   1
loop_
 _symmetry_equiv_pos_site_id
 _symmetry_equiv_pos_as_xyz
  1  'x, y, z'
loop_
 _atom_site_type_symbol
 _atom_site_label
 _atom_site_symmetry_multiplicity
 _atom_site_fract_x
 _atom_site_fract_y
 _atom_site_fract_z
 _atom_site_occupancy
  Hf  Hf0  1  0.809805  0.443418  0.557662  1
  Hf  Hf1  1  0.308671  0.056924  0.939494  1
  Hf  Hf2  1  0.191665  0.944358  0.444590  1
  Hf  Hf3  1  0.690724  0.555636  0.055210  1
  Hf  Hf4  1  0.148536  0.247816  0.720192  1
  Hf  Hf5  1  0.638753  0.251010  0.780560  1
  Hf  Hf6  1  0.854808  0.748316  0.276264  1
  Hf  Hf7  1  0.357627  0.749938  0.221770  1
  Hf  Hf8  1  0.314711  0.432685  0.936076  1
  Hf  Hf9  1  0.813649  0.066949  0.565595  1
  Hf  Hf10  1  0.689564  0.934540  0.062173  1
  Hf  Hf11  1  0.184496  0.569470  0.437298  1
  Hf  Hf12  1  0.186144  0.746733  0.717305  1
  Hf  Hf13  1  0.687915  0.753089  0.780519  1
  Hf  Hf14  1  0.810926  0.246207  0.283597  1
  Hf  Hf15  1  0.311751  0.257081  0.218633  1
  Hf  Hf16  1  0.015096  0.752416  0.992711  1
  Hf  Hf17  1  0.513671  0.745417  0.507996  1
  Hf  Hf18  1  0.985183  0.251539  0.012092  1
  Hf  Hf19  1  0.486495  0.246101  0.489752  1
  Hg  Hg20  1  0.569632  0.993671  0.327795  1
  Hg  Hg21  1  0.068216  0.506068  0.171318  1
  Hg  Hg22  1  0.430305  0.493987  0.670075  1
  Sb  Sb23  1  0.403519  0.745323  0.957497  1
  Sb  Sb24  1  0.900547  0.755972  0.541279  1
  Sb  Sb25  1  0.595741  0.244075  0.045639  1
  Sb  Sb26  1  0.098551  0.256353  0.457049  1
  Sb  Sb27  1  0.927728  0.008152  0.829236  1
  Sb  Sb28  1  0.428253  0.003182  0.673118  1
  Sb  Sb29  1  0.929323  0.493984  0.824948  1
  Sb  Sb30  1  0.572610  0.504575  0.325289  1
  Sb  Sb31  1  0.075385  0.995012  0.177270  1
