# generated using pymatgen
data_Sr4GaSi7Au20
_symmetry_space_group_name_H-M   'P 1'
_cell_length_a   7.18440500
_cell_length_b   8.99257398
_cell_length_c   10.00365603
_cell_angle_alpha   89.47831052
_cell_angle_beta   90.00000000
_cell_angle_gamma   90.00000000
_symmetry_Int_Tables_number   1
_chemical_formula_structural   Sr4GaSi7Au20
_chemical_formula_sum   'Sr4 Ga1 Si7 Au20'
_cell_volume   646.27234640
_cell_formula_units_Z   1
loop_
 _symmetry_equiv_pos_site_id
 _symmetry_equiv_pos_as_xyz
  1  'x, y, z'
loop_
 _atom_site_type_symbol
 _atom_site_label
 _atom_site_symmetry_multiplicity
 _atom_site_fract_x
 _atom_site_fract_y
 _atom_site_fract_z
 _atom_site_occupancy
  Sr  Sr0  1  0.250000  0.247344  0.119984  1
  Sr  Sr1  1  0.250000  0.748422  0.379276  1
  Sr  Sr2  1  0.750000  0.753623  0.880735  1
  Sr  Sr3  1  0.750000  0.249877  0.620750  1
  Ga  Ga4  1  0.250000  0.042235  0.622876  1
  Si  Si5  1  0.250000  0.540025  0.876373  1
  Si  Si6  1  0.750000  0.960209  0.375706  1
  Si  Si7  1  0.750000  0.461772  0.125364  1
  Si  Si8  1  0.250000  0.329354  0.461453  1
  Si  Si9  1  0.250000  0.837500  0.040821  1
  Si  Si10  1  0.750000  0.661365  0.538539  1
  Si  Si11  1  0.750000  0.161663  0.958680  1
  Au  Au12  1  0.048546  0.099866  0.390503  1
  Au  Au13  1  0.449180  0.600761  0.107215  1
  Au  Au14  1  0.553972  0.894548  0.606644  1
  Au  Au15  1  0.947750  0.401148  0.894447  1
  Au  Au16  1  0.946028  0.894548  0.606644  1
  Au  Au17  1  0.552250  0.401148  0.894447  1
  Au  Au18  1  0.451454  0.099866  0.390503  1
  Au  Au19  1  0.050820  0.600761  0.107215  1
  Au  Au20  1  0.036054  0.068975  0.861003  1
  Au  Au21  1  0.467132  0.567915  0.639354  1
  Au  Au22  1  0.535077  0.932562  0.138327  1
  Au  Au23  1  0.968588  0.432268  0.360521  1
  Au  Au24  1  0.964923  0.932562  0.138327  1
  Au  Au25  1  0.531412  0.432268  0.360521  1
  Au  Au26  1  0.463946  0.068975  0.861003  1
  Au  Au27  1  0.032868  0.567915  0.639354  1
  Au  Au28  1  0.250000  0.308869  0.707208  1
  Au  Au29  1  0.250000  0.798493  0.798560  1
  Au  Au30  1  0.750000  0.701179  0.296597  1
  Au  Au31  1  0.750000  0.201984  0.201054  1
