# generated using pymatgen
data_NdTm6Sn23Ru6
_symmetry_space_group_name_H-M   'P 1'
_cell_length_a   9.83045100
_cell_length_b   9.83045013
_cell_length_c   10.03432800
_cell_angle_alpha   90.00000000
_cell_angle_beta   90.00000000
_cell_angle_gamma   120.00000630
_symmetry_Int_Tables_number   1
_chemical_formula_structural   NdTm6Sn23Ru6
_chemical_formula_sum   'Nd1 Tm6 Sn23 Ru6'
_cell_volume   839.78041923
_cell_formula_units_Z   1
loop_
 _symmetry_equiv_pos_site_id
 _symmetry_equiv_pos_as_xyz
  1  'x, y, z'
loop_
 _atom_site_type_symbol
 _atom_site_label
 _atom_site_symmetry_multiplicity
 _atom_site_fract_x
 _atom_site_fract_y
 _atom_site_fract_z
 _atom_site_occupancy
  Nd  Nd0  1  0.000000  0.000000  0.000000  1
  Tm  Tm1  1  0.486512  0.513488  0.302130  1
  Tm  Tm2  1  0.513488  0.486512  0.697870  1
  Tm  Tm3  1  0.486512  0.973023  0.302130  1
  Tm  Tm4  1  0.513488  0.026977  0.697870  1
  Tm  Tm5  1  0.026977  0.513488  0.302130  1
  Tm  Tm6  1  0.973023  0.486512  0.697870  1
  Sn  Sn7  1  0.349851  0.000000  0.000000  1
  Sn  Sn8  1  0.650149  0.000000  0.000000  1
  Sn  Sn9  1  0.000000  0.349851  0.000000  1
  Sn  Sn10  1  0.000000  0.650149  0.000000  1
  Sn  Sn11  1  0.650149  0.650149  0.000000  1
  Sn  Sn12  1  0.349851  0.349851  0.000000  1
  Sn  Sn13  1  0.333333  0.666667  0.824165  1
  Sn  Sn14  1  0.666667  0.333333  0.175835  1
  Sn  Sn15  1  0.000000  0.000000  0.500000  1
  Sn  Sn16  1  0.778994  0.221006  0.464288  1
  Sn  Sn17  1  0.221006  0.778994  0.535712  1
  Sn  Sn18  1  0.778994  0.557988  0.464288  1
  Sn  Sn19  1  0.221006  0.442012  0.535712  1
  Sn  Sn20  1  0.442012  0.221006  0.464288  1
  Sn  Sn21  1  0.557988  0.778994  0.535712  1
  Sn  Sn22  1  0.333333  0.666667  0.132258  1
  Sn  Sn23  1  0.666667  0.333333  0.867742  1
  Sn  Sn24  1  0.119511  0.880489  0.275598  1
  Sn  Sn25  1  0.880489  0.119511  0.724402  1
  Sn  Sn26  1  0.119511  0.239024  0.275598  1
  Sn  Sn27  1  0.880489  0.760976  0.724402  1
  Sn  Sn28  1  0.760976  0.880489  0.275598  1
  Sn  Sn29  1  0.239024  0.119511  0.724402  1
  Ru  Ru30  1  0.828951  0.171049  0.203611  1
  Ru  Ru31  1  0.171049  0.828951  0.796389  1
  Ru  Ru32  1  0.828951  0.657902  0.203611  1
  Ru  Ru33  1  0.171049  0.342098  0.796389  1
  Ru  Ru34  1  0.342098  0.171049  0.203611  1
  Ru  Ru35  1  0.657902  0.828951  0.796389  1
