# generated using pymatgen
data_Er11TmTcOs3
_symmetry_space_group_name_H-M   'P 1'
_cell_length_a   7.39132799
_cell_length_b   8.94774404
_cell_length_c   6.24695403
_cell_angle_alpha   90.01011233
_cell_angle_beta   89.91488394
_cell_angle_gamma   90.00076507
_symmetry_Int_Tables_number   1
_chemical_formula_structural   Er11TmTcOs3
_chemical_formula_sum   'Er11 Tm1 Tc1 Os3'
_cell_volume   413.14628335
_cell_formula_units_Z   1
loop_
 _symmetry_equiv_pos_site_id
 _symmetry_equiv_pos_as_xyz
  1  'x, y, z'
loop_
 _atom_site_type_symbol
 _atom_site_label
 _atom_site_symmetry_multiplicity
 _atom_site_fract_x
 _atom_site_fract_y
 _atom_site_fract_z
 _atom_site_occupancy
  Er  Er0  1  0.040051  0.250036  0.627652  1
  Er  Er1  1  0.959820  0.749969  0.370917  1
  Er  Er2  1  0.460426  0.749971  0.129265  1
  Er  Er3  1  0.539318  0.250034  0.874284  1
  Er  Er4  1  0.174703  0.062158  0.164451  1
  Er  Er5  1  0.824783  0.938212  0.833573  1
  Er  Er6  1  0.325298  0.937532  0.665097  1
  Er  Er7  1  0.824774  0.561785  0.833548  1
  Er  Er8  1  0.675079  0.062359  0.334701  1
  Er  Er9  1  0.174741  0.437868  0.164449  1
  Er  Er10  1  0.675007  0.437664  0.334763  1
  Tm  Tm11  1  0.325366  0.562457  0.665097  1
  Tc  Tc12  1  0.382521  0.250074  0.463838  1
  Os  Os13  1  0.618376  0.749944  0.538784  1
  Os  Os14  1  0.117720  0.749940  0.962009  1
  Os  Os15  1  0.882015  0.249998  0.037571  1
