# generated using pymatgen
data_CaNdCo4(B2Ru)4
_symmetry_space_group_name_H-M   'P 1'
_cell_length_a   7.25866796
_cell_length_b   7.25595230
_cell_length_c   3.91774800
_cell_angle_alpha   90.00000000
_cell_angle_beta   90.00000000
_cell_angle_gamma   89.95416461
_symmetry_Int_Tables_number   1
_chemical_formula_structural   CaNdCo4(B2Ru)4
_chemical_formula_sum   'Ca1 Nd1 Co4 B8 Ru4'
_cell_volume   206.34203428
_cell_formula_units_Z   1
loop_
 _symmetry_equiv_pos_site_id
 _symmetry_equiv_pos_as_xyz
  1  'x, y, z'
loop_
 _atom_site_type_symbol
 _atom_site_label
 _atom_site_symmetry_multiplicity
 _atom_site_fract_x
 _atom_site_fract_y
 _atom_site_fract_z
 _atom_site_occupancy
  Ca  Ca0  1  0.000000  0.000000  0.084845  1
  Nd  Nd1  1  0.500000  0.500000  0.580643  1
  Co  Co2  1  0.621157  0.116384  0.377308  1
  Co  Co3  1  0.378843  0.883616  0.377308  1
  Co  Co4  1  0.616664  0.878883  0.877802  1
  Co  Co5  1  0.383336  0.121117  0.877802  1
  B  B6  1  0.339260  0.821220  0.881668  1
  B  B7  1  0.660740  0.178780  0.881668  1
  B  B8  1  0.316322  0.157748  0.379885  1
  B  B9  1  0.683678  0.842252  0.379885  1
  B  B10  1  0.172558  0.728772  0.598993  1
  B  B11  1  0.827442  0.271228  0.598993  1
  B  B12  1  0.223703  0.325128  0.097946  1
  B  B13  1  0.776297  0.674872  0.097946  1
  Ru  Ru14  1  0.842796  0.387751  0.102150  1
  Ru  Ru15  1  0.157204  0.612249  0.102150  1
  Ru  Ru16  1  0.888728  0.658411  0.601503  1
  Ru  Ru17  1  0.111272  0.341589  0.601503  1
