# generated using pymatgen
data_Cd3GaP6N13
_symmetry_space_group_name_H-M   'P 1'
_cell_length_a   7.09245317
_cell_length_b   7.21882435
_cell_length_c   7.21882496
_cell_angle_alpha   109.82311982
_cell_angle_beta   109.11698978
_cell_angle_gamma   109.11699145
_symmetry_Int_Tables_number   1
_chemical_formula_structural   Cd3GaP6N13
_chemical_formula_sum   'Cd3 Ga1 P6 N13'
_cell_volume   285.75082794
_cell_formula_units_Z   1
loop_
 _symmetry_equiv_pos_site_id
 _symmetry_equiv_pos_as_xyz
  1  'x, y, z'
loop_
 _atom_site_type_symbol
 _atom_site_label
 _atom_site_symmetry_multiplicity
 _atom_site_fract_x
 _atom_site_fract_y
 _atom_site_fract_z
 _atom_site_occupancy
  Cd  Cd0  1  0.992632  0.000000  0.717214  1
  Cd  Cd1  1  0.992632  0.717214  0.000000  1
  Cd  Cd2  1  0.275417  0.282786  0.282786  1
  Ga  Ga3  1  0.673092  0.000000  0.000000  1
  P  P4  1  0.257393  0.749370  0.502075  1
  P  P5  1  0.755319  0.247296  0.497925  1
  P  P6  1  0.755319  0.497925  0.247296  1
  P  P7  1  0.257393  0.502075  0.749370  1
  P  P8  1  0.508023  0.752704  0.250630  1
  P  P9  1  0.508023  0.250630  0.752704  1
  N  N10  1  0.942467  0.000000  0.000000  1
  N  N11  1  0.716983  0.264157  0.264157  1
  N  N12  1  0.282383  0.724371  0.278815  1
  N  N13  1  0.301437  0.566291  0.566291  1
  N  N14  1  0.558012  0.554444  0.275629  1
  N  N15  1  0.452826  0.735843  0.000000  1
  N  N16  1  0.003568  0.721185  0.445556  1
  N  N17  1  0.558012  0.275629  0.554444  1
  N  N18  1  0.735146  0.000000  0.433709  1
  N  N19  1  0.452826  0.000000  0.735843  1
  N  N20  1  0.735146  0.433709  0.000000  1
  N  N21  1  0.282383  0.278815  0.724371  1
  N  N22  1  0.003568  0.445556  0.721185  1
