# generated using pymatgen
data_KAcCr2O8
_symmetry_space_group_name_H-M   'P 1'
_cell_length_a   5.48597010
_cell_length_b   5.48597013
_cell_length_c   8.60120128
_cell_angle_alpha   91.73843572
_cell_angle_beta   91.73843628
_cell_angle_gamma   65.95206187
_symmetry_Int_Tables_number   1
_chemical_formula_structural   KAcCr2O8
_chemical_formula_sum   'K1 Ac1 Cr2 O8'
_cell_volume   236.23814746
_cell_formula_units_Z   1
loop_
 _symmetry_equiv_pos_site_id
 _symmetry_equiv_pos_as_xyz
  1  'x, y, z'
loop_
 _atom_site_type_symbol
 _atom_site_label
 _atom_site_symmetry_multiplicity
 _atom_site_fract_x
 _atom_site_fract_y
 _atom_site_fract_z
 _atom_site_occupancy
  K  K0  1  0.000000  0.000000  0.000000  1
  Ac  Ac1  1  0.000000  0.000000  0.500000  1
  Cr  Cr2  1  0.620258  0.620258  0.267918  1
  Cr  Cr3  1  0.379742  0.379742  0.732083  1
  O  O4  1  0.708458  0.708458  0.108043  1
  O  O5  1  0.749548  0.284594  0.276231  1
  O  O6  1  0.284594  0.749548  0.276231  1
  O  O7  1  0.733723  0.733723  0.424962  1
  O  O8  1  0.266277  0.266277  0.575037  1
  O  O9  1  0.715406  0.250452  0.723770  1
  O  O10  1  0.250452  0.715406  0.723770  1
  O  O11  1  0.291542  0.291542  0.891957  1
