# generated using pymatgen
data_LaPSe
_symmetry_space_group_name_H-M   'P 1'
_cell_length_a   5.77993900
_cell_length_b   5.88375500
_cell_length_c   17.75808300
_cell_angle_alpha   90.00000000
_cell_angle_beta   90.00000000
_cell_angle_gamma   90.00000000
_symmetry_Int_Tables_number   1
_chemical_formula_structural   LaPSe
_chemical_formula_sum   'La8 P8 Se8'
_cell_volume   603.91235819
_cell_formula_units_Z   8
loop_
 _symmetry_equiv_pos_site_id
 _symmetry_equiv_pos_as_xyz
  1  'x, y, z'
loop_
 _atom_site_type_symbol
 _atom_site_label
 _atom_site_symmetry_multiplicity
 _atom_site_fract_x
 _atom_site_fract_y
 _atom_site_fract_z
 _atom_site_occupancy
  La  La0  1  0.250000  0.485071  0.366960  1
  La  La1  1  0.250000  0.985071  0.133040  1
  La  La2  1  0.750000  0.514929  0.633040  1
  La  La3  1  0.750000  0.014929  0.866960  1
  La  La4  1  0.250000  0.016467  0.643950  1
  La  La5  1  0.250000  0.516467  0.856050  1
  La  La6  1  0.750000  0.983533  0.356050  1
  La  La7  1  0.750000  0.483533  0.143950  1
  P  P8  1  0.051980  0.315951  0.997205  1
  P  P9  1  0.448020  0.815951  0.502795  1
  P  P10  1  0.551980  0.684049  0.002795  1
  P  P11  1  0.948020  0.184049  0.497205  1
  P  P12  1  0.948020  0.684049  0.002795  1
  P  P13  1  0.551980  0.184049  0.497205  1
  P  P14  1  0.448020  0.315951  0.997205  1
  P  P15  1  0.051980  0.815951  0.502795  1
  Se  Se16  1  0.250000  0.486301  0.188658  1
  Se  Se17  1  0.250000  0.986301  0.311342  1
  Se  Se18  1  0.750000  0.513699  0.811342  1
  Se  Se19  1  0.750000  0.013699  0.688658  1
  Se  Se20  1  0.250000  0.012493  0.819920  1
  Se  Se21  1  0.250000  0.512493  0.680080  1
  Se  Se22  1  0.750000  0.987507  0.180080  1
  Se  Se23  1  0.750000  0.487507  0.319920  1
