# generated using pymatgen
data_Tb2YbCo9(GeB2)2
_symmetry_space_group_name_H-M   'P 1'
_cell_length_a   5.17140904
_cell_length_b   5.17088413
_cell_length_c   9.43986202
_cell_angle_alpha   89.99954305
_cell_angle_beta   90.00050763
_cell_angle_gamma   120.01135682
_symmetry_Int_Tables_number   1
_chemical_formula_structural   Tb2YbCo9(GeB2)2
_chemical_formula_sum   'Tb2 Yb1 Co9 Ge2 B4'
_cell_volume   218.58495332
_cell_formula_units_Z   1
loop_
 _symmetry_equiv_pos_site_id
 _symmetry_equiv_pos_as_xyz
  1  'x, y, z'
loop_
 _atom_site_type_symbol
 _atom_site_label
 _atom_site_symmetry_multiplicity
 _atom_site_fract_x
 _atom_site_fract_y
 _atom_site_fract_z
 _atom_site_occupancy
  Tb  Tb0  1  0.000014  0.000003  0.337149  1
  Tb  Tb1  1  0.999993  0.999997  0.662866  1
  Yb  Yb2  1  0.999974  0.000002  0.999989  1
  Co  Co3  1  0.499997  0.999998  0.500005  1
  Co  Co4  1  0.500000  0.500003  0.500004  1
  Co  Co5  1  0.999995  0.499996  0.500016  1
  Co  Co6  1  0.500007  0.999997  0.204352  1
  Co  Co7  1  0.500001  0.499999  0.204368  1
  Co  Co8  1  0.000001  0.499999  0.204352  1
  Co  Co9  1  0.499995  0.000004  0.795645  1
  Co  Co10  1  0.499992  0.500002  0.795622  1
  Co  Co11  1  0.999993  0.500002  0.795627  1
  Ge  Ge12  1  0.333309  0.666592  0.000001  1
  Ge  Ge13  1  0.666649  0.333409  0.000003  1
  B  B14  1  0.333324  0.666698  0.348691  1
  B  B15  1  0.666675  0.333295  0.348691  1
  B  B16  1  0.666666  0.333299  0.651310  1
  B  B17  1  0.333317  0.666704  0.651310  1
