# generated using pymatgen
data_La3Mg3AlHgGe
_symmetry_space_group_name_H-M   'P 1'
_cell_length_a   7.61759600
_cell_length_b   7.61759594
_cell_length_c   4.69808000
_cell_angle_alpha   90.00000000
_cell_angle_beta   90.00000000
_cell_angle_gamma   120.00000896
_symmetry_Int_Tables_number   1
_chemical_formula_structural   La3Mg3AlHgGe
_chemical_formula_sum   'La3 Mg3 Al1 Hg1 Ge1'
_cell_volume   236.09504295
_cell_formula_units_Z   1
loop_
 _symmetry_equiv_pos_site_id
 _symmetry_equiv_pos_as_xyz
  1  'x, y, z'
loop_
 _atom_site_type_symbol
 _atom_site_label
 _atom_site_symmetry_multiplicity
 _atom_site_fract_x
 _atom_site_fract_y
 _atom_site_fract_z
 _atom_site_occupancy
  La  La0  1  0.997677  0.573528  0.000000  1
  La  La1  1  0.426472  0.424149  0.000000  1
  La  La2  1  0.575851  0.002323  0.000000  1
  Mg  Mg3  1  0.756326  0.755106  0.500000  1
  Mg  Mg4  1  0.244894  0.001218  0.500000  1
  Mg  Mg5  1  0.998782  0.243674  0.500000  1
  Al  Al6  1  0.333333  0.666667  0.500000  1
  Hg  Hg7  1  0.000000  0.000000  0.000000  1
  Ge  Ge8  1  0.666667  0.333333  0.500000  1
