# generated using pymatgen
data_Er3TaSn2Ir3
_symmetry_space_group_name_H-M   'P 1'
_cell_length_a   7.33058907
_cell_length_b   7.33058858
_cell_length_c   4.12025300
_cell_angle_alpha   90.00000000
_cell_angle_beta   90.00000000
_cell_angle_gamma   120.99630047
_symmetry_Int_Tables_number   1
_chemical_formula_structural   Er3TaSn2Ir3
_chemical_formula_sum   'Er3 Ta1 Sn2 Ir3'
_cell_volume   189.79468577
_cell_formula_units_Z   1
loop_
 _symmetry_equiv_pos_site_id
 _symmetry_equiv_pos_as_xyz
  1  'x, y, z'
loop_
 _atom_site_type_symbol
 _atom_site_label
 _atom_site_symmetry_multiplicity
 _atom_site_fract_x
 _atom_site_fract_y
 _atom_site_fract_z
 _atom_site_occupancy
  Er  Er0  1  0.399150  0.399150  0.500000  1
  Er  Er1  1  0.588795  0.999109  0.500000  1
  Er  Er2  1  0.999109  0.588795  0.500000  1
  Ta  Ta3  1  0.748390  0.748390  0.000000  1
  Sn  Sn4  1  0.255419  0.997815  0.000000  1
  Sn  Sn5  1  0.997815  0.255419  0.000000  1
  Ir  Ir6  1  0.675811  0.365892  0.000000  1
  Ir  Ir7  1  0.365892  0.675811  0.000000  1
  Ir  Ir8  1  0.969619  0.969619  0.500000  1
