# generated using pymatgen
data_Sr4TiFe2IrO12
_symmetry_space_group_name_H-M   'P 1'
_cell_length_a   5.62688669
_cell_length_b   5.60084909
_cell_length_c   7.94989046
_cell_angle_alpha   90.40319376
_cell_angle_beta   90.06624579
_cell_angle_gamma   89.99227076
_symmetry_Int_Tables_number   1
_chemical_formula_structural   Sr4TiFe2IrO12
_chemical_formula_sum   'Sr4 Ti1 Fe2 Ir1 O12'
_cell_volume   250.53715368
_cell_formula_units_Z   1
loop_
 _symmetry_equiv_pos_site_id
 _symmetry_equiv_pos_as_xyz
  1  'x, y, z'
loop_
 _atom_site_type_symbol
 _atom_site_label
 _atom_site_symmetry_multiplicity
 _atom_site_fract_x
 _atom_site_fract_y
 _atom_site_fract_z
 _atom_site_occupancy
  Sr  Sr0  1  0.496704  0.489224  0.262704  1
  Sr  Sr1  1  0.997979  0.990508  0.262890  1
  Sr  Sr2  1  0.002029  0.009406  0.737122  1
  Sr  Sr3  1  0.503327  0.510819  0.737333  1
  Ti  Ti4  1  0.500002  0.999975  0.500081  1
  Fe  Fe5  1  0.499992  0.000086  0.000064  1
  Fe  Fe6  1  0.000018  0.499927  0.499984  1
  Ir  Ir7  1  0.999972  0.499985  0.000021  1
  O  O8  1  0.208941  0.222428  0.024548  1
  O  O9  1  0.276239  0.710317  0.024913  1
  O  O10  1  0.539131  0.003026  0.248626  1
  O  O11  1  0.951731  0.504162  0.243026  1
  O  O12  1  0.256711  0.747230  0.480624  1
  O  O13  1  0.247437  0.242943  0.480808  1
  O  O14  1  0.752555  0.756926  0.519155  1
  O  O15  1  0.743278  0.252667  0.519377  1
  O  O16  1  0.048261  0.495840  0.756898  1
  O  O17  1  0.460892  0.996987  0.751364  1
  O  O18  1  0.723798  0.289850  0.975034  1
  O  O19  1  0.791006  0.777695  0.975429  1
