# generated using pymatgen
data_NaAc7(SiN3)4
_symmetry_space_group_name_H-M   'P 1'
_cell_length_a   6.31613690
_cell_length_b   6.31613718
_cell_length_c   12.27266670
_cell_angle_alpha   91.27573968
_cell_angle_beta   88.72426036
_cell_angle_gamma   127.57963157
_symmetry_Int_Tables_number   1
_chemical_formula_structural   NaAc7(SiN3)4
_chemical_formula_sum   'Na1 Ac7 Si4 N12'
_cell_volume   387.89224488
_cell_formula_units_Z   1
loop_
 _symmetry_equiv_pos_site_id
 _symmetry_equiv_pos_as_xyz
  1  'x, y, z'
loop_
 _atom_site_type_symbol
 _atom_site_label
 _atom_site_symmetry_multiplicity
 _atom_site_fract_x
 _atom_site_fract_y
 _atom_site_fract_z
 _atom_site_occupancy
  Na  Na0  1  0.054973  0.945027  0.855956  1
  Ac  Ac1  1  0.943242  0.056758  0.138036  1
  Ac  Ac2  1  0.443489  0.556511  0.359303  1
  Ac  Ac3  1  0.553695  0.446305  0.650428  1
  Ac  Ac4  1  0.640368  0.359632  0.072573  1
  Ac  Ac5  1  0.356257  0.643743  0.917297  1
  Ac  Ac6  1  0.860683  0.139317  0.575054  1
  Ac  Ac7  1  0.140663  0.859337  0.428769  1
  Si  Si8  1  0.739308  0.260692  0.832478  1
  Si  Si9  1  0.260067  0.739933  0.167514  1
  Si  Si10  1  0.760892  0.239108  0.332391  1
  Si  Si11  1  0.237449  0.762551  0.671578  1
  N  N12  1  0.584785  0.415215  0.864042  1
  N  N13  1  0.415101  0.584899  0.132100  1
  N  N14  1  0.915666  0.084334  0.357001  1
  N  N15  1  0.086835  0.913165  0.639002  1
  N  N16  1  0.527426  0.976930  0.748968  1
  N  N17  1  0.979918  0.516337  0.249415  1
  N  N18  1  0.483663  0.020082  0.249415  1
  N  N19  1  0.023070  0.472574  0.748968  1
  N  N20  1  0.829087  0.170913  0.948394  1
  N  N21  1  0.164111  0.835889  0.058416  1
  N  N22  1  0.663389  0.336611  0.447623  1
  N  N23  1  0.335863  0.664137  0.555280  1
