# generated using pymatgen
data_Cs2Sn(PSe3)2
_symmetry_space_group_name_H-M   'P 1'
_cell_length_a   13.22624300
_cell_length_b   7.15432353
_cell_length_c   10.39513023
_cell_angle_alpha   52.85325688
_cell_angle_beta   90.00000000
_cell_angle_gamma   90.00000000
_symmetry_Int_Tables_number   1
_chemical_formula_structural   Cs2Sn(PSe3)2
_chemical_formula_sum   'Cs4 Sn2 P4 Se12'
_cell_volume   784.04901685
_cell_formula_units_Z   2
loop_
 _symmetry_equiv_pos_site_id
 _symmetry_equiv_pos_as_xyz
  1  'x, y, z'
loop_
 _atom_site_type_symbol
 _atom_site_label
 _atom_site_symmetry_multiplicity
 _atom_site_fract_x
 _atom_site_fract_y
 _atom_site_fract_z
 _atom_site_occupancy
  Cs  Cs0  1  0.171415  0.269772  0.988036  1
  Cs  Cs1  1  0.671415  0.730228  0.511964  1
  Cs  Cs2  1  0.828585  0.730228  0.011964  1
  Cs  Cs3  1  0.328585  0.269772  0.488036  1
  Sn  Sn4  1  0.000000  0.000000  0.500000  1
  Sn  Sn5  1  0.500000  0.000000  0.000000  1
  P  P6  1  0.038108  0.649178  0.382118  1
  P  P7  1  0.538108  0.350822  0.117882  1
  P  P8  1  0.961892  0.350822  0.617882  1
  P  P9  1  0.461892  0.649178  0.882118  1
  Se  Se10  1  0.169848  0.749966  0.458919  1
  Se  Se11  1  0.669848  0.250034  0.041081  1
  Se  Se12  1  0.830152  0.250034  0.541081  1
  Se  Se13  1  0.330152  0.749966  0.958919  1
  Se  Se14  1  0.923994  0.931528  0.254563  1
  Se  Se15  1  0.423994  0.068472  0.245437  1
  Se  Se16  1  0.076006  0.068472  0.745437  1
  Se  Se17  1  0.576006  0.931528  0.754563  1
  Se  Se18  1  0.419756  0.506991  0.751912  1
  Se  Se19  1  0.919756  0.493009  0.748088  1
  Se  Se20  1  0.580244  0.493009  0.248088  1
  Se  Se21  1  0.080244  0.506991  0.251912  1
