# generated using pymatgen
data_Tm9Mg(Ni2Au)2
_symmetry_space_group_name_H-M   'P 1'
_cell_length_a   8.32673973
_cell_length_b   8.32673994
_cell_length_c   8.32674082
_cell_angle_alpha   127.48109354
_cell_angle_beta   127.48108529
_cell_angle_gamma   77.46715925
_symmetry_Int_Tables_number   1
_chemical_formula_structural   Tm9Mg(Ni2Au)2
_chemical_formula_sum   'Tm9 Mg1 Ni4 Au2'
_cell_volume   352.62852829
_cell_formula_units_Z   1
loop_
 _symmetry_equiv_pos_site_id
 _symmetry_equiv_pos_as_xyz
  1  'x, y, z'
loop_
 _atom_site_type_symbol
 _atom_site_label
 _atom_site_symmetry_multiplicity
 _atom_site_fract_x
 _atom_site_fract_y
 _atom_site_fract_z
 _atom_site_occupancy
  Tm  Tm0  1  0.000000  0.000000  0.000000  1
  Tm  Tm1  1  0.789620  0.313126  0.831143  1
  Tm  Tm2  1  0.210380  0.686874  0.168857  1
  Tm  Tm3  1  0.481983  0.958477  0.168857  1
  Tm  Tm4  1  0.313126  0.481983  0.523505  1
  Tm  Tm5  1  0.041523  0.210380  0.523505  1
  Tm  Tm6  1  0.518017  0.041523  0.831143  1
  Tm  Tm7  1  0.686874  0.518017  0.476495  1
  Tm  Tm8  1  0.958477  0.789620  0.476495  1
  Mg  Mg9  1  0.500000  0.500000  0.000000  1
  Ni  Ni10  1  0.124019  0.630986  0.755005  1
  Ni  Ni11  1  0.875981  0.369014  0.244995  1
  Ni  Ni12  1  0.630986  0.875981  0.506968  1
  Ni  Ni13  1  0.369014  0.124019  0.493032  1
  Au  Au14  1  0.244578  0.244578  0.000000  1
  Au  Au15  1  0.755422  0.755422  0.000000  1
