# generated using pymatgen
data_NpP2Cl13
_symmetry_space_group_name_H-M   'P 1'
_cell_length_a   9.91553700
_cell_length_b   9.91553565
_cell_length_c   12.12124900
_cell_angle_alpha   90.00000000
_cell_angle_beta   90.00000000
_cell_angle_gamma   115.29199096
_symmetry_Int_Tables_number   1
_chemical_formula_structural   NpP2Cl13
_chemical_formula_sum   'Np2 P4 Cl26'
_cell_volume   1077.49824264
_cell_formula_units_Z   2
loop_
 _symmetry_equiv_pos_site_id
 _symmetry_equiv_pos_as_xyz
  1  'x, y, z'
loop_
 _atom_site_type_symbol
 _atom_site_label
 _atom_site_symmetry_multiplicity
 _atom_site_fract_x
 _atom_site_fract_y
 _atom_site_fract_z
 _atom_site_occupancy
  Np  Np0  1  0.791173  0.208827  0.001009  1
  Np  Np1  1  0.208827  0.791173  0.501009  1
  P  P2  1  0.544737  0.455263  0.844908  1
  P  P3  1  0.857559  0.142441  0.537554  1
  P  P4  1  0.455263  0.544737  0.344908  1
  P  P5  1  0.142441  0.857559  0.037554  1
  Cl  Cl6  1  0.062041  0.238891  0.593526  1
  Cl  Cl7  1  0.317266  0.382439  0.868153  1
  Cl  Cl8  1  0.335174  0.664826  0.614831  1
  Cl  Cl9  1  0.664826  0.335174  0.114831  1
  Cl  Cl10  1  0.082042  0.917958  0.385503  1
  Cl  Cl11  1  0.917958  0.082042  0.885503  1
  Cl  Cl12  1  0.317697  0.017296  0.624008  1
  Cl  Cl13  1  0.682303  0.982704  0.124008  1
  Cl  Cl14  1  0.982704  0.682303  0.624008  1
  Cl  Cl15  1  0.017296  0.317697  0.124008  1
  Cl  Cl16  1  0.435014  0.903091  0.377519  1
  Cl  Cl17  1  0.564986  0.096909  0.877519  1
  Cl  Cl18  1  0.096909  0.564986  0.377519  1
  Cl  Cl19  1  0.903091  0.435014  0.877519  1
  Cl  Cl20  1  0.617561  0.682734  0.868153  1
  Cl  Cl21  1  0.238891  0.062041  0.093526  1
  Cl  Cl22  1  0.761109  0.937959  0.593526  1
  Cl  Cl23  1  0.937959  0.761109  0.093526  1
  Cl  Cl24  1  0.746740  0.253260  0.588592  1
  Cl  Cl25  1  0.253260  0.746740  0.088592  1
  Cl  Cl26  1  0.859440  0.140560  0.376486  1
  Cl  Cl27  1  0.140560  0.859440  0.876486  1
  Cl  Cl28  1  0.552803  0.447197  0.673505  1
  Cl  Cl29  1  0.447197  0.552803  0.173505  1
  Cl  Cl30  1  0.382439  0.317266  0.368153  1
  Cl  Cl31  1  0.682734  0.617561  0.368153  1
