# generated using pymatgen
data_Sc2MnBe2IrRh4
_symmetry_space_group_name_H-M   'P 1'
_cell_length_a   9.43509400
_cell_length_b   9.43509400
_cell_length_c   3.14445600
_cell_angle_alpha   90.00000000
_cell_angle_beta   90.00000000
_cell_angle_gamma   90.00000000
_symmetry_Int_Tables_number   1
_chemical_formula_structural   Sc2MnBe2IrRh4
_chemical_formula_sum   'Sc4 Mn2 Be4 Ir2 Rh8'
_cell_volume   279.92261377
_cell_formula_units_Z   2
loop_
 _symmetry_equiv_pos_site_id
 _symmetry_equiv_pos_as_xyz
  1  'x, y, z'
loop_
 _atom_site_type_symbol
 _atom_site_label
 _atom_site_symmetry_multiplicity
 _atom_site_fract_x
 _atom_site_fract_y
 _atom_site_fract_z
 _atom_site_occupancy
  Sc  Sc0  1  0.824466  0.324466  0.000000  1
  Sc  Sc1  1  0.324466  0.175534  0.000000  1
  Sc  Sc2  1  0.675534  0.824466  0.000000  1
  Sc  Sc3  1  0.175534  0.675534  0.000000  1
  Mn  Mn4  1  0.000000  0.000000  0.000000  1
  Mn  Mn5  1  0.500000  0.500000  0.000000  1
  Be  Be6  1  0.623829  0.123829  0.000000  1
  Be  Be7  1  0.123829  0.376171  0.000000  1
  Be  Be8  1  0.876171  0.623829  0.000000  1
  Be  Be9  1  0.376171  0.876171  0.000000  1
  Ir  Ir10  1  0.500000  0.000000  0.500000  1
  Ir  Ir11  1  0.000000  0.500000  0.500000  1
  Rh  Rh12  1  0.069961  0.209650  0.500000  1
  Rh  Rh13  1  0.209650  0.930039  0.500000  1
  Rh  Rh14  1  0.790350  0.069961  0.500000  1
  Rh  Rh15  1  0.930039  0.790350  0.500000  1
  Rh  Rh16  1  0.430039  0.709650  0.500000  1
  Rh  Rh17  1  0.569961  0.290350  0.500000  1
  Rh  Rh18  1  0.709650  0.569961  0.500000  1
  Rh  Rh19  1  0.290350  0.430039  0.500000  1
