# generated using pymatgen
data_Tm4AlOsRu6
_symmetry_space_group_name_H-M   'P 1'
_cell_length_a   5.41770449
_cell_length_b   5.20432024
_cell_length_c   8.81812900
_cell_angle_alpha   90.00000000
_cell_angle_beta   90.00000000
_cell_angle_gamma   121.45379295
_symmetry_Int_Tables_number   1
_chemical_formula_structural   Tm4AlOsRu6
_chemical_formula_sum   'Tm4 Al1 Os1 Ru6'
_cell_volume   212.09771749
_cell_formula_units_Z   1
loop_
 _symmetry_equiv_pos_site_id
 _symmetry_equiv_pos_as_xyz
  1  'x, y, z'
loop_
 _atom_site_type_symbol
 _atom_site_label
 _atom_site_symmetry_multiplicity
 _atom_site_fract_x
 _atom_site_fract_y
 _atom_site_fract_z
 _atom_site_occupancy
  Tm  Tm0  1  0.669228  0.338437  0.567538  1
  Tm  Tm1  1  0.332051  0.663761  0.436568  1
  Tm  Tm2  1  0.332051  0.663761  0.063432  1
  Tm  Tm3  1  0.669228  0.338437  0.932462  1
  Al  Al4  1  0.835788  0.671241  0.250000  1
  Os  Os5  1  0.159615  0.319057  0.750000  1
  Ru  Ru6  1  0.007508  0.014404  0.500470  1
  Ru  Ru7  1  0.007508  0.014404  0.999530  1
  Ru  Ru8  1  0.170011  0.816610  0.750000  1
  Ru  Ru9  1  0.645443  0.817065  0.750000  1
  Ru  Ru10  1  0.823682  0.171659  0.250000  1
  Ru  Ru11  1  0.347888  0.171165  0.250000  1
