# generated using pymatgen
data_Er20Ir4Ru3Pt5
_symmetry_space_group_name_H-M   'P 1'
_cell_length_a   10.84144765
_cell_length_b   10.85084545
_cell_length_c   6.35344519
_cell_angle_alpha   89.99013232
_cell_angle_beta   89.97384110
_cell_angle_gamma   89.68341799
_symmetry_Int_Tables_number   1
_chemical_formula_structural   Er20Ir4Ru3Pt5
_chemical_formula_sum   'Er20 Ir4 Ru3 Pt5'
_cell_volume   747.40063351
_cell_formula_units_Z   1
loop_
 _symmetry_equiv_pos_site_id
 _symmetry_equiv_pos_as_xyz
  1  'x, y, z'
loop_
 _atom_site_type_symbol
 _atom_site_label
 _atom_site_symmetry_multiplicity
 _atom_site_fract_x
 _atom_site_fract_y
 _atom_site_fract_z
 _atom_site_occupancy
  Er  Er0  1  0.297075  0.088458  0.373644  1
  Er  Er1  1  0.297262  0.911984  0.873694  1
  Er  Er2  1  0.702449  0.084357  0.873723  1
  Er  Er3  1  0.702796  0.911048  0.372841  1
  Er  Er4  1  0.584081  0.792670  0.877864  1
  Er  Er5  1  0.582781  0.204482  0.374090  1
  Er  Er6  1  0.415510  0.793628  0.377090  1
  Er  Er7  1  0.413137  0.205391  0.878925  1
  Er  Er8  1  0.209046  0.414926  0.623390  1
  Er  Er9  1  0.207558  0.585206  0.122230  1
  Er  Er10  1  0.794196  0.416437  0.124847  1
  Er  Er11  1  0.792930  0.588011  0.622053  1
  Er  Er12  1  0.910608  0.703991  0.124729  1
  Er  Er13  1  0.914286  0.295505  0.628338  1
  Er  Er14  1  0.089676  0.704568  0.628314  1
  Er  Er15  1  0.089777  0.296099  0.125570  1
  Er  Er16  1  0.999851  0.999839  0.499116  1
  Er  Er17  1  0.000051  0.000200  0.999231  1
  Er  Er18  1  0.498351  0.501599  0.999709  1
  Er  Er19  1  0.498400  0.501572  0.497890  1
  Ir  Ir20  1  0.654241  0.652334  0.249457  1
  Ir  Ir21  1  0.346790  0.346594  0.249356  1
  Ir  Ir22  1  0.345519  0.654109  0.749677  1
  Ir  Ir23  1  0.999837  0.499687  0.377825  1
  Ru  Ru24  1  0.500399  0.000319  0.126552  1
  Ru  Ru25  1  0.500160  0.000166  0.627464  1
  Ru  Ru26  1  0.999787  0.499758  0.873645  1
  Pt  Pt27  1  0.846616  0.154151  0.249764  1
  Pt  Pt28  1  0.846714  0.847238  0.750121  1
  Pt  Pt29  1  0.152747  0.153329  0.749364  1
  Pt  Pt30  1  0.152983  0.846441  0.249719  1
  Pt  Pt31  1  0.654386  0.345903  0.749763  1
