# generated using pymatgen
data_Ce3BeRh5
_symmetry_space_group_name_H-M   'P 1'
_cell_length_a   7.90025174
_cell_length_b   7.90025377
_cell_length_c   7.90025315
_cell_angle_alpha   125.05716464
_cell_angle_beta   122.87185633
_cell_angle_gamma   83.27203786
_symmetry_Int_Tables_number   1
_chemical_formula_structural   Ce3BeRh5
_chemical_formula_sum   'Ce6 Be2 Rh10'
_cell_volume   325.13978564
_cell_formula_units_Z   2
loop_
 _symmetry_equiv_pos_site_id
 _symmetry_equiv_pos_as_xyz
  1  'x, y, z'
loop_
 _atom_site_type_symbol
 _atom_site_label
 _atom_site_symmetry_multiplicity
 _atom_site_fract_x
 _atom_site_fract_y
 _atom_site_fract_z
 _atom_site_occupancy
  Ce  Ce0  1  0.214006  0.445907  0.768098  1
  Ce  Ce1  1  0.785994  0.554093  0.231902  1
  Ce  Ce2  1  0.822191  0.054093  0.768098  1
  Ce  Ce3  1  0.177809  0.945907  0.231902  1
  Ce  Ce4  1  0.396507  0.250000  0.146507  1
  Ce  Ce5  1  0.603493  0.750000  0.853493  1
  Be  Be6  1  0.792084  0.250000  0.542084  1
  Be  Be7  1  0.207916  0.750000  0.457916  1
  Rh  Rh8  1  0.175015  0.403241  0.342853  1
  Rh  Rh9  1  0.824985  0.167838  0.228226  1
  Rh  Rh10  1  0.439612  0.096759  0.771774  1
  Rh  Rh11  1  0.560388  0.332162  0.657147  1
  Rh  Rh12  1  0.000000  0.500000  0.000000  1
  Rh  Rh13  1  0.000000  0.000000  0.500000  1
  Rh  Rh14  1  0.439612  0.667838  0.342853  1
  Rh  Rh15  1  0.560388  0.903241  0.228226  1
  Rh  Rh16  1  0.175015  0.832162  0.771774  1
  Rh  Rh17  1  0.824985  0.596759  0.657147  1
