# generated using pymatgen
data_Ba8Mn6Fe2O21
_symmetry_space_group_name_H-M   'P 1'
_cell_length_a   9.59429400
_cell_length_b   5.80246698
_cell_length_c   10.04397900
_cell_angle_alpha   89.64369952
_cell_angle_beta   90.00000000
_cell_angle_gamma   90.00000000
_symmetry_Int_Tables_number   1
_chemical_formula_structural   Ba8Mn6Fe2O21
_chemical_formula_sum   'Ba8 Mn6 Fe2 O21'
_cell_volume   559.14326615
_cell_formula_units_Z   1
loop_
 _symmetry_equiv_pos_site_id
 _symmetry_equiv_pos_as_xyz
  1  'x, y, z'
loop_
 _atom_site_type_symbol
 _atom_site_label
 _atom_site_symmetry_multiplicity
 _atom_site_fract_x
 _atom_site_fract_y
 _atom_site_fract_z
 _atom_site_occupancy
  Ba  Ba0  1  0.769521  0.993140  0.000054  1
  Ba  Ba1  1  0.500000  0.513137  0.170784  1
  Ba  Ba2  1  0.282549  0.493724  0.503354  1
  Ba  Ba3  1  0.000000  0.006454  0.328837  1
  Ba  Ba4  1  0.500000  0.992992  0.665033  1
  Ba  Ba5  1  0.230479  0.993140  0.000054  1
  Ba  Ba6  1  0.717451  0.493724  0.503354  1
  Ba  Ba7  1  0.000000  0.492973  0.832237  1
  Mn  Mn8  1  0.638293  0.999006  0.334308  1
  Mn  Mn9  1  0.143382  0.018430  0.664922  1
  Mn  Mn10  1  0.361707  0.999006  0.334308  1
  Mn  Mn11  1  0.856618  0.018430  0.664922  1
  Mn  Mn12  1  0.641581  0.516197  0.829173  1
  Mn  Mn13  1  0.358419  0.516197  0.829173  1
  Fe  Fe14  1  0.152098  0.496829  0.156860  1
  Fe  Fe15  1  0.847902  0.496829  0.156860  1
  O  O16  1  0.248662  0.249021  0.258407  1
  O  O17  1  0.000000  0.272520  0.114170  1
  O  O18  1  0.741184  0.491634  0.998299  1
  O  O19  1  0.000000  0.719744  0.111841  1
  O  O20  1  0.751456  0.748783  0.257225  1
  O  O21  1  0.231751  0.750386  0.735250  1
  O  O22  1  0.768249  0.750386  0.735250  1
  O  O23  1  0.248544  0.748783  0.257225  1
  O  O24  1  0.500000  0.777216  0.406691  1
  O  O25  1  0.500000  0.005356  0.188453  1
  O  O26  1  0.751969  0.991163  0.495132  1
  O  O27  1  0.248031  0.991163  0.495132  1
  O  O28  1  0.000000  0.988483  0.804008  1
  O  O29  1  0.500000  0.216060  0.409661  1
  O  O30  1  0.000000  0.228492  0.582614  1
  O  O31  1  0.751338  0.249021  0.258407  1
  O  O32  1  0.733357  0.249413  0.763668  1
  O  O33  1  0.266643  0.249413  0.763668  1
  O  O34  1  0.500000  0.489826  0.688400  1
  O  O35  1  0.258816  0.491634  0.998299  1
  O  O36  1  0.500000  0.721451  0.908993  1
