# generated using pymatgen
data_TbY3Pd3RhPb2
_symmetry_space_group_name_H-M   'P 1'
_cell_length_a   7.89996921
_cell_length_b   7.89996988
_cell_length_c   3.65737200
_cell_angle_alpha   90.00000000
_cell_angle_beta   90.00000000
_cell_angle_gamma   90.28539261
_symmetry_Int_Tables_number   1
_chemical_formula_structural   TbY3Pd3RhPb2
_chemical_formula_sum   'Tb1 Y3 Pd3 Rh1 Pb2'
_cell_volume   228.25199502
_cell_formula_units_Z   1
loop_
 _symmetry_equiv_pos_site_id
 _symmetry_equiv_pos_as_xyz
  1  'x, y, z'
loop_
 _atom_site_type_symbol
 _atom_site_label
 _atom_site_symmetry_multiplicity
 _atom_site_fract_x
 _atom_site_fract_y
 _atom_site_fract_z
 _atom_site_occupancy
  Tb  Tb0  1  0.679878  0.179878  0.500000  1
  Y  Y1  1  0.160026  0.326854  0.500000  1
  Y  Y2  1  0.826854  0.660026  0.500000  1
  Y  Y3  1  0.330095  0.830095  0.500000  1
  Pd  Pd4  1  0.376301  0.127124  0.000000  1
  Pd  Pd5  1  0.627124  0.876301  0.000000  1
  Pd  Pd6  1  0.128502  0.628502  0.000000  1
  Rh  Rh7  1  0.873535  0.373535  0.000000  1
  Pb  Pb8  1  0.999344  0.998342  0.000000  1
  Pb  Pb9  1  0.498342  0.499344  0.000000  1
