# generated using pymatgen
data_Pr6Nd4In3Bi2PbBr2
_symmetry_space_group_name_H-M   'P 1'
_cell_length_a   9.68831797
_cell_length_b   9.68939444
_cell_length_c   6.88242700
_cell_angle_alpha   90.00000000
_cell_angle_beta   90.00000000
_cell_angle_gamma   120.42907135
_symmetry_Int_Tables_number   1
_chemical_formula_structural   Pr6Nd4In3Bi2PbBr2
_chemical_formula_sum   'Pr6 Nd4 In3 Bi2 Pb1 Br2'
_cell_volume   557.08730502
_cell_formula_units_Z   1
loop_
 _symmetry_equiv_pos_site_id
 _symmetry_equiv_pos_as_xyz
  1  'x, y, z'
loop_
 _atom_site_type_symbol
 _atom_site_label
 _atom_site_symmetry_multiplicity
 _atom_site_fract_x
 _atom_site_fract_y
 _atom_site_fract_z
 _atom_site_occupancy
  Pr  Pr0  1  0.266306  0.995365  0.750000  1
  Pr  Pr1  1  0.732327  0.001395  0.250000  1
  Pr  Pr2  1  0.996493  0.266587  0.750000  1
  Pr  Pr3  1  0.004286  0.735841  0.250000  1
  Pr  Pr4  1  0.736372  0.735032  0.750000  1
  Pr  Pr5  1  0.265066  0.263560  0.250000  1
  Nd  Nd6  1  0.331029  0.672503  0.499450  1
  Nd  Nd7  1  0.668707  0.328829  0.499563  1
  Nd  Nd8  1  0.668707  0.328829  0.000437  1
  Nd  Nd9  1  0.331029  0.672503  0.000550  1
  In  In10  1  0.608744  0.998368  0.750000  1
  In  In11  1  0.392585  0.002015  0.250000  1
  In  In12  1  0.997298  0.610079  0.750000  1
  Bi  Bi13  1  0.386208  0.385752  0.750000  1
  Bi  Bi14  1  0.614496  0.612668  0.250000  1
  Pb  Pb15  1  0.000640  0.388821  0.250000  1
  Br  Br16  1  0.999854  0.000926  0.500096  1
  Br  Br17  1  0.999854  0.000926  0.999904  1
