# generated using pymatgen
data_TmTh2Sc(Al3Ir)6
_symmetry_space_group_name_H-M   'P 1'
_cell_length_a   7.61282700
_cell_length_b   7.61606847
_cell_length_c   9.45539500
_cell_angle_alpha   90.00000000
_cell_angle_beta   90.00000000
_cell_angle_gamma   119.50883802
_symmetry_Int_Tables_number   1
_chemical_formula_structural   TmTh2Sc(Al3Ir)6
_chemical_formula_sum   'Tm1 Th2 Sc1 Al18 Ir6'
_cell_volume   477.10651199
_cell_formula_units_Z   1
loop_
 _symmetry_equiv_pos_site_id
 _symmetry_equiv_pos_as_xyz
  1  'x, y, z'
loop_
 _atom_site_type_symbol
 _atom_site_label
 _atom_site_symmetry_multiplicity
 _atom_site_fract_x
 _atom_site_fract_y
 _atom_site_fract_z
 _atom_site_occupancy
  Tm  Tm0  1  0.327324  0.004819  0.750000  1
  Th  Th1  1  0.994979  0.671604  0.250000  1
  Th  Th2  1  0.671615  0.994434  0.250000  1
  Sc  Sc3  1  0.003890  0.326524  0.750000  1
  Al  Al4  1  0.135464  0.136437  0.250000  1
  Al  Al5  1  0.876665  0.877411  0.750000  1
  Al  Al6  1  0.005370  0.335283  0.064573  1
  Al  Al7  1  0.001332  0.661220  0.914034  1
  Al  Al8  1  0.001332  0.661220  0.585966  1
  Al  Al9  1  0.335849  0.006289  0.432074  1
  Al  Al10  1  0.005370  0.335283  0.435427  1
  Al  Al11  1  0.667400  0.004154  0.585832  1
  Al  Al12  1  0.667400  0.004154  0.914168  1
  Al  Al13  1  0.335849  0.006289  0.067926  1
  Al  Al14  1  0.329057  0.331512  0.563415  1
  Al  Al15  1  0.662590  0.662439  0.460347  1
  Al  Al16  1  0.662590  0.662439  0.039653  1
  Al  Al17  1  0.329057  0.331512  0.936585  1
  Al  Al18  1  0.339284  0.542179  0.250000  1
  Al  Al19  1  0.659843  0.446104  0.750000  1
  Al  Al20  1  0.543185  0.339953  0.250000  1
  Al  Al21  1  0.442831  0.657623  0.750000  1
  Ir  Ir22  1  0.672875  0.327937  0.000036  1
  Ir  Ir23  1  0.328512  0.673915  0.000488  1
  Ir  Ir24  1  0.328512  0.673915  0.499512  1
  Ir  Ir25  1  0.672875  0.327937  0.499964  1
  Ir  Ir26  1  0.999477  0.998707  0.000562  1
  Ir  Ir27  1  0.999477  0.998707  0.499438  1
