# generated using pymatgen
data_YHo15In3AgIr4
_symmetry_space_group_name_H-M   'P 1'
_cell_length_a   9.59340324
_cell_length_b   9.59340280
_cell_length_c   9.58935880
_cell_angle_alpha   59.94252028
_cell_angle_beta   59.94252109
_cell_angle_gamma   59.93945691
_symmetry_Int_Tables_number   1
_chemical_formula_structural   YHo15In3AgIr4
_chemical_formula_sum   'Y1 Ho15 In3 Ag1 Ir4'
_cell_volume   623.22279079
_cell_formula_units_Z   1
loop_
 _symmetry_equiv_pos_site_id
 _symmetry_equiv_pos_as_xyz
  1  'x, y, z'
loop_
 _atom_site_type_symbol
 _atom_site_label
 _atom_site_symmetry_multiplicity
 _atom_site_fract_x
 _atom_site_fract_y
 _atom_site_fract_z
 _atom_site_occupancy
  Y  Y0  1  0.437947  0.437947  0.065321  1
  Ho  Ho1  1  0.649944  0.649944  0.049038  1
  Ho  Ho2  1  0.189997  0.811446  0.190195  1
  Ho  Ho3  1  0.060401  0.439502  0.060825  1
  Ho  Ho4  1  0.191744  0.808924  0.808231  1
  Ho  Ho5  1  0.064192  0.438654  0.439394  1
  Ho  Ho6  1  0.811446  0.189997  0.190195  1
  Ho  Ho7  1  0.650781  0.650781  0.650615  1
  Ho  Ho8  1  0.808924  0.191744  0.808231  1
  Ho  Ho9  1  0.190227  0.190227  0.810968  1
  Ho  Ho10  1  0.049508  0.649818  0.649739  1
  Ho  Ho11  1  0.439502  0.060401  0.060825  1
  Ho  Ho12  1  0.061109  0.061109  0.439123  1
  Ho  Ho13  1  0.649818  0.049508  0.649739  1
  Ho  Ho14  1  0.808714  0.808714  0.191837  1
  Ho  Ho15  1  0.438654  0.064192  0.439394  1
  In  In16  1  0.417325  0.417325  0.746026  1
  In  In17  1  0.417468  0.746256  0.417242  1
  In  In18  1  0.746256  0.417468  0.417242  1
  Ag  Ag19  1  0.416548  0.416548  0.417181  1
  Ir  Ir20  1  0.424366  0.858985  0.858022  1
  Ir  Ir21  1  0.857814  0.857814  0.857917  1
  Ir  Ir22  1  0.858985  0.424366  0.858022  1
  Ir  Ir23  1  0.858330  0.858330  0.424682  1
