# generated using pymatgen
data_NdTh5Al20(SiOs2)4
_symmetry_space_group_name_H-M   'P 1'
_cell_length_a   8.80540300
_cell_length_b   8.80540319
_cell_length_c   9.59134100
_cell_angle_alpha   90.00000000
_cell_angle_beta   90.00000000
_cell_angle_gamma   119.95582591
_symmetry_Int_Tables_number   1
_chemical_formula_structural   NdTh5Al20(SiOs2)4
_chemical_formula_sum   'Nd1 Th5 Al20 Si4 Os8'
_cell_volume   644.31996974
_cell_formula_units_Z   1
loop_
 _symmetry_equiv_pos_site_id
 _symmetry_equiv_pos_as_xyz
  1  'x, y, z'
loop_
 _atom_site_type_symbol
 _atom_site_label
 _atom_site_symmetry_multiplicity
 _atom_site_fract_x
 _atom_site_fract_y
 _atom_site_fract_z
 _atom_site_occupancy
  Nd  Nd0  1  0.807314  0.192686  0.750000  1
  Th  Th1  1  0.193118  0.387553  0.250000  1
  Th  Th2  1  0.805755  0.612467  0.750000  1
  Th  Th3  1  0.612447  0.806882  0.250000  1
  Th  Th4  1  0.387533  0.194245  0.750000  1
  Th  Th5  1  0.193804  0.806196  0.250000  1
  Al  Al6  1  0.162120  0.326422  0.577265  1
  Al  Al7  1  0.836112  0.672843  0.422985  1
  Al  Al8  1  0.673578  0.837880  0.577265  1
  Al  Al9  1  0.836112  0.672843  0.077015  1
  Al  Al10  1  0.327157  0.163888  0.422985  1
  Al  Al11  1  0.162120  0.326422  0.922735  1
  Al  Al12  1  0.163462  0.836538  0.577982  1
  Al  Al13  1  0.327157  0.163888  0.077015  1
  Al  Al14  1  0.836280  0.163720  0.424635  1
  Al  Al15  1  0.673578  0.837880  0.922735  1
  Al  Al16  1  0.836280  0.163720  0.075365  1
  Al  Al17  1  0.163462  0.836538  0.922018  1
  Al  Al18  1  0.566295  0.132406  0.250000  1
  Al  Al19  1  0.436531  0.870738  0.750000  1
  Al  Al20  1  0.867594  0.433705  0.250000  1
  Al  Al21  1  0.129262  0.563469  0.750000  1
  Al  Al22  1  0.565669  0.434331  0.250000  1
  Al  Al23  1  0.433588  0.566412  0.750000  1
  Al  Al24  1  0.999781  0.000219  0.250000  1
  Al  Al25  1  0.998830  0.001170  0.750000  1
  Si  Si26  1  0.333639  0.666361  0.023752  1
  Si  Si27  1  0.668606  0.331394  0.973800  1
  Si  Si28  1  0.668606  0.331394  0.526200  1
  Si  Si29  1  0.333639  0.666361  0.476248  1
  Os  Os30  1  0.498394  0.998378  0.001999  1
  Os  Os31  1  0.001622  0.501606  0.001999  1
  Os  Os32  1  0.498394  0.998378  0.498001  1
  Os  Os33  1  0.500250  0.499750  0.999407  1
  Os  Os34  1  0.001622  0.501606  0.498001  1
  Os  Os35  1  0.500250  0.499750  0.500593  1
  Os  Os36  1  0.000020  0.999980  0.000122  1
  Os  Os37  1  0.000020  0.999980  0.499878  1
