# generated using pymatgen
data_Pr7Y(Sc3Pt4)4
_symmetry_space_group_name_H-M   'P 1'
_cell_length_a   7.61601713
_cell_length_b   7.52179255
_cell_length_c   13.76379618
_cell_angle_alpha   90.13203946
_cell_angle_beta   90.04782315
_cell_angle_gamma   89.95942635
_symmetry_Int_Tables_number   1
_chemical_formula_structural   Pr7Y(Sc3Pt4)4
_chemical_formula_sum   'Pr7 Y1 Sc12 Pt16'
_cell_volume   788.47165263
_cell_formula_units_Z   1
loop_
 _symmetry_equiv_pos_site_id
 _symmetry_equiv_pos_as_xyz
  1  'x, y, z'
loop_
 _atom_site_type_symbol
 _atom_site_label
 _atom_site_symmetry_multiplicity
 _atom_site_fract_x
 _atom_site_fract_y
 _atom_site_fract_z
 _atom_site_occupancy
  Pr  Pr0  1  0.511514  0.327923  0.402709  1
  Pr  Pr1  1  0.489062  0.670724  0.902448  1
  Pr  Pr2  1  0.488468  0.671396  0.597487  1
  Pr  Pr3  1  0.988559  0.830765  0.596201  1
  Pr  Pr4  1  0.988970  0.828470  0.902682  1
  Pr  Pr5  1  0.510998  0.329103  0.098107  1
  Pr  Pr6  1  0.010238  0.171000  0.098202  1
  Y  Y7  1  0.012724  0.173317  0.399399  1
  Sc  Sc8  1  0.329981  0.165605  0.623673  1
  Sc  Sc9  1  0.670876  0.836933  0.376307  1
  Sc  Sc10  1  0.661859  0.005569  0.749670  1
  Sc  Sc11  1  0.168582  0.665753  0.376074  1
  Sc  Sc12  1  0.831125  0.335484  0.875682  1
  Sc  Sc13  1  0.833002  0.333170  0.622540  1
  Sc  Sc14  1  0.838814  0.504529  0.250889  1
  Sc  Sc15  1  0.335767  0.995377  0.250989  1
  Sc  Sc16  1  0.331082  0.164766  0.875791  1
  Sc  Sc17  1  0.168673  0.665493  0.124962  1
  Sc  Sc18  1  0.669074  0.835510  0.124907  1
  Sc  Sc19  1  0.161489  0.494558  0.749619  1
  Pt  Pt20  1  0.295288  0.868444  0.749942  1
  Pt  Pt21  1  0.464933  0.638647  0.250312  1
  Pt  Pt22  1  0.034676  0.139042  0.750261  1
  Pt  Pt23  1  0.534783  0.360809  0.749722  1
  Pt  Pt24  1  0.162332  0.451124  0.544781  1
  Pt  Pt25  1  0.967070  0.863668  0.251717  1
  Pt  Pt26  1  0.707639  0.132343  0.251723  1
  Pt  Pt27  1  0.836782  0.545264  0.046722  1
  Pt  Pt28  1  0.336364  0.954013  0.046529  1
  Pt  Pt29  1  0.163617  0.454346  0.953549  1
  Pt  Pt30  1  0.664157  0.045833  0.545196  1
  Pt  Pt31  1  0.331251  0.958240  0.453027  1
  Pt  Pt32  1  0.838270  0.540391  0.452427  1
  Pt  Pt33  1  0.795097  0.631425  0.749647  1
  Pt  Pt34  1  0.203190  0.365176  0.252425  1
  Pt  Pt35  1  0.663694  0.045789  0.953679  1
