# generated using pymatgen
data_Ho4Al23ZnPt9
_symmetry_space_group_name_H-M   'P 1'
_cell_length_a   7.52895499
_cell_length_b   7.54752931
_cell_length_c   13.14625584
_cell_angle_alpha   84.57655403
_cell_angle_beta   79.03068032
_cell_angle_gamma   59.90256090
_symmetry_Int_Tables_number   1
_chemical_formula_structural   Ho4Al23ZnPt9
_chemical_formula_sum   'Ho4 Al23 Zn1 Pt9'
_cell_volume   634.50702453
_cell_formula_units_Z   1
loop_
 _symmetry_equiv_pos_site_id
 _symmetry_equiv_pos_as_xyz
  1  'x, y, z'
loop_
 _atom_site_type_symbol
 _atom_site_label
 _atom_site_symmetry_multiplicity
 _atom_site_fract_x
 _atom_site_fract_y
 _atom_site_fract_z
 _atom_site_occupancy
  Ho  Ho0  1  0.393869  0.167503  0.808896  1
  Ho  Ho1  1  0.607341  0.831557  0.190021  1
  Ho  Ho2  1  0.733341  0.499306  0.808869  1
  Ho  Ho3  1  0.266700  0.501648  0.191031  1
  Al  Al4  1  0.321820  0.161239  0.054383  1
  Al  Al5  1  0.147172  0.831929  0.561715  1
  Al  Al6  1  0.853156  0.167976  0.438830  1
  Al  Al7  1  0.479966  0.166421  0.559287  1
  Al  Al8  1  0.520057  0.833593  0.440958  1
  Al  Al9  1  0.218068  0.165182  0.328199  1
  Al  Al10  1  0.782584  0.834490  0.671237  1
  Al  Al11  1  0.436015  0.506576  0.672505  1
  Al  Al12  1  0.563468  0.493877  0.328211  1
  Al  Al13  1  0.108852  0.159907  0.670693  1
  Al  Al14  1  0.890512  0.840027  0.330007  1
  Al  Al15  1  0.353608  0.499530  0.943785  1
  Al  Al16  1  0.648254  0.505385  0.054396  1
  Al  Al17  1  0.016328  0.167705  0.953811  1
  Al  Al18  1  0.980765  0.831847  0.043300  1
  Al  Al19  1  0.186576  0.499571  0.441215  1
  Al  Al20  1  0.813389  0.500431  0.559282  1
  Al  Al21  1  0.734401  0.164590  0.183337  1
  Al  Al22  1  0.264414  0.836107  0.817181  1
  Al  Al23  1  0.057666  0.632020  0.817593  1
  Al  Al24  1  0.939533  0.368346  0.184385  1
  Al  Al25  1  0.852289  0.041078  0.818619  1
  Al  Al26  1  0.144398  0.958314  0.183643  1
  Zn  Zn27  1  0.684966  0.833942  0.938638  1
  Pt  Pt28  1  0.120251  0.491455  0.639190  1
  Pt  Pt29  1  0.879978  0.508514  0.361529  1
  Pt  Pt30  1  0.657107  0.179707  0.001211  1
  Pt  Pt31  1  0.335233  0.828064  0.001792  1
  Pt  Pt32  1  0.537188  0.167378  0.361483  1
  Pt  Pt33  1  0.462208  0.832834  0.638897  1
  Pt  Pt34  1  0.778541  0.174906  0.638521  1
  Pt  Pt35  1  0.221522  0.824990  0.362299  1
  Pt  Pt36  1  0.008463  0.492055  0.001049  1
