# generated using pymatgen
data_CsTaBr6
_symmetry_space_group_name_H-M   'P 1'
_cell_length_a   7.49678163
_cell_length_b   7.49678170
_cell_length_c   13.48155800
_cell_angle_alpha   79.45838086
_cell_angle_beta   79.45838076
_cell_angle_gamma   55.51626729
_symmetry_Int_Tables_number   1
_chemical_formula_structural   CsTaBr6
_chemical_formula_sum   'Cs2 Ta2 Br12'
_cell_volume   611.05846764
_cell_formula_units_Z   2
loop_
 _symmetry_equiv_pos_site_id
 _symmetry_equiv_pos_as_xyz
  1  'x, y, z'
loop_
 _atom_site_type_symbol
 _atom_site_label
 _atom_site_symmetry_multiplicity
 _atom_site_fract_x
 _atom_site_fract_y
 _atom_site_fract_z
 _atom_site_occupancy
  Cs  Cs0  1  0.882500  0.117500  0.750000  1
  Cs  Cs1  1  0.117500  0.882500  0.250000  1
  Ta  Ta2  1  0.500000  0.000000  0.500000  1
  Ta  Ta3  1  0.000000  0.500000  0.000000  1
  Br  Br4  1  0.462588  0.701298  0.603506  1
  Br  Br5  1  0.537412  0.298702  0.396494  1
  Br  Br6  1  0.298702  0.537412  0.896494  1
  Br  Br7  1  0.701298  0.462588  0.103506  1
  Br  Br8  1  0.371150  0.199058  0.657724  1
  Br  Br9  1  0.628850  0.800942  0.342276  1
  Br  Br10  1  0.800942  0.628850  0.842276  1
  Br  Br11  1  0.199058  0.371150  0.157724  1
  Br  Br12  1  0.797931  0.891168  0.039685  1
  Br  Br13  1  0.202069  0.108832  0.960315  1
  Br  Br14  1  0.108832  0.202069  0.460315  1
  Br  Br15  1  0.891168  0.797931  0.539685  1
