# generated using pymatgen
data_CaLaTb5MnBr12
_symmetry_space_group_name_H-M   'P 1'
_cell_length_a   9.41775028
_cell_length_b   9.33560333
_cell_length_c   9.14268279
_cell_angle_alpha   106.11363932
_cell_angle_beta   107.47069544
_cell_angle_gamma   106.65081171
_symmetry_Int_Tables_number   1
_chemical_formula_structural   CaLaTb5MnBr12
_chemical_formula_sum   'Ca1 La1 Tb5 Mn1 Br12'
_cell_volume   673.96282732
_cell_formula_units_Z   1
loop_
 _symmetry_equiv_pos_site_id
 _symmetry_equiv_pos_as_xyz
  1  'x, y, z'
loop_
 _atom_site_type_symbol
 _atom_site_label
 _atom_site_symmetry_multiplicity
 _atom_site_fract_x
 _atom_site_fract_y
 _atom_site_fract_z
 _atom_site_occupancy
  Ca  Ca0  1  0.000335  0.004651  0.995594  1
  La  La1  1  0.596920  0.522665  0.791990  1
  Tb  Tb2  1  0.523683  0.801815  0.600998  1
  Tb  Tb3  1  0.817954  0.605669  0.528321  1
  Tb  Tb4  1  0.400039  0.475967  0.204875  1
  Tb  Tb5  1  0.476659  0.196422  0.400611  1
  Tb  Tb6  1  0.183402  0.393073  0.479231  1
  Mn  Mn7  1  0.508678  0.499644  0.527568  1
  Br  Br8  1  0.567015  0.163829  0.710969  1
  Br  Br9  1  0.180713  0.714715  0.563550  1
  Br  Br10  1  0.712215  0.568547  0.181875  1
  Br  Br11  1  0.425558  0.808323  0.275056  1
  Br  Br12  1  0.815218  0.281718  0.424152  1
  Br  Br13  1  0.263265  0.422055  0.817750  1
  Br  Br14  1  0.663439  0.892141  0.957082  1
  Br  Br15  1  0.869220  0.950032  0.644236  1
  Br  Br16  1  0.972694  0.671394  0.878626  1
  Br  Br17  1  0.344617  0.132773  0.047512  1
  Br  Br18  1  0.127928  0.047383  0.343694  1
  Br  Br19  1  0.050449  0.347184  0.126309  1
