# generated using pymatgen
data_Y20Cd3CoNiHg3
_symmetry_space_group_name_H-M   'P 1'
_cell_length_a   9.69818000
_cell_length_b   9.69818152
_cell_length_c   9.64332300
_cell_angle_alpha   90.00000000
_cell_angle_beta   90.00000000
_cell_angle_gamma   119.99999483
_symmetry_Int_Tables_number   1
_chemical_formula_structural   Y20Cd3CoNiHg3
_chemical_formula_sum   'Y20 Cd3 Co1 Ni1 Hg3'
_cell_volume   785.48503733
_cell_formula_units_Z   1
loop_
 _symmetry_equiv_pos_site_id
 _symmetry_equiv_pos_as_xyz
  1  'x, y, z'
loop_
 _atom_site_type_symbol
 _atom_site_label
 _atom_site_symmetry_multiplicity
 _atom_site_fract_x
 _atom_site_fract_y
 _atom_site_fract_z
 _atom_site_occupancy
  Y  Y0  1  0.000000  0.000000  0.483772  1
  Y  Y1  1  0.000000  0.000000  0.016228  1
  Y  Y2  1  0.541993  0.458007  0.250000  1
  Y  Y3  1  0.541993  0.083984  0.250000  1
  Y  Y4  1  0.916016  0.458007  0.250000  1
  Y  Y5  1  0.456253  0.543747  0.750000  1
  Y  Y6  1  0.456253  0.912506  0.750000  1
  Y  Y7  1  0.087494  0.543747  0.750000  1
  Y  Y8  1  0.211420  0.788580  0.435057  1
  Y  Y9  1  0.211420  0.422841  0.435057  1
  Y  Y10  1  0.577159  0.788580  0.435057  1
  Y  Y11  1  0.790421  0.209579  0.564120  1
  Y  Y12  1  0.790421  0.580842  0.564120  1
  Y  Y13  1  0.419158  0.209579  0.564120  1
  Y  Y14  1  0.790421  0.209579  0.935880  1
  Y  Y15  1  0.790421  0.580842  0.935880  1
  Y  Y16  1  0.419158  0.209579  0.935880  1
  Y  Y17  1  0.211420  0.788580  0.064943  1
  Y  Y18  1  0.211420  0.422841  0.064943  1
  Y  Y19  1  0.577159  0.788580  0.064943  1
  Cd  Cd20  1  0.113171  0.886829  0.750000  1
  Cd  Cd21  1  0.113171  0.226342  0.750000  1
  Cd  Cd22  1  0.773658  0.886829  0.750000  1
  Co  Co23  1  0.333333  0.666667  0.250000  1
  Ni  Ni24  1  0.666667  0.333333  0.750000  1
  Hg  Hg25  1  0.876085  0.123915  0.250000  1
  Hg  Hg26  1  0.876085  0.752171  0.250000  1
  Hg  Hg27  1  0.247829  0.123915  0.250000  1
