# generated using pymatgen
data_TbDy6Th(CdNi)2
_symmetry_space_group_name_H-M   'P 1'
_cell_length_a   9.59297951
_cell_length_b   9.59297936
_cell_length_c   9.59860600
_cell_angle_alpha   59.98059562
_cell_angle_beta   59.98059611
_cell_angle_gamma   59.94129225
_symmetry_Int_Tables_number   1
_chemical_formula_structural   TbDy6Th(CdNi)2
_chemical_formula_sum   'Tb2 Dy12 Th2 Cd4 Ni4'
_cell_volume   624.13682794
_cell_formula_units_Z   2
loop_
 _symmetry_equiv_pos_site_id
 _symmetry_equiv_pos_as_xyz
  1  'x, y, z'
loop_
 _atom_site_type_symbol
 _atom_site_label
 _atom_site_symmetry_multiplicity
 _atom_site_fract_x
 _atom_site_fract_y
 _atom_site_fract_z
 _atom_site_occupancy
  Tb  Tb0  1  0.598068  0.200701  0.600616  1
  Tb  Tb1  1  0.200701  0.598068  0.600616  1
  Dy  Dy2  1  0.061944  0.439359  0.437791  1
  Dy  Dy3  1  0.439359  0.061944  0.060907  1
  Dy  Dy4  1  0.439359  0.061944  0.437791  1
  Dy  Dy5  1  0.061944  0.439359  0.060907  1
  Dy  Dy6  1  0.438654  0.438654  0.061346  1
  Dy  Dy7  1  0.061609  0.061609  0.438391  1
  Dy  Dy8  1  0.186688  0.814433  0.815902  1
  Dy  Dy9  1  0.814433  0.186688  0.182976  1
  Dy  Dy10  1  0.814433  0.186688  0.815902  1
  Dy  Dy11  1  0.186688  0.814433  0.182976  1
  Dy  Dy12  1  0.814406  0.814406  0.185594  1
  Dy  Dy13  1  0.184832  0.184832  0.815168  1
  Th  Th14  1  0.594260  0.594260  0.600300  1
  Th  Th15  1  0.594260  0.594260  0.211181  1
  Cd  Cd16  1  0.832800  0.832800  0.829891  1
  Cd  Cd17  1  0.832800  0.832800  0.504509  1
  Cd  Cd18  1  0.833821  0.505032  0.830574  1
  Cd  Cd19  1  0.505032  0.833821  0.830574  1
  Ni  Ni20  1  0.393719  0.393719  0.390428  1
  Ni  Ni21  1  0.393719  0.393719  0.822135  1
  Ni  Ni22  1  0.396685  0.819790  0.391763  1
  Ni  Ni23  1  0.819790  0.396685  0.391763  1
