# generated using pymatgen
data_TbY5Co17TcP12
_symmetry_space_group_name_H-M   'P 1'
_cell_length_a   3.69863000
_cell_length_b   10.52153400
_cell_length_c   12.19927200
_cell_angle_alpha   90.00000000
_cell_angle_beta   90.00000000
_cell_angle_gamma   90.00000000
_symmetry_Int_Tables_number   1
_chemical_formula_structural   TbY5Co17TcP12
_chemical_formula_sum   'Tb1 Y5 Co17 Tc1 P12'
_cell_volume   474.73785753
_cell_formula_units_Z   1
loop_
 _symmetry_equiv_pos_site_id
 _symmetry_equiv_pos_as_xyz
  1  'x, y, z'
loop_
 _atom_site_type_symbol
 _atom_site_label
 _atom_site_symmetry_multiplicity
 _atom_site_fract_x
 _atom_site_fract_y
 _atom_site_fract_z
 _atom_site_occupancy
  Tb  Tb0  1  0.500000  0.000000  0.477945  1
  Y  Y1  1  0.000000  0.500000  0.524041  1
  Y  Y2  1  0.500000  0.817336  0.206549  1
  Y  Y3  1  0.500000  0.182664  0.206549  1
  Y  Y4  1  0.000000  0.683057  0.794894  1
  Y  Y5  1  0.000000  0.316943  0.794894  1
  Co  Co6  1  0.000000  0.000000  0.840257  1
  Co  Co7  1  0.500000  0.500000  0.703003  1
  Co  Co8  1  0.000000  0.000000  0.296295  1
  Co  Co9  1  0.000000  0.500000  0.987609  1
  Co  Co10  1  0.500000  0.000000  0.014572  1
  Co  Co11  1  0.500000  0.332003  0.991250  1
  Co  Co12  1  0.500000  0.667997  0.991250  1
  Co  Co13  1  0.000000  0.166536  0.005834  1
  Co  Co14  1  0.000000  0.833464  0.005834  1
  Co  Co15  1  0.500000  0.296689  0.430733  1
  Co  Co16  1  0.500000  0.703311  0.430733  1
  Co  Co17  1  0.000000  0.203398  0.568850  1
  Co  Co18  1  0.000000  0.796602  0.568850  1
  Co  Co19  1  0.500000  0.879222  0.709299  1
  Co  Co20  1  0.500000  0.120778  0.709299  1
  Co  Co21  1  0.000000  0.620532  0.291679  1
  Co  Co22  1  0.000000  0.379468  0.291679  1
  Tc  Tc23  1  0.500000  0.500000  0.156459  1
  P  P24  1  0.500000  0.500000  0.881627  1
  P  P25  1  0.000000  0.000000  0.117105  1
  P  P26  1  0.500000  0.500000  0.348528  1
  P  P27  1  0.000000  0.000000  0.656592  1
  P  P28  1  0.500000  0.310534  0.616368  1
  P  P29  1  0.500000  0.689466  0.616368  1
  P  P30  1  0.000000  0.189018  0.384218  1
  P  P31  1  0.000000  0.810982  0.384218  1
  P  P32  1  0.500000  0.849725  0.892300  1
  P  P33  1  0.500000  0.150275  0.892300  1
  P  P34  1  0.000000  0.655166  0.106008  1
  P  P35  1  0.000000  0.344834  0.106008  1
