# generated using pymatgen
data_Ho8Ti9Re3Si15Ge
_symmetry_space_group_name_H-M   'P 1'
_cell_length_a   6.96329731
_cell_length_b   6.95159027
_cell_length_c   12.79173614
_cell_angle_alpha   90.04250580
_cell_angle_beta   89.92270493
_cell_angle_gamma   89.94943150
_symmetry_Int_Tables_number   1
_chemical_formula_structural   Ho8Ti9Re3Si15Ge
_chemical_formula_sum   'Ho8 Ti9 Re3 Si15 Ge1'
_cell_volume   619.19567426
_cell_formula_units_Z   1
loop_
 _symmetry_equiv_pos_site_id
 _symmetry_equiv_pos_as_xyz
  1  'x, y, z'
loop_
 _atom_site_type_symbol
 _atom_site_label
 _atom_site_symmetry_multiplicity
 _atom_site_fract_x
 _atom_site_fract_y
 _atom_site_fract_z
 _atom_site_occupancy
  Ho  Ho0  1  0.341298  0.000583  0.465885  1
  Ho  Ho1  1  0.500197  0.840928  0.719141  1
  Ho  Ho2  1  0.500079  0.158914  0.217429  1
  Ho  Ho3  1  0.841659  0.498566  0.281138  1
  Ho  Ho4  1  0.159196  0.500659  0.783012  1
  Ho  Ho5  1  0.659441  0.998826  0.968593  1
  Ho  Ho6  1  0.999269  0.342265  0.531686  1
  Ho  Ho7  1  0.999850  0.658940  0.032255  1
  Ti  Ti8  1  0.673516  0.673618  0.500009  1
  Ti  Ti9  1  0.151933  0.006261  0.877838  1
  Ti  Ti10  1  0.493712  0.652767  0.124999  1
  Ti  Ti11  1  0.507781  0.348867  0.627859  1
  Ti  Ti12  1  0.653459  0.494557  0.875576  1
  Ti  Ti13  1  0.347223  0.505886  0.372275  1
  Ti  Ti14  1  0.847796  0.992885  0.375469  1
  Ti  Ti15  1  0.006189  0.151378  0.123356  1
  Ti  Ti16  1  0.989873  0.844984  0.623365  1
  Re  Re17  1  0.327824  0.327844  0.000193  1
  Re  Re18  1  0.174173  0.828255  0.248730  1
  Re  Re19  1  0.823586  0.174801  0.751896  1
  Si  Si20  1  0.370043  0.700358  0.933497  1
  Si  Si21  1  0.630775  0.297436  0.434326  1
  Si  Si22  1  0.700348  0.369975  0.066994  1
  Si  Si23  1  0.297145  0.631260  0.565513  1
  Si  Si24  1  0.799389  0.869351  0.183828  1
  Si  Si25  1  0.130273  0.200119  0.316381  1
  Si  Si26  1  0.869934  0.800067  0.816255  1
  Si  Si27  1  0.291370  0.952607  0.066809  1
  Si  Si28  1  0.546935  0.790496  0.315694  1
  Si  Si29  1  0.455828  0.210278  0.817836  1
  Si  Si30  1  0.791562  0.545946  0.684439  1
  Si  Si31  1  0.209627  0.452837  0.183755  1
  Si  Si32  1  0.707528  0.048828  0.566848  1
  Si  Si33  1  0.952741  0.291091  0.933605  1
  Si  Si34  1  0.048824  0.708465  0.432690  1
  Ge  Ge35  1  0.199623  0.129098  0.680828  1
