# generated using pymatgen
data_K4As4Pd3Pt
_symmetry_space_group_name_H-M   'P 1'
_cell_length_a   6.81655741
_cell_length_b   6.81655701
_cell_length_c   6.81655774
_cell_angle_alpha   89.72068608
_cell_angle_beta   90.27930850
_cell_angle_gamma   90.27930229
_symmetry_Int_Tables_number   1
_chemical_formula_structural   K4As4Pd3Pt
_chemical_formula_sum   'K4 As4 Pd3 Pt1'
_cell_volume   316.72318375
_cell_formula_units_Z   1
loop_
 _symmetry_equiv_pos_site_id
 _symmetry_equiv_pos_as_xyz
  1  'x, y, z'
loop_
 _atom_site_type_symbol
 _atom_site_label
 _atom_site_symmetry_multiplicity
 _atom_site_fract_x
 _atom_site_fract_y
 _atom_site_fract_z
 _atom_site_occupancy
  K  K0  1  0.625090  0.374910  0.874910  1
  K  K1  1  0.371251  0.872652  0.625812  1
  K  K2  1  0.127348  0.125812  0.128749  1
  K  K3  1  0.874188  0.628749  0.372652  1
  As  As4  1  0.154782  0.341225  0.656062  1
  As  As5  1  0.658775  0.156062  0.345218  1
  As  As6  1  0.345764  0.654236  0.154236  1
  As  As7  1  0.843938  0.845218  0.841225  1
  Pd  Pd8  1  0.603706  0.898284  0.102238  1
  Pd  Pd9  1  0.101716  0.602238  0.896294  1
  Pd  Pd10  1  0.397762  0.396294  0.398284  1
  Pt  Pt11  1  0.895680  0.104320  0.604320  1
