# generated using pymatgen
data_Dy2TmLu7Bi6
_symmetry_space_group_name_H-M   'P 1'
_cell_length_a   8.17597000
_cell_length_b   9.39153500
_cell_length_c   11.86986100
_cell_angle_alpha   90.00000000
_cell_angle_beta   90.00000000
_cell_angle_gamma   90.00000000
_symmetry_Int_Tables_number   1
_chemical_formula_structural   Dy2TmLu7Bi6
_chemical_formula_sum   'Dy4 Tm2 Lu14 Bi12'
_cell_volume   911.42618977
_cell_formula_units_Z   2
loop_
 _symmetry_equiv_pos_site_id
 _symmetry_equiv_pos_as_xyz
  1  'x, y, z'
loop_
 _atom_site_type_symbol
 _atom_site_label
 _atom_site_symmetry_multiplicity
 _atom_site_fract_x
 _atom_site_fract_y
 _atom_site_fract_z
 _atom_site_occupancy
  Dy  Dy0  1  0.312505  0.250000  0.217881  1
  Dy  Dy1  1  0.812505  0.250000  0.282119  1
  Dy  Dy2  1  0.687487  0.750000  0.782069  1
  Dy  Dy3  1  0.187487  0.750000  0.717931  1
  Tm  Tm4  1  0.352184  0.750000  0.217898  1
  Tm  Tm5  1  0.852184  0.750000  0.282102  1
  Lu  Lu6  1  0.647743  0.250000  0.781935  1
  Lu  Lu7  1  0.147743  0.250000  0.718065  1
  Lu  Lu8  1  0.692795  0.567174  0.059710  1
  Lu  Lu9  1  0.192795  0.932826  0.440290  1
  Lu  Lu10  1  0.307157  0.067219  0.940125  1
  Lu  Lu11  1  0.807157  0.432781  0.559875  1
  Lu  Lu12  1  0.307157  0.432781  0.940125  1
  Lu  Lu13  1  0.807157  0.067219  0.559875  1
  Lu  Lu14  1  0.692795  0.932826  0.059710  1
  Lu  Lu15  1  0.192795  0.567174  0.440290  1
  Lu  Lu16  1  0.476563  0.250000  0.489322  1
  Lu  Lu17  1  0.976563  0.250000  0.010678  1
  Lu  Lu18  1  0.523524  0.750000  0.510846  1
  Lu  Lu19  1  0.023524  0.750000  0.989154  1
  Bi  Bi20  1  0.403918  0.750000  0.958827  1
  Bi  Bi21  1  0.903918  0.750000  0.541173  1
  Bi  Bi22  1  0.596195  0.250000  0.040875  1
  Bi  Bi23  1  0.096195  0.250000  0.459125  1
  Bi  Bi24  1  0.565358  0.994564  0.325922  1
  Bi  Bi25  1  0.065358  0.505436  0.174078  1
  Bi  Bi26  1  0.434630  0.494323  0.674161  1
  Bi  Bi27  1  0.934630  0.005677  0.825839  1
  Bi  Bi28  1  0.434630  0.005677  0.674161  1
  Bi  Bi29  1  0.934630  0.494323  0.825839  1
  Bi  Bi30  1  0.565358  0.505436  0.325922  1
  Bi  Bi31  1  0.065358  0.994564  0.174078  1
