# generated using pymatgen
data_Tb9CeCo4
_symmetry_space_group_name_H-M   'P 1'
_cell_length_a   8.67550082
_cell_length_b   8.68508587
_cell_length_c   6.87994793
_cell_angle_alpha   83.73103078
_cell_angle_beta   85.23450704
_cell_angle_gamma   42.60256602
_symmetry_Int_Tables_number   1
_chemical_formula_structural   Tb9CeCo4
_chemical_formula_sum   'Tb9 Ce1 Co4'
_cell_volume   348.79945365
_cell_formula_units_Z   1
loop_
 _symmetry_equiv_pos_site_id
 _symmetry_equiv_pos_as_xyz
  1  'x, y, z'
loop_
 _atom_site_type_symbol
 _atom_site_label
 _atom_site_symmetry_multiplicity
 _atom_site_fract_x
 _atom_site_fract_y
 _atom_site_fract_z
 _atom_site_occupancy
  Tb  Tb0  1  0.012694  0.795672  0.916670  1
  Tb  Tb1  1  0.221200  0.351588  0.314688  1
  Tb  Tb2  1  0.644304  0.785441  0.181085  1
  Tb  Tb3  1  0.788391  0.644694  0.680863  1
  Tb  Tb4  1  0.355350  0.216790  0.816936  1
  Tb  Tb5  1  0.981363  0.206918  0.088678  1
  Tb  Tb6  1  0.799132  0.013704  0.413901  1
  Tb  Tb7  1  0.563848  0.432258  0.751190  1
  Tb  Tb8  1  0.429674  0.573969  0.252753  1
  Ce  Ce9  1  0.194356  0.999338  0.602307  1
  Co  Co10  1  0.178347  0.599320  0.569384  1
  Co  Co11  1  0.377355  0.839098  0.897196  1
  Co  Co12  1  0.856744  0.361804  0.441356  1
  Co  Co13  1  0.597243  0.179409  0.072993  1
