# generated using pymatgen
data_Y2Ho2LuPb4
_symmetry_space_group_name_H-M   'P 1'
_cell_length_a   8.16530700
_cell_length_b   8.25323700
_cell_length_c   15.60104400
_cell_angle_alpha   90.00000000
_cell_angle_beta   90.00000000
_cell_angle_gamma   90.00000000
_symmetry_Int_Tables_number   1
_chemical_formula_structural   Y2Ho2LuPb4
_chemical_formula_sum   'Y8 Ho8 Lu4 Pb16'
_cell_volume   1051.35769142
_cell_formula_units_Z   4
loop_
 _symmetry_equiv_pos_site_id
 _symmetry_equiv_pos_as_xyz
  1  'x, y, z'
loop_
 _atom_site_type_symbol
 _atom_site_label
 _atom_site_symmetry_multiplicity
 _atom_site_fract_x
 _atom_site_fract_y
 _atom_site_fract_z
 _atom_site_occupancy
  Y  Y0  1  0.534694  0.322939  0.900475  1
  Y  Y1  1  0.034694  0.177061  0.599525  1
  Y  Y2  1  0.465306  0.677061  0.400475  1
  Y  Y3  1  0.965306  0.822939  0.099525  1
  Y  Y4  1  0.465306  0.677061  0.099525  1
  Y  Y5  1  0.965306  0.822939  0.400475  1
  Y  Y6  1  0.534694  0.322939  0.599525  1
  Y  Y7  1  0.034694  0.177061  0.900475  1
  Ho  Ho8  1  0.375748  0.841499  0.878847  1
  Ho  Ho9  1  0.875748  0.658501  0.621153  1
  Ho  Ho10  1  0.624252  0.158501  0.378847  1
  Ho  Ho11  1  0.124252  0.341499  0.121153  1
  Ho  Ho12  1  0.624252  0.158501  0.121153  1
  Ho  Ho13  1  0.124252  0.341499  0.378847  1
  Ho  Ho14  1  0.375748  0.841499  0.621153  1
  Ho  Ho15  1  0.875748  0.658501  0.878847  1
  Lu  Lu16  1  0.207753  0.504802  0.750000  1
  Lu  Lu17  1  0.707753  0.995198  0.750000  1
  Lu  Lu18  1  0.792247  0.495198  0.250000  1
  Lu  Lu19  1  0.292247  0.004802  0.250000  1
  Pb  Pb20  1  0.283127  0.034318  0.043588  1
  Pb  Pb21  1  0.783127  0.465682  0.456412  1
  Pb  Pb22  1  0.716873  0.965682  0.543588  1
  Pb  Pb23  1  0.216873  0.534318  0.956412  1
  Pb  Pb24  1  0.716873  0.965682  0.956412  1
  Pb  Pb25  1  0.216873  0.534318  0.543588  1
  Pb  Pb26  1  0.283127  0.034318  0.456412  1
  Pb  Pb27  1  0.783127  0.465682  0.043588  1
  Pb  Pb28  1  0.570174  0.626645  0.750000  1
  Pb  Pb29  1  0.070174  0.873355  0.750000  1
  Pb  Pb30  1  0.429826  0.373355  0.250000  1
  Pb  Pb31  1  0.929826  0.126645  0.250000  1
  Pb  Pb32  1  0.346458  0.154456  0.750000  1
  Pb  Pb33  1  0.846458  0.345544  0.750000  1
  Pb  Pb34  1  0.653542  0.845544  0.250000  1
  Pb  Pb35  1  0.153542  0.654456  0.250000  1
