# generated using pymatgen
data_Li2TbPuC4
_symmetry_space_group_name_H-M   'P 1'
_cell_length_a   3.61196600
_cell_length_b   3.61196600
_cell_length_c   7.82502800
_cell_angle_alpha   90.00000000
_cell_angle_beta   90.00000000
_cell_angle_gamma   90.00000000
_symmetry_Int_Tables_number   1
_chemical_formula_structural   Li2TbPuC4
_chemical_formula_sum   'Li2 Tb1 Pu1 C4'
_cell_volume   102.08765016
_cell_formula_units_Z   1
loop_
 _symmetry_equiv_pos_site_id
 _symmetry_equiv_pos_as_xyz
  1  'x, y, z'
loop_
 _atom_site_type_symbol
 _atom_site_label
 _atom_site_symmetry_multiplicity
 _atom_site_fract_x
 _atom_site_fract_y
 _atom_site_fract_z
 _atom_site_occupancy
  Li  Li0  1  0.000000  0.000000  0.001551  1
  Li  Li1  1  0.500000  0.500000  0.001551  1
  Tb  Tb2  1  0.000000  0.500000  0.659780  1
  Pu  Pu3  1  0.500000  0.000000  0.339574  1
  C  C4  1  0.000000  0.500000  0.185040  1
  C  C5  1  0.500000  0.000000  0.813868  1
  C  C6  1  0.000000  0.500000  0.358828  1
  C  C7  1  0.500000  0.000000  0.639808  1
