# generated using pymatgen
data_Ho20Fe3CuSb8
_symmetry_space_group_name_H-M   'P 1'
_cell_length_a   7.85451275
_cell_length_b   8.80086900
_cell_length_c   12.11945443
_cell_angle_alpha   90.00000000
_cell_angle_beta   90.18080359
_cell_angle_gamma   90.00000000
_symmetry_Int_Tables_number   1
_chemical_formula_structural   Ho20Fe3CuSb8
_chemical_formula_sum   'Ho20 Fe3 Cu1 Sb8'
_cell_volume   837.77175264
_cell_formula_units_Z   1
loop_
 _symmetry_equiv_pos_site_id
 _symmetry_equiv_pos_as_xyz
  1  'x, y, z'
loop_
 _atom_site_type_symbol
 _atom_site_label
 _atom_site_symmetry_multiplicity
 _atom_site_fract_x
 _atom_site_fract_y
 _atom_site_fract_z
 _atom_site_occupancy
  Ho  Ho0  1  0.165001  0.750000  0.216415  1
  Ho  Ho1  1  0.654345  0.250000  0.296365  1
  Ho  Ho2  1  0.843557  0.250000  0.794553  1
  Ho  Ho3  1  0.346408  0.750000  0.701730  1
  Ho  Ho4  1  0.461886  0.750000  0.997497  1
  Ho  Ho5  1  0.949036  0.250000  0.504333  1
  Ho  Ho6  1  0.546445  0.250000  0.002053  1
  Ho  Ho7  1  0.045346  0.750000  0.498916  1
  Ho  Ho8  1  0.624642  0.750000  0.303725  1
  Ho  Ho9  1  0.122689  0.250000  0.193417  1
  Ho  Ho10  1  0.378464  0.250000  0.693886  1
  Ho  Ho11  1  0.868604  0.750000  0.799411  1
  Ho  Ho12  1  0.821062  0.973207  0.066201  1
  Ho  Ho13  1  0.322907  0.032577  0.437284  1
  Ho  Ho14  1  0.180245  0.451668  0.934916  1
  Ho  Ho15  1  0.676154  0.536671  0.562247  1
  Ho  Ho16  1  0.180245  0.048332  0.934916  1
  Ho  Ho17  1  0.676154  0.963329  0.562247  1
  Ho  Ho18  1  0.821062  0.526793  0.066201  1
  Ho  Ho19  1  0.322907  0.467423  0.437284  1
  Fe  Fe20  1  0.423502  0.750000  0.483663  1
  Fe  Fe21  1  0.927734  0.250000  0.011002  1
  Fe  Fe22  1  0.570989  0.250000  0.511667  1
  Cu  Cu23  1  0.071525  0.750000  0.988686  1
  Sb  Sb24  1  0.929762  0.992764  0.328114  1
  Sb  Sb25  1  0.427398  0.007910  0.171423  1
  Sb  Sb26  1  0.071210  0.492482  0.673989  1
  Sb  Sb27  1  0.571177  0.507967  0.827165  1
  Sb  Sb28  1  0.071210  0.007518  0.673989  1
  Sb  Sb29  1  0.571177  0.992033  0.827165  1
  Sb  Sb30  1  0.929762  0.507236  0.328114  1
  Sb  Sb31  1  0.427398  0.492090  0.171423  1
