# generated using pymatgen
data_K2Sn2Ge2O7
_symmetry_space_group_name_H-M   'P 1'
_cell_length_a   5.78979000
_cell_length_b   5.78978931
_cell_length_c   8.08566700
_cell_angle_alpha   90.00000000
_cell_angle_beta   90.00000000
_cell_angle_gamma   119.99999253
_symmetry_Int_Tables_number   1
_chemical_formula_structural   K2Sn2Ge2O7
_chemical_formula_sum   'K2 Sn2 Ge2 O7'
_cell_volume   234.73188560
_cell_formula_units_Z   1
loop_
 _symmetry_equiv_pos_site_id
 _symmetry_equiv_pos_as_xyz
  1  'x, y, z'
loop_
 _atom_site_type_symbol
 _atom_site_label
 _atom_site_symmetry_multiplicity
 _atom_site_fract_x
 _atom_site_fract_y
 _atom_site_fract_z
 _atom_site_occupancy
  K  K0  1  0.333333  0.666667  0.409160  1
  K  K1  1  0.666668  0.333334  0.590840  1
  Sn  Sn2  1  0.666668  0.333334  0.128659  1
  Sn  Sn3  1  0.333333  0.666667  0.871341  1
  Ge  Ge4  1  0.000000  0.000000  0.219997  1
  Ge  Ge5  1  0.000000  0.000000  0.780003  1
  O  O6  1  0.000000  0.000000  0.000000  1
  O  O7  1  0.333972  0.159648  0.290036  1
  O  O8  1  0.840351  0.174324  0.290036  1
  O  O9  1  0.825675  0.666026  0.290036  1
  O  O10  1  0.174324  0.333973  0.709964  1
  O  O11  1  0.159649  0.825676  0.709964  1
  O  O12  1  0.666026  0.840351  0.709964  1
