# generated using pymatgen
data_Tb3Mo(P3Rh4)2
_symmetry_space_group_name_H-M   'P 1'
_cell_length_a   3.94808900
_cell_length_b   11.16370700
_cell_length_c   12.83667600
_cell_angle_alpha   90.00000000
_cell_angle_beta   90.00000000
_cell_angle_gamma   90.00000000
_symmetry_Int_Tables_number   1
_chemical_formula_structural   Tb3Mo(P3Rh4)2
_chemical_formula_sum   'Tb6 Mo2 P12 Rh16'
_cell_volume   565.78045874
_cell_formula_units_Z   2
loop_
 _symmetry_equiv_pos_site_id
 _symmetry_equiv_pos_as_xyz
  1  'x, y, z'
loop_
 _atom_site_type_symbol
 _atom_site_label
 _atom_site_symmetry_multiplicity
 _atom_site_fract_x
 _atom_site_fract_y
 _atom_site_fract_z
 _atom_site_occupancy
  Tb  Tb0  1  0.000000  0.500000  0.521718  1
  Tb  Tb1  1  0.500000  0.000000  0.478282  1
  Tb  Tb2  1  0.500000  0.816441  0.203005  1
  Tb  Tb3  1  0.500000  0.183559  0.203005  1
  Tb  Tb4  1  0.000000  0.683559  0.796995  1
  Tb  Tb5  1  0.000000  0.316441  0.796995  1
  Mo  Mo6  1  0.500000  0.500000  0.156874  1
  Mo  Mo7  1  0.000000  0.000000  0.843126  1
  P  P8  1  0.500000  0.500000  0.875614  1
  P  P9  1  0.000000  0.000000  0.124386  1
  P  P10  1  0.500000  0.500000  0.344902  1
  P  P11  1  0.000000  0.000000  0.655098  1
  P  P12  1  0.500000  0.314514  0.617651  1
  P  P13  1  0.500000  0.685486  0.617651  1
  P  P14  1  0.000000  0.185486  0.382349  1
  P  P15  1  0.000000  0.814514  0.382349  1
  P  P16  1  0.500000  0.847682  0.887844  1
  P  P17  1  0.500000  0.152318  0.887844  1
  P  P18  1  0.000000  0.652318  0.112156  1
  P  P19  1  0.000000  0.347682  0.112156  1
  Rh  Rh20  1  0.500000  0.500000  0.698543  1
  Rh  Rh21  1  0.000000  0.000000  0.301457  1
  Rh  Rh22  1  0.000000  0.500000  0.988300  1
  Rh  Rh23  1  0.500000  0.000000  0.011700  1
  Rh  Rh24  1  0.500000  0.331549  0.984424  1
  Rh  Rh25  1  0.500000  0.668451  0.984424  1
  Rh  Rh26  1  0.000000  0.168451  0.015576  1
  Rh  Rh27  1  0.000000  0.831549  0.015576  1
  Rh  Rh28  1  0.500000  0.294468  0.431704  1
  Rh  Rh29  1  0.500000  0.705532  0.431704  1
  Rh  Rh30  1  0.000000  0.205532  0.568296  1
  Rh  Rh31  1  0.000000  0.794468  0.568296  1
  Rh  Rh32  1  0.500000  0.875282  0.708360  1
  Rh  Rh33  1  0.500000  0.124718  0.708360  1
  Rh  Rh34  1  0.000000  0.624718  0.291640  1
  Rh  Rh35  1  0.000000  0.375282  0.291640  1
