# generated using pymatgen
data_LuScB6Rh
_symmetry_space_group_name_H-M   'P 1'
_cell_length_a   3.52091900
_cell_length_b   8.96374700
_cell_length_c   11.29438700
_cell_angle_alpha   90.00000000
_cell_angle_beta   90.00000000
_cell_angle_gamma   90.00000000
_symmetry_Int_Tables_number   1
_chemical_formula_structural   LuScB6Rh
_chemical_formula_sum   'Lu4 Sc4 B24 Rh4'
_cell_volume   356.45793670
_cell_formula_units_Z   4
loop_
 _symmetry_equiv_pos_site_id
 _symmetry_equiv_pos_as_xyz
  1  'x, y, z'
loop_
 _atom_site_type_symbol
 _atom_site_label
 _atom_site_symmetry_multiplicity
 _atom_site_fract_x
 _atom_site_fract_y
 _atom_site_fract_z
 _atom_site_occupancy
  Lu  Lu0  1  0.500000  0.319962  0.413679  1
  Lu  Lu1  1  0.500000  0.680038  0.586321  1
  Lu  Lu2  1  0.500000  0.180038  0.913679  1
  Lu  Lu3  1  0.500000  0.819962  0.086321  1
  Sc  Sc4  1  0.500000  0.444551  0.124957  1
  Sc  Sc5  1  0.500000  0.555449  0.875043  1
  Sc  Sc6  1  0.500000  0.055449  0.624957  1
  Sc  Sc7  1  0.500000  0.944551  0.375043  1
  B  B8  1  0.000000  0.101387  0.472481  1
  B  B9  1  0.000000  0.898613  0.527519  1
  B  B10  1  0.000000  0.398613  0.972481  1
  B  B11  1  0.000000  0.601387  0.027519  1
  B  B12  1  0.000000  0.130769  0.318421  1
  B  B13  1  0.000000  0.869231  0.681579  1
  B  B14  1  0.000000  0.369231  0.818421  1
  B  B15  1  0.000000  0.630769  0.181579  1
  B  B16  1  0.000000  0.054316  0.064772  1
  B  B17  1  0.000000  0.945684  0.935228  1
  B  B18  1  0.000000  0.445684  0.564772  1
  B  B19  1  0.000000  0.554316  0.435228  1
  B  B20  1  0.000000  0.480989  0.285999  1
  B  B21  1  0.000000  0.519011  0.714001  1
  B  B22  1  0.000000  0.019011  0.785999  1
  B  B23  1  0.000000  0.980989  0.214001  1
  B  B24  1  0.000000  0.253285  0.079315  1
  B  B25  1  0.000000  0.746715  0.920685  1
  B  B26  1  0.000000  0.246715  0.579315  1
  B  B27  1  0.000000  0.753285  0.420685  1
  B  B28  1  0.000000  0.296146  0.236202  1
  B  B29  1  0.000000  0.703854  0.763798  1
  B  B30  1  0.000000  0.203854  0.736202  1
  B  B31  1  0.000000  0.796146  0.263798  1
  Rh  Rh32  1  0.500000  0.141146  0.180936  1
  Rh  Rh33  1  0.500000  0.858854  0.819064  1
  Rh  Rh34  1  0.500000  0.358854  0.680936  1
  Rh  Rh35  1  0.500000  0.641146  0.319064  1
