# generated using pymatgen
data_TaTiB2Mo
_symmetry_space_group_name_H-M   'P 1'
_cell_length_a   6.07786200
_cell_length_b   6.07427400
_cell_length_c   3.23033700
_cell_angle_alpha   90.00000000
_cell_angle_beta   90.00000000
_cell_angle_gamma   90.00000000
_symmetry_Int_Tables_number   1
_chemical_formula_structural   TaTiB2Mo
_chemical_formula_sum   'Ta2 Ti2 B4 Mo2'
_cell_volume   119.25951673
_cell_formula_units_Z   2
loop_
 _symmetry_equiv_pos_site_id
 _symmetry_equiv_pos_as_xyz
  1  'x, y, z'
loop_
 _atom_site_type_symbol
 _atom_site_label
 _atom_site_symmetry_multiplicity
 _atom_site_fract_x
 _atom_site_fract_y
 _atom_site_fract_z
 _atom_site_occupancy
  Ta  Ta0  1  0.819842  0.679502  0.500000  1
  Ta  Ta1  1  0.319842  0.820498  0.500000  1
  Ti  Ti2  1  0.179758  0.319620  0.500000  1
  Ti  Ti3  1  0.679758  0.180380  0.500000  1
  B  B4  1  0.107673  0.604181  0.000000  1
  B  B5  1  0.607673  0.895819  0.000000  1
  B  B6  1  0.394229  0.108642  0.000000  1
  B  B7  1  0.894229  0.391358  0.000000  1
  Mo  Mo8  1  0.498497  0.494597  0.000000  1
  Mo  Mo9  1  0.998497  0.005403  0.000000  1
