# generated using pymatgen
data_Hf2CrB2Ru5
_symmetry_space_group_name_H-M   'P 1'
_cell_length_a   9.33280400
_cell_length_b   9.33280400
_cell_length_c   3.04082600
_cell_angle_alpha   90.00000000
_cell_angle_beta   90.00000000
_cell_angle_gamma   90.00000000
_symmetry_Int_Tables_number   1
_chemical_formula_structural   Hf2CrB2Ru5
_chemical_formula_sum   'Hf4 Cr2 B4 Ru10'
_cell_volume   264.85968634
_cell_formula_units_Z   2
loop_
 _symmetry_equiv_pos_site_id
 _symmetry_equiv_pos_as_xyz
  1  'x, y, z'
loop_
 _atom_site_type_symbol
 _atom_site_label
 _atom_site_symmetry_multiplicity
 _atom_site_fract_x
 _atom_site_fract_y
 _atom_site_fract_z
 _atom_site_occupancy
  Hf  Hf0  1  0.676702  0.176702  0.000000  1
  Hf  Hf1  1  0.323298  0.823298  0.000000  1
  Hf  Hf2  1  0.176702  0.323298  0.000000  1
  Hf  Hf3  1  0.823298  0.676702  0.000000  1
  Cr  Cr4  1  0.000000  0.000000  0.000000  1
  Cr  Cr5  1  0.500000  0.500000  0.000000  1
  B  B6  1  0.123474  0.623474  0.000000  1
  B  B7  1  0.876526  0.376526  0.000000  1
  B  B8  1  0.623474  0.876526  0.000000  1
  B  B9  1  0.376526  0.123474  0.000000  1
  Ru  Ru10  1  0.212542  0.070307  0.500000  1
  Ru  Ru11  1  0.787458  0.929693  0.500000  1
  Ru  Ru12  1  0.070307  0.787458  0.500000  1
  Ru  Ru13  1  0.712542  0.429693  0.500000  1
  Ru  Ru14  1  0.929693  0.212542  0.500000  1
  Ru  Ru15  1  0.287458  0.570307  0.500000  1
  Ru  Ru16  1  0.570307  0.712542  0.500000  1
  Ru  Ru17  1  0.429693  0.287458  0.500000  1
  Ru  Ru18  1  0.500000  0.000000  0.500000  1
  Ru  Ru19  1  0.000000  0.500000  0.500000  1
