# generated using pymatgen
data_Ho2Ge(BIr2)3
_symmetry_space_group_name_H-M   'P 1'
_cell_length_a   5.55186401
_cell_length_b   5.55201953
_cell_length_c   13.04893300
_cell_angle_alpha   90.00057736
_cell_angle_beta   89.99931890
_cell_angle_gamma   119.99958614
_symmetry_Int_Tables_number   1
_chemical_formula_structural   Ho2Ge(BIr2)3
_chemical_formula_sum   'Ho4 Ge2 B6 Ir12'
_cell_volume   348.33510885
_cell_formula_units_Z   2
loop_
 _symmetry_equiv_pos_site_id
 _symmetry_equiv_pos_as_xyz
  1  'x, y, z'
loop_
 _atom_site_type_symbol
 _atom_site_label
 _atom_site_symmetry_multiplicity
 _atom_site_fract_x
 _atom_site_fract_y
 _atom_site_fract_z
 _atom_site_occupancy
  Ho  Ho0  1  0.999998  0.000018  0.499993  1
  Ho  Ho1  1  0.000008  0.999985  0.259041  1
  Ho  Ho2  1  0.999984  0.000001  0.740949  1
  Ho  Ho3  1  0.999990  0.999993  0.000001  1
  Ge  Ge4  1  0.333316  0.666674  0.999996  1
  Ge  Ge5  1  0.666674  0.333313  0.999996  1
  B  B6  1  0.333332  0.666674  0.265838  1
  B  B7  1  0.666672  0.333312  0.265837  1
  B  B8  1  0.666624  0.333340  0.734164  1
  B  B9  1  0.333357  0.666667  0.734163  1
  B  B10  1  0.333333  0.666681  0.499992  1
  B  B11  1  0.666659  0.333334  0.499992  1
  Ir  Ir12  1  0.499999  0.000001  0.384940  1
  Ir  Ir13  1  0.999999  0.500003  0.384941  1
  Ir  Ir14  1  0.500000  0.500004  0.384927  1
  Ir  Ir15  1  0.499992  0.000009  0.615080  1
  Ir  Ir16  1  0.499990  0.500008  0.615071  1
  Ir  Ir17  1  0.999993  0.500014  0.615085  1
  Ir  Ir18  1  0.500013  0.999994  0.154694  1
  Ir  Ir19  1  0.000001  0.499981  0.154692  1
  Ir  Ir20  1  0.500009  0.499986  0.154701  1
  Ir  Ir21  1  0.499985  0.000005  0.845295  1
  Ir  Ir22  1  0.499987  0.500001  0.845326  1
  Ir  Ir23  1  0.999983  0.500003  0.845288  1
