# generated using pymatgen
data_Ta4(CoSe4)3
_symmetry_space_group_name_H-M   'P 1'
_cell_length_a   7.39542152
_cell_length_b   7.39542140
_cell_length_c   19.23155004
_cell_angle_alpha   68.41324225
_cell_angle_beta   68.41324235
_cell_angle_gamma   26.65292126
_symmetry_Int_Tables_number   1
_chemical_formula_structural   Ta4(CoSe4)3
_chemical_formula_sum   'Ta4 Co3 Se12'
_cell_volume   436.80451155
_cell_formula_units_Z   1
loop_
 _symmetry_equiv_pos_site_id
 _symmetry_equiv_pos_as_xyz
  1  'x, y, z'
loop_
 _atom_site_type_symbol
 _atom_site_label
 _atom_site_symmetry_multiplicity
 _atom_site_fract_x
 _atom_site_fract_y
 _atom_site_fract_z
 _atom_site_occupancy
  Ta  Ta0  1  0.616575  0.616575  0.857387  1
  Ta  Ta1  1  0.383425  0.383425  0.142613  1
  Ta  Ta2  1  0.743938  0.743938  0.592632  1
  Ta  Ta3  1  0.256062  0.256062  0.407368  1
  Co  Co4  1  0.225795  0.225795  0.718152  1
  Co  Co5  1  0.774205  0.774205  0.281848  1
  Co  Co6  1  0.000000  0.000000  0.000000  1
  Se  Se7  1  0.969185  0.969185  0.889636  1
  Se  Se8  1  0.030815  0.030815  0.110364  1
  Se  Se9  1  0.630314  0.630314  0.394769  1
  Se  Se10  1  0.369686  0.369686  0.605231  1
  Se  Se11  1  0.134298  0.134298  0.552162  1
  Se  Se12  1  0.865702  0.865702  0.447838  1
  Se  Se13  1  0.798887  0.798887  0.767379  1
  Se  Se14  1  0.201113  0.201113  0.232621  1
  Se  Se15  1  0.174202  0.174202  0.934447  1
  Se  Se16  1  0.825798  0.825798  0.065553  1
  Se  Se17  1  0.604858  0.604858  0.723363  1
  Se  Se18  1  0.395142  0.395142  0.276637  1
