# generated using pymatgen
data_La2Y3Ru2
_symmetry_space_group_name_H-M   'P 1'
_cell_length_a   6.56002848
_cell_length_b   7.24989336
_cell_length_c   8.86567817
_cell_angle_alpha   96.18917562
_cell_angle_beta   111.71362572
_cell_angle_gamma   89.99999358
_symmetry_Int_Tables_number   1
_chemical_formula_structural   La2Y3Ru2
_chemical_formula_sum   'La4 Y6 Ru4'
_cell_volume   389.08257272
_cell_formula_units_Z   2
loop_
 _symmetry_equiv_pos_site_id
 _symmetry_equiv_pos_as_xyz
  1  'x, y, z'
loop_
 _atom_site_type_symbol
 _atom_site_label
 _atom_site_symmetry_multiplicity
 _atom_site_fract_x
 _atom_site_fract_y
 _atom_site_fract_z
 _atom_site_occupancy
  La  La0  1  0.979850  0.907837  0.193579  1
  La  La1  1  0.786272  0.592163  0.806421  1
  La  La2  1  0.020150  0.092163  0.806421  1
  La  La3  1  0.213728  0.407837  0.193579  1
  Y  Y4  1  0.636806  0.815195  0.429657  1
  Y  Y5  1  0.207150  0.684805  0.570343  1
  Y  Y6  1  0.363194  0.184805  0.570343  1
  Y  Y7  1  0.792850  0.315195  0.429657  1
  Y  Y8  1  0.427234  0.750000  0.000000  1
  Y  Y9  1  0.572766  0.250000  0.000000  1
  Ru  Ru10  1  0.830889  0.583241  0.224247  1
  Ru  Ru11  1  0.606642  0.916759  0.775753  1
  Ru  Ru12  1  0.169111  0.416759  0.775753  1
  Ru  Ru13  1  0.393358  0.083241  0.224247  1
