# generated using pymatgen
data_TbYb2Tm(Al8Pt3)3
_symmetry_space_group_name_H-M   'P 1'
_cell_length_a   7.52702826
_cell_length_b   7.54988376
_cell_length_c   13.23039002
_cell_angle_alpha   84.63320189
_cell_angle_beta   79.12314681
_cell_angle_gamma   59.86223972
_symmetry_Int_Tables_number   1
_chemical_formula_structural   TbYb2Tm(Al8Pt3)3
_chemical_formula_sum   'Tb1 Yb2 Tm1 Al24 Pt9'
_cell_volume   638.54142795
_cell_formula_units_Z   1
loop_
 _symmetry_equiv_pos_site_id
 _symmetry_equiv_pos_as_xyz
  1  'x, y, z'
loop_
 _atom_site_type_symbol
 _atom_site_label
 _atom_site_symmetry_multiplicity
 _atom_site_fract_x
 _atom_site_fract_y
 _atom_site_fract_z
 _atom_site_occupancy
  Tb  Tb0  1  0.394792  0.167760  0.808164  1
  Yb  Yb1  1  0.605807  0.831175  0.192727  1
  Yb  Yb2  1  0.733637  0.499661  0.807569  1
  Tm  Tm3  1  0.266824  0.500553  0.192996  1
  Al  Al4  1  0.684612  0.833386  0.946254  1
  Al  Al5  1  0.315811  0.166451  0.056057  1
  Al  Al6  1  0.147567  0.831449  0.560611  1
  Al  Al7  1  0.852386  0.168872  0.438998  1
  Al  Al8  1  0.480437  0.165889  0.558419  1
  Al  Al9  1  0.519972  0.834009  0.441046  1
  Al  Al10  1  0.217707  0.164732  0.328796  1
  Al  Al11  1  0.782843  0.834232  0.670487  1
  Al  Al12  1  0.436957  0.507461  0.670132  1
  Al  Al13  1  0.563499  0.493275  0.328764  1
  Al  Al14  1  0.109014  0.160544  0.668479  1
  Al  Al15  1  0.890291  0.839633  0.330665  1
  Al  Al16  1  0.352116  0.500212  0.945628  1
  Al  Al17  1  0.647428  0.500278  0.054664  1
  Al  Al18  1  0.014925  0.167655  0.955068  1
  Al  Al19  1  0.984757  0.831816  0.046308  1
  Al  Al20  1  0.186115  0.500043  0.441116  1
  Al  Al21  1  0.814190  0.500164  0.558475  1
  Al  Al22  1  0.731573  0.168122  0.183164  1
  Al  Al23  1  0.264577  0.837593  0.816900  1
  Al  Al24  1  0.063652  0.629995  0.815733  1
  Al  Al25  1  0.941234  0.368103  0.184161  1
  Al  Al26  1  0.853939  0.040099  0.816229  1
  Al  Al27  1  0.143278  0.956728  0.183599  1
  Pt  Pt28  1  0.120321  0.492005  0.637912  1
  Pt  Pt29  1  0.880135  0.508042  0.361499  1
  Pt  Pt30  1  0.657406  0.171316  0.999894  1
  Pt  Pt31  1  0.342464  0.828836  0.000372  1
  Pt  Pt32  1  0.537439  0.167272  0.361481  1
  Pt  Pt33  1  0.461917  0.833050  0.637854  1
  Pt  Pt34  1  0.779837  0.174415  0.636568  1
  Pt  Pt35  1  0.220278  0.825289  0.362969  1
  Pt  Pt36  1  0.000261  0.499884  0.000241  1
