# generated using pymatgen
data_K8Li4Dy3InBi8
_symmetry_space_group_name_H-M   'P 1'
_cell_length_a   11.10031956
_cell_length_b   11.10031836
_cell_length_c   7.20161342
_cell_angle_alpha   90.11772863
_cell_angle_beta   89.88226654
_cell_angle_gamma   99.28108077
_symmetry_Int_Tables_number   1
_chemical_formula_structural   K8Li4Dy3InBi8
_chemical_formula_sum   'K8 Li4 Dy3 In1 Bi8'
_cell_volume   875.74216871
_cell_formula_units_Z   1
loop_
 _symmetry_equiv_pos_site_id
 _symmetry_equiv_pos_as_xyz
  1  'x, y, z'
loop_
 _atom_site_type_symbol
 _atom_site_label
 _atom_site_symmetry_multiplicity
 _atom_site_fract_x
 _atom_site_fract_y
 _atom_site_fract_z
 _atom_site_occupancy
  K  K0  1  0.572085  0.929177  0.746370  1
  K  K1  1  0.929177  0.572085  0.253630  1
  K  K2  1  0.429399  0.080508  0.258433  1
  K  K3  1  0.080508  0.429399  0.741567  1
  K  K4  1  0.668994  0.321859  0.770803  1
  K  K5  1  0.824957  0.174330  0.281738  1
  K  K6  1  0.321859  0.668994  0.229197  1
  K  K7  1  0.174330  0.824957  0.718262  1
  Li  Li8  1  0.619128  0.619128  0.000000  1
  Li  Li9  1  0.877496  0.877496  0.500000  1
  Li  Li10  1  0.377895  0.377895  0.000000  1
  Li  Li11  1  0.125278  0.125278  0.500000  1
  Dy  Dy12  1  0.869124  0.869124  0.000000  1
  Dy  Dy13  1  0.624872  0.624872  0.500000  1
  Dy  Dy14  1  0.130401  0.130401  0.000000  1
  In  In15  1  0.374424  0.374424  0.500000  1
  Bi  Bi16  1  0.356119  0.150260  0.746669  1
  Bi  Bi17  1  0.150260  0.356119  0.253331  1
  Bi  Bi18  1  0.643318  0.851138  0.249500  1
  Bi  Bi19  1  0.851138  0.643318  0.750500  1
  Bi  Bi20  1  0.898491  0.103892  0.757597  1
  Bi  Bi21  1  0.601473  0.395380  0.255145  1
  Bi  Bi22  1  0.103892  0.898491  0.242403  1
  Bi  Bi23  1  0.395380  0.601473  0.744855  1
