# generated using pymatgen
data_K3La(TaSe4)2
_symmetry_space_group_name_H-M   'P 1'
_cell_length_a   11.87700225
_cell_length_b   11.87700327
_cell_length_c   9.49289400
_cell_angle_alpha   77.70698931
_cell_angle_beta   102.29301176
_cell_angle_gamma   56.20969816
_symmetry_Int_Tables_number   1
_chemical_formula_structural   K3La(TaSe4)2
_chemical_formula_sum   'K6 La2 Ta4 Se16'
_cell_volume   992.74673488
_cell_formula_units_Z   2
loop_
 _symmetry_equiv_pos_site_id
 _symmetry_equiv_pos_as_xyz
  1  'x, y, z'
loop_
 _atom_site_type_symbol
 _atom_site_label
 _atom_site_symmetry_multiplicity
 _atom_site_fract_x
 _atom_site_fract_y
 _atom_site_fract_z
 _atom_site_occupancy
  K  K0  1  0.740853  0.740854  0.749999  1
  K  K1  1  0.259147  0.259147  0.249999  1
  K  K2  1  0.500000  0.500000  0.000000  1
  K  K3  1  0.500000  0.500000  0.500000  1
  K  K4  1  0.003322  0.003323  0.249999  1
  K  K5  1  0.996677  0.996678  0.749999  1
  La  La6  1  0.759256  0.759257  0.249999  1
  La  La7  1  0.240743  0.240743  0.749999  1
  Ta  Ta8  1  0.904081  0.348953  0.395046  1
  Ta  Ta9  1  0.348953  0.904081  0.104954  1
  Ta  Ta10  1  0.651046  0.095919  0.895046  1
  Ta  Ta11  1  0.095919  0.651046  0.604954  1
  Se  Se12  1  0.517612  0.131775  0.061261  1
  Se  Se13  1  0.131775  0.517612  0.438739  1
  Se  Se14  1  0.482388  0.868225  0.938739  1
  Se  Se15  1  0.868225  0.482388  0.561261  1
  Se  Se16  1  0.871737  0.837336  0.019278  1
  Se  Se17  1  0.837336  0.871737  0.480722  1
  Se  Se18  1  0.128263  0.162664  0.980722  1
  Se  Se19  1  0.162664  0.128263  0.519278  1
  Se  Se20  1  0.271860  0.754841  0.127024  1
  Se  Se21  1  0.754841  0.271860  0.372976  1
  Se  Se22  1  0.728140  0.245159  0.872976  1
  Se  Se23  1  0.245159  0.728140  0.627024  1
  Se  Se24  1  0.851385  0.504765  0.140383  1
  Se  Se25  1  0.504765  0.851385  0.359617  1
  Se  Se26  1  0.148615  0.495235  0.859617  1
  Se  Se27  1  0.495234  0.148616  0.640382  1
