# generated using pymatgen
data_Dy2InB2Ir5
_symmetry_space_group_name_H-M   'P 1'
_cell_length_a   9.76440400
_cell_length_b   9.76440400
_cell_length_c   3.21009800
_cell_angle_alpha   90.00000000
_cell_angle_beta   90.00000000
_cell_angle_gamma   90.00000000
_symmetry_Int_Tables_number   1
_chemical_formula_structural   Dy2InB2Ir5
_chemical_formula_sum   'Dy4 In2 B4 Ir10'
_cell_volume   306.06225305
_cell_formula_units_Z   2
loop_
 _symmetry_equiv_pos_site_id
 _symmetry_equiv_pos_as_xyz
  1  'x, y, z'
loop_
 _atom_site_type_symbol
 _atom_site_label
 _atom_site_symmetry_multiplicity
 _atom_site_fract_x
 _atom_site_fract_y
 _atom_site_fract_z
 _atom_site_occupancy
  Dy  Dy0  1  0.823192  0.323192  0.000000  1
  Dy  Dy1  1  0.176808  0.676808  0.000000  1
  Dy  Dy2  1  0.323192  0.176808  0.000000  1
  Dy  Dy3  1  0.676808  0.823192  0.000000  1
  In  In4  1  0.500000  0.500000  0.000000  1
  In  In5  1  0.000000  0.000000  0.000000  1
  B  B6  1  0.621150  0.121150  0.000000  1
  B  B7  1  0.378850  0.878850  0.000000  1
  B  B8  1  0.121150  0.378850  0.000000  1
  B  B9  1  0.878850  0.621150  0.000000  1
  Ir  Ir10  1  0.500000  0.000000  0.500000  1
  Ir  Ir11  1  0.000000  0.500000  0.500000  1
  Ir  Ir12  1  0.727213  0.569965  0.500000  1
  Ir  Ir13  1  0.272787  0.430035  0.500000  1
  Ir  Ir14  1  0.227213  0.930035  0.500000  1
  Ir  Ir15  1  0.772787  0.069965  0.500000  1
  Ir  Ir16  1  0.430035  0.727213  0.500000  1
  Ir  Ir17  1  0.569965  0.272787  0.500000  1
  Ir  Ir18  1  0.069965  0.227213  0.500000  1
  Ir  Ir19  1  0.930035  0.772787  0.500000  1
