# generated using pymatgen
data_Ho(ZnGa)2
_symmetry_space_group_name_H-M   'P 1'
_cell_length_a   6.15954949
_cell_length_b   6.15954976
_cell_length_c   6.15954925
_cell_angle_alpha   140.93958489
_cell_angle_beta   140.93958997
_cell_angle_gamma   56.42941069
_symmetry_Int_Tables_number   1
_chemical_formula_structural   Ho(ZnGa)2
_chemical_formula_sum   'Ho1 Zn2 Ga2'
_cell_volume   92.05663194
_cell_formula_units_Z   1
loop_
 _symmetry_equiv_pos_site_id
 _symmetry_equiv_pos_as_xyz
  1  'x, y, z'
loop_
 _atom_site_type_symbol
 _atom_site_label
 _atom_site_symmetry_multiplicity
 _atom_site_fract_x
 _atom_site_fract_y
 _atom_site_fract_z
 _atom_site_occupancy
  Ho  Ho0  1  0.000000  0.000000  0.000000  1
  Zn  Zn1  1  0.749999  0.250000  0.499999  1
  Zn  Zn2  1  0.250000  0.749999  0.499999  1
  Ga  Ga3  1  0.387886  0.387886  0.000000  1
  Ga  Ga4  1  0.612114  0.612114  0.000000  1
