# generated using pymatgen
data_Tb5Dy6In9Co4
_symmetry_space_group_name_H-M   'P 1'
_cell_length_a   3.65212400
_cell_length_b   13.02369297
_cell_length_c   13.02369421
_cell_angle_alpha   112.31198219
_cell_angle_beta   90.00000000
_cell_angle_gamma   90.00000000
_symmetry_Int_Tables_number   1
_chemical_formula_structural   Tb5Dy6In9Co4
_chemical_formula_sum   'Tb5 Dy6 In9 Co4'
_cell_volume   573.08201596
_cell_formula_units_Z   1
loop_
 _symmetry_equiv_pos_site_id
 _symmetry_equiv_pos_as_xyz
  1  'x, y, z'
loop_
 _atom_site_type_symbol
 _atom_site_label
 _atom_site_symmetry_multiplicity
 _atom_site_fract_x
 _atom_site_fract_y
 _atom_site_fract_z
 _atom_site_occupancy
  Tb  Tb0  1  0.000000  0.839209  0.160791  1
  Tb  Tb1  1  0.000000  0.374673  0.625327  1
  Tb  Tb2  1  0.000000  0.625234  0.374766  1
  Tb  Tb3  1  0.000000  0.686470  0.686434  1
  Tb  Tb4  1  0.000000  0.313566  0.313530  1
  Dy  Dy5  1  0.000000  0.916942  0.581899  1
  Dy  Dy6  1  0.000000  0.083320  0.418254  1
  Dy  Dy7  1  0.000000  0.581746  0.916680  1
  Dy  Dy8  1  0.000000  0.418101  0.083058  1
  Dy  Dy9  1  0.000000  0.160854  0.839146  1
  Dy  Dy10  1  0.000000  0.999952  0.000048  1
  In  In11  1  0.500000  0.157893  0.631818  1
  In  In12  1  0.500000  0.841857  0.368459  1
  In  In13  1  0.500000  0.631541  0.158143  1
  In  In14  1  0.500000  0.368182  0.842107  1
  In  In15  1  0.500000  0.922396  0.779859  1
  In  In16  1  0.500000  0.078192  0.220373  1
  In  In17  1  0.500000  0.779627  0.921808  1
  In  In18  1  0.500000  0.220141  0.077604  1
  In  In19  1  0.500000  0.499968  0.500032  1
  Co  Co20  1  0.500000  0.754069  0.551103  1
  Co  Co21  1  0.500000  0.246129  0.448958  1
  Co  Co22  1  0.500000  0.551042  0.753871  1
  Co  Co23  1  0.500000  0.448897  0.245931  1
