# generated using pymatgen
data_Pr2Dy2Zn10SiPb
_symmetry_space_group_name_H-M   'P 1'
_cell_length_a   8.41944803
_cell_length_b   8.41944731
_cell_length_c   8.95723100
_cell_angle_alpha   90.00000000
_cell_angle_beta   90.00000000
_cell_angle_gamma   149.71425663
_symmetry_Int_Tables_number   1
_chemical_formula_structural   Pr2Dy2Zn10SiPb
_chemical_formula_sum   'Pr2 Dy2 Zn10 Si1 Pb1'
_cell_volume   320.21446537
_cell_formula_units_Z   1
loop_
 _symmetry_equiv_pos_site_id
 _symmetry_equiv_pos_as_xyz
  1  'x, y, z'
loop_
 _atom_site_type_symbol
 _atom_site_label
 _atom_site_symmetry_multiplicity
 _atom_site_fract_x
 _atom_site_fract_y
 _atom_site_fract_z
 _atom_site_occupancy
  Pr  Pr0  1  0.001012  0.998988  0.482950  1
  Pr  Pr1  1  0.001012  0.998988  0.017050  1
  Dy  Dy2  1  0.201675  0.798325  0.250000  1
  Dy  Dy3  1  0.794349  0.205651  0.750000  1
  Zn  Zn4  1  0.811648  0.188352  0.390102  1
  Zn  Zn5  1  0.187058  0.812942  0.606667  1
  Zn  Zn6  1  0.811648  0.188352  0.109898  1
  Zn  Zn7  1  0.187058  0.812942  0.893333  1
  Zn  Zn8  1  0.651614  0.348386  0.472391  1
  Zn  Zn9  1  0.340978  0.659022  0.513028  1
  Zn  Zn10  1  0.651614  0.348386  0.027609  1
  Zn  Zn11  1  0.340978  0.659022  0.986972  1
  Zn  Zn12  1  0.404475  0.595525  0.250000  1
  Zn  Zn13  1  0.609945  0.390055  0.750000  1
  Si  Si14  1  0.559591  0.440409  0.250000  1
  Pb  Pb15  1  0.445343  0.554657  0.750000  1
