# generated using pymatgen
data_Li4TbPr(YSi3)2
_symmetry_space_group_name_H-M   'P 1'
_cell_length_a   9.33623532
_cell_length_b   9.33623559
_cell_length_c   6.74064900
_cell_angle_alpha   90.00000000
_cell_angle_beta   90.00000000
_cell_angle_gamma   153.22886370
_symmetry_Int_Tables_number   1
_chemical_formula_structural   Li4TbPr(YSi3)2
_chemical_formula_sum   'Li4 Tb1 Pr1 Y2 Si6'
_cell_volume   264.64915967
_cell_formula_units_Z   1
loop_
 _symmetry_equiv_pos_site_id
 _symmetry_equiv_pos_as_xyz
  1  'x, y, z'
loop_
 _atom_site_type_symbol
 _atom_site_label
 _atom_site_symmetry_multiplicity
 _atom_site_fract_x
 _atom_site_fract_y
 _atom_site_fract_z
 _atom_site_occupancy
  Li  Li0  1  0.190730  0.809270  0.059071  1
  Li  Li1  1  0.190730  0.809270  0.440929  1
  Li  Li2  1  0.809849  0.190151  0.939236  1
  Li  Li3  1  0.809849  0.190151  0.560764  1
  Tb  Tb4  1  0.446264  0.553736  0.750000  1
  Pr  Pr5  1  0.553161  0.446839  0.250000  1
  Y  Y6  1  0.344553  0.655447  0.250000  1
  Y  Y7  1  0.655532  0.344468  0.750000  1
  Si  Si8  1  0.723373  0.276627  0.250000  1
  Si  Si9  1  0.279523  0.720477  0.750000  1
  Si  Si10  1  0.058511  0.941489  0.924350  1
  Si  Si11  1  0.939706  0.060294  0.071044  1
  Si  Si12  1  0.939706  0.060294  0.428956  1
  Si  Si13  1  0.058511  0.941489  0.575650  1
