# generated using pymatgen
data_SrBeCu8Si3Ge
_symmetry_space_group_name_H-M   'P 1'
_cell_length_a   8.14175973
_cell_length_b   8.14176035
_cell_length_c   8.14509818
_cell_angle_alpha   120.51006114
_cell_angle_beta   120.51006872
_cell_angle_gamma   89.09492430
_symmetry_Int_Tables_number   1
_chemical_formula_structural   SrBeCu8Si3Ge
_chemical_formula_sum   'Sr2 Be2 Cu16 Si6 Ge2'
_cell_volume   378.86979020
_cell_formula_units_Z   2
loop_
 _symmetry_equiv_pos_site_id
 _symmetry_equiv_pos_as_xyz
  1  'x, y, z'
loop_
 _atom_site_type_symbol
 _atom_site_label
 _atom_site_symmetry_multiplicity
 _atom_site_fract_x
 _atom_site_fract_y
 _atom_site_fract_z
 _atom_site_occupancy
  Sr  Sr0  1  0.249956  0.249956  0.999911  1
  Sr  Sr1  1  0.749956  0.749956  0.999911  1
  Be  Be2  1  0.498454  0.998454  0.496908  1
  Be  Be3  1  0.000144  0.500144  0.500288  1
  Cu  Cu4  1  0.947393  0.210989  0.158382  1
  Cu  Cu5  1  0.211903  0.056283  0.268185  1
  Cu  Cu6  1  0.790523  0.938440  0.728963  1
  Cu  Cu7  1  0.438440  0.290523  0.728963  1
  Cu  Cu8  1  0.057979  0.790155  0.848135  1
  Cu  Cu9  1  0.800082  0.054469  0.494863  1
  Cu  Cu10  1  0.554469  0.300082  0.494863  1
  Cu  Cu11  1  0.194781  0.940394  0.494863  1
  Cu  Cu12  1  0.440394  0.694781  0.494863  1
  Cu  Cu13  1  0.942557  0.442557  0.734418  1
  Cu  Cu14  1  0.706135  0.206135  0.269754  1
  Cu  Cu15  1  0.063617  0.563617  0.269754  1
  Cu  Cu16  1  0.710989  0.447393  0.158382  1
  Cu  Cu17  1  0.556283  0.711903  0.268185  1
  Cu  Cu18  1  0.291862  0.791862  0.734418  1
  Cu  Cu19  1  0.290155  0.557979  0.848135  1
  Si  Si20  1  0.060508  0.208527  0.500796  1
  Si  Si21  1  0.292269  0.440288  0.500796  1
  Si  Si22  1  0.940288  0.792269  0.500796  1
  Si  Si23  1  0.440435  0.940435  0.147137  1
  Si  Si24  1  0.206702  0.706702  0.147137  1
  Si  Si25  1  0.708527  0.560508  0.500796  1
  Ge  Ge26  1  0.799374  0.299374  0.855199  1
  Ge  Ge27  1  0.555825  0.055825  0.855199  1
