# generated using pymatgen
data_Li3La3SiGe2
_symmetry_space_group_name_H-M   'P 1'
_cell_length_a   7.41302200
_cell_length_b   7.41302304
_cell_length_c   4.44789400
_cell_angle_alpha   90.00000000
_cell_angle_beta   90.00000000
_cell_angle_gamma   120.00000426
_symmetry_Int_Tables_number   1
_chemical_formula_structural   Li3La3SiGe2
_chemical_formula_sum   'Li3 La3 Si1 Ge2'
_cell_volume   211.67797931
_cell_formula_units_Z   1
loop_
 _symmetry_equiv_pos_site_id
 _symmetry_equiv_pos_as_xyz
  1  'x, y, z'
loop_
 _atom_site_type_symbol
 _atom_site_label
 _atom_site_symmetry_multiplicity
 _atom_site_fract_x
 _atom_site_fract_y
 _atom_site_fract_z
 _atom_site_occupancy
  Li  Li0  1  0.768217  0.999727  0.499999  1
  Li  Li1  1  0.231510  0.231783  0.499999  1
  Li  Li2  1  0.000273  0.768489  0.499999  1
  La  La3  1  0.418330  0.998916  0.000000  1
  La  La4  1  0.001084  0.419414  0.000000  1
  La  La5  1  0.580585  0.581669  0.000000  1
  Si  Si6  1  0.333333  0.666667  0.499999  1
  Ge  Ge7  1  0.000000  0.000000  0.000000  1
  Ge  Ge8  1  0.666666  0.333333  0.499999  1
