# generated using pymatgen
data_Tb6Dy6In2FeTc2
_symmetry_space_group_name_H-M   'P 1'
_cell_length_a   8.45105615
_cell_length_b   8.44783614
_cell_length_c   8.45105744
_cell_angle_alpha   108.80728898
_cell_angle_beta   108.85510409
_cell_angle_gamma   110.77480712
_symmetry_Int_Tables_number   1
_chemical_formula_structural   Tb6Dy6In2FeTc2
_chemical_formula_sum   'Tb6 Dy6 In2 Fe1 Tc2'
_cell_volume   464.18781790
_cell_formula_units_Z   1
loop_
 _symmetry_equiv_pos_site_id
 _symmetry_equiv_pos_as_xyz
  1  'x, y, z'
loop_
 _atom_site_type_symbol
 _atom_site_label
 _atom_site_symmetry_multiplicity
 _atom_site_fract_x
 _atom_site_fract_y
 _atom_site_fract_z
 _atom_site_occupancy
  Tb  Tb0  1  0.302870  0.303465  0.610187  1
  Tb  Tb1  1  0.694128  0.693429  0.389731  1
  Tb  Tb2  1  0.693279  0.303465  0.000596  1
  Tb  Tb3  1  0.303697  0.693429  0.999300  1
  Tb  Tb4  1  0.190946  0.432259  0.241313  1
  Tb  Tb5  1  0.806197  0.568372  0.762175  1
  Dy  Dy6  1  0.190866  0.949684  0.758819  1
  Dy  Dy7  1  0.949938  0.189823  0.759637  1
  Dy  Dy8  1  0.806352  0.044233  0.237880  1
  Dy  Dy9  1  0.044577  0.807486  0.237641  1
  Dy  Dy10  1  0.430186  0.189823  0.239884  1
  Dy  Dy11  1  0.569845  0.807486  0.762910  1
  In  In12  1  0.998037  0.498132  0.500094  1
  In  In13  1  0.498521  0.998288  0.499767  1
  Fe  Fe14  1  0.629913  0.630242  0.000328  1
  Tc  Tc15  1  0.390203  0.389959  0.999757  1
  Tc  Tc16  1  0.000447  0.000427  0.999979  1
