# generated using pymatgen
data_Lu6SnSbOs
_symmetry_space_group_name_H-M   'P 1'
_cell_length_a   7.95491801
_cell_length_b   7.95501232
_cell_length_c   4.24507500
_cell_angle_alpha   90.00000000
_cell_angle_beta   90.00000000
_cell_angle_gamma   120.00608247
_symmetry_Int_Tables_number   1
_chemical_formula_structural   Lu6SnSbOs
_chemical_formula_sum   'Lu6 Sn1 Sb1 Os1'
_cell_volume   232.63011857
_cell_formula_units_Z   1
loop_
 _symmetry_equiv_pos_site_id
 _symmetry_equiv_pos_as_xyz
  1  'x, y, z'
loop_
 _atom_site_type_symbol
 _atom_site_label
 _atom_site_symmetry_multiplicity
 _atom_site_fract_x
 _atom_site_fract_y
 _atom_site_fract_z
 _atom_site_occupancy
  Lu  Lu0  1  0.236137  0.998607  0.000000  1
  Lu  Lu1  1  0.762472  0.763969  0.000000  1
  Lu  Lu2  1  0.001509  0.237599  0.000000  1
  Lu  Lu3  1  0.002160  0.611081  0.500000  1
  Lu  Lu4  1  0.388801  0.391080  0.500000  1
  Lu  Lu5  1  0.608654  0.997764  0.500000  1
  Sn  Sn6  1  0.333363  0.666482  0.000000  1
  Sb  Sb7  1  0.666761  0.333409  0.000000  1
  Os  Os8  1  0.000146  0.000012  0.500000  1
