# generated using pymatgen
data_Ti5NbGa2P
_symmetry_space_group_name_H-M   'P 1'
_cell_length_a   6.93459400
_cell_length_b   6.96132785
_cell_length_c   3.47294100
_cell_angle_alpha   90.00000000
_cell_angle_beta   90.00000000
_cell_angle_gamma   119.87303427
_symmetry_Int_Tables_number   1
_chemical_formula_structural   Ti5NbGa2P
_chemical_formula_sum   'Ti5 Nb1 Ga2 P1'
_cell_volume   145.37689074
_cell_formula_units_Z   1
loop_
 _symmetry_equiv_pos_site_id
 _symmetry_equiv_pos_as_xyz
  1  'x, y, z'
loop_
 _atom_site_type_symbol
 _atom_site_label
 _atom_site_symmetry_multiplicity
 _atom_site_fract_x
 _atom_site_fract_y
 _atom_site_fract_z
 _atom_site_occupancy
  Ti  Ti0  1  0.000407  0.252346  0.500000  1
  Ti  Ti1  1  0.252906  0.000000  0.500000  1
  Ti  Ti2  1  0.748061  0.747654  0.500000  1
  Ti  Ti3  1  0.390510  0.390995  0.000000  1
  Ti  Ti4  1  0.999515  0.609005  0.000000  1
  Nb  Nb5  1  0.608818  0.000000  0.000000  1
  Ga  Ga6  1  0.667752  0.336163  0.500000  1
  Ga  Ga7  1  0.331588  0.663837  0.500000  1
  P  P8  1  0.000442  0.000000  0.000000  1
