# generated using pymatgen
data_Ac8HoPd6
_symmetry_space_group_name_H-M   'P 1'
_cell_length_a   8.09399263
_cell_length_b   8.09399399
_cell_length_c   8.09399297
_cell_angle_alpha   72.40079908
_cell_angle_beta   72.40078861
_cell_angle_gamma   72.40080039
_symmetry_Int_Tables_number   1
_chemical_formula_structural   Ac8HoPd6
_chemical_formula_sum   'Ac8 Ho1 Pd6'
_cell_volume   468.61986075
_cell_formula_units_Z   1
loop_
 _symmetry_equiv_pos_site_id
 _symmetry_equiv_pos_as_xyz
  1  'x, y, z'
loop_
 _atom_site_type_symbol
 _atom_site_label
 _atom_site_symmetry_multiplicity
 _atom_site_fract_x
 _atom_site_fract_y
 _atom_site_fract_z
 _atom_site_occupancy
  Ac  Ac0  1  0.798614  0.798614  0.798614  1
  Ac  Ac1  1  0.201386  0.201386  0.201386  1
  Ac  Ac2  1  0.326567  0.618843  0.834109  1
  Ac  Ac3  1  0.834109  0.326567  0.618843  1
  Ac  Ac4  1  0.618843  0.834109  0.326567  1
  Ac  Ac5  1  0.673433  0.381157  0.165891  1
  Ac  Ac6  1  0.165891  0.673433  0.381157  1
  Ac  Ac7  1  0.381157  0.165891  0.673433  1
  Ho  Ho8  1  0.000000  0.000000  0.000000  1
  Pd  Pd9  1  0.146238  0.963060  0.603792  1
  Pd  Pd10  1  0.603792  0.146238  0.963060  1
  Pd  Pd11  1  0.963060  0.603792  0.146238  1
  Pd  Pd12  1  0.853762  0.036940  0.396208  1
  Pd  Pd13  1  0.396208  0.853762  0.036940  1
  Pd  Pd14  1  0.036940  0.396208  0.853762  1
