# generated using pymatgen
data_YEr2In3HgPt2
_symmetry_space_group_name_H-M   'P 1'
_cell_length_a   7.69765684
_cell_length_b   7.70960162
_cell_length_c   3.98472900
_cell_angle_alpha   90.00000000
_cell_angle_beta   90.00000000
_cell_angle_gamma   120.00224492
_symmetry_Int_Tables_number   1
_chemical_formula_structural   YEr2In3HgPt2
_chemical_formula_sum   'Y1 Er2 In3 Hg1 Pt2'
_cell_volume   204.79062962
_cell_formula_units_Z   1
loop_
 _symmetry_equiv_pos_site_id
 _symmetry_equiv_pos_as_xyz
  1  'x, y, z'
loop_
 _atom_site_type_symbol
 _atom_site_label
 _atom_site_symmetry_multiplicity
 _atom_site_fract_x
 _atom_site_fract_y
 _atom_site_fract_z
 _atom_site_occupancy
  Y  Y0  1  0.608085  0.018547  0.500000  1
  Er  Er1  1  0.410659  0.391141  0.500000  1
  Er  Er2  1  0.980304  0.589296  0.500000  1
  In  In3  1  0.746639  0.742869  0.000000  1
  In  In4  1  0.997080  0.253759  0.000000  1
  In  In5  1  0.256683  0.003458  0.000000  1
  Hg  Hg6  1  0.332491  0.665591  0.000000  1
  Pt  Pt7  1  0.667097  0.335388  0.000000  1
  Pt  Pt8  1  0.000962  0.999950  0.500000  1
