# generated using pymatgen
data_KTm2CuSe4
_symmetry_space_group_name_H-M   'P 1'
_cell_length_a   7.25761764
_cell_length_b   7.25761743
_cell_length_c   14.27063700
_cell_angle_alpha   90.00000000
_cell_angle_beta   90.00000000
_cell_angle_gamma   147.32484800
_symmetry_Int_Tables_number   1
_chemical_formula_structural   KTm2CuSe4
_chemical_formula_sum   'K2 Tm4 Cu2 Se8'
_cell_volume   405.81210065
_cell_formula_units_Z   2
loop_
 _symmetry_equiv_pos_site_id
 _symmetry_equiv_pos_as_xyz
  1  'x, y, z'
loop_
 _atom_site_type_symbol
 _atom_site_label
 _atom_site_symmetry_multiplicity
 _atom_site_fract_x
 _atom_site_fract_y
 _atom_site_fract_z
 _atom_site_occupancy
  K  K0  1  0.112015  0.887985  0.250000  1
  K  K1  1  0.887985  0.112015  0.750000  1
  Tm  Tm2  1  0.634257  0.365743  0.934753  1
  Tm  Tm3  1  0.365743  0.634257  0.434753  1
  Tm  Tm4  1  0.634257  0.365743  0.565247  1
  Tm  Tm5  1  0.365743  0.634257  0.065247  1
  Cu  Cu6  1  0.161711  0.838289  0.750000  1
  Cu  Cu7  1  0.838289  0.161711  0.250000  1
  Se  Se8  1  0.000000  0.000000  0.500000  1
  Se  Se9  1  0.000000  0.000000  0.000000  1
  Se  Se10  1  0.735016  0.264984  0.109911  1
  Se  Se11  1  0.264984  0.735016  0.890089  1
  Se  Se12  1  0.564370  0.435630  0.750000  1
  Se  Se13  1  0.735016  0.264984  0.390089  1
  Se  Se14  1  0.435630  0.564370  0.250000  1
  Se  Se15  1  0.264984  0.735016  0.609911  1
