# generated using pymatgen
data_Sm2DyGa3(Ni3Sn)3
_symmetry_space_group_name_H-M   'P 1'
_cell_length_a   4.08800500
_cell_length_b   9.17396593
_cell_length_c   9.17396571
_cell_angle_alpha   60.10160235
_cell_angle_beta   90.00000000
_cell_angle_gamma   90.00000000
_symmetry_Int_Tables_number   1
_chemical_formula_structural   Sm2DyGa3(Ni3Sn)3
_chemical_formula_sum   'Sm2 Dy1 Ga3 Ni9 Sn3'
_cell_volume   298.26343268
_cell_formula_units_Z   1
loop_
 _symmetry_equiv_pos_site_id
 _symmetry_equiv_pos_as_xyz
  1  'x, y, z'
loop_
 _atom_site_type_symbol
 _atom_site_label
 _atom_site_symmetry_multiplicity
 _atom_site_fract_x
 _atom_site_fract_y
 _atom_site_fract_z
 _atom_site_occupancy
  Sm  Sm0  1  0.500000  0.333391  0.333143  1
  Sm  Sm1  1  0.500000  0.666857  0.666609  1
  Dy  Dy2  1  0.000000  0.999643  0.000357  1
  Ga  Ga3  1  0.500000  0.742343  0.257657  1
  Ga  Ga4  1  0.500000  0.257569  0.999955  1
  Ga  Ga5  1  0.500000  0.000045  0.742431  1
  Ni  Ni6  1  0.000000  0.205595  0.159219  1
  Ni  Ni7  1  0.000000  0.159108  0.635701  1
  Ni  Ni8  1  0.000000  0.634976  0.205586  1
  Ni  Ni9  1  0.000000  0.840781  0.794405  1
  Ni  Ni10  1  0.000000  0.364299  0.840892  1
  Ni  Ni11  1  0.000000  0.794414  0.365024  1
  Ni  Ni12  1  0.500000  0.278085  0.721915  1
  Ni  Ni13  1  0.500000  0.722480  0.999885  1
  Ni  Ni14  1  0.500000  0.000115  0.277520  1
  Sn  Sn15  1  0.000000  0.469364  0.530636  1
  Sn  Sn16  1  0.000000  0.530674  0.999837  1
  Sn  Sn17  1  0.000000  0.000163  0.469326  1
