# generated using pymatgen
data_Ba20In2Si9Sn
_symmetry_space_group_name_H-M   'P 1'
_cell_length_a   8.54822000
_cell_length_b   8.54822000
_cell_length_c   17.37987500
_cell_angle_alpha   90.00000000
_cell_angle_beta   90.00000000
_cell_angle_gamma   90.00000000
_symmetry_Int_Tables_number   1
_chemical_formula_structural   Ba20In2Si9Sn
_chemical_formula_sum   'Ba20 In2 Si9 Sn1'
_cell_volume   1269.98335862
_cell_formula_units_Z   1
loop_
 _symmetry_equiv_pos_site_id
 _symmetry_equiv_pos_as_xyz
  1  'x, y, z'
loop_
 _atom_site_type_symbol
 _atom_site_label
 _atom_site_symmetry_multiplicity
 _atom_site_fract_x
 _atom_site_fract_y
 _atom_site_fract_z
 _atom_site_occupancy
  Ba  Ba0  1  0.314225  0.672531  0.112592  1
  Ba  Ba1  1  0.172531  0.185775  0.112592  1
  Ba  Ba2  1  0.500000  0.000000  0.730165  1
  Ba  Ba3  1  0.320952  0.682431  0.392596  1
  Ba  Ba4  1  0.669423  0.687352  0.887351  1
  Ba  Ba5  1  0.182431  0.179048  0.392596  1
  Ba  Ba6  1  0.679048  0.317569  0.392596  1
  Ba  Ba7  1  0.168121  0.805388  0.607461  1
  Ba  Ba8  1  0.330577  0.312648  0.887351  1
  Ba  Ba9  1  0.187352  0.830577  0.887351  1
  Ba  Ba10  1  0.500000  0.000000  0.243093  1
  Ba  Ba11  1  0.831879  0.194612  0.607461  1
  Ba  Ba12  1  0.305388  0.331879  0.607461  1
  Ba  Ba13  1  0.817569  0.820952  0.392596  1
  Ba  Ba14  1  0.812648  0.169423  0.887351  1
  Ba  Ba15  1  0.827469  0.814225  0.112592  1
  Ba  Ba16  1  0.000000  0.500000  0.265194  1
  Ba  Ba17  1  0.000000  0.500000  0.767821  1
  Ba  Ba18  1  0.685775  0.327469  0.112592  1
  Ba  Ba19  1  0.694612  0.668121  0.607461  1
  In  In20  1  0.000000  0.500000  0.991314  1
  In  In21  1  0.500000  0.000000  0.008562  1
  Si  Si22  1  0.099764  0.100923  0.747174  1
  Si  Si23  1  0.399077  0.599764  0.747174  1
  Si  Si24  1  0.600021  0.600425  0.252541  1
  Si  Si25  1  0.100425  0.899979  0.252541  1
  Si  Si26  1  0.600923  0.400236  0.747174  1
  Si  Si27  1  0.900236  0.899077  0.747174  1
  Si  Si28  1  0.399979  0.399575  0.252541  1
  Si  Si29  1  0.899575  0.100021  0.252541  1
  Si  Si30  1  0.000000  0.500000  0.486911  1
  Sn  Sn31  1  0.500000  0.000000  0.508078  1
