# generated using pymatgen
data_TmLuNb2(SbIr)4
_symmetry_space_group_name_H-M   'P 1'
_cell_length_a   4.50675500
_cell_length_b   6.36015916
_cell_length_c   8.99686523
_cell_angle_alpha   90.02601528
_cell_angle_beta   90.00000000
_cell_angle_gamma   90.00000000
_symmetry_Int_Tables_number   1
_chemical_formula_structural   TmLuNb2(SbIr)4
_chemical_formula_sum   'Tm1 Lu1 Nb2 Sb4 Ir4'
_cell_volume   257.88323144
_cell_formula_units_Z   1
loop_
 _symmetry_equiv_pos_site_id
 _symmetry_equiv_pos_as_xyz
  1  'x, y, z'
loop_
 _atom_site_type_symbol
 _atom_site_label
 _atom_site_symmetry_multiplicity
 _atom_site_fract_x
 _atom_site_fract_y
 _atom_site_fract_z
 _atom_site_occupancy
  Tm  Tm0  1  0.000000  0.005467  0.374439  1
  Lu  Lu1  1  0.499999  0.505696  0.625516  1
  Nb  Nb2  1  0.499999  0.494610  0.122102  1
  Nb  Nb3  1  0.000000  0.994445  0.877852  1
  Sb  Sb4  1  0.499999  0.987155  0.126932  1
  Sb  Sb5  1  0.000000  0.509997  0.376264  1
  Sb  Sb6  1  0.499999  0.009908  0.624381  1
  Sb  Sb7  1  0.000000  0.486908  0.872403  1
  Ir  Ir8  1  0.000000  0.733711  0.111996  1
  Ir  Ir9  1  0.499999  0.270000  0.357185  1
  Ir  Ir10  1  0.000000  0.767870  0.643481  1
  Ir  Ir11  1  0.499999  0.234223  0.887447  1
