# generated using pymatgen
data_EuCo2SiGe
_symmetry_space_group_name_H-M   'P 1'
_cell_length_a   5.85055205
_cell_length_b   5.85055167
_cell_length_c   5.85055184
_cell_angle_alpha   140.27193697
_cell_angle_beta   140.27193826
_cell_angle_gamma   57.44063205
_symmetry_Int_Tables_number   1
_chemical_formula_structural   EuCo2SiGe
_chemical_formula_sum   'Eu1 Co2 Si1 Ge1'
_cell_volume   81.10679539
_cell_formula_units_Z   1
loop_
 _symmetry_equiv_pos_site_id
 _symmetry_equiv_pos_as_xyz
  1  'x, y, z'
loop_
 _atom_site_type_symbol
 _atom_site_label
 _atom_site_symmetry_multiplicity
 _atom_site_fract_x
 _atom_site_fract_y
 _atom_site_fract_z
 _atom_site_occupancy
  Eu  Eu0  1  0.998278  0.998278  0.000000  1
  Co  Co1  1  0.754629  0.254629  0.500000  1
  Co  Co2  1  0.254629  0.754629  0.500000  1
  Si  Si3  1  0.361811  0.361811  0.000000  1
  Ge  Ge4  1  0.630653  0.630653  0.000000  1
