# generated using pymatgen
data_Tm12AlFe4Pt
_symmetry_space_group_name_H-M   'P 1'
_cell_length_a   8.17567406
_cell_length_b   8.17567540
_cell_length_c   8.17567565
_cell_angle_alpha   110.81651030
_cell_angle_beta   111.03287126
_cell_angle_gamma   106.60190795
_symmetry_Int_Tables_number   1
_chemical_formula_structural   Tm12AlFe4Pt
_chemical_formula_sum   'Tm12 Al1 Fe4 Pt1'
_cell_volume   419.88934174
_cell_formula_units_Z   1
loop_
 _symmetry_equiv_pos_site_id
 _symmetry_equiv_pos_as_xyz
  1  'x, y, z'
loop_
 _atom_site_type_symbol
 _atom_site_label
 _atom_site_symmetry_multiplicity
 _atom_site_fract_x
 _atom_site_fract_y
 _atom_site_fract_z
 _atom_site_occupancy
  Tm  Tm0  1  0.419677  0.221954  0.197722  1
  Tm  Tm1  1  0.580323  0.778046  0.802278  1
  Tm  Tm2  1  0.024232  0.221954  0.802278  1
  Tm  Tm3  1  0.975768  0.778046  0.197722  1
  Tm  Tm4  1  0.186995  0.286992  0.473987  1
  Tm  Tm5  1  0.813005  0.713008  0.526013  1
  Tm  Tm6  1  0.186995  0.713008  0.900004  1
  Tm  Tm7  1  0.813005  0.286992  0.099996  1
  Tm  Tm8  1  0.315352  0.615216  0.299864  1
  Tm  Tm9  1  0.684648  0.384784  0.700136  1
  Tm  Tm10  1  0.315352  0.015487  0.700136  1
  Tm  Tm11  1  0.684648  0.984513  0.299864  1
  Al  Al12  1  0.500000  0.500000  0.000000  1
  Fe  Fe13  1  0.381751  0.000000  0.381751  1
  Fe  Fe14  1  0.618249  0.000000  0.618249  1
  Fe  Fe15  1  0.109716  0.609716  0.500000  1
  Fe  Fe16  1  0.890284  0.390284  0.500000  1
  Pt  Pt17  1  0.000000  0.000000  0.000000  1
