# generated using pymatgen
data_Cs8Mn3CoBr16
_symmetry_space_group_name_H-M   'P 1'
_cell_length_a   7.96419400
_cell_length_b   10.40132229
_cell_length_c   14.20250985
_cell_angle_alpha   90.00927499
_cell_angle_beta   90.00000000
_cell_angle_gamma   90.00000000
_symmetry_Int_Tables_number   1
_chemical_formula_structural   Cs8Mn3CoBr16
_chemical_formula_sum   'Cs8 Mn3 Co1 Br16'
_cell_volume   1176.50960589
_cell_formula_units_Z   1
loop_
 _symmetry_equiv_pos_site_id
 _symmetry_equiv_pos_as_xyz
  1  'x, y, z'
loop_
 _atom_site_type_symbol
 _atom_site_label
 _atom_site_symmetry_multiplicity
 _atom_site_fract_x
 _atom_site_fract_y
 _atom_site_fract_z
 _atom_site_occupancy
  Cs  Cs0  1  0.250000  0.982442  0.173410  1
  Cs  Cs1  1  0.750000  0.016561  0.826155  1
  Cs  Cs2  1  0.750000  0.518614  0.672101  1
  Cs  Cs3  1  0.250000  0.483514  0.328191  1
  Cs  Cs4  1  0.250000  0.633543  0.915440  1
  Cs  Cs5  1  0.750000  0.366623  0.084725  1
  Cs  Cs6  1  0.750000  0.866072  0.415426  1
  Cs  Cs7  1  0.250000  0.131602  0.584084  1
  Mn  Mn8  1  0.750000  0.268288  0.422769  1
  Mn  Mn9  1  0.750000  0.768155  0.077314  1
  Mn  Mn10  1  0.250000  0.232421  0.922649  1
  Co  Co11  1  0.250000  0.732958  0.577128  1
  Br  Br12  1  0.003548  0.820204  0.651244  1
  Br  Br13  1  0.004173  0.175571  0.346502  1
  Br  Br14  1  0.004472  0.675617  0.153372  1
  Br  Br15  1  0.495827  0.175571  0.346502  1
  Br  Br16  1  0.995285  0.324693  0.846652  1
  Br  Br17  1  0.496452  0.820204  0.651244  1
  Br  Br18  1  0.504715  0.324693  0.846652  1
  Br  Br19  1  0.495528  0.675617  0.153372  1
  Br  Br20  1  0.250000  0.502712  0.589788  1
  Br  Br21  1  0.750000  0.506417  0.409144  1
  Br  Br22  1  0.750000  0.006469  0.091061  1
  Br  Br23  1  0.250000  0.993891  0.909614  1
  Br  Br24  1  0.250000  0.317641  0.087940  1
  Br  Br25  1  0.750000  0.683215  0.911875  1
  Br  Br26  1  0.750000  0.181912  0.587944  1
  Br  Br27  1  0.250000  0.814780  0.417702  1
