# generated using pymatgen
data_Ti12AlSn5Sb4
_symmetry_space_group_name_H-M   'P 1'
_cell_length_a   9.29531388
_cell_length_b   9.23571471
_cell_length_c   5.61656290
_cell_angle_alpha   90.00000114
_cell_angle_beta   89.94391386
_cell_angle_gamma   119.78812658
_symmetry_Int_Tables_number   1
_chemical_formula_structural   Ti12AlSn5Sb4
_chemical_formula_sum   'Ti12 Al1 Sn5 Sb4'
_cell_volume   418.46467831
_cell_formula_units_Z   1
loop_
 _symmetry_equiv_pos_site_id
 _symmetry_equiv_pos_as_xyz
  1  'x, y, z'
loop_
 _atom_site_type_symbol
 _atom_site_label
 _atom_site_symmetry_multiplicity
 _atom_site_fract_x
 _atom_site_fract_y
 _atom_site_fract_z
 _atom_site_occupancy
  Ti  Ti0  1  0.841773  0.689379  0.746934  1
  Ti  Ti1  1  0.158227  0.847607  0.253066  1
  Ti  Ti2  1  0.690783  0.847932  0.253501  1
  Ti  Ti3  1  0.309217  0.157149  0.746499  1
  Ti  Ti4  1  0.848863  0.150625  0.745899  1
  Ti  Ti5  1  0.151137  0.301762  0.254101  1
  Ti  Ti6  1  0.501876  0.002458  0.499580  1
  Ti  Ti7  1  0.498056  0.500378  0.999310  1
  Ti  Ti8  1  0.000000  0.498061  0.000000  1
  Ti  Ti9  1  0.000000  0.498221  0.500000  1
  Ti  Ti10  1  0.501944  0.002320  0.000690  1
  Ti  Ti11  1  0.498124  0.500583  0.500420  1
  Al  Al12  1  0.000000  0.993146  0.500000  1
  Sn  Sn13  1  0.199995  0.800565  0.749343  1
  Sn  Sn14  1  0.800005  0.600570  0.250657  1
  Sn  Sn15  1  0.669121  0.336298  0.750068  1
  Sn  Sn16  1  0.330879  0.667177  0.249932  1
  Sn  Sn17  1  0.000000  0.994737  0.000000  1
  Sb  Sb18  1  0.199819  0.403067  0.749298  1
  Sb  Sb19  1  0.800181  0.203248  0.250702  1
  Sb  Sb20  1  0.404366  0.204543  0.250303  1
  Sb  Sb21  1  0.595634  0.800177  0.749697  1
