# generated using pymatgen
data_YbHo7Lu2(In2Pt)4
_symmetry_space_group_name_H-M   'P 1'
_cell_length_a   3.59622000
_cell_length_b   8.15485765
_cell_length_c   18.21486713
_cell_angle_alpha   89.91654363
_cell_angle_beta   90.00000000
_cell_angle_gamma   90.00000000
_symmetry_Int_Tables_number   1
_chemical_formula_structural   YbHo7Lu2(In2Pt)4
_chemical_formula_sum   'Yb1 Ho7 Lu2 In8 Pt4'
_cell_volume   534.18068830
_cell_formula_units_Z   1
loop_
 _symmetry_equiv_pos_site_id
 _symmetry_equiv_pos_as_xyz
  1  'x, y, z'
loop_
 _atom_site_type_symbol
 _atom_site_label
 _atom_site_symmetry_multiplicity
 _atom_site_fract_x
 _atom_site_fract_y
 _atom_site_fract_z
 _atom_site_occupancy
  Yb  Yb0  1  0.000000  0.000000  0.000000  1
  Ho  Ho1  1  0.000000  0.382160  0.914615  1
  Ho  Ho2  1  0.000000  0.617840  0.085385  1
  Ho  Ho3  1  0.000000  0.242833  0.220337  1
  Ho  Ho4  1  0.000000  0.757167  0.779663  1
  Ho  Ho5  1  0.000000  0.257016  0.719954  1
  Ho  Ho6  1  0.000000  0.742984  0.280046  1
  Ho  Ho7  1  0.000000  0.500000  0.500000  1
  Lu  Lu8  1  0.000000  0.116865  0.413804  1
  Lu  Lu9  1  0.000000  0.883135  0.586196  1
  In  In10  1  0.500000  0.421779  0.351427  1
  In  In11  1  0.500000  0.578221  0.648573  1
  In  In12  1  0.500000  0.075842  0.850505  1
  In  In13  1  0.500000  0.924158  0.149495  1
  In  In14  1  0.500000  0.292311  0.066924  1
  In  In15  1  0.500000  0.707689  0.933076  1
  In  In16  1  0.500000  0.205622  0.565744  1
  In  In17  1  0.500000  0.794378  0.434256  1
  Pt  Pt18  1  0.500000  0.025847  0.304876  1
  Pt  Pt19  1  0.500000  0.974153  0.695124  1
  Pt  Pt20  1  0.500000  0.475782  0.803069  1
  Pt  Pt21  1  0.500000  0.524218  0.196931  1
