# generated using pymatgen
data_K16PaGaSb8
_symmetry_space_group_name_H-M   'P 1'
_cell_length_a   11.70064008
_cell_length_b   11.70064010
_cell_length_c   11.70064000
_cell_angle_alpha   59.99999462
_cell_angle_beta   59.99999458
_cell_angle_gamma   59.99999479
_symmetry_Int_Tables_number   1
_chemical_formula_structural   K16PaGaSb8
_chemical_formula_sum   'K16 Pa1 Ga1 Sb8'
_cell_volume   1132.69715185
_cell_formula_units_Z   1
loop_
 _symmetry_equiv_pos_site_id
 _symmetry_equiv_pos_as_xyz
  1  'x, y, z'
loop_
 _atom_site_type_symbol
 _atom_site_label
 _atom_site_symmetry_multiplicity
 _atom_site_fract_x
 _atom_site_fract_y
 _atom_site_fract_z
 _atom_site_occupancy
  K  K0  1  0.618462  0.144611  0.618462  1
  K  K1  1  0.618462  0.618462  0.144611  1
  K  K2  1  0.144611  0.618462  0.618462  1
  K  K3  1  0.618462  0.618462  0.618462  1
  K  K4  1  0.032200  0.032200  0.467800  1
  K  K5  1  0.774398  0.225602  0.225602  1
  K  K6  1  0.225602  0.774398  0.774398  1
  K  K7  1  0.774398  0.774398  0.225602  1
  K  K8  1  0.774398  0.225602  0.774398  1
  K  K9  1  0.225602  0.774398  0.225602  1
  K  K10  1  0.467800  0.032200  0.467800  1
  K  K11  1  0.467800  0.032200  0.032200  1
  K  K12  1  0.032200  0.467800  0.467800  1
  K  K13  1  0.032200  0.467800  0.032200  1
  K  K14  1  0.225602  0.225602  0.774398  1
  K  K15  1  0.467800  0.467800  0.032200  1
  Pa  Pa16  1  0.750000  0.750000  0.750000  1
  Ga  Ga17  1  0.500000  0.500000  0.500000  1
  Sb  Sb18  1  0.398521  0.804440  0.398521  1
  Sb  Sb19  1  0.853421  0.853421  0.439740  1
  Sb  Sb20  1  0.439740  0.853421  0.853421  1
  Sb  Sb21  1  0.853421  0.853421  0.853421  1
  Sb  Sb22  1  0.804440  0.398521  0.398521  1
  Sb  Sb23  1  0.398521  0.398521  0.398521  1
  Sb  Sb24  1  0.398521  0.398521  0.804440  1
  Sb  Sb25  1  0.853421  0.439740  0.853421  1
