# generated using pymatgen
data_Be2V3SiOs3
_symmetry_space_group_name_H-M   'P 1'
_cell_length_a   6.54482200
_cell_length_b   6.54482140
_cell_length_c   2.98047900
_cell_angle_alpha   90.00000000
_cell_angle_beta   90.00000000
_cell_angle_gamma   119.99999292
_symmetry_Int_Tables_number   1
_chemical_formula_structural   Be2V3SiOs3
_chemical_formula_sum   'Be2 V3 Si1 Os3'
_cell_volume   110.56365015
_cell_formula_units_Z   1
loop_
 _symmetry_equiv_pos_site_id
 _symmetry_equiv_pos_as_xyz
  1  'x, y, z'
loop_
 _atom_site_type_symbol
 _atom_site_label
 _atom_site_symmetry_multiplicity
 _atom_site_fract_x
 _atom_site_fract_y
 _atom_site_fract_z
 _atom_site_occupancy
  Be  Be0  1  0.666667  0.333333  0.000000  1
  Be  Be1  1  0.000000  0.000000  0.500000  1
  V  V2  1  0.408154  0.387274  0.500000  1
  V  V3  1  0.612726  0.020880  0.500000  1
  V  V4  1  0.979120  0.591846  0.500000  1
  Si  Si5  1  0.333333  0.666667  0.000000  1
  Os  Os6  1  0.739579  0.737253  0.000000  1
  Os  Os7  1  0.262747  0.002327  0.000000  1
  Os  Os8  1  0.997673  0.260421  0.000000  1
