# generated using pymatgen
data_EuDy3MnRh3O14
_symmetry_space_group_name_H-M   'P 1'
_cell_length_a   7.23164256
_cell_length_b   7.23164282
_cell_length_c   7.24184732
_cell_angle_alpha   60.05869762
_cell_angle_beta   60.05869787
_cell_angle_gamma   60.10589864
_symmetry_Int_Tables_number   1
_chemical_formula_structural   EuDy3MnRh3O14
_chemical_formula_sum   'Eu1 Dy3 Mn1 Rh3 O14'
_cell_volume   268.25017873
_cell_formula_units_Z   1
loop_
 _symmetry_equiv_pos_site_id
 _symmetry_equiv_pos_as_xyz
  1  'x, y, z'
loop_
 _atom_site_type_symbol
 _atom_site_label
 _atom_site_symmetry_multiplicity
 _atom_site_fract_x
 _atom_site_fract_y
 _atom_site_fract_z
 _atom_site_occupancy
  Eu  Eu0  1  0.125000  0.125000  0.125000  1
  Dy  Dy1  1  0.125000  0.625000  0.125000  1
  Dy  Dy2  1  0.125000  0.125000  0.625000  1
  Dy  Dy3  1  0.625000  0.125000  0.125000  1
  Mn  Mn4  1  0.625000  0.625000  0.125000  1
  Rh  Rh5  1  0.625000  0.625000  0.625000  1
  Rh  Rh6  1  0.125000  0.625000  0.625000  1
  Rh  Rh7  1  0.625000  0.125000  0.625000  1
  O  O8  1  0.289822  0.710935  0.711078  1
  O  O9  1  0.547105  0.953363  0.961616  1
  O  O10  1  0.707927  0.707927  0.288350  1
  O  O11  1  0.289762  0.289762  0.704858  1
  O  O12  1  0.996879  0.996879  0.997584  1
  O  O13  1  0.710935  0.289822  0.711078  1
  O  O14  1  0.296637  0.702895  0.288384  1
  O  O15  1  0.953363  0.547105  0.961616  1
  O  O16  1  0.542073  0.542073  0.961650  1
  O  O17  1  0.960238  0.960238  0.545142  1
  O  O18  1  0.253121  0.253121  0.252416  1
  O  O19  1  0.539065  0.960178  0.538922  1
  O  O20  1  0.702895  0.296637  0.288384  1
  O  O21  1  0.960178  0.539065  0.538922  1
