# generated using pymatgen
data_Y2Tm2Zn4IrPt3
_symmetry_space_group_name_H-M   'P 1'
_cell_length_a   4.20564400
_cell_length_b   6.88186234
_cell_length_c   8.07201916
_cell_angle_alpha   90.32886496
_cell_angle_beta   90.00000000
_cell_angle_gamma   90.00000000
_symmetry_Int_Tables_number   1
_chemical_formula_structural   Y2Tm2Zn4IrPt3
_chemical_formula_sum   'Y2 Tm2 Zn4 Ir1 Pt3'
_cell_volume   233.62188255
_cell_formula_units_Z   1
loop_
 _symmetry_equiv_pos_site_id
 _symmetry_equiv_pos_as_xyz
  1  'x, y, z'
loop_
 _atom_site_type_symbol
 _atom_site_label
 _atom_site_symmetry_multiplicity
 _atom_site_fract_x
 _atom_site_fract_y
 _atom_site_fract_z
 _atom_site_occupancy
  Y  Y0  1  0.750000  0.960258  0.691895  1
  Y  Y1  1  0.250000  0.035929  0.311900  1
  Tm  Tm2  1  0.250000  0.538334  0.180715  1
  Tm  Tm3  1  0.750000  0.469718  0.816021  1
  Zn  Zn4  1  0.250000  0.643699  0.566887  1
  Zn  Zn5  1  0.750000  0.357396  0.435234  1
  Zn  Zn6  1  0.750000  0.853233  0.063323  1
  Zn  Zn7  1  0.250000  0.142129  0.934536  1
  Ir  Ir8  1  0.250000  0.751374  0.883373  1
  Pt  Pt9  1  0.750000  0.247267  0.116783  1
  Pt  Pt10  1  0.750000  0.740354  0.380043  1
  Pt  Pt11  1  0.250000  0.260310  0.619289  1
