# generated using pymatgen
data_Dy4Tm4Re(B8Ru)3
_symmetry_space_group_name_H-M   'P 1'
_cell_length_a   3.64566500
_cell_length_b   9.10227719
_cell_length_c   11.49368801
_cell_angle_alpha   90.11472485
_cell_angle_beta   90.00000000
_cell_angle_gamma   90.00000000
_symmetry_Int_Tables_number   1
_chemical_formula_structural   Dy4Tm4Re(B8Ru)3
_chemical_formula_sum   'Dy4 Tm4 Re1 B24 Ru3'
_cell_volume   381.40409305
_cell_formula_units_Z   1
loop_
 _symmetry_equiv_pos_site_id
 _symmetry_equiv_pos_as_xyz
  1  'x, y, z'
loop_
 _atom_site_type_symbol
 _atom_site_label
 _atom_site_symmetry_multiplicity
 _atom_site_fract_x
 _atom_site_fract_y
 _atom_site_fract_z
 _atom_site_occupancy
  Dy  Dy0  1  0.000000  0.322536  0.415047  1
  Dy  Dy1  1  0.000000  0.680334  0.587884  1
  Dy  Dy2  1  0.000000  0.822208  0.083672  1
  Dy  Dy3  1  0.000000  0.176712  0.913421  1
  Tm  Tm4  1  0.000000  0.943216  0.371227  1
  Tm  Tm5  1  0.000000  0.056324  0.627668  1
  Tm  Tm6  1  0.000000  0.442718  0.128456  1
  Tm  Tm7  1  0.000000  0.555912  0.872529  1
  Re  Re8  1  0.000000  0.861990  0.820684  1
  B  B9  1  0.500000  0.554323  0.433129  1
  B  B10  1  0.500000  0.445973  0.567183  1
  B  B11  1  0.500000  0.054054  0.067662  1
  B  B12  1  0.500000  0.946909  0.933111  1
  B  B13  1  0.500000  0.749096  0.419229  1
  B  B14  1  0.500000  0.251223  0.580536  1
  B  B15  1  0.500000  0.248902  0.080993  1
  B  B16  1  0.500000  0.750442  0.919187  1
  B  B17  1  0.500000  0.790681  0.265737  1
  B  B18  1  0.500000  0.208977  0.733234  1
  B  B19  1  0.500000  0.291132  0.234301  1
  B  B20  1  0.500000  0.707969  0.765833  1
  B  B21  1  0.500000  0.630442  0.185036  1
  B  B22  1  0.500000  0.368920  0.814621  1
  B  B23  1  0.500000  0.131191  0.315111  1
  B  B24  1  0.500000  0.869322  0.685113  1
  B  B25  1  0.500000  0.983203  0.212821  1
  B  B26  1  0.500000  0.018196  0.787003  1
  B  B27  1  0.500000  0.483042  0.287711  1
  B  B28  1  0.500000  0.516828  0.712875  1
  B  B29  1  0.500000  0.603764  0.029496  1
  B  B30  1  0.500000  0.394146  0.971358  1
  B  B31  1  0.500000  0.105569  0.470388  1
  B  B32  1  0.500000  0.895279  0.528216  1
  Ru  Ru33  1  0.000000  0.638101  0.320665  1
  Ru  Ru34  1  0.000000  0.362051  0.678940  1
  Ru  Ru35  1  0.000000  0.138313  0.179921  1
