# generated using pymatgen
data_Tb2Ho10Co4BiRu
_symmetry_space_group_name_H-M   'P 1'
_cell_length_a   8.30441102
_cell_length_b   8.30376691
_cell_length_c   8.29883211
_cell_angle_alpha   111.06729934
_cell_angle_beta   110.58894248
_cell_angle_gamma   106.81908155
_symmetry_Int_Tables_number   1
_chemical_formula_structural   Tb2Ho10Co4BiRu
_chemical_formula_sum   'Tb2 Ho10 Co4 Bi1 Ru1'
_cell_volume   439.65936481
_cell_formula_units_Z   1
loop_
 _symmetry_equiv_pos_site_id
 _symmetry_equiv_pos_as_xyz
  1  'x, y, z'
loop_
 _atom_site_type_symbol
 _atom_site_label
 _atom_site_symmetry_multiplicity
 _atom_site_fract_x
 _atom_site_fract_y
 _atom_site_fract_z
 _atom_site_occupancy
  Tb  Tb0  1  0.817419  0.714069  0.531492  1
  Tb  Tb1  1  0.182581  0.285931  0.468508  1
  Ho  Ho2  1  0.183004  0.714635  0.897613  1
  Ho  Ho3  1  0.816996  0.285365  0.102387  1
  Ho  Ho4  1  0.688746  0.379363  0.691525  1
  Ho  Ho5  1  0.311254  0.620637  0.308475  1
  Ho  Ho6  1  0.687873  0.997203  0.308438  1
  Ho  Ho7  1  0.312127  0.002797  0.691562  1
  Ho  Ho8  1  0.593190  0.789447  0.804590  1
  Ho  Ho9  1  0.406810  0.210553  0.195410  1
  Ho  Ho10  1  0.984863  0.788652  0.195450  1
  Ho  Ho11  1  0.015137  0.211348  0.804550  1
  Co  Co12  1  0.623928  0.000067  0.623976  1
  Co  Co13  1  0.376072  0.999933  0.376024  1
  Co  Co14  1  0.111215  0.611261  0.499993  1
  Co  Co15  1  0.888785  0.388739  0.500007  1
  Bi  Bi16  1  0.500000  0.500000  0.000000  1
  Ru  Ru17  1  0.000000  0.000000  0.000000  1
