# generated using pymatgen
data_EuY2Ho(Si5Pt3)2
_symmetry_space_group_name_H-M   'P 1'
_cell_length_a   8.19224208
_cell_length_b   8.19157513
_cell_length_c   8.19157427
_cell_angle_alpha   136.65133609
_cell_angle_beta   104.41075012
_cell_angle_gamma   91.37041871
_symmetry_Int_Tables_number   1
_chemical_formula_structural   EuY2Ho(Si5Pt3)2
_chemical_formula_sum   'Eu1 Y2 Ho1 Si10 Pt6'
_cell_volume   347.68294472
_cell_formula_units_Z   1
loop_
 _symmetry_equiv_pos_site_id
 _symmetry_equiv_pos_as_xyz
  1  'x, y, z'
loop_
 _atom_site_type_symbol
 _atom_site_label
 _atom_site_symmetry_multiplicity
 _atom_site_fract_x
 _atom_site_fract_y
 _atom_site_fract_z
 _atom_site_occupancy
  Eu  Eu0  1  0.362093  0.629177  0.732916  1
  Y  Y1  1  0.898392  0.128450  0.769943  1
  Y  Y2  1  0.641324  0.371819  0.269506  1
  Ho  Ho3  1  0.100106  0.870948  0.229158  1
  Si  Si4  1  0.001490  0.746051  0.746731  1
  Si  Si5  1  0.001490  0.254757  0.255438  1
  Si  Si6  1  0.271412  0.019686  0.748714  1
  Si  Si7  1  0.727888  0.479503  0.749490  1
  Si  Si8  1  0.727888  0.978399  0.248385  1
  Si  Si9  1  0.271412  0.522698  0.251726  1
  Si  Si10  1  0.761270  0.611918  0.149351  1
  Si  Si11  1  0.236386  0.386712  0.849674  1
  Si  Si12  1  0.459092  0.111382  0.347709  1
  Si  Si13  1  0.540839  0.888695  0.652145  1
  Pt  Pt14  1  0.499714  0.750161  0.251896  1
  Pt  Pt15  1  0.499714  0.247818  0.749553  1
  Pt  Pt16  1  0.021871  0.638365  0.383506  1
  Pt  Pt17  1  0.974381  0.360127  0.614254  1
  Pt  Pt18  1  0.248506  0.136829  0.111677  1
  Pt  Pt19  1  0.754735  0.866509  0.888227  1
