# generated using pymatgen
data_Ce6Mg4Cd19C
_symmetry_space_group_name_H-M   'P 1'
_cell_length_a   10.00647341
_cell_length_b   10.00647409
_cell_length_c   10.00647400
_cell_angle_alpha   60.00000030
_cell_angle_beta   59.99999804
_cell_angle_gamma   60.00000095
_symmetry_Int_Tables_number   1
_chemical_formula_structural   Ce6Mg4Cd19C
_chemical_formula_sum   'Ce6 Mg4 Cd19 C1'
_cell_volume   708.48097380
_cell_formula_units_Z   1
loop_
 _symmetry_equiv_pos_site_id
 _symmetry_equiv_pos_as_xyz
  1  'x, y, z'
loop_
 _atom_site_type_symbol
 _atom_site_label
 _atom_site_symmetry_multiplicity
 _atom_site_fract_x
 _atom_site_fract_y
 _atom_site_fract_z
 _atom_site_occupancy
  Ce  Ce0  1  0.817343  0.817343  0.182657  1
  Ce  Ce1  1  0.182657  0.817343  0.182657  1
  Ce  Ce2  1  0.817343  0.182657  0.182657  1
  Ce  Ce3  1  0.182657  0.182657  0.817343  1
  Ce  Ce4  1  0.817343  0.182657  0.817343  1
  Ce  Ce5  1  0.182657  0.817343  0.817343  1
  Mg  Mg6  1  0.379540  0.379540  0.861379  1
  Mg  Mg7  1  0.379540  0.861379  0.379540  1
  Mg  Mg8  1  0.861379  0.379540  0.379540  1
  Mg  Mg9  1  0.379540  0.379540  0.379540  1
  Cd  Cd10  1  0.830969  0.830969  0.507092  1
  Cd  Cd11  1  0.830969  0.507092  0.830969  1
  Cd  Cd12  1  0.507092  0.830969  0.830969  1
  Cd  Cd13  1  0.830969  0.830969  0.830969  1
  Cd  Cd14  1  0.169307  0.169307  0.492078  1
  Cd  Cd15  1  0.169307  0.492078  0.169307  1
  Cd  Cd16  1  0.492078  0.169307  0.169307  1
  Cd  Cd17  1  0.169307  0.169307  0.169307  1
  Cd  Cd18  1  0.618915  0.618915  0.143255  1
  Cd  Cd19  1  0.618915  0.143255  0.618915  1
  Cd  Cd20  1  0.143255  0.618915  0.618915  1
  Cd  Cd21  1  0.618915  0.618915  0.618915  1
  Cd  Cd22  1  0.000653  0.000653  0.499347  1
  Cd  Cd23  1  0.499347  0.000653  0.499347  1
  Cd  Cd24  1  0.000653  0.499347  0.499347  1
  Cd  Cd25  1  0.499347  0.499347  0.000653  1
  Cd  Cd26  1  0.000653  0.499347  0.000653  1
  Cd  Cd27  1  0.499347  0.000653  0.000653  1
  Cd  Cd28  1  0.500000  0.500000  0.500000  1
  C  C29  1  0.000000  0.000000  0.000000  1
