# generated using pymatgen
data_Ca12Tm7LuSi16
_symmetry_space_group_name_H-M   'P 1'
_cell_length_a   7.33737116
_cell_length_b   7.77047821
_cell_length_c   14.99455000
_cell_angle_alpha   90.00140097
_cell_angle_beta   89.98816973
_cell_angle_gamma   89.98668371
_symmetry_Int_Tables_number   1
_chemical_formula_structural   Ca12Tm7LuSi16
_chemical_formula_sum   'Ca12 Tm7 Lu1 Si16'
_cell_volume   854.91246790
_cell_formula_units_Z   1
loop_
 _symmetry_equiv_pos_site_id
 _symmetry_equiv_pos_as_xyz
  1  'x, y, z'
loop_
 _atom_site_type_symbol
 _atom_site_label
 _atom_site_symmetry_multiplicity
 _atom_site_fract_x
 _atom_site_fract_y
 _atom_site_fract_z
 _atom_site_occupancy
  Ca  Ca0  1  0.974523  0.817155  0.404574  1
  Ca  Ca1  1  0.474631  0.682882  0.095323  1
  Ca  Ca2  1  0.525485  0.317158  0.595481  1
  Ca  Ca3  1  0.025311  0.182729  0.904541  1
  Ca  Ca4  1  0.025413  0.182764  0.595508  1
  Ca  Ca5  1  0.525588  0.317127  0.904551  1
  Ca  Ca6  1  0.474486  0.682859  0.404563  1
  Ca  Ca7  1  0.974425  0.817181  0.095373  1
  Ca  Ca8  1  0.351770  0.019205  0.750082  1
  Ca  Ca9  1  0.851625  0.480821  0.750127  1
  Ca  Ca10  1  0.148299  0.519367  0.250001  1
  Ca  Ca11  1  0.648338  0.980642  0.249969  1
  Tm  Tm12  1  0.315068  0.176488  0.120999  1
  Tm  Tm13  1  0.814925  0.323447  0.378872  1
  Tm  Tm14  1  0.185054  0.676713  0.878836  1
  Tm  Tm15  1  0.685054  0.823405  0.621223  1
  Tm  Tm16  1  0.314921  0.176555  0.378869  1
  Tm  Tm17  1  0.814928  0.323449  0.121052  1
  Tm  Tm18  1  0.185120  0.676610  0.621214  1
  Lu  Lu19  1  0.685075  0.823553  0.878870  1
  Si  Si20  1  0.856633  0.534543  0.538165  1
  Si  Si21  1  0.357203  0.965164  0.961637  1
  Si  Si22  1  0.643384  0.034561  0.461874  1
  Si  Si23  1  0.143184  0.465637  0.038072  1
  Si  Si24  1  0.143408  0.465454  0.461865  1
  Si  Si25  1  0.643786  0.034214  0.037819  1
  Si  Si26  1  0.356556  0.965419  0.538139  1
  Si  Si27  1  0.855969  0.534929  0.961661  1
  Si  Si28  1  0.976556  0.878408  0.750297  1
  Si  Si29  1  0.477215  0.621794  0.750150  1
  Si  Si30  1  0.523088  0.378615  0.249968  1
  Si  Si31  1  0.023118  0.121383  0.249974  1
  Si  Si32  1  0.248660  0.397093  0.750072  1
  Si  Si33  1  0.748103  0.102719  0.750310  1
  Si  Si34  1  0.251578  0.896932  0.249978  1
  Si  Si35  1  0.751522  0.603027  0.249989  1
