# generated using pymatgen
data_Y3Sc3FeBi2
_symmetry_space_group_name_H-M   'P 1'
_cell_length_a   7.99678000
_cell_length_b   7.99678032
_cell_length_c   4.19018800
_cell_angle_alpha   90.00000000
_cell_angle_beta   90.00000000
_cell_angle_gamma   119.99999867
_symmetry_Int_Tables_number   1
_chemical_formula_structural   Y3Sc3FeBi2
_chemical_formula_sum   'Y3 Sc3 Fe1 Bi2'
_cell_volume   232.05688612
_cell_formula_units_Z   1
loop_
 _symmetry_equiv_pos_site_id
 _symmetry_equiv_pos_as_xyz
  1  'x, y, z'
loop_
 _atom_site_type_symbol
 _atom_site_label
 _atom_site_symmetry_multiplicity
 _atom_site_fract_x
 _atom_site_fract_y
 _atom_site_fract_z
 _atom_site_occupancy
  Y  Y0  1  0.611674  0.000000  0.000000  1
  Y  Y1  1  0.000000  0.611674  0.000000  1
  Y  Y2  1  0.388326  0.388326  0.000000  1
  Sc  Sc3  1  0.219992  0.000000  0.500000  1
  Sc  Sc4  1  0.000000  0.219992  0.500000  1
  Sc  Sc5  1  0.780008  0.780008  0.500000  1
  Fe  Fe6  1  0.000000  0.000000  0.000000  1
  Bi  Bi7  1  0.333333  0.666667  0.500000  1
  Bi  Bi8  1  0.666667  0.333333  0.500000  1
