# generated using pymatgen
data_Er2Be2AlRh5
_symmetry_space_group_name_H-M   'P 1'
_cell_length_a   9.59804900
_cell_length_b   9.59804900
_cell_length_c   3.20824600
_cell_angle_alpha   90.00000000
_cell_angle_beta   90.00000000
_cell_angle_gamma   90.00000000
_symmetry_Int_Tables_number   1
_chemical_formula_structural   Er2Be2AlRh5
_chemical_formula_sum   'Er4 Be4 Al2 Rh10'
_cell_volume   295.55178524
_cell_formula_units_Z   2
loop_
 _symmetry_equiv_pos_site_id
 _symmetry_equiv_pos_as_xyz
  1  'x, y, z'
loop_
 _atom_site_type_symbol
 _atom_site_label
 _atom_site_symmetry_multiplicity
 _atom_site_fract_x
 _atom_site_fract_y
 _atom_site_fract_z
 _atom_site_occupancy
  Er  Er0  1  0.823872  0.323872  0.000000  1
  Er  Er1  1  0.323872  0.176128  0.000000  1
  Er  Er2  1  0.676128  0.823872  0.000000  1
  Er  Er3  1  0.176128  0.676128  0.000000  1
  Be  Be4  1  0.622480  0.122480  0.000000  1
  Be  Be5  1  0.122480  0.377520  0.000000  1
  Be  Be6  1  0.877520  0.622480  0.000000  1
  Be  Be7  1  0.377520  0.877520  0.000000  1
  Al  Al8  1  0.000000  0.000000  0.000000  1
  Al  Al9  1  0.500000  0.500000  0.000000  1
  Rh  Rh10  1  0.067212  0.209925  0.500000  1
  Rh  Rh11  1  0.209925  0.932788  0.500000  1
  Rh  Rh12  1  0.790075  0.067212  0.500000  1
  Rh  Rh13  1  0.932788  0.790075  0.500000  1
  Rh  Rh14  1  0.432788  0.709925  0.500000  1
  Rh  Rh15  1  0.567212  0.290075  0.500000  1
  Rh  Rh16  1  0.709925  0.567212  0.500000  1
  Rh  Rh17  1  0.290075  0.432788  0.500000  1
  Rh  Rh18  1  0.500000  0.000000  0.500000  1
  Rh  Rh19  1  0.000000  0.500000  0.500000  1
