# generated using pymatgen
data_Hf9Re3PW
_symmetry_space_group_name_H-M   'P 1'
_cell_length_a   8.59772100
_cell_length_b   8.59772092
_cell_length_c   8.58692100
_cell_angle_alpha   90.00000000
_cell_angle_beta   90.00000000
_cell_angle_gamma   119.99999645
_symmetry_Int_Tables_number   1
_chemical_formula_structural   Hf9Re3PW
_chemical_formula_sum   'Hf18 Re6 P2 W2'
_cell_volume   549.71147987
_cell_formula_units_Z   2
loop_
 _symmetry_equiv_pos_site_id
 _symmetry_equiv_pos_as_xyz
  1  'x, y, z'
loop_
 _atom_site_type_symbol
 _atom_site_label
 _atom_site_symmetry_multiplicity
 _atom_site_fract_x
 _atom_site_fract_y
 _atom_site_fract_z
 _atom_site_occupancy
  Hf  Hf0  1  0.196739  0.803261  0.451715  1
  Hf  Hf1  1  0.196739  0.393476  0.451715  1
  Hf  Hf2  1  0.606524  0.803261  0.451715  1
  Hf  Hf3  1  0.803261  0.196739  0.548285  1
  Hf  Hf4  1  0.803261  0.606524  0.548285  1
  Hf  Hf5  1  0.393476  0.196739  0.548285  1
  Hf  Hf6  1  0.803261  0.196739  0.951715  1
  Hf  Hf7  1  0.803261  0.606524  0.951715  1
  Hf  Hf8  1  0.393476  0.196739  0.951715  1
  Hf  Hf9  1  0.196739  0.803261  0.048285  1
  Hf  Hf10  1  0.196739  0.393476  0.048285  1
  Hf  Hf11  1  0.606524  0.803261  0.048285  1
  Hf  Hf12  1  0.539421  0.460579  0.250000  1
  Hf  Hf13  1  0.539421  0.078841  0.250000  1
  Hf  Hf14  1  0.921159  0.460579  0.250000  1
  Hf  Hf15  1  0.460579  0.539421  0.750000  1
  Hf  Hf16  1  0.460579  0.921159  0.750000  1
  Hf  Hf17  1  0.078841  0.539421  0.750000  1
  Re  Re18  1  0.889595  0.110405  0.250000  1
  Re  Re19  1  0.889595  0.779190  0.250000  1
  Re  Re20  1  0.220810  0.110405  0.250000  1
  Re  Re21  1  0.110405  0.889595  0.750000  1
  Re  Re22  1  0.110405  0.220810  0.750000  1
  Re  Re23  1  0.779190  0.889595  0.750000  1
  P  P24  1  0.333333  0.666667  0.250000  1
  P  P25  1  0.666667  0.333333  0.750000  1
  W  W26  1  0.000000  0.000000  0.500000  1
  W  W27  1  0.000000  0.000000  0.000000  1
