# generated using pymatgen
data_Er4Sc4Tc(B8Ir)3
_symmetry_space_group_name_H-M   'P 1'
_cell_length_a   3.55181800
_cell_length_b   8.96991822
_cell_length_c   11.34491226
_cell_angle_alpha   90.05509936
_cell_angle_beta   90.00000000
_cell_angle_gamma   90.00000000
_symmetry_Int_Tables_number   1
_chemical_formula_structural   Er4Sc4Tc(B8Ir)3
_chemical_formula_sum   'Er4 Sc4 Tc1 B24 Ir3'
_cell_volume   361.44325775
_cell_formula_units_Z   1
loop_
 _symmetry_equiv_pos_site_id
 _symmetry_equiv_pos_as_xyz
  1  'x, y, z'
loop_
 _atom_site_type_symbol
 _atom_site_label
 _atom_site_symmetry_multiplicity
 _atom_site_fract_x
 _atom_site_fract_y
 _atom_site_fract_z
 _atom_site_occupancy
  Er  Er0  1  0.500000  0.315937  0.410288  1
  Er  Er1  1  0.500000  0.680933  0.586224  1
  Er  Er2  1  0.500000  0.180716  0.916914  1
  Er  Er3  1  0.500000  0.822261  0.087390  1
  Sc  Sc4  1  0.500000  0.440901  0.123949  1
  Sc  Sc5  1  0.500000  0.555943  0.876188  1
  Sc  Sc6  1  0.500000  0.055545  0.624349  1
  Sc  Sc7  1  0.500000  0.947727  0.374014  1
  Tc  Tc8  1  0.500000  0.139559  0.180977  1
  B  B9  1  0.000000  0.100166  0.473345  1
  B  B10  1  0.000000  0.899311  0.527730  1
  B  B11  1  0.000000  0.400141  0.972119  1
  B  B12  1  0.000000  0.601515  0.027250  1
  B  B13  1  0.000000  0.128953  0.316718  1
  B  B14  1  0.000000  0.870505  0.681508  1
  B  B15  1  0.000000  0.371349  0.818596  1
  B  B16  1  0.000000  0.629103  0.182132  1
  B  B17  1  0.000000  0.054102  0.066417  1
  B  B18  1  0.000000  0.945936  0.934072  1
  B  B19  1  0.000000  0.445073  0.565439  1
  B  B20  1  0.000000  0.553724  0.433941  1
  B  B21  1  0.000000  0.480584  0.285462  1
  B  B22  1  0.000000  0.519593  0.714684  1
  B  B23  1  0.000000  0.019714  0.785436  1
  B  B24  1  0.000000  0.980625  0.214304  1
  B  B25  1  0.000000  0.253174  0.080803  1
  B  B26  1  0.000000  0.746550  0.920563  1
  B  B27  1  0.000000  0.245743  0.579579  1
  B  B28  1  0.000000  0.753981  0.420096  1
  B  B29  1  0.000000  0.294400  0.234410  1
  B  B30  1  0.000000  0.705412  0.764438  1
  B  B31  1  0.000000  0.206020  0.735758  1
  B  B32  1  0.000000  0.794330  0.265619  1
  Ir  Ir33  1  0.500000  0.860625  0.819499  1
  Ir  Ir34  1  0.500000  0.360274  0.680106  1
  Ir  Ir35  1  0.500000  0.639578  0.319679  1
