# generated using pymatgen
data_SmDy2BiO7
_symmetry_space_group_name_H-M   'P 1'
_cell_length_a   6.59617751
_cell_length_b   6.59617679
_cell_length_c   7.73895800
_cell_angle_alpha   90.00000000
_cell_angle_beta   90.00000000
_cell_angle_gamma   109.42457250
_symmetry_Int_Tables_number   1
_chemical_formula_structural   SmDy2BiO7
_chemical_formula_sum   'Sm2 Dy4 Bi2 O14'
_cell_volume   317.55261965
_cell_formula_units_Z   2
loop_
 _symmetry_equiv_pos_site_id
 _symmetry_equiv_pos_as_xyz
  1  'x, y, z'
loop_
 _atom_site_type_symbol
 _atom_site_label
 _atom_site_symmetry_multiplicity
 _atom_site_fract_x
 _atom_site_fract_y
 _atom_site_fract_z
 _atom_site_occupancy
  Sm  Sm0  1  0.500000  0.500000  0.500000  1
  Sm  Sm1  1  0.500000  0.500000  0.000000  1
  Dy  Dy2  1  0.530843  0.002331  0.750000  1
  Dy  Dy3  1  0.002331  0.530843  0.250000  1
  Dy  Dy4  1  0.469157  0.997669  0.250000  1
  Dy  Dy5  1  0.997669  0.469157  0.750000  1
  Bi  Bi6  1  0.000000  0.000000  0.500000  1
  Bi  Bi7  1  0.000000  0.000000  0.000000  1
  O  O8  1  0.663816  0.919771  0.470448  1
  O  O9  1  0.919771  0.663816  0.529552  1
  O  O10  1  0.663816  0.919771  0.029552  1
  O  O11  1  0.919771  0.663816  0.970448  1
  O  O12  1  0.336184  0.080229  0.529552  1
  O  O13  1  0.080229  0.336184  0.470448  1
  O  O14  1  0.336184  0.080229  0.970448  1
  O  O15  1  0.080229  0.336184  0.029552  1
  O  O16  1  0.914558  0.085442  0.750000  1
  O  O17  1  0.085442  0.914558  0.250000  1
  O  O18  1  0.365161  0.634839  0.750000  1
  O  O19  1  0.634839  0.365161  0.250000  1
  O  O20  1  0.639861  0.360139  0.750000  1
  O  O21  1  0.360139  0.639861  0.250000  1
