# generated using pymatgen
data_TbDy4Bi3S
_symmetry_space_group_name_H-M   'P 1'
_cell_length_a   9.20548925
_cell_length_b   9.20549036
_cell_length_c   6.57022000
_cell_angle_alpha   90.00000000
_cell_angle_beta   90.00000000
_cell_angle_gamma   120.02644356
_symmetry_Int_Tables_number   1
_chemical_formula_structural   TbDy4Bi3S
_chemical_formula_sum   'Tb2 Dy8 Bi6 S2'
_cell_volume   482.04608603
_cell_formula_units_Z   2
loop_
 _symmetry_equiv_pos_site_id
 _symmetry_equiv_pos_as_xyz
  1  'x, y, z'
loop_
 _atom_site_type_symbol
 _atom_site_label
 _atom_site_symmetry_multiplicity
 _atom_site_fract_x
 _atom_site_fract_y
 _atom_site_fract_z
 _atom_site_occupancy
  Tb  Tb0  1  0.753642  0.000006  0.750000  1
  Tb  Tb1  1  0.000006  0.753642  0.750000  1
  Dy  Dy2  1  0.666653  0.333323  0.499979  1
  Dy  Dy3  1  0.333323  0.666653  0.499979  1
  Dy  Dy4  1  0.333323  0.666653  0.000021  1
  Dy  Dy5  1  0.666653  0.333323  0.000021  1
  Dy  Dy6  1  0.753939  0.753939  0.250000  1
  Dy  Dy7  1  0.246052  0.000042  0.250000  1
  Dy  Dy8  1  0.000042  0.246052  0.250000  1
  Dy  Dy9  1  0.245913  0.245913  0.750000  1
  Bi  Bi10  1  0.396629  0.396629  0.250000  1
  Bi  Bi11  1  0.603349  0.999955  0.250000  1
  Bi  Bi12  1  0.999955  0.603349  0.250000  1
  Bi  Bi13  1  0.602968  0.602968  0.750000  1
  Bi  Bi14  1  0.396670  0.000253  0.750000  1
  Bi  Bi15  1  0.000253  0.396670  0.750000  1
  S  S16  1  0.000315  0.000315  0.499430  1
  S  S17  1  0.000315  0.000315  0.000570  1
