# generated using pymatgen
data_Sm4YHo3(B6Os)4
_symmetry_space_group_name_H-M   'P 1'
_cell_length_a   3.68217200
_cell_length_b   9.20137902
_cell_length_c   11.60857403
_cell_angle_alpha   90.00822606
_cell_angle_beta   90.00000000
_cell_angle_gamma   90.00000000
_symmetry_Int_Tables_number   1
_chemical_formula_structural   Sm4YHo3(B6Os)4
_chemical_formula_sum   'Sm4 Y1 Ho3 B24 Os4'
_cell_volume   393.31079152
_cell_formula_units_Z   1
loop_
 _symmetry_equiv_pos_site_id
 _symmetry_equiv_pos_as_xyz
  1  'x, y, z'
loop_
 _atom_site_type_symbol
 _atom_site_label
 _atom_site_symmetry_multiplicity
 _atom_site_fract_x
 _atom_site_fract_y
 _atom_site_fract_z
 _atom_site_occupancy
  Sm  Sm0  1  0.000000  0.322499  0.414123  1
  Sm  Sm1  1  0.000000  0.677514  0.585979  1
  Sm  Sm2  1  0.000000  0.822344  0.085816  1
  Sm  Sm3  1  0.000000  0.177644  0.914105  1
  Y  Y4  1  0.000000  0.944221  0.372819  1
  Ho  Ho5  1  0.000000  0.055978  0.627644  1
  Ho  Ho6  1  0.000000  0.444107  0.127395  1
  Ho  Ho7  1  0.000000  0.555877  0.872552  1
  B  B8  1  0.500000  0.555138  0.431556  1
  B  B9  1  0.500000  0.444758  0.568491  1
  B  B10  1  0.500000  0.055229  0.068389  1
  B  B11  1  0.500000  0.944774  0.931516  1
  B  B12  1  0.500000  0.748484  0.418397  1
  B  B13  1  0.500000  0.251125  0.581699  1
  B  B14  1  0.500000  0.248966  0.081631  1
  B  B15  1  0.500000  0.751084  0.918319  1
  B  B16  1  0.500000  0.790381  0.266589  1
  B  B17  1  0.500000  0.209311  0.733250  1
  B  B18  1  0.500000  0.290827  0.233204  1
  B  B19  1  0.500000  0.709282  0.766776  1
  B  B20  1  0.500000  0.631045  0.185249  1
  B  B21  1  0.500000  0.368879  0.814684  1
  B  B22  1  0.500000  0.131499  0.314541  1
  B  B23  1  0.500000  0.868852  0.685367  1
  B  B24  1  0.500000  0.984854  0.213415  1
  B  B25  1  0.500000  0.015282  0.786281  1
  B  B26  1  0.500000  0.484631  0.286230  1
  B  B27  1  0.500000  0.515287  0.713737  1
  B  B28  1  0.500000  0.604676  0.028774  1
  B  B29  1  0.500000  0.395321  0.971189  1
  B  B30  1  0.500000  0.105203  0.471417  1
  B  B31  1  0.500000  0.895083  0.529195  1
  Os  Os32  1  0.000000  0.637976  0.320208  1
  Os  Os33  1  0.000000  0.361573  0.679759  1
  Os  Os34  1  0.000000  0.138758  0.179429  1
  Os  Os35  1  0.000000  0.861537  0.820274  1
