# generated using pymatgen
data_Ce2(Ga3Ni)3
_symmetry_space_group_name_H-M   'P 1'
_cell_length_a   7.48235739
_cell_length_b   7.48235798
_cell_length_c   9.68611300
_cell_angle_alpha   90.00000000
_cell_angle_beta   90.00000000
_cell_angle_gamma   119.76317191
_symmetry_Int_Tables_number   1
_chemical_formula_structural   Ce2(Ga3Ni)3
_chemical_formula_sum   'Ce4 Ga18 Ni6'
_cell_volume   470.74809428
_cell_formula_units_Z   2
loop_
 _symmetry_equiv_pos_site_id
 _symmetry_equiv_pos_as_xyz
  1  'x, y, z'
loop_
 _atom_site_type_symbol
 _atom_site_label
 _atom_site_symmetry_multiplicity
 _atom_site_fract_x
 _atom_site_fract_y
 _atom_site_fract_z
 _atom_site_occupancy
  Ce  Ce0  1  0.999820  0.667895  0.250000  1
  Ce  Ce1  1  0.000180  0.332105  0.750000  1
  Ce  Ce2  1  0.667895  0.999820  0.250000  1
  Ce  Ce3  1  0.332105  0.000180  0.750000  1
  Ga  Ga4  1  0.125758  0.125758  0.250000  1
  Ga  Ga5  1  0.874242  0.874242  0.750000  1
  Ga  Ga6  1  0.001560  0.333712  0.069604  1
  Ga  Ga7  1  0.998440  0.666288  0.930396  1
  Ga  Ga8  1  0.998440  0.666288  0.569604  1
  Ga  Ga9  1  0.333712  0.001560  0.430396  1
  Ga  Ga10  1  0.001560  0.333712  0.430396  1
  Ga  Ga11  1  0.666288  0.998440  0.569604  1
  Ga  Ga12  1  0.666288  0.998440  0.930396  1
  Ga  Ga13  1  0.333712  0.001560  0.069604  1
  Ga  Ga14  1  0.333755  0.333755  0.559109  1
  Ga  Ga15  1  0.666245  0.666245  0.440891  1
  Ga  Ga16  1  0.666245  0.666245  0.059109  1
  Ga  Ga17  1  0.333755  0.333755  0.940891  1
  Ga  Ga18  1  0.337375  0.545712  0.250000  1
  Ga  Ga19  1  0.662625  0.454288  0.750000  1
  Ga  Ga20  1  0.545712  0.337375  0.250000  1
  Ga  Ga21  1  0.454288  0.662625  0.750000  1
  Ni  Ni22  1  0.668441  0.331559  0.000000  1
  Ni  Ni23  1  0.331559  0.668441  0.000000  1
  Ni  Ni24  1  0.331559  0.668441  0.500000  1
  Ni  Ni25  1  0.668441  0.331559  0.500000  1
  Ni  Ni26  1  0.000000  0.000000  0.000000  1
  Ni  Ni27  1  0.000000  0.000000  0.500000  1
