# generated using pymatgen
data_La2P7(Rh3W)3
_symmetry_space_group_name_H-M   'P 1'
_cell_length_a   9.61319800
_cell_length_b   9.61319914
_cell_length_c   3.98757400
_cell_angle_alpha   90.00000000
_cell_angle_beta   90.00000000
_cell_angle_gamma   119.99999607
_symmetry_Int_Tables_number   1
_chemical_formula_structural   La2P7(Rh3W)3
_chemical_formula_sum   'La2 P7 Rh9 W3'
_cell_volume   319.13558386
_cell_formula_units_Z   1
loop_
 _symmetry_equiv_pos_site_id
 _symmetry_equiv_pos_as_xyz
  1  'x, y, z'
loop_
 _atom_site_type_symbol
 _atom_site_label
 _atom_site_symmetry_multiplicity
 _atom_site_fract_x
 _atom_site_fract_y
 _atom_site_fract_z
 _atom_site_occupancy
  La  La0  1  0.000000  0.000000  0.763589  1
  La  La1  1  0.333333  0.666667  0.263743  1
  P  P2  1  0.666667  0.333333  0.263922  1
  P  P3  1  0.069197  0.623680  0.763860  1
  P  P4  1  0.376320  0.445518  0.763860  1
  P  P5  1  0.554482  0.930803  0.763860  1
  P  P6  1  0.256898  0.036861  0.263668  1
  P  P7  1  0.963139  0.220037  0.263668  1
  P  P8  1  0.779963  0.743102  0.263668  1
  Rh  Rh9  1  0.508833  0.062550  0.263877  1
  Rh  Rh10  1  0.937450  0.446283  0.263877  1
  Rh  Rh11  1  0.553717  0.491167  0.263877  1
  Rh  Rh12  1  0.101000  0.381570  0.763821  1
  Rh  Rh13  1  0.618430  0.719431  0.763821  1
  Rh  Rh14  1  0.280569  0.899000  0.763821  1
  Rh  Rh15  1  0.233537  0.267370  0.263804  1
  Rh  Rh16  1  0.732630  0.966167  0.263804  1
  Rh  Rh17  1  0.033833  0.766463  0.263804  1
  W  W18  1  0.793252  0.549285  0.763865  1
  W  W19  1  0.450715  0.243968  0.763865  1
  W  W20  1  0.756032  0.206748  0.763865  1
