# generated using pymatgen
data_Np3IF24
_symmetry_space_group_name_H-M   'P 1'
_cell_length_a   5.58279500
_cell_length_b   9.62244600
_cell_length_c   10.61207804
_cell_angle_alpha   90.00000000
_cell_angle_beta   89.99645883
_cell_angle_gamma   90.00000000
_symmetry_Int_Tables_number   1
_chemical_formula_structural   Np3IF24
_chemical_formula_sum   'Np3 I1 F24'
_cell_volume   570.08235335
_cell_formula_units_Z   1
loop_
 _symmetry_equiv_pos_site_id
 _symmetry_equiv_pos_as_xyz
  1  'x, y, z'
loop_
 _atom_site_type_symbol
 _atom_site_label
 _atom_site_symmetry_multiplicity
 _atom_site_fract_x
 _atom_site_fract_y
 _atom_site_fract_z
 _atom_site_occupancy
  Np  Np0  1  0.067915  0.250000  0.865944  1
  Np  Np1  1  0.568189  0.750000  0.633875  1
  Np  Np2  1  0.932375  0.750000  0.133533  1
  I  I3  1  0.432142  0.250000  0.366304  1
  F  F4  1  0.202717  0.750000  0.008646  1
  F  F5  1  0.398835  0.897626  0.733636  1
  F  F6  1  0.100776  0.602413  0.233668  1
  F  F7  1  0.297803  0.750000  0.509059  1
  F  F8  1  0.662372  0.750000  0.259323  1
  F  F9  1  0.898838  0.397559  0.765943  1
  F  F10  1  0.174649  0.250000  0.245718  1
  F  F11  1  0.398835  0.602374  0.733636  1
  F  F12  1  0.837840  0.750000  0.759658  1
  F  F13  1  0.269807  0.109062  0.462152  1
  F  F14  1  0.593964  0.391131  0.270520  1
  F  F15  1  0.737343  0.897233  0.533818  1
  F  F16  1  0.338104  0.250000  0.740686  1
  F  F17  1  0.100776  0.897587  0.233668  1
  F  F18  1  0.269807  0.390938  0.462152  1
  F  F19  1  0.236377  0.102606  0.966366  1
  F  F20  1  0.689583  0.250000  0.486340  1
  F  F21  1  0.798262  0.250000  0.991287  1
  F  F22  1  0.898838  0.102441  0.765943  1
  F  F23  1  0.236377  0.397394  0.966366  1
  F  F24  1  0.763083  0.602335  0.033713  1
  F  F25  1  0.763083  0.897665  0.033713  1
  F  F26  1  0.737343  0.602767  0.533818  1
  F  F27  1  0.593964  0.108869  0.270520  1
