# generated using pymatgen
data_TbSm4(TcO6)2
_symmetry_space_group_name_H-M   'P 1'
_cell_length_a   6.95208028
_cell_length_b   6.95207898
_cell_length_c   7.67668944
_cell_angle_alpha   73.70644956
_cell_angle_beta   73.70645104
_cell_angle_gamma   48.81652102
_symmetry_Int_Tables_number   1
_chemical_formula_structural   TbSm4(TcO6)2
_chemical_formula_sum   'Tb1 Sm4 Tc2 O12'
_cell_volume   265.65214455
_cell_formula_units_Z   1
loop_
 _symmetry_equiv_pos_site_id
 _symmetry_equiv_pos_as_xyz
  1  'x, y, z'
loop_
 _atom_site_type_symbol
 _atom_site_label
 _atom_site_symmetry_multiplicity
 _atom_site_fract_x
 _atom_site_fract_y
 _atom_site_fract_z
 _atom_site_occupancy
  Tb  Tb0  1  0.000000  0.000000  0.500000  1
  Sm  Sm1  1  0.693988  0.693988  0.643648  1
  Sm  Sm2  1  0.306012  0.306012  0.356352  1
  Sm  Sm3  1  0.683786  0.683786  0.174176  1
  Sm  Sm4  1  0.316214  0.316214  0.825824  1
  Tc  Tc5  1  0.787200  0.212800  0.000000  1
  Tc  Tc6  1  0.212800  0.787200  0.000000  1
  O  O7  1  0.000671  0.000671  0.202269  1
  O  O8  1  0.999329  0.999329  0.797731  1
  O  O9  1  0.589339  0.086785  0.081748  1
  O  O10  1  0.410661  0.913215  0.918252  1
  O  O11  1  0.913215  0.410661  0.918252  1
  O  O12  1  0.086785  0.589339  0.081748  1
  O  O13  1  0.498573  0.498573  0.172069  1
  O  O14  1  0.501427  0.501427  0.827931  1
  O  O15  1  0.401810  0.902501  0.426399  1
  O  O16  1  0.598190  0.097499  0.573601  1
  O  O17  1  0.097499  0.598190  0.573601  1
  O  O18  1  0.902501  0.401810  0.426399  1
