# generated using pymatgen
data_Nd16Er4Pt7Rh5
_symmetry_space_group_name_H-M   'P 1'
_cell_length_a   11.34625281
_cell_length_b   11.34625213
_cell_length_c   6.46963800
_cell_angle_alpha   90.03236387
_cell_angle_beta   90.03236387
_cell_angle_gamma   90.01356050
_symmetry_Int_Tables_number   1
_chemical_formula_structural   Nd16Er4Pt7Rh5
_chemical_formula_sum   'Nd16 Er4 Pt7 Rh5'
_cell_volume   832.88437771
_cell_formula_units_Z   1
loop_
 _symmetry_equiv_pos_site_id
 _symmetry_equiv_pos_as_xyz
  1  'x, y, z'
loop_
 _atom_site_type_symbol
 _atom_site_label
 _atom_site_symmetry_multiplicity
 _atom_site_fract_x
 _atom_site_fract_y
 _atom_site_fract_z
 _atom_site_occupancy
  Nd  Nd0  1  0.291554  0.087295  0.376170  1
  Nd  Nd1  1  0.291630  0.909495  0.877077  1
  Nd  Nd2  1  0.708564  0.087583  0.876618  1
  Nd  Nd3  1  0.708348  0.912038  0.376324  1
  Nd  Nd4  1  0.585410  0.789982  0.876184  1
  Nd  Nd5  1  0.587809  0.209476  0.376959  1
  Nd  Nd6  1  0.410523  0.789133  0.381130  1
  Nd  Nd7  1  0.412049  0.208201  0.876908  1
  Nd  Nd8  1  0.210018  0.414590  0.623816  1
  Nd  Nd9  1  0.210867  0.589477  0.118870  1
  Nd  Nd10  1  0.790524  0.412191  0.123041  1
  Nd  Nd11  1  0.791799  0.587951  0.623092  1
  Nd  Nd12  1  0.912705  0.708446  0.123830  1
  Nd  Nd13  1  0.912417  0.291436  0.623382  1
  Nd  Nd14  1  0.090505  0.708370  0.622923  1
  Nd  Nd15  1  0.087962  0.291652  0.123676  1
  Er  Er16  1  0.999892  0.999678  0.500524  1
  Er  Er17  1  0.000322  0.000108  0.999476  1
  Er  Er18  1  0.498490  0.500920  0.999608  1
  Er  Er19  1  0.499080  0.501510  0.500392  1
  Pt  Pt20  1  0.852643  0.147357  0.250000  1
  Pt  Pt21  1  0.852295  0.852442  0.750084  1
  Pt  Pt22  1  0.147558  0.147705  0.749916  1
  Pt  Pt23  1  0.147164  0.852836  0.250000  1
  Pt  Pt24  1  0.647307  0.352693  0.750000  1
  Pt  Pt25  1  0.648163  0.647996  0.250040  1
  Pt  Pt26  1  0.352004  0.351837  0.249960  1
  Rh  Rh27  1  0.352922  0.647078  0.750000  1
  Rh  Rh28  1  0.500190  0.000147  0.118354  1
  Rh  Rh29  1  0.500062  0.000628  0.617378  1
  Rh  Rh30  1  0.999372  0.499938  0.882622  1
  Rh  Rh31  1  0.999853  0.499810  0.381646  1
