# generated using pymatgen
data_Hf3ScCo16(NiP3)4
_symmetry_space_group_name_H-M   'P 1'
_cell_length_a   3.60085400
_cell_length_b   10.10586731
_cell_length_c   11.69739886
_cell_angle_alpha   90.13552406
_cell_angle_beta   90.00000000
_cell_angle_gamma   90.00000000
_symmetry_Int_Tables_number   1
_chemical_formula_structural   Hf3ScCo16(NiP3)4
_chemical_formula_sum   'Hf3 Sc1 Co16 Ni4 P12'
_cell_volume   425.66426128
_cell_formula_units_Z   1
loop_
 _symmetry_equiv_pos_site_id
 _symmetry_equiv_pos_as_xyz
  1  'x, y, z'
loop_
 _atom_site_type_symbol
 _atom_site_label
 _atom_site_symmetry_multiplicity
 _atom_site_fract_x
 _atom_site_fract_y
 _atom_site_fract_z
 _atom_site_occupancy
  Hf  Hf0  1  0.250000  0.578295  0.701574  1
  Hf  Hf1  1  0.250000  0.922075  0.201994  1
  Hf  Hf2  1  0.750000  0.421877  0.298194  1
  Sc  Sc3  1  0.750000  0.078612  0.798044  1
  Co  Co4  1  0.250000  0.409836  0.481634  1
  Co  Co5  1  0.250000  0.090795  0.984328  1
  Co  Co6  1  0.750000  0.590766  0.518120  1
  Co  Co7  1  0.750000  0.907865  0.019112  1
  Co  Co8  1  0.250000  0.225308  0.178162  1
  Co  Co9  1  0.250000  0.276821  0.676564  1
  Co  Co10  1  0.750000  0.775013  0.823127  1
  Co  Co11  1  0.750000  0.724893  0.322246  1
  Co  Co12  1  0.250000  0.879283  0.700303  1
  Co  Co13  1  0.250000  0.618379  0.201521  1
  Co  Co14  1  0.750000  0.118597  0.298442  1
  Co  Co15  1  0.750000  0.382334  0.798438  1
  Co  Co16  1  0.250000  0.465713  0.930838  1
  Co  Co17  1  0.250000  0.034597  0.430832  1
  Co  Co18  1  0.750000  0.533868  0.069151  1
  Co  Co19  1  0.750000  0.965037  0.568321  1
  Ni  Ni20  1  0.250000  0.717159  0.993654  1
  Ni  Ni21  1  0.250000  0.783401  0.492488  1
  Ni  Ni22  1  0.750000  0.283343  0.005914  1
  Ni  Ni23  1  0.750000  0.216310  0.507210  1
  P  P24  1  0.250000  0.421480  0.115746  1
  P  P25  1  0.250000  0.077666  0.616423  1
  P  P26  1  0.750000  0.578287  0.884249  1
  P  P27  1  0.750000  0.922162  0.383963  1
  P  P28  1  0.250000  0.263954  0.865950  1
  P  P29  1  0.250000  0.235373  0.366555  1
  P  P30  1  0.750000  0.734986  0.133735  1
  P  P31  1  0.750000  0.764960  0.634048  1
  P  P32  1  0.250000  0.600825  0.389620  1
  P  P33  1  0.250000  0.900057  0.889513  1
  P  P34  1  0.750000  0.399219  0.610204  1
  P  P35  1  0.750000  0.100858  0.109787  1
