# generated using pymatgen
data_MgZnNi4(MoO4)6
_symmetry_space_group_name_H-M   'P 1'
_cell_length_a   7.00274347
_cell_length_b   8.42626670
_cell_length_c   9.75424448
_cell_angle_alpha   96.16543158
_cell_angle_beta   107.02653472
_cell_angle_gamma   101.67665979
_symmetry_Int_Tables_number   1
_chemical_formula_structural   MgZnNi4(MoO4)6
_chemical_formula_sum   'Mg1 Zn1 Ni4 Mo6 O24'
_cell_volume   530.34650186
_cell_formula_units_Z   1
loop_
 _symmetry_equiv_pos_site_id
 _symmetry_equiv_pos_as_xyz
  1  'x, y, z'
loop_
 _atom_site_type_symbol
 _atom_site_label
 _atom_site_symmetry_multiplicity
 _atom_site_fract_x
 _atom_site_fract_y
 _atom_site_fract_z
 _atom_site_occupancy
  Mg  Mg0  1  0.964783  0.886372  0.713194  1
  Zn  Zn1  1  0.033193  0.111982  0.288656  1
  Ni  Ni2  1  0.253100  0.699734  0.908477  1
  Ni  Ni3  1  0.746651  0.299956  0.091518  1
  Ni  Ni4  1  0.538398  0.691323  0.493476  1
  Ni  Ni5  1  0.462501  0.308817  0.507026  1
  Mo  Mo6  1  0.505060  0.992230  0.755284  1
  Mo  Mo7  1  0.494386  0.006760  0.244206  1
  Mo  Mo8  1  0.699398  0.601435  0.842107  1
  Mo  Mo9  1  0.300253  0.397895  0.158509  1
  Mo  Mo10  1  0.977781  0.699020  0.375152  1
  Mo  Mo11  1  0.022623  0.301875  0.624519  1
  O  O12  1  0.261542  0.868723  0.761780  1
  O  O13  1  0.736757  0.132654  0.237284  1
  O  O14  1  0.555867  0.708780  0.925229  1
  O  O15  1  0.443807  0.291308  0.074859  1
  O  O16  1  0.554846  0.524561  0.648927  1
  O  O17  1  0.445445  0.475754  0.351351  1
  O  O18  1  0.550293  0.859472  0.355480  1
  O  O19  1  0.450633  0.139957  0.644331  1
  O  O20  1  0.659652  0.096512  0.930653  1
  O  O21  1  0.338721  0.902952  0.068747  1
  O  O22  1  0.653212  0.867734  0.681195  1
  O  O23  1  0.349863  0.133032  0.319800  1
  O  O24  1  0.023496  0.127693  0.714905  1
  O  O25  1  0.975964  0.872448  0.282574  1
  O  O26  1  0.046577  0.265742  0.138749  1
  O  O27  1  0.952361  0.732756  0.861283  1
  O  O28  1  0.151266  0.486776  0.752848  1
  O  O29  1  0.848826  0.513779  0.247511  1
  O  O30  1  0.145940  0.276235  0.482447  1
  O  O31  1  0.857167  0.726147  0.517949  1
  O  O32  1  0.254466  0.564079  0.069890  1
  O  O33  1  0.744886  0.434904  0.930316  1
  O  O34  1  0.238045  0.697606  0.462952  1
  O  O35  1  0.762242  0.302995  0.536815  1
