# generated using pymatgen
data_Ho5InSn2Cl
_symmetry_space_group_name_H-M   'P 1'
_cell_length_a   9.11175500
_cell_length_b   9.11175444
_cell_length_c   6.61477500
_cell_angle_alpha   90.00000000
_cell_angle_beta   90.00000000
_cell_angle_gamma   120.10397810
_symmetry_Int_Tables_number   1
_chemical_formula_structural   Ho5InSn2Cl
_chemical_formula_sum   'Ho10 In2 Sn4 Cl2'
_cell_volume   475.10955147
_cell_formula_units_Z   2
loop_
 _symmetry_equiv_pos_site_id
 _symmetry_equiv_pos_as_xyz
  1  'x, y, z'
loop_
 _atom_site_type_symbol
 _atom_site_label
 _atom_site_symmetry_multiplicity
 _atom_site_fract_x
 _atom_site_fract_y
 _atom_site_fract_z
 _atom_site_occupancy
  Ho  Ho0  1  0.259661  0.261019  0.750000  1
  Ho  Ho1  1  0.000031  0.739547  0.750000  1
  Ho  Ho2  1  0.740213  0.001281  0.750000  1
  Ho  Ho3  1  0.998719  0.259787  0.250000  1
  Ho  Ho4  1  0.333322  0.666678  0.500000  1
  Ho  Ho5  1  0.738981  0.740339  0.250000  1
  Ho  Ho6  1  0.667384  0.332616  0.500000  1
  Ho  Ho7  1  0.260453  0.999969  0.250000  1
  Ho  Ho8  1  0.333322  0.666678  0.000000  1
  Ho  Ho9  1  0.667384  0.332616  0.000000  1
  In  In10  1  0.608157  0.999440  0.250000  1
  In  In11  1  0.000560  0.391843  0.750000  1
  Sn  Sn12  1  0.391173  0.000133  0.750000  1
  Sn  Sn13  1  0.609503  0.609215  0.750000  1
  Sn  Sn14  1  0.999867  0.608827  0.250000  1
  Sn  Sn15  1  0.390785  0.390497  0.250000  1
  Cl  Cl16  1  0.000244  0.999756  0.000000  1
  Cl  Cl17  1  0.000244  0.999756  0.500000  1
