# generated using pymatgen
data_Ho9Tm4Lu7Sn16
_symmetry_space_group_name_H-M   'P 1'
_cell_length_a   7.95529901
_cell_length_b   8.08557683
_cell_length_c   15.29235900
_cell_angle_alpha   90.03148386
_cell_angle_beta   89.99783934
_cell_angle_gamma   90.07327930
_symmetry_Int_Tables_number   1
_chemical_formula_structural   Ho9Tm4Lu7Sn16
_chemical_formula_sum   'Ho9 Tm4 Lu7 Sn16'
_cell_volume   983.65222744
_cell_formula_units_Z   1
loop_
 _symmetry_equiv_pos_site_id
 _symmetry_equiv_pos_as_xyz
  1  'x, y, z'
loop_
 _atom_site_type_symbol
 _atom_site_label
 _atom_site_symmetry_multiplicity
 _atom_site_fract_x
 _atom_site_fract_y
 _atom_site_fract_z
 _atom_site_occupancy
  Ho  Ho0  1  0.865775  0.663282  0.877636  1
  Ho  Ho1  1  0.519898  0.321004  0.904358  1
  Ho  Ho2  1  0.019962  0.178769  0.595407  1
  Ho  Ho3  1  0.480020  0.678443  0.404026  1
  Ho  Ho4  1  0.979447  0.822404  0.097240  1
  Ho  Ho5  1  0.480936  0.678157  0.096256  1
  Ho  Ho6  1  0.979649  0.821404  0.403513  1
  Ho  Ho7  1  0.519349  0.320987  0.595496  1
  Ho  Ho8  1  0.020282  0.178620  0.903796  1
  Tm  Tm9  1  0.364680  0.837550  0.876218  1
  Tm  Tm10  1  0.865196  0.661965  0.622911  1
  Tm  Tm11  1  0.634755  0.161570  0.376560  1
  Tm  Tm12  1  0.134976  0.337908  0.123605  1
  Lu  Lu13  1  0.634109  0.161909  0.124657  1
  Lu  Lu14  1  0.134932  0.337714  0.376543  1
  Lu  Lu15  1  0.365602  0.838227  0.622750  1
  Lu  Lu16  1  0.196661  0.504451  0.749511  1
  Lu  Lu17  1  0.695900  0.995923  0.749387  1
  Lu  Lu18  1  0.803768  0.495142  0.250292  1
  Lu  Lu19  1  0.303424  0.004349  0.250115  1
  Sn  Sn20  1  0.296353  0.038499  0.041731  1
  Sn  Sn21  1  0.796455  0.461167  0.458140  1
  Sn  Sn22  1  0.704118  0.961429  0.541337  1
  Sn  Sn23  1  0.206149  0.537570  0.958529  1
  Sn  Sn24  1  0.703044  0.963761  0.959153  1
  Sn  Sn25  1  0.204706  0.538978  0.540987  1
  Sn  Sn26  1  0.294861  0.038979  0.458431  1
  Sn  Sn27  1  0.795345  0.459611  0.042568  1
  Sn  Sn28  1  0.561579  0.619177  0.749178  1
  Sn  Sn29  1  0.062205  0.881913  0.749246  1
  Sn  Sn30  1  0.438054  0.380649  0.250481  1
  Sn  Sn31  1  0.938274  0.119496  0.250290  1
  Sn  Sn32  1  0.330656  0.150433  0.749619  1
  Sn  Sn33  1  0.830449  0.349512  0.749832  1
  Sn  Sn34  1  0.668978  0.848861  0.250004  1
  Sn  Sn35  1  0.169450  0.650188  0.250198  1
