# generated using pymatgen
data_DySc6Co6AgSn22
_symmetry_space_group_name_H-M   'P 1'
_cell_length_a   9.51784600
_cell_length_b   9.51784513
_cell_length_c   9.78262000
_cell_angle_alpha   90.00000000
_cell_angle_beta   90.00000000
_cell_angle_gamma   119.99999607
_symmetry_Int_Tables_number   1
_chemical_formula_structural   DySc6Co6AgSn22
_chemical_formula_sum   'Dy1 Sc6 Co6 Ag1 Sn22'
_cell_volume   767.47306118
_cell_formula_units_Z   1
loop_
 _symmetry_equiv_pos_site_id
 _symmetry_equiv_pos_as_xyz
  1  'x, y, z'
loop_
 _atom_site_type_symbol
 _atom_site_label
 _atom_site_symmetry_multiplicity
 _atom_site_fract_x
 _atom_site_fract_y
 _atom_site_fract_z
 _atom_site_occupancy
  Dy  Dy0  1  0.000000  0.000000  0.000000  1
  Sc  Sc1  1  0.482021  0.517979  0.309475  1
  Sc  Sc2  1  0.517979  0.482021  0.690525  1
  Sc  Sc3  1  0.482021  0.964042  0.309475  1
  Sc  Sc4  1  0.517979  0.035958  0.690525  1
  Sc  Sc5  1  0.035958  0.517979  0.309475  1
  Sc  Sc6  1  0.964042  0.482021  0.690525  1
  Co  Co7  1  0.830281  0.169719  0.199091  1
  Co  Co8  1  0.169719  0.830281  0.800909  1
  Co  Co9  1  0.830281  0.660562  0.199091  1
  Co  Co10  1  0.169719  0.339438  0.800909  1
  Co  Co11  1  0.339438  0.169719  0.199091  1
  Co  Co12  1  0.660562  0.830281  0.800909  1
  Ag  Ag13  1  0.000000  0.000000  0.500000  1
  Sn  Sn14  1  0.348110  0.000000  0.000000  1
  Sn  Sn15  1  0.651890  0.000000  0.000000  1
  Sn  Sn16  1  0.000000  0.348110  0.000000  1
  Sn  Sn17  1  0.000000  0.651890  0.000000  1
  Sn  Sn18  1  0.651890  0.651890  0.000000  1
  Sn  Sn19  1  0.348110  0.348110  0.000000  1
  Sn  Sn20  1  0.333333  0.666667  0.818620  1
  Sn  Sn21  1  0.666667  0.333333  0.181380  1
  Sn  Sn22  1  0.781464  0.218536  0.455645  1
  Sn  Sn23  1  0.218536  0.781464  0.544355  1
  Sn  Sn24  1  0.781464  0.562929  0.455645  1
  Sn  Sn25  1  0.218536  0.437071  0.544355  1
  Sn  Sn26  1  0.437071  0.218536  0.455645  1
  Sn  Sn27  1  0.562929  0.781464  0.544355  1
  Sn  Sn28  1  0.333333  0.666667  0.137615  1
  Sn  Sn29  1  0.666667  0.333333  0.862385  1
  Sn  Sn30  1  0.117859  0.882141  0.277971  1
  Sn  Sn31  1  0.882141  0.117859  0.722029  1
  Sn  Sn32  1  0.117859  0.235719  0.277971  1
  Sn  Sn33  1  0.882141  0.764281  0.722029  1
  Sn  Sn34  1  0.764281  0.882141  0.277971  1
  Sn  Sn35  1  0.235719  0.117859  0.722029  1
