# generated using pymatgen
data_FeH5F7
_symmetry_space_group_name_H-M   'P 1'
_cell_length_a   3.91689029
_cell_length_b   7.15458458
_cell_length_c   6.63686314
_cell_angle_alpha   85.13222001
_cell_angle_beta   79.68311376
_cell_angle_gamma   77.33389235
_symmetry_Int_Tables_number   1
_chemical_formula_structural   FeH5F7
_chemical_formula_sum   'Fe1 H5 F7'
_cell_volume   178.32815102
_cell_formula_units_Z   1
loop_
 _symmetry_equiv_pos_site_id
 _symmetry_equiv_pos_as_xyz
  1  'x, y, z'
loop_
 _atom_site_type_symbol
 _atom_site_label
 _atom_site_symmetry_multiplicity
 _atom_site_fract_x
 _atom_site_fract_y
 _atom_site_fract_z
 _atom_site_occupancy
  Fe  Fe0  1  0.443106  0.089795  0.593081  1
  H  H1  1  0.293526  0.796806  0.879739  1
  H  H2  1  0.771199  0.891588  0.203098  1
  H  H3  1  0.212516  0.395341  0.320198  1
  H  H4  1  0.031164  0.603720  0.095595  1
  H  H5  1  0.204263  0.301644  0.986080  1
  F  F6  1  0.033868  0.761872  0.063444  1
  F  F7  1  0.337226  0.194869  0.899437  1
  F  F8  1  0.039586  0.441344  0.136115  1
  F  F9  1  0.943615  0.088700  0.589332  1
  F  F10  1  0.339582  0.375796  0.438215  1
  F  F11  1  0.476905  0.807455  0.759421  1
  F  F12  1  0.571780  0.973592  0.287846  1
