# generated using pymatgen
data_Y5Ho15(Bi2Sb)4
_symmetry_space_group_name_H-M   'P 1'
_cell_length_a   8.16886011
_cell_length_b   9.43938100
_cell_length_c   11.98652916
_cell_angle_alpha   90.00000000
_cell_angle_beta   89.98126981
_cell_angle_gamma   90.00000000
_symmetry_Int_Tables_number   1
_chemical_formula_structural   Y5Ho15(Bi2Sb)4
_chemical_formula_sum   'Y5 Ho15 Bi8 Sb4'
_cell_volume   924.26902272
_cell_formula_units_Z   1
loop_
 _symmetry_equiv_pos_site_id
 _symmetry_equiv_pos_as_xyz
  1  'x, y, z'
loop_
 _atom_site_type_symbol
 _atom_site_label
 _atom_site_symmetry_multiplicity
 _atom_site_fract_x
 _atom_site_fract_y
 _atom_site_fract_z
 _atom_site_occupancy
  Y  Y0  1  0.316875  0.250000  0.218447  1
  Y  Y1  1  0.353531  0.750000  0.213088  1
  Y  Y2  1  0.853446  0.750000  0.286971  1
  Y  Y3  1  0.646533  0.250000  0.786728  1
  Y  Y4  1  0.146407  0.250000  0.713129  1
  Ho  Ho5  1  0.028324  0.750000  0.987860  1
  Ho  Ho6  1  0.528366  0.750000  0.512064  1
  Ho  Ho7  1  0.971456  0.250000  0.011729  1
  Ho  Ho8  1  0.471976  0.250000  0.488492  1
  Ho  Ho9  1  0.183385  0.750000  0.717893  1
  Ho  Ho10  1  0.683396  0.750000  0.782132  1
  Ho  Ho11  1  0.816668  0.250000  0.282124  1
  Ho  Ho12  1  0.310026  0.437569  0.941807  1
  Ho  Ho13  1  0.809985  0.062431  0.557921  1
  Ho  Ho14  1  0.689900  0.937537  0.057899  1
  Ho  Ho15  1  0.190005  0.562482  0.442147  1
  Ho  Ho16  1  0.689900  0.562463  0.057899  1
  Ho  Ho17  1  0.190005  0.937518  0.442147  1
  Ho  Ho18  1  0.310026  0.062431  0.941807  1
  Ho  Ho19  1  0.809985  0.437569  0.557921  1
  Bi  Bi20  1  0.433460  0.003166  0.673823  1
  Bi  Bi21  1  0.933465  0.496812  0.826143  1
  Bi  Bi22  1  0.566917  0.503490  0.326470  1
  Bi  Bi23  1  0.065991  0.996440  0.173610  1
  Bi  Bi24  1  0.566917  0.996510  0.326470  1
  Bi  Bi25  1  0.065991  0.503560  0.173610  1
  Bi  Bi26  1  0.433460  0.496834  0.673823  1
  Bi  Bi27  1  0.933465  0.003188  0.826143  1
  Sb  Sb28  1  0.408770  0.750000  0.958162  1
  Sb  Sb29  1  0.908800  0.750000  0.541856  1
  Sb  Sb30  1  0.591480  0.250000  0.041320  1
  Sb  Sb31  1  0.091087  0.250000  0.458365  1
