# generated using pymatgen
data_Tb3HoGeI6
_symmetry_space_group_name_H-M   'P 1'
_cell_length_a   4.23344600
_cell_length_b   14.06572659
_cell_length_c   14.83579268
_cell_angle_alpha   89.94547082
_cell_angle_beta   90.00000000
_cell_angle_gamma   90.00000000
_symmetry_Int_Tables_number   1
_chemical_formula_structural   Tb3HoGeI6
_chemical_formula_sum   'Tb6 Ho2 Ge2 I12'
_cell_volume   883.41903941
_cell_formula_units_Z   2
loop_
 _symmetry_equiv_pos_site_id
 _symmetry_equiv_pos_as_xyz
  1  'x, y, z'
loop_
 _atom_site_type_symbol
 _atom_site_label
 _atom_site_symmetry_multiplicity
 _atom_site_fract_x
 _atom_site_fract_y
 _atom_site_fract_z
 _atom_site_occupancy
  Tb  Tb0  1  0.500000  0.615024  0.153622  1
  Tb  Tb1  1  0.500000  0.384976  0.846378  1
  Tb  Tb2  1  0.000000  0.112240  0.575123  1
  Tb  Tb3  1  0.000000  0.887760  0.424877  1
  Tb  Tb4  1  0.000000  0.612461  0.924686  1
  Tb  Tb5  1  0.000000  0.387539  0.075314  1
  Ho  Ho6  1  0.500000  0.114399  0.347277  1
  Ho  Ho7  1  0.500000  0.885601  0.652723  1
  Ge  Ge8  1  0.500000  0.000000  0.500000  1
  Ge  Ge9  1  0.500000  0.500000  0.000000  1
  I  I10  1  0.500000  0.244173  0.162207  1
  I  I11  1  0.500000  0.755827  0.837793  1
  I  I12  1  0.500000  0.744687  0.338494  1
  I  I13  1  0.500000  0.255313  0.661506  1
  I  I14  1  0.000000  0.257413  0.413154  1
  I  I15  1  0.000000  0.742587  0.586846  1
  I  I16  1  0.000000  0.758749  0.085918  1
  I  I17  1  0.000000  0.241251  0.914082  1
  I  I18  1  0.000000  0.000435  0.241266  1
  I  I19  1  0.000000  0.999565  0.758734  1
  I  I20  1  0.000000  0.499133  0.259608  1
  I  I21  1  0.000000  0.500867  0.740392  1
