# generated using pymatgen
data_Er4Tm8GaCo4Ru
_symmetry_space_group_name_H-M   'P 1'
_cell_length_a   8.11222295
_cell_length_b   8.11222344
_cell_length_c   8.11222273
_cell_angle_alpha   106.56614758
_cell_angle_beta   110.83305550
_cell_angle_gamma   111.05301601
_symmetry_Int_Tables_number   1
_chemical_formula_structural   Er4Tm8GaCo4Ru
_chemical_formula_sum   'Er4 Tm8 Ga1 Co4 Ru1'
_cell_volume   410.16943657
_cell_formula_units_Z   1
loop_
 _symmetry_equiv_pos_site_id
 _symmetry_equiv_pos_as_xyz
  1  'x, y, z'
loop_
 _atom_site_type_symbol
 _atom_site_label
 _atom_site_symmetry_multiplicity
 _atom_site_fract_x
 _atom_site_fract_y
 _atom_site_fract_z
 _atom_site_occupancy
  Er  Er0  1  0.596351  0.779449  0.816902  1
  Er  Er1  1  0.962545  0.779449  0.183098  1
  Er  Er2  1  0.037455  0.220551  0.816902  1
  Er  Er3  1  0.403649  0.220551  0.183098  1
  Tm  Tm4  1  0.693147  0.273334  0.966481  1
  Tm  Tm5  1  0.306853  0.726666  0.033519  1
  Tm  Tm6  1  0.693147  0.726666  0.419815  1
  Tm  Tm7  1  0.306853  0.273334  0.580185  1
  Tm  Tm8  1  0.803156  0.119623  0.316467  1
  Tm  Tm9  1  0.803156  0.486688  0.683533  1
  Tm  Tm10  1  0.196844  0.880377  0.683533  1
  Tm  Tm11  1  0.196844  0.513312  0.316467  1
  Ga  Ga12  1  0.500000  0.000000  0.500000  1
  Co  Co13  1  0.873551  0.500000  0.373551  1
  Co  Co14  1  0.126449  0.500000  0.626449  1
  Co  Co15  1  0.000000  0.113562  0.113562  1
  Co  Co16  1  0.000000  0.886438  0.886438  1
  Ru  Ru17  1  0.500000  0.500000  0.000000  1
