# generated using pymatgen
data_Nd6RuBr10
_symmetry_space_group_name_H-M   'P 1'
_cell_length_a   7.64415313
_cell_length_b   9.52035675
_cell_length_c   9.57996895
_cell_angle_alpha   109.13681955
_cell_angle_beta   96.90595124
_cell_angle_gamma   106.32077670
_symmetry_Int_Tables_number   1
_chemical_formula_structural   Nd6RuBr10
_chemical_formula_sum   'Nd6 Ru1 Br10'
_cell_volume   614.53017031
_cell_formula_units_Z   1
loop_
 _symmetry_equiv_pos_site_id
 _symmetry_equiv_pos_as_xyz
  1  'x, y, z'
loop_
 _atom_site_type_symbol
 _atom_site_label
 _atom_site_symmetry_multiplicity
 _atom_site_fract_x
 _atom_site_fract_y
 _atom_site_fract_z
 _atom_site_occupancy
  Nd  Nd0  1  0.974577  0.299877  0.095196  1
  Nd  Nd1  1  0.025423  0.700123  0.904804  1
  Nd  Nd2  1  0.633533  0.859095  0.815362  1
  Nd  Nd3  1  0.366467  0.140905  0.184638  1
  Nd  Nd4  1  0.126644  0.046363  0.750724  1
  Nd  Nd5  1  0.873356  0.953637  0.249276  1
  Ru  Ru6  1  0.000000  0.000000  0.000000  1
  Br  Br7  1  0.549583  0.176074  0.917440  1
  Br  Br8  1  0.450417  0.823926  0.082560  1
  Br  Br9  1  0.744984  0.915541  0.544029  1
  Br  Br10  1  0.255016  0.084459  0.455971  1
  Br  Br11  1  0.088463  0.366900  0.827829  1
  Br  Br12  1  0.911537  0.633100  0.172171  1
  Br  Br13  1  0.201671  0.738684  0.647756  1
  Br  Br14  1  0.798329  0.261316  0.352244  1
  Br  Br15  1  0.639869  0.538986  0.724611  1
  Br  Br16  1  0.360131  0.461014  0.275389  1
