# generated using pymatgen
data_Ho8MgInPt2
_symmetry_space_group_name_H-M   'P 1'
_cell_length_a   9.70189248
_cell_length_b   9.70189230
_cell_length_c   9.70887000
_cell_angle_alpha   59.97620585
_cell_angle_beta   59.97620647
_cell_angle_gamma   59.85949910
_symmetry_Int_Tables_number   1
_chemical_formula_structural   Ho8MgInPt2
_chemical_formula_sum   'Ho16 Mg2 In2 Pt4'
_cell_volume   645.27875785
_cell_formula_units_Z   2
loop_
 _symmetry_equiv_pos_site_id
 _symmetry_equiv_pos_as_xyz
  1  'x, y, z'
loop_
 _atom_site_type_symbol
 _atom_site_label
 _atom_site_symmetry_multiplicity
 _atom_site_fract_x
 _atom_site_fract_y
 _atom_site_fract_z
 _atom_site_occupancy
  Ho  Ho0  1  0.433653  0.433653  0.066347  1
  Ho  Ho1  1  0.648983  0.648983  0.051832  1
  Ho  Ho2  1  0.189223  0.809444  0.190126  1
  Ho  Ho3  1  0.064564  0.435904  0.064897  1
  Ho  Ho4  1  0.189223  0.809444  0.811207  1
  Ho  Ho5  1  0.064564  0.435904  0.434635  1
  Ho  Ho6  1  0.809444  0.189223  0.190126  1
  Ho  Ho7  1  0.648983  0.648983  0.650204  1
  Ho  Ho8  1  0.809444  0.189223  0.811207  1
  Ho  Ho9  1  0.187781  0.187781  0.812219  1
  Ho  Ho10  1  0.051485  0.650211  0.649152  1
  Ho  Ho11  1  0.435904  0.064564  0.064897  1
  Ho  Ho12  1  0.064329  0.064329  0.435671  1
  Ho  Ho13  1  0.650211  0.051485  0.649152  1
  Ho  Ho14  1  0.807246  0.807246  0.192754  1
  Ho  Ho15  1  0.435904  0.064564  0.434635  1
  Mg  Mg16  1  0.422666  0.422666  0.419153  1
  Mg  Mg17  1  0.422666  0.422666  0.735516  1
  In  In18  1  0.416495  0.748371  0.417567  1
  In  In19  1  0.748371  0.416495  0.417567  1
  Pt  Pt20  1  0.428195  0.856645  0.857579  1
  Pt  Pt21  1  0.857012  0.857012  0.857604  1
  Pt  Pt22  1  0.856645  0.428195  0.857579  1
  Pt  Pt23  1  0.857012  0.857012  0.428372  1
