# generated using pymatgen
data_Tb2Tm14In4OsRh3
_symmetry_space_group_name_H-M   'P 1'
_cell_length_a   9.56787423
_cell_length_b   9.54957204
_cell_length_c   9.57317075
_cell_angle_alpha   60.02590137
_cell_angle_beta   60.01830626
_cell_angle_gamma   59.93658272
_symmetry_Int_Tables_number   1
_chemical_formula_structural   Tb2Tm14In4OsRh3
_chemical_formula_sum   'Tb2 Tm14 In4 Os1 Rh3'
_cell_volume   618.40995083
_cell_formula_units_Z   1
loop_
 _symmetry_equiv_pos_site_id
 _symmetry_equiv_pos_as_xyz
  1  'x, y, z'
loop_
 _atom_site_type_symbol
 _atom_site_label
 _atom_site_symmetry_multiplicity
 _atom_site_fract_x
 _atom_site_fract_y
 _atom_site_fract_z
 _atom_site_occupancy
  Tb  Tb0  1  0.058414  0.059651  0.436198  1
  Tb  Tb1  1  0.445739  0.059651  0.436198  1
  Tm  Tm2  1  0.062792  0.438898  0.060231  1
  Tm  Tm3  1  0.046561  0.650192  0.651109  1
  Tm  Tm4  1  0.438080  0.438898  0.060231  1
  Tm  Tm5  1  0.651121  0.047440  0.650318  1
  Tm  Tm6  1  0.188826  0.808882  0.192880  1
  Tm  Tm7  1  0.189714  0.191445  0.810719  1
  Tm  Tm8  1  0.809411  0.808882  0.192880  1
  Tm  Tm9  1  0.440039  0.061904  0.058019  1
  Tm  Tm10  1  0.809410  0.189116  0.192063  1
  Tm  Tm11  1  0.057527  0.448382  0.436564  1
  Tm  Tm12  1  0.808123  0.191445  0.810719  1
  Tm  Tm13  1  0.190458  0.808000  0.811085  1
  Tm  Tm14  1  0.651413  0.649468  0.047706  1
  Tm  Tm15  1  0.652138  0.650192  0.651109  1
  In  In16  1  0.416740  0.418085  0.415911  1
  In  In17  1  0.749264  0.418085  0.415911  1
  In  In18  1  0.418371  0.747552  0.415707  1
  In  In19  1  0.417145  0.417081  0.748630  1
  Os  Os20  1  0.859018  0.856296  0.425667  1
  Rh  Rh21  1  0.858319  0.858403  0.860679  1
  Rh  Rh22  1  0.422599  0.858403  0.860679  1
  Rh  Rh23  1  0.858781  0.423651  0.858789  1
