# generated using pymatgen
data_Ce3Cd3AgAu2
_symmetry_space_group_name_H-M   'P 1'
_cell_length_a   8.10963000
_cell_length_b   8.10962862
_cell_length_c   3.95964600
_cell_angle_alpha   90.00000000
_cell_angle_beta   90.00000000
_cell_angle_gamma   120.00000564
_symmetry_Int_Tables_number   1
_chemical_formula_structural   Ce3Cd3AgAu2
_chemical_formula_sum   'Ce3 Cd3 Ag1 Au2'
_cell_volume   225.52203103
_cell_formula_units_Z   1
loop_
 _symmetry_equiv_pos_site_id
 _symmetry_equiv_pos_as_xyz
  1  'x, y, z'
loop_
 _atom_site_type_symbol
 _atom_site_label
 _atom_site_symmetry_multiplicity
 _atom_site_fract_x
 _atom_site_fract_y
 _atom_site_fract_z
 _atom_site_occupancy
  Ce  Ce0  1  0.588046  0.588046  0.000000  1
  Ce  Ce1  1  0.411954  0.000000  0.000000  1
  Ce  Ce2  1  0.000000  0.411954  0.000000  1
  Cd  Cd3  1  0.000000  0.742223  0.500000  1
  Cd  Cd4  1  0.257777  0.257777  0.500000  1
  Cd  Cd5  1  0.742223  0.000000  0.500000  1
  Ag  Ag6  1  0.000000  0.000000  0.000000  1
  Au  Au7  1  0.333333  0.666667  0.500000  1
  Au  Au8  1  0.666667  0.333333  0.500000  1
