# generated using pymatgen
data_Ta7Si4Ni8W5C2
_symmetry_space_group_name_H-M   'P 1'
_cell_length_a   7.84170348
_cell_length_b   7.84154516
_cell_length_c   7.84059800
_cell_angle_alpha   60.00459623
_cell_angle_beta   60.00521226
_cell_angle_gamma   59.92128660
_symmetry_Int_Tables_number   1
_chemical_formula_structural   Ta7Si4Ni8W5C2
_chemical_formula_sum   'Ta7 Si4 Ni8 W5 C2'
_cell_volume   340.73707199
_cell_formula_units_Z   1
loop_
 _symmetry_equiv_pos_site_id
 _symmetry_equiv_pos_as_xyz
  1  'x, y, z'
loop_
 _atom_site_type_symbol
 _atom_site_label
 _atom_site_symmetry_multiplicity
 _atom_site_fract_x
 _atom_site_fract_y
 _atom_site_fract_z
 _atom_site_occupancy
  Ta  Ta0  1  0.052323  0.052312  0.447674  1
  Ta  Ta1  1  0.451480  0.050824  0.444478  1
  Ta  Ta2  1  0.050837  0.451473  0.444462  1
  Ta  Ta3  1  0.448774  0.448786  0.051223  1
  Ta  Ta4  1  0.050841  0.451462  0.053233  1
  Ta  Ta5  1  0.451468  0.050827  0.053225  1
  Ta  Ta6  1  0.194943  0.194928  0.805067  1
  Si  Si7  1  0.623903  0.623894  0.127601  1
  Si  Si8  1  0.626542  0.126736  0.623353  1
  Si  Si9  1  0.126727  0.626539  0.623359  1
  Si  Si10  1  0.623912  0.623901  0.624595  1
  Ni  Ni11  1  0.418471  0.418462  0.743947  1
  Ni  Ni12  1  0.417751  0.742498  0.419882  1
  Ni  Ni13  1  0.742481  0.417738  0.419898  1
  Ni  Ni14  1  0.418486  0.418474  0.419137  1
  Ni  Ni15  1  0.831319  0.831343  0.506298  1
  Ni  Ni16  1  0.832351  0.506884  0.830370  1
  Ni  Ni17  1  0.506847  0.832382  0.830377  1
  Ni  Ni18  1  0.831326  0.831355  0.831016  1
  W  W19  1  0.803488  0.194902  0.806472  1
  W  W20  1  0.194915  0.803485  0.806478  1
  W  W21  1  0.804478  0.804473  0.195534  1
  W  W22  1  0.194893  0.803502  0.195121  1
  W  W23  1  0.803506  0.194878  0.195137  1
  C  C24  1  0.250629  0.250635  0.249367  1
  C  C25  1  0.997310  0.997305  0.002696  1
