# generated using pymatgen
data_AsSe6BrF6
_symmetry_space_group_name_H-M   'P 1'
_cell_length_a   7.14485500
_cell_length_b   9.12821656
_cell_length_c   11.58755995
_cell_angle_alpha   61.19935588
_cell_angle_beta   90.00000000
_cell_angle_gamma   90.00000000
_symmetry_Int_Tables_number   1
_chemical_formula_structural   AsSe6BrF6
_chemical_formula_sum   'As2 Se12 Br2 F12'
_cell_volume   662.25429942
_cell_formula_units_Z   2
loop_
 _symmetry_equiv_pos_site_id
 _symmetry_equiv_pos_as_xyz
  1  'x, y, z'
loop_
 _atom_site_type_symbol
 _atom_site_label
 _atom_site_symmetry_multiplicity
 _atom_site_fract_x
 _atom_site_fract_y
 _atom_site_fract_z
 _atom_site_occupancy
  As  As0  1  0.000000  0.000000  0.000000  1
  As  As1  1  0.000000  0.000000  0.500000  1
  Se  Se2  1  0.256596  0.664458  0.380857  1
  Se  Se3  1  0.762777  0.554566  0.392449  1
  Se  Se4  1  0.237223  0.554566  0.892449  1
  Se  Se5  1  0.237223  0.445434  0.607551  1
  Se  Se6  1  0.743404  0.664458  0.880857  1
  Se  Se7  1  0.743404  0.335542  0.619143  1
  Se  Se8  1  0.256596  0.335542  0.119143  1
  Se  Se9  1  0.569428  0.765116  0.381475  1
  Se  Se10  1  0.430572  0.765116  0.881475  1
  Se  Se11  1  0.430572  0.234884  0.618525  1
  Se  Se12  1  0.569428  0.234884  0.118525  1
  Se  Se13  1  0.762777  0.445434  0.107551  1
  Br  Br14  1  0.722026  0.500000  0.750000  1
  Br  Br15  1  0.277974  0.500000  0.250000  1
  F  F16  1  0.905406  0.926935  0.395709  1
  F  F17  1  0.905406  0.073065  0.104291  1
  F  F18  1  0.094594  0.073065  0.604291  1
  F  F19  1  0.094594  0.926935  0.895709  1
  F  F20  1  0.086183  0.795472  0.607913  1
  F  F21  1  0.086183  0.204528  0.892087  1
  F  F22  1  0.913817  0.204528  0.392087  1
  F  F23  1  0.913817  0.795472  0.107913  1
  F  F24  1  0.213746  0.048286  0.410325  1
  F  F25  1  0.213746  0.951714  0.089675  1
  F  F26  1  0.786254  0.951714  0.589675  1
  F  F27  1  0.786254  0.048286  0.910325  1
