# generated using pymatgen
data_Pm2PtRh3
_symmetry_space_group_name_H-M   'P 1'
_cell_length_a   5.43919402
_cell_length_b   5.43721122
_cell_length_c   5.42049766
_cell_angle_alpha   59.84793522
_cell_angle_beta   59.86283774
_cell_angle_gamma   59.96525662
_symmetry_Int_Tables_number   1
_chemical_formula_structural   Pm2PtRh3
_chemical_formula_sum   'Pm2 Pt1 Rh3'
_cell_volume   113.07549042
_cell_formula_units_Z   1
loop_
 _symmetry_equiv_pos_site_id
 _symmetry_equiv_pos_as_xyz
  1  'x, y, z'
loop_
 _atom_site_type_symbol
 _atom_site_label
 _atom_site_symmetry_multiplicity
 _atom_site_fract_x
 _atom_site_fract_y
 _atom_site_fract_z
 _atom_site_occupancy
  Pm  Pm0  1  0.750457  0.750441  0.748648  1
  Pm  Pm1  1  0.999543  0.999559  0.001352  1
  Pt  Pt2  1  0.375000  0.375000  0.875000  1
  Rh  Rh3  1  0.875000  0.375000  0.375000  1
  Rh  Rh4  1  0.375000  0.875000  0.375000  1
  Rh  Rh5  1  0.375000  0.375000  0.375000  1
