# generated using pymatgen
data_Tb4Tm4Re3B24Os
_symmetry_space_group_name_H-M   'P 1'
_cell_length_a   3.65951600
_cell_length_b   9.13653712
_cell_length_c   11.53357704
_cell_angle_alpha   90.06697102
_cell_angle_beta   90.00000000
_cell_angle_gamma   90.00000000
_symmetry_Int_Tables_number   1
_chemical_formula_structural   Tb4Tm4Re3B24Os
_chemical_formula_sum   'Tb4 Tm4 Re3 B24 Os1'
_cell_volume   385.62838832
_cell_formula_units_Z   1
loop_
 _symmetry_equiv_pos_site_id
 _symmetry_equiv_pos_as_xyz
  1  'x, y, z'
loop_
 _atom_site_type_symbol
 _atom_site_label
 _atom_site_symmetry_multiplicity
 _atom_site_fract_x
 _atom_site_fract_y
 _atom_site_fract_z
 _atom_site_occupancy
  Tb  Tb0  1  0.000000  0.321222  0.414198  1
  Tb  Tb1  1  0.000000  0.677912  0.587490  1
  Tb  Tb2  1  0.000000  0.823809  0.084599  1
  Tb  Tb3  1  0.000000  0.177474  0.913595  1
  Tm  Tm4  1  0.000000  0.942503  0.370074  1
  Tm  Tm5  1  0.000000  0.056654  0.629333  1
  Tm  Tm6  1  0.000000  0.442618  0.129764  1
  Tm  Tm7  1  0.000000  0.557060  0.870890  1
  Re  Re8  1  0.000000  0.361872  0.678899  1
  Re  Re9  1  0.000000  0.138690  0.180428  1
  Re  Re10  1  0.000000  0.861422  0.820086  1
  B  B11  1  0.500000  0.553965  0.432365  1
  B  B12  1  0.500000  0.446830  0.567253  1
  B  B13  1  0.500000  0.053387  0.067313  1
  B  B14  1  0.500000  0.946847  0.932470  1
  B  B15  1  0.500000  0.749342  0.417974  1
  B  B16  1  0.500000  0.249807  0.581641  1
  B  B17  1  0.500000  0.250000  0.081793  1
  B  B18  1  0.500000  0.750509  0.918353  1
  B  B19  1  0.500000  0.791074  0.265572  1
  B  B20  1  0.500000  0.208013  0.734241  1
  B  B21  1  0.500000  0.291886  0.234787  1
  B  B22  1  0.500000  0.707890  0.765872  1
  B  B23  1  0.500000  0.630279  0.185523  1
  B  B24  1  0.500000  0.370363  0.814400  1
  B  B25  1  0.500000  0.129983  0.315195  1
  B  B26  1  0.500000  0.869834  0.685237  1
  B  B27  1  0.500000  0.981905  0.212504  1
  B  B28  1  0.500000  0.018217  0.787121  1
  B  B29  1  0.500000  0.482839  0.287599  1
  B  B30  1  0.500000  0.518564  0.712603  1
  B  B31  1  0.500000  0.599848  0.028242  1
  B  B32  1  0.500000  0.400453  0.972608  1
  B  B33  1  0.500000  0.098749  0.472148  1
  B  B34  1  0.500000  0.899661  0.527512  1
  Os  Os35  1  0.000000  0.638517  0.320312  1
