# generated using pymatgen
data_Sb11Os2Rh2Se
_symmetry_space_group_name_H-M   'P 1'
_cell_length_a   8.09347393
_cell_length_b   8.06989988
_cell_length_c   8.11411104
_cell_angle_alpha   109.27872979
_cell_angle_beta   110.13283139
_cell_angle_gamma   109.07622884
_symmetry_Int_Tables_number   1
_chemical_formula_structural   Sb11Os2Rh2Se
_chemical_formula_sum   'Sb11 Os2 Rh2 Se1'
_cell_volume   407.56132169
_cell_formula_units_Z   1
loop_
 _symmetry_equiv_pos_site_id
 _symmetry_equiv_pos_as_xyz
  1  'x, y, z'
loop_
 _atom_site_type_symbol
 _atom_site_label
 _atom_site_symmetry_multiplicity
 _atom_site_fract_x
 _atom_site_fract_y
 _atom_site_fract_z
 _atom_site_occupancy
  Sb  Sb0  1  0.841508  0.180136  0.335998  1
  Sb  Sb1  1  0.848786  0.508107  0.662206  1
  Sb  Sb2  1  0.152907  0.487144  0.333680  1
  Sb  Sb3  1  0.815788  0.661656  0.155014  1
  Sb  Sb4  1  0.183036  0.339437  0.846084  1
  Sb  Sb5  1  0.507939  0.663022  0.845364  1
  Sb  Sb6  1  0.491407  0.337338  0.153860  1
  Sb  Sb7  1  0.663605  0.155727  0.818724  1
  Sb  Sb8  1  0.338281  0.848574  0.183300  1
  Sb  Sb9  1  0.660603  0.848029  0.504466  1
  Sb  Sb10  1  0.342677  0.157867  0.498155  1
  Os  Os11  1  0.489468  0.994965  0.991007  1
  Os  Os12  1  0.002214  0.504013  0.003159  1
  Rh  Rh13  1  0.003299  0.997585  0.504658  1
  Rh  Rh14  1  0.502843  0.504323  0.501312  1
  Se  Se15  1  0.155640  0.812077  0.663014  1
