# generated using pymatgen
data_Li12Pr7Ho5(WO6)8
_symmetry_space_group_name_H-M   'P 1'
_cell_length_a   10.85888808
_cell_length_b   10.83673486
_cell_length_c   10.86787770
_cell_angle_alpha   109.43000213
_cell_angle_beta   109.66982783
_cell_angle_gamma   109.39378393
_symmetry_Int_Tables_number   1
_chemical_formula_structural   Li12Pr7Ho5(WO6)8
_chemical_formula_sum   'Li12 Pr7 Ho5 W8 O48'
_cell_volume   983.50179488
_cell_formula_units_Z   1
loop_
 _symmetry_equiv_pos_site_id
 _symmetry_equiv_pos_as_xyz
  1  'x, y, z'
loop_
 _atom_site_type_symbol
 _atom_site_label
 _atom_site_symmetry_multiplicity
 _atom_site_fract_x
 _atom_site_fract_y
 _atom_site_fract_z
 _atom_site_occupancy
  Li  Li0  1  0.248943  0.876116  0.126887  1
  Li  Li1  1  0.376131  0.250840  0.126047  1
  Li  Li2  1  0.124087  0.374014  0.249778  1
  Li  Li3  1  0.626236  0.875247  0.250022  1
  Li  Li4  1  0.123219  0.750131  0.372442  1
  Li  Li5  1  0.749181  0.622988  0.372108  1
  Li  Li6  1  0.249174  0.372231  0.622532  1
  Li  Li7  1  0.874780  0.250089  0.623903  1
  Li  Li8  1  0.375780  0.125952  0.750072  1
  Li  Li9  1  0.874753  0.624713  0.751046  1
  Li  Li10  1  0.627690  0.750787  0.877640  1
  Li  Li11  1  0.750152  0.126890  0.877619  1
  Pr  Pr12  1  0.624612  0.248816  0.372831  1
  Pr  Pr13  1  0.747697  0.873684  0.622465  1
  Pr  Pr14  1  0.374571  0.748876  0.622868  1
  Pr  Pr15  1  0.125087  0.874744  0.749834  1
  Pr  Pr16  1  0.624503  0.375700  0.751638  1
  Pr  Pr17  1  0.251512  0.625747  0.877320  1
  Pr  Pr18  1  0.126060  0.251951  0.877461  1
  Ho  Ho19  1  0.752397  0.375978  0.126487  1
  Ho  Ho20  1  0.876246  0.752356  0.127556  1
  Ho  Ho21  1  0.375098  0.625392  0.250490  1
  Ho  Ho22  1  0.876094  0.124308  0.249018  1
  Ho  Ho23  1  0.245945  0.123101  0.372776  1
  W  W24  1  0.999812  0.000140  0.004614  1
  W  W25  1  0.505120  0.003657  0.001624  1
  W  W26  1  0.505090  0.502296  0.006704  1
  W  W27  1  0.001733  0.504705  0.006784  1
  W  W28  1  0.999734  0.999871  0.495236  1
  W  W29  1  0.494363  0.997543  0.495733  1
  W  W30  1  0.998621  0.495992  0.494992  1
  W  W31  1  0.495611  0.495848  0.494435  1
  O  O32  1  0.828595  0.908155  0.030951  1
  O  O33  1  0.703408  0.122998  0.030570  1
  O  O34  1  0.200425  0.674915  0.087370  1
  O  O35  1  0.387132  0.412468  0.086944  1
  O  O36  1  0.475880  0.671657  0.098539  1
  O  O37  1  0.122688  0.426742  0.098545  1
  O  O38  1  0.527619  0.200752  0.114308  1
  O  O39  1  0.092092  0.920775  0.123360  1
  O  O40  1  0.970019  0.593565  0.173798  1
  O  O41  1  0.704299  0.580832  0.173870  1
  O  O42  1  0.079155  0.171802  0.202658  1
  O  O43  1  0.623634  0.026841  0.197769  1
  O  O44  1  0.827996  0.919990  0.296995  1
  O  O45  1  0.969871  0.376762  0.296466  1
  O  O46  1  0.402632  0.026730  0.327407  1
  O  O47  1  0.412092  0.297459  0.324270  1
  O  O48  1  0.078785  0.907381  0.376588  1
  O  O49  1  0.802276  0.472578  0.376143  1
  O  O50  1  0.327441  0.526040  0.402227  1
  O  O51  1  0.572646  0.877865  0.401914  1
  O  O52  1  0.587011  0.612503  0.413062  1
  O  O53  1  0.324488  0.798278  0.412795  1
  O  O54  1  0.091916  0.171114  0.468679  1
  O  O55  1  0.886106  0.298897  0.472110  1
  O  O56  1  0.113359  0.693665  0.519898  1
  O  O57  1  0.907342  0.826759  0.519010  1
  O  O58  1  0.402243  0.377512  0.573041  1
  O  O59  1  0.671333  0.192654  0.579578  1
  O  O60  1  0.671852  0.477204  0.589495  1
  O  O61  1  0.412172  0.112542  0.586491  1
  O  O62  1  0.195563  0.521305  0.612593  1
  O  O63  1  0.919265  0.092094  0.611173  1
  O  O64  1  0.579088  0.691717  0.671313  1
  O  O65  1  0.590120  0.978124  0.671738  1
  O  O66  1  0.172776  0.080658  0.692269  1
  O  O67  1  0.019253  0.610830  0.690893  1
  O  O68  1  0.387178  0.978268  0.804734  1
  O  O69  1  0.919432  0.827410  0.807952  1
  O  O70  1  0.309581  0.420408  0.829115  1
  O  O71  1  0.019356  0.408859  0.829657  1
  O  O72  1  0.479817  0.806026  0.886724  1
  O  O73  1  0.907729  0.081203  0.888571  1
  O  O74  1  0.526943  0.327461  0.914260  1
  O  O75  1  0.887783  0.587664  0.914801  1
  O  O76  1  0.622428  0.597622  0.928114  1
  O  O77  1  0.805464  0.330689  0.928129  1
  O  O78  1  0.308885  0.888975  0.981123  1
  O  O79  1  0.172803  0.092555  0.981032  1
