# generated using pymatgen
data_Hf6AlSnSb
_symmetry_space_group_name_H-M   'P 1'
_cell_length_a   7.61013900
_cell_length_b   7.61013814
_cell_length_c   3.89475300
_cell_angle_alpha   90.00000000
_cell_angle_beta   90.00000000
_cell_angle_gamma   119.99999938
_symmetry_Int_Tables_number   1
_chemical_formula_structural   Hf6AlSnSb
_chemical_formula_sum   'Hf6 Al1 Sn1 Sb1'
_cell_volume   195.34202460
_cell_formula_units_Z   1
loop_
 _symmetry_equiv_pos_site_id
 _symmetry_equiv_pos_as_xyz
  1  'x, y, z'
loop_
 _atom_site_type_symbol
 _atom_site_label
 _atom_site_symmetry_multiplicity
 _atom_site_fract_x
 _atom_site_fract_y
 _atom_site_fract_z
 _atom_site_occupancy
  Hf  Hf0  1  0.755793  0.001379  0.000000  1
  Hf  Hf1  1  0.245585  0.244207  0.000000  1
  Hf  Hf2  1  0.998621  0.754414  0.000000  1
  Hf  Hf3  1  0.395809  0.998989  0.500001  1
  Hf  Hf4  1  0.001011  0.396819  0.500001  1
  Hf  Hf5  1  0.603181  0.604191  0.500001  1
  Al  Al6  1  0.000000  0.000000  0.500001  1
  Sn  Sn7  1  0.666667  0.333334  0.000000  1
  Sb  Sb8  1  0.333333  0.666666  0.000000  1
