# generated using pymatgen
data_Tb3DyAl15(GaIr2)3
_symmetry_space_group_name_H-M   'P 1'
_cell_length_a   7.54293567
_cell_length_b   7.54230405
_cell_length_c   9.54187500
_cell_angle_alpha   90.00000000
_cell_angle_beta   90.00000000
_cell_angle_gamma   119.40932208
_symmetry_Int_Tables_number   1
_chemical_formula_structural   Tb3DyAl15(GaIr2)3
_chemical_formula_sum   'Tb3 Dy1 Al15 Ga3 Ir6'
_cell_volume   472.89322487
_cell_formula_units_Z   1
loop_
 _symmetry_equiv_pos_site_id
 _symmetry_equiv_pos_as_xyz
  1  'x, y, z'
loop_
 _atom_site_type_symbol
 _atom_site_label
 _atom_site_symmetry_multiplicity
 _atom_site_fract_x
 _atom_site_fract_y
 _atom_site_fract_z
 _atom_site_occupancy
  Tb  Tb0  1  0.002632  0.325500  0.750000  1
  Tb  Tb1  1  0.674707  0.995817  0.250000  1
  Tb  Tb2  1  0.329498  0.008788  0.750000  1
  Dy  Dy3  1  0.994116  0.674056  0.250000  1
  Al  Al4  1  0.001629  0.336067  0.073600  1
  Al  Al5  1  0.998598  0.664543  0.927914  1
  Al  Al6  1  0.998598  0.664543  0.572086  1
  Al  Al7  1  0.335493  0.000676  0.426649  1
  Al  Al8  1  0.001629  0.336067  0.426400  1
  Al  Al9  1  0.663816  0.996996  0.572646  1
  Al  Al10  1  0.663816  0.996996  0.927354  1
  Al  Al11  1  0.335493  0.000676  0.073351  1
  Al  Al12  1  0.333780  0.334115  0.550424  1
  Al  Al13  1  0.666003  0.665832  0.445160  1
  Al  Al14  1  0.666003  0.665832  0.054840  1
  Al  Al15  1  0.333780  0.334115  0.949576  1
  Al  Al16  1  0.337644  0.549334  0.250000  1
  Al  Al17  1  0.549162  0.338348  0.250000  1
  Al  Al18  1  0.450154  0.660230  0.750000  1
  Ga  Ga19  1  0.134579  0.134576  0.250000  1
  Ga  Ga20  1  0.868149  0.867326  0.750000  1
  Ga  Ga21  1  0.660686  0.453580  0.750000  1
  Ir  Ir22  1  0.671578  0.327674  0.002011  1
  Ir  Ir23  1  0.328559  0.670856  0.999814  1
  Ir  Ir24  1  0.328559  0.670856  0.500186  1
  Ir  Ir25  1  0.671578  0.327674  0.497989  1
  Ir  Ir26  1  0.999882  0.999464  0.000193  1
  Ir  Ir27  1  0.999882  0.999464  0.499807  1
