# generated using pymatgen
data_Cs4MgU7Se16
_symmetry_space_group_name_H-M   'P 1'
_cell_length_a   7.11747121
_cell_length_b   8.19316784
_cell_length_c   17.04535400
_cell_angle_alpha   89.93586611
_cell_angle_beta   90.03347198
_cell_angle_gamma   90.06766790
_symmetry_Int_Tables_number   1
_chemical_formula_structural   Cs4MgU7Se16
_chemical_formula_sum   'Cs4 Mg1 U7 Se16'
_cell_volume   993.99213366
_cell_formula_units_Z   1
loop_
 _symmetry_equiv_pos_site_id
 _symmetry_equiv_pos_as_xyz
  1  'x, y, z'
loop_
 _atom_site_type_symbol
 _atom_site_label
 _atom_site_symmetry_multiplicity
 _atom_site_fract_x
 _atom_site_fract_y
 _atom_site_fract_z
 _atom_site_occupancy
  Cs  Cs0  1  0.348627  0.002085  0.997084  1
  Cs  Cs1  1  0.651229  0.497847  0.502995  1
  Cs  Cs2  1  0.027458  0.000979  0.502733  1
  Cs  Cs3  1  0.972335  0.498868  0.997203  1
  Mg  Mg4  1  0.500215  0.249946  0.749930  1
  U  U5  1  0.000031  0.999825  0.247098  1
  U  U6  1  0.999925  0.006818  0.753351  1
  U  U7  1  0.000010  0.500201  0.252884  1
  U  U8  1  0.000271  0.493077  0.746641  1
  U  U9  1  0.499907  0.250346  0.250006  1
  U  U10  1  0.499967  0.750198  0.749991  1
  U  U11  1  0.499935  0.749685  0.250102  1
  Se  Se12  1  0.832798  0.246179  0.344685  1
  Se  Se13  1  0.835199  0.753251  0.658662  1
  Se  Se14  1  0.167390  0.746547  0.155182  1
  Se  Se15  1  0.171105  0.254238  0.842659  1
  Se  Se16  1  0.167086  0.254071  0.155311  1
  Se  Se17  1  0.164849  0.746886  0.841369  1
  Se  Se18  1  0.832629  0.753091  0.344911  1
  Se  Se19  1  0.829226  0.245627  0.657284  1
  Se  Se20  1  0.667283  0.000163  0.155483  1
  Se  Se21  1  0.668497  0.999925  0.840932  1
  Se  Se22  1  0.331973  0.499717  0.344921  1
  Se  Se23  1  0.331542  0.500321  0.659019  1
  Se  Se24  1  0.333829  0.999581  0.341792  1
  Se  Se25  1  0.334664  0.004423  0.662996  1
  Se  Se26  1  0.666633  0.500572  0.157851  1
  Se  Se27  1  0.665388  0.495533  0.836924  1
