# generated using pymatgen
data_K2CdH12Ir2Pb
_symmetry_space_group_name_H-M   'P 1'
_cell_length_a   7.66733500
_cell_length_b   7.66733500
_cell_length_c   7.64777900
_cell_angle_alpha   90.00000000
_cell_angle_beta   90.00000000
_cell_angle_gamma   90.00000000
_symmetry_Int_Tables_number   1
_chemical_formula_structural   K2CdH12Ir2Pb
_chemical_formula_sum   'K4 Cd2 H24 Ir4 Pb2'
_cell_volume   449.59783071
_cell_formula_units_Z   2
loop_
 _symmetry_equiv_pos_site_id
 _symmetry_equiv_pos_as_xyz
  1  'x, y, z'
loop_
 _atom_site_type_symbol
 _atom_site_label
 _atom_site_symmetry_multiplicity
 _atom_site_fract_x
 _atom_site_fract_y
 _atom_site_fract_z
 _atom_site_occupancy
  K  K0  1  0.000000  0.000000  0.500000  1
  K  K1  1  0.000000  0.500000  0.000000  1
  K  K2  1  0.500000  0.000000  0.000000  1
  K  K3  1  0.000000  0.000000  0.000000  1
  Cd  Cd4  1  0.500000  0.500000  0.500000  1
  Cd  Cd5  1  0.500000  0.500000  0.000000  1
  H  H6  1  0.733337  0.733337  0.484538  1
  H  H7  1  0.266663  0.266663  0.484538  1
  H  H8  1  0.060867  0.731982  0.747044  1
  H  H9  1  0.268018  0.939133  0.747044  1
  H  H10  1  0.731982  0.060867  0.747044  1
  H  H11  1  0.939133  0.268018  0.747044  1
  H  H12  1  0.728841  0.498013  0.741833  1
  H  H13  1  0.498013  0.728841  0.741833  1
  H  H14  1  0.501987  0.271159  0.741833  1
  H  H15  1  0.271159  0.501987  0.741833  1
  H  H16  1  0.275878  0.724122  0.954082  1
  H  H17  1  0.724122  0.275878  0.954082  1
  H  H18  1  0.724122  0.724122  0.045918  1
  H  H19  1  0.275878  0.275878  0.045918  1
  H  H20  1  0.271159  0.498013  0.258167  1
  H  H21  1  0.501987  0.728841  0.258167  1
  H  H22  1  0.498013  0.271159  0.258167  1
  H  H23  1  0.728841  0.501987  0.258167  1
  H  H24  1  0.939133  0.731982  0.252956  1
  H  H25  1  0.731982  0.939133  0.252956  1
  H  H26  1  0.268018  0.060867  0.252956  1
  H  H27  1  0.060867  0.268018  0.252956  1
  H  H28  1  0.266663  0.733337  0.515462  1
  H  H29  1  0.733337  0.266663  0.515462  1
  Ir  Ir30  1  0.280616  0.719384  0.734771  1
  Ir  Ir31  1  0.719384  0.280616  0.734771  1
  Ir  Ir32  1  0.719384  0.719384  0.265229  1
  Ir  Ir33  1  0.280616  0.280616  0.265229  1
  Pb  Pb34  1  0.000000  0.500000  0.500000  1
  Pb  Pb35  1  0.500000  0.000000  0.500000  1
