# generated using pymatgen
data_In9Pd12Pt
_symmetry_space_group_name_H-M   'P 1'
_cell_length_a   9.01163916
_cell_length_b   9.01163838
_cell_length_c   9.62335946
_cell_angle_alpha   134.51592277
_cell_angle_beta   45.48408557
_cell_angle_gamma   120.53113528
_symmetry_Int_Tables_number   1
_chemical_formula_structural   In9Pd12Pt
_chemical_formula_sum   'In9 Pd12 Pt1'
_cell_volume   397.14911728
_cell_formula_units_Z   1
loop_
 _symmetry_equiv_pos_site_id
 _symmetry_equiv_pos_as_xyz
  1  'x, y, z'
loop_
 _atom_site_type_symbol
 _atom_site_label
 _atom_site_symmetry_multiplicity
 _atom_site_fract_x
 _atom_site_fract_y
 _atom_site_fract_z
 _atom_site_occupancy
  In  In0  1  0.174410  0.245944  0.763772  1
  In  In1  1  0.245944  0.174410  0.236228  1
  In  In2  1  0.826033  0.754164  0.236398  1
  In  In3  1  0.754164  0.826032  0.763602  1
  In  In4  1  0.499854  0.499856  0.500001  1
  In  In5  1  0.706164  0.293209  0.754026  1
  In  In6  1  0.293208  0.706165  0.245977  1
  In  In7  1  0.177580  0.823601  0.764105  1
  In  In8  1  0.823601  0.177580  0.235896  1
  Pd  Pd9  1  0.062905  0.457852  0.737857  1
  Pd  Pd10  1  0.457850  0.062906  0.262146  1
  Pd  Pd11  1  0.937114  0.541453  0.261572  1
  Pd  Pd12  1  0.541452  0.937116  0.738431  1
  Pd  Pd13  1  0.455029  0.544618  0.269093  1
  Pd  Pd14  1  0.544618  0.455030  0.730908  1
  Pd  Pd15  1  0.256933  0.742935  0.994776  1
  Pd  Pd16  1  0.742936  0.256933  0.005222  1
  Pd  Pd17  1  0.254616  0.254616  0.000000  1
  Pd  Pd18  1  0.499262  0.999356  0.499817  1
  Pd  Pd19  1  0.999357  0.499262  0.500184  1
  Pd  Pd20  1  0.999829  0.999830  0.500000  1
  Pt  Pt21  1  0.747141  0.747141  0.000000  1
