# generated using pymatgen
data_Cs2Cd(BSe)9
_symmetry_space_group_name_H-M   'P 1'
_cell_length_a   9.98810230
_cell_length_b   10.76675954
_cell_length_c   11.32077600
_cell_angle_alpha   100.23804690
_cell_angle_beta   90.60580412
_cell_angle_gamma   116.28401575
_symmetry_Int_Tables_number   1
_chemical_formula_structural   Cs2Cd(BSe)9
_chemical_formula_sum   'Cs4 Cd2 B18 Se18'
_cell_volume   1068.66721958
_cell_formula_units_Z   2
loop_
 _symmetry_equiv_pos_site_id
 _symmetry_equiv_pos_as_xyz
  1  'x, y, z'
loop_
 _atom_site_type_symbol
 _atom_site_label
 _atom_site_symmetry_multiplicity
 _atom_site_fract_x
 _atom_site_fract_y
 _atom_site_fract_z
 _atom_site_occupancy
  Cs  Cs0  1  0.791768  0.174197  0.001557  1
  Cs  Cs1  1  0.208232  0.825803  0.998443  1
  Cs  Cs2  1  0.174554  0.343370  0.505834  1
  Cs  Cs3  1  0.825446  0.656630  0.494166  1
  Cd  Cd4  1  0.322855  0.317799  0.077347  1
  Cd  Cd5  1  0.677145  0.682201  0.922653  1
  B  B6  1  0.515196  0.162722  0.551524  1
  B  B7  1  0.484804  0.837278  0.448476  1
  B  B8  1  0.661912  0.120310  0.586269  1
  B  B9  1  0.338088  0.879690  0.413731  1
  B  B10  1  0.486408  0.042575  0.647895  1
  B  B11  1  0.513592  0.957425  0.352105  1
  B  B12  1  0.339136  0.008063  0.538593  1
  B  B13  1  0.660864  0.991937  0.461407  1
  B  B14  1  0.423130  0.063154  0.406273  1
  B  B15  1  0.576870  0.936846  0.593727  1
  B  B16  1  0.620561  0.131467  0.435907  1
  B  B17  1  0.379439  0.868533  0.564093  1
  B  B18  1  0.748577  0.413601  0.714178  1
  B  B19  1  0.251423  0.586399  0.285822  1
  B  B20  1  0.252178  0.087353  0.779657  1
  B  B21  1  0.747822  0.912647  0.220343  1
  B  B22  1  0.569407  0.283546  0.260522  1
  B  B23  1  0.430593  0.716454  0.739478  1
  Se  Se24  1  0.554457  0.360805  0.627213  1
  Se  Se25  1  0.445543  0.639195  0.372787  1
  Se  Se26  1  0.837937  0.280697  0.693638  1
  Se  Se27  1  0.162063  0.719303  0.306362  1
  Se  Se28  1  0.448145  0.096210  0.819003  1
  Se  Se29  1  0.551855  0.903790  0.180997  1
  Se  Se30  1  0.163858  0.027715  0.610090  1
  Se  Se31  1  0.836142  0.972285  0.389910  1
  Se  Se32  1  0.363291  0.156066  0.289809  1
  Se  Se33  1  0.636709  0.843934  0.710191  1
  Se  Se34  1  0.742653  0.285307  0.347189  1
  Se  Se35  1  0.257347  0.714693  0.652811  1
  Se  Se36  1  0.865132  0.600072  0.814111  1
  Se  Se37  1  0.134868  0.399928  0.185889  1
  Se  Se38  1  0.132439  0.122850  0.902145  1
  Se  Se39  1  0.867561  0.877150  0.097855  1
  Se  Se40  1  0.605647  0.406073  0.144957  1
  Se  Se41  1  0.394353  0.593927  0.855043  1
