# generated using pymatgen
data_SmHo5(SiRh2)6
_symmetry_space_group_name_H-M   'P 1'
_cell_length_a   5.57505700
_cell_length_b   5.57505676
_cell_length_c   15.01982200
_cell_angle_alpha   90.00000000
_cell_angle_beta   90.00000000
_cell_angle_gamma   119.99999550
_symmetry_Int_Tables_number   1
_chemical_formula_structural   SmHo5(SiRh2)6
_chemical_formula_sum   'Sm1 Ho5 Si6 Rh12'
_cell_volume   404.29097116
_cell_formula_units_Z   1
loop_
 _symmetry_equiv_pos_site_id
 _symmetry_equiv_pos_as_xyz
  1  'x, y, z'
loop_
 _atom_site_type_symbol
 _atom_site_label
 _atom_site_symmetry_multiplicity
 _atom_site_fract_x
 _atom_site_fract_y
 _atom_site_fract_z
 _atom_site_occupancy
  Sm  Sm0  1  0.333333  0.666667  0.250000  1
  Ho  Ho1  1  0.666667  0.333333  0.962633  1
  Ho  Ho2  1  0.666667  0.333333  0.537367  1
  Ho  Ho3  1  0.333333  0.666667  0.037245  1
  Ho  Ho4  1  0.666667  0.333333  0.750000  1
  Ho  Ho5  1  0.333333  0.666667  0.462755  1
  Si  Si6  1  0.666667  0.333333  0.250000  1
  Si  Si7  1  0.000000  0.000000  0.499997  1
  Si  Si8  1  0.000000  0.000000  0.250000  1
  Si  Si9  1  0.000000  0.000000  0.750000  1
  Si  Si10  1  0.333333  0.666667  0.750000  1
  Si  Si11  1  0.000000  0.000000  0.000003  1
  Rh  Rh12  1  0.166930  0.333860  0.869873  1
  Rh  Rh13  1  0.166930  0.333860  0.630127  1
  Rh  Rh14  1  0.666140  0.833070  0.869873  1
  Rh  Rh15  1  0.333873  0.166936  0.370105  1
  Rh  Rh16  1  0.833064  0.666127  0.370105  1
  Rh  Rh17  1  0.833064  0.166936  0.370105  1
  Rh  Rh18  1  0.833064  0.166936  0.129895  1
  Rh  Rh19  1  0.333873  0.166936  0.129895  1
  Rh  Rh20  1  0.666140  0.833070  0.630127  1
  Rh  Rh21  1  0.166930  0.833070  0.630127  1
  Rh  Rh22  1  0.833064  0.666127  0.129895  1
  Rh  Rh23  1  0.166930  0.833070  0.869873  1
