# generated using pymatgen
data_HfSc3Si6Ir5Rh2
_symmetry_space_group_name_H-M   'P 1'
_cell_length_a   6.98556790
_cell_length_b   6.96493869
_cell_length_c   6.98612506
_cell_angle_alpha   109.44745700
_cell_angle_beta   109.51526849
_cell_angle_gamma   109.39274135
_symmetry_Int_Tables_number   1
_chemical_formula_structural   HfSc3Si6Ir5Rh2
_chemical_formula_sum   'Hf1 Sc3 Si6 Ir5 Rh2'
_cell_volume   261.84520660
_cell_formula_units_Z   1
loop_
 _symmetry_equiv_pos_site_id
 _symmetry_equiv_pos_as_xyz
  1  'x, y, z'
loop_
 _atom_site_type_symbol
 _atom_site_label
 _atom_site_symmetry_multiplicity
 _atom_site_fract_x
 _atom_site_fract_y
 _atom_site_fract_z
 _atom_site_occupancy
  Hf  Hf0  1  0.000115  0.500058  0.000058  1
  Sc  Sc1  1  0.999989  0.999994  0.499994  1
  Sc  Sc2  1  0.499908  0.999863  0.999880  1
  Sc  Sc3  1  0.499908  0.500046  0.500029  1
  Si  Si4  1  0.681359  0.683970  0.000094  1
  Si  Si5  1  0.318767  0.002741  0.318732  1
  Si  Si6  1  0.999942  0.316455  0.319064  1
  Si  Si7  1  0.318767  0.316025  0.000035  1
  Si  Si8  1  0.681359  0.997390  0.681265  1
  Si  Si9  1  0.999942  0.683487  0.680878  1
  Ir  Ir10  1  0.501973  0.250986  0.750986  1
  Ir  Ir11  1  0.248582  0.499767  0.750360  1
  Ir  Ir12  1  0.248581  0.748815  0.498221  1
  Ir  Ir13  1  0.498858  0.749429  0.249430  1
  Ir  Ir14  1  0.999973  0.999986  0.999986  1
  Rh  Rh15  1  0.750988  0.251012  0.501389  1
  Rh  Rh16  1  0.750988  0.499975  0.249599  1
