# generated using pymatgen
data_Ho5Er3Ti7Si16Tc5
_symmetry_space_group_name_H-M   'P 1'
_cell_length_a   6.90982462
_cell_length_b   6.91889569
_cell_length_c   12.73259804
_cell_angle_alpha   89.80464470
_cell_angle_beta   89.92506997
_cell_angle_gamma   89.92965105
_symmetry_Int_Tables_number   1
_chemical_formula_structural   Ho5Er3Ti7Si16Tc5
_chemical_formula_sum   'Ho5 Er3 Ti7 Si16 Tc5'
_cell_volume   608.72006288
_cell_formula_units_Z   1
loop_
 _symmetry_equiv_pos_site_id
 _symmetry_equiv_pos_as_xyz
  1  'x, y, z'
loop_
 _atom_site_type_symbol
 _atom_site_label
 _atom_site_symmetry_multiplicity
 _atom_site_fract_x
 _atom_site_fract_y
 _atom_site_fract_z
 _atom_site_occupancy
  Ho  Ho0  1  0.839432  0.498454  0.279930  1
  Ho  Ho1  1  0.159747  0.499174  0.781971  1
  Ho  Ho2  1  0.658896  0.999607  0.968308  1
  Ho  Ho3  1  0.000765  0.340765  0.531227  1
  Ho  Ho4  1  0.997477  0.658334  0.029037  1
  Er  Er5  1  0.340469  0.000131  0.469992  1
  Er  Er6  1  0.498652  0.840338  0.719749  1
  Er  Er7  1  0.499372  0.158971  0.218645  1
  Ti  Ti8  1  0.493525  0.657811  0.126895  1
  Ti  Ti9  1  0.501761  0.346121  0.628597  1
  Ti  Ti10  1  0.655822  0.496766  0.873347  1
  Ti  Ti11  1  0.346217  0.504933  0.373484  1
  Ti  Ti12  1  0.846204  0.996701  0.376583  1
  Ti  Ti13  1  0.004085  0.155556  0.126005  1
  Ti  Ti14  1  0.995927  0.846853  0.622810  1
  Si  Si15  1  0.196884  0.127656  0.687162  1
  Si  Si16  1  0.375440  0.702289  0.933828  1
  Si  Si17  1  0.627975  0.299652  0.434207  1
  Si  Si18  1  0.700196  0.371325  0.065796  1
  Si  Si19  1  0.300264  0.629646  0.566314  1
  Si  Si20  1  0.800131  0.871103  0.183417  1
  Si  Si21  1  0.129725  0.200409  0.317336  1
  Si  Si22  1  0.875145  0.806069  0.815772  1
  Si  Si23  1  0.289908  0.958868  0.062202  1
  Si  Si24  1  0.546825  0.791211  0.317602  1
  Si  Si25  1  0.446468  0.210429  0.819185  1
  Si  Si26  1  0.790230  0.548637  0.682898  1
  Si  Si27  1  0.209449  0.453475  0.182786  1
  Si  Si28  1  0.709095  0.046500  0.567300  1
  Si  Si29  1  0.961769  0.279585  0.931860  1
  Si  Si30  1  0.046476  0.710203  0.431844  1
  Tc  Tc31  1  0.328827  0.332096  0.001202  1
  Tc  Tc32  1  0.170021  0.830825  0.247529  1
  Tc  Tc33  1  0.825916  0.169907  0.748277  1
  Tc  Tc34  1  0.670073  0.670038  0.500531  1
  Tc  Tc35  1  0.160831  0.989560  0.876375  1
