# generated using pymatgen
data_Tm2Lu2FeSi4Rh3
_symmetry_space_group_name_H-M   'P 1'
_cell_length_a   4.21992200
_cell_length_b   6.79700925
_cell_length_c   7.20432851
_cell_angle_alpha   90.12310615
_cell_angle_beta   90.00000000
_cell_angle_gamma   90.00000000
_symmetry_Int_Tables_number   1
_chemical_formula_structural   Tm2Lu2FeSi4Rh3
_chemical_formula_sum   'Tm2 Lu2 Fe1 Si4 Rh3'
_cell_volume   206.64018894
_cell_formula_units_Z   1
loop_
 _symmetry_equiv_pos_site_id
 _symmetry_equiv_pos_as_xyz
  1  'x, y, z'
loop_
 _atom_site_type_symbol
 _atom_site_label
 _atom_site_symmetry_multiplicity
 _atom_site_fract_x
 _atom_site_fract_y
 _atom_site_fract_z
 _atom_site_occupancy
  Tm  Tm0  1  0.750000  0.997089  0.191148  1
  Tm  Tm1  1  0.750000  0.508944  0.315584  1
  Lu  Lu2  1  0.250000  0.993764  0.806518  1
  Lu  Lu3  1  0.250000  0.492021  0.690668  1
  Fe  Fe4  1  0.750000  0.848255  0.566182  1
  Si  Si5  1  0.250000  0.295957  0.107292  1
  Si  Si6  1  0.750000  0.708851  0.875036  1
  Si  Si7  1  0.250000  0.796126  0.409444  1
  Si  Si8  1  0.750000  0.193949  0.609933  1
  Rh  Rh9  1  0.250000  0.158639  0.434855  1
  Rh  Rh10  1  0.750000  0.346176  0.932091  1
  Rh  Rh11  1  0.250000  0.660229  0.061248  1
