# generated using pymatgen
data_La17Yb3(GeBi2)4
_symmetry_space_group_name_H-M   'P 1'
_cell_length_a   8.33613004
_cell_length_b   9.49768600
_cell_length_c   12.64404600
_cell_angle_alpha   90.00000000
_cell_angle_beta   90.44110487
_cell_angle_gamma   90.00000000
_symmetry_Int_Tables_number   1
_chemical_formula_structural   La17Yb3(GeBi2)4
_chemical_formula_sum   'La17 Yb3 Ge4 Bi8'
_cell_volume   1001.04934302
_cell_formula_units_Z   1
loop_
 _symmetry_equiv_pos_site_id
 _symmetry_equiv_pos_as_xyz
  1  'x, y, z'
loop_
 _atom_site_type_symbol
 _atom_site_label
 _atom_site_symmetry_multiplicity
 _atom_site_fract_x
 _atom_site_fract_y
 _atom_site_fract_z
 _atom_site_occupancy
  La  La0  1  0.478403  0.750000  0.001888  1
  La  La1  1  0.860136  0.750000  0.789385  1
  La  La2  1  0.134499  0.250000  0.212867  1
  La  La3  1  0.361543  0.250000  0.709719  1
  La  La4  1  0.636464  0.750000  0.291304  1
  La  La5  1  0.688066  0.547769  0.561456  1
  La  La6  1  0.310139  0.455216  0.437013  1
  La  La7  1  0.188086  0.454968  0.936154  1
  La  La8  1  0.310139  0.044784  0.437013  1
  La  La9  1  0.808742  0.550210  0.061407  1
  La  La10  1  0.688066  0.952231  0.561456  1
  La  La11  1  0.808742  0.949790  0.061407  1
  La  La12  1  0.188086  0.045032  0.936154  1
  La  La13  1  0.338044  0.750000  0.713779  1
  La  La14  1  0.662941  0.250000  0.288282  1
  La  La15  1  0.841130  0.250000  0.787102  1
  La  La16  1  0.160835  0.750000  0.212037  1
  Yb  Yb17  1  0.043683  0.750000  0.499850  1
  Yb  Yb18  1  0.953693  0.250000  0.501460  1
  Yb  Yb19  1  0.547791  0.250000  0.001160  1
  Ge  Ge20  1  0.081725  0.750000  0.976799  1
  Ge  Ge21  1  0.917648  0.250000  0.024458  1
  Ge  Ge22  1  0.579140  0.250000  0.522812  1
  Ge  Ge23  1  0.417893  0.750000  0.478974  1
  Bi  Bi24  1  0.572810  0.505433  0.826511  1
  Bi  Bi25  1  0.424960  0.488030  0.171892  1
  Bi  Bi26  1  0.071503  0.490893  0.669128  1
  Bi  Bi27  1  0.424960  0.011970  0.171892  1
  Bi  Bi28  1  0.927908  0.509673  0.330499  1
  Bi  Bi29  1  0.572810  0.994567  0.826511  1
  Bi  Bi30  1  0.927908  0.990327  0.330499  1
  Bi  Bi31  1  0.071503  0.009107  0.669128  1
