# generated using pymatgen
data_Sc2VReSi2
_symmetry_space_group_name_H-M   'P 1'
_cell_length_a   6.93433300
_cell_length_b   3.50383800
_cell_length_c   8.03597700
_cell_angle_alpha   90.00000000
_cell_angle_beta   90.00000000
_cell_angle_gamma   90.00000000
_symmetry_Int_Tables_number   1
_chemical_formula_structural   Sc2VReSi2
_chemical_formula_sum   'Sc4 V2 Re2 Si4'
_cell_volume   195.24836100
_cell_formula_units_Z   2
loop_
 _symmetry_equiv_pos_site_id
 _symmetry_equiv_pos_as_xyz
  1  'x, y, z'
loop_
 _atom_site_type_symbol
 _atom_site_label
 _atom_site_symmetry_multiplicity
 _atom_site_fract_x
 _atom_site_fract_y
 _atom_site_fract_z
 _atom_site_occupancy
  Sc  Sc0  1  0.459028  0.250000  0.165936  1
  Sc  Sc1  1  0.959027  0.250000  0.334064  1
  Sc  Sc2  1  0.044782  0.750000  0.665454  1
  Sc  Sc3  1  0.544781  0.750000  0.834546  1
  V  V4  1  0.121198  0.750000  0.058410  1
  V  V5  1  0.621197  0.750000  0.441589  1
  Re  Re6  1  0.375100  0.250000  0.558136  1
  Re  Re7  1  0.875099  0.250000  0.941863  1
  Si  Si8  1  0.758648  0.750000  0.138466  1
  Si  Si9  1  0.258647  0.750000  0.361533  1
  Si  Si10  1  0.741248  0.250000  0.636213  1
  Si  Si11  1  0.241247  0.250000  0.863786  1
