# generated using pymatgen
data_Dy6Co16Si11POs2
_symmetry_space_group_name_H-M   'P 1'
_cell_length_a   3.80710200
_cell_length_b   10.70440400
_cell_length_c   12.42033300
_cell_angle_alpha   90.00000000
_cell_angle_beta   90.00000000
_cell_angle_gamma   90.00000000
_symmetry_Int_Tables_number   1
_chemical_formula_structural   Dy6Co16Si11POs2
_chemical_formula_sum   'Dy6 Co16 Si11 P1 Os2'
_cell_volume   506.16282350
_cell_formula_units_Z   1
loop_
 _symmetry_equiv_pos_site_id
 _symmetry_equiv_pos_as_xyz
  1  'x, y, z'
loop_
 _atom_site_type_symbol
 _atom_site_label
 _atom_site_symmetry_multiplicity
 _atom_site_fract_x
 _atom_site_fract_y
 _atom_site_fract_z
 _atom_site_occupancy
  Dy  Dy0  1  0.000000  0.500000  0.526830  1
  Dy  Dy1  1  0.500000  0.000000  0.475041  1
  Dy  Dy2  1  0.500000  0.817895  0.204897  1
  Dy  Dy3  1  0.500000  0.182105  0.204897  1
  Dy  Dy4  1  0.000000  0.681656  0.795589  1
  Dy  Dy5  1  0.000000  0.318344  0.795589  1
  Co  Co6  1  0.500000  0.500000  0.696409  1
  Co  Co7  1  0.000000  0.000000  0.303570  1
  Co  Co8  1  0.000000  0.500000  0.982447  1
  Co  Co9  1  0.500000  0.000000  0.016132  1
  Co  Co10  1  0.500000  0.330341  0.992803  1
  Co  Co11  1  0.500000  0.669659  0.992803  1
  Co  Co12  1  0.000000  0.169122  0.006059  1
  Co  Co13  1  0.000000  0.830878  0.006059  1
  Co  Co14  1  0.500000  0.300262  0.430948  1
  Co  Co15  1  0.500000  0.699738  0.430948  1
  Co  Co16  1  0.000000  0.194663  0.571912  1
  Co  Co17  1  0.000000  0.805337  0.571912  1
  Co  Co18  1  0.500000  0.884130  0.706135  1
  Co  Co19  1  0.500000  0.115870  0.706135  1
  Co  Co20  1  0.000000  0.618259  0.293258  1
  Co  Co21  1  0.000000  0.381741  0.293258  1
  Si  Si22  1  0.500000  0.500000  0.882767  1
  Si  Si23  1  0.000000  0.000000  0.116817  1
  Si  Si24  1  0.500000  0.500000  0.342787  1
  Si  Si25  1  0.500000  0.302969  0.614752  1
  Si  Si26  1  0.500000  0.697031  0.614752  1
  Si  Si27  1  0.000000  0.195830  0.386893  1
  Si  Si28  1  0.000000  0.804170  0.386893  1
  Si  Si29  1  0.500000  0.849946  0.893116  1
  Si  Si30  1  0.500000  0.150054  0.893116  1
  Si  Si31  1  0.000000  0.649924  0.106195  1
  Si  Si32  1  0.000000  0.350076  0.106195  1
  P  P33  1  0.000000  0.000000  0.656472  1
  Os  Os34  1  0.500000  0.500000  0.150815  1
  Os  Os35  1  0.000000  0.000000  0.844800  1
