# generated using pymatgen
data_Tm7Zr(Si4W3)4
_symmetry_space_group_name_H-M   'P 1'
_cell_length_a   6.69791702
_cell_length_b   6.87641854
_cell_length_c   12.84164114
_cell_angle_alpha   89.90220734
_cell_angle_beta   90.00496698
_cell_angle_gamma   90.09666281
_symmetry_Int_Tables_number   1
_chemical_formula_structural   Tm7Zr(Si4W3)4
_chemical_formula_sum   'Tm7 Zr1 Si16 W12'
_cell_volume   591.45450327
_cell_formula_units_Z   1
loop_
 _symmetry_equiv_pos_site_id
 _symmetry_equiv_pos_as_xyz
  1  'x, y, z'
loop_
 _atom_site_type_symbol
 _atom_site_label
 _atom_site_symmetry_multiplicity
 _atom_site_fract_x
 _atom_site_fract_y
 _atom_site_fract_z
 _atom_site_occupancy
  Tm  Tm0  1  0.996014  0.167703  0.093773  1
  Tm  Tm1  1  0.003897  0.832292  0.905892  1
  Tm  Tm2  1  0.503988  0.667080  0.906595  1
  Tm  Tm3  1  0.005645  0.831758  0.592807  1
  Tm  Tm4  1  0.495992  0.331858  0.093691  1
  Tm  Tm5  1  0.996422  0.167832  0.407368  1
  Tm  Tm6  1  0.496753  0.333512  0.407714  1
  Zr  Zr7  1  0.505623  0.669778  0.596427  1
  Si  Si8  1  0.034813  0.128057  0.749707  1
  Si  Si9  1  0.963796  0.871336  0.250198  1
  Si  Si10  1  0.464487  0.627618  0.249705  1
  Si  Si11  1  0.535398  0.373175  0.748749  1
  Si  Si12  1  0.302997  0.864577  0.749439  1
  Si  Si13  1  0.697068  0.134262  0.250641  1
  Si  Si14  1  0.198011  0.364758  0.250534  1
  Si  Si15  1  0.800671  0.635413  0.749698  1
  Si  Si16  1  0.167912  0.461015  0.544978  1
  Si  Si17  1  0.835678  0.541204  0.455652  1
  Si  Si18  1  0.338057  0.957559  0.455541  1
  Si  Si19  1  0.837585  0.540576  0.046070  1
  Si  Si20  1  0.661866  0.039116  0.545506  1
  Si  Si21  1  0.161269  0.458964  0.953409  1
  Si  Si22  1  0.661387  0.040473  0.952999  1
  Si  Si23  1  0.337854  0.960249  0.046069  1
  W  W24  1  0.165924  0.503055  0.747728  1
  W  W25  1  0.834202  0.498173  0.251439  1
  W  W26  1  0.333372  0.001210  0.250278  1
  W  W27  1  0.666039  0.995382  0.748548  1
  W  W28  1  0.331966  0.164375  0.624324  1
  W  W29  1  0.666409  0.834164  0.376503  1
  W  W30  1  0.168262  0.664181  0.375230  1
  W  W31  1  0.667413  0.835009  0.124827  1
  W  W32  1  0.832304  0.338105  0.624737  1
  W  W33  1  0.331992  0.165701  0.874033  1
  W  W34  1  0.830935  0.337094  0.874896  1
  W  W35  1  0.168002  0.663383  0.124293  1
