# generated using pymatgen
data_Nd2InPb3
_symmetry_space_group_name_H-M   'P 1'
_cell_length_a   8.14453777
_cell_length_b   8.14453697
_cell_length_c   4.76955100
_cell_angle_alpha   90.00000000
_cell_angle_beta   90.00000000
_cell_angle_gamma   145.81476406
_symmetry_Int_Tables_number   1
_chemical_formula_structural   Nd2InPb3
_chemical_formula_sum   'Nd2 In1 Pb3'
_cell_volume   177.76504388
_cell_formula_units_Z   1
loop_
 _symmetry_equiv_pos_site_id
 _symmetry_equiv_pos_as_xyz
  1  'x, y, z'
loop_
 _atom_site_type_symbol
 _atom_site_label
 _atom_site_symmetry_multiplicity
 _atom_site_fract_x
 _atom_site_fract_y
 _atom_site_fract_z
 _atom_site_occupancy
  Nd  Nd0  1  0.851799  0.148201  0.000000  1
  Nd  Nd1  1  0.148201  0.851799  0.000000  1
  In  In2  1  0.000000  0.000000  0.500000  1
  Pb  Pb3  1  0.500000  0.500000  0.000000  1
  Pb  Pb4  1  0.674662  0.325338  0.500000  1
  Pb  Pb5  1  0.325338  0.674662  0.500000  1
