# generated using pymatgen
data_Ce12Mn6AlSi5
_symmetry_space_group_name_H-M   'P 1'
_cell_length_a   7.51201600
_cell_length_b   7.51201490
_cell_length_c   9.55085300
_cell_angle_alpha   90.00000000
_cell_angle_beta   90.00000000
_cell_angle_gamma   119.99999602
_symmetry_Int_Tables_number   1
_chemical_formula_structural   Ce12Mn6AlSi5
_chemical_formula_sum   'Ce12 Mn6 Al1 Si5'
_cell_volume   466.75153509
_cell_formula_units_Z   1
loop_
 _symmetry_equiv_pos_site_id
 _symmetry_equiv_pos_as_xyz
  1  'x, y, z'
loop_
 _atom_site_type_symbol
 _atom_site_label
 _atom_site_symmetry_multiplicity
 _atom_site_fract_x
 _atom_site_fract_y
 _atom_site_fract_z
 _atom_site_occupancy
  Ce  Ce0  1  0.000000  0.571912  0.495404  1
  Ce  Ce1  1  0.571912  0.000000  0.495404  1
  Ce  Ce2  1  0.428088  0.428088  0.495404  1
  Ce  Ce3  1  0.000000  0.433068  0.996371  1
  Ce  Ce4  1  0.433068  0.000000  0.996371  1
  Ce  Ce5  1  0.566932  0.566932  0.996371  1
  Ce  Ce6  1  0.000000  0.743982  0.182821  1
  Ce  Ce7  1  0.743982  0.000000  0.182821  1
  Ce  Ce8  1  0.256018  0.256018  0.182821  1
  Ce  Ce9  1  0.000000  0.256459  0.676454  1
  Ce  Ce10  1  0.256459  0.000000  0.676454  1
  Ce  Ce11  1  0.743541  0.743541  0.676454  1
  Mn  Mn12  1  0.000000  0.351782  0.343111  1
  Mn  Mn13  1  0.351782  0.000000  0.343111  1
  Mn  Mn14  1  0.648218  0.648218  0.343111  1
  Mn  Mn15  1  0.000000  0.643898  0.839837  1
  Mn  Mn16  1  0.643898  0.000000  0.839837  1
  Mn  Mn17  1  0.356102  0.356102  0.839837  1
  Al  Al18  1  0.000000  0.000000  0.923860  1
  Si  Si19  1  0.666667  0.333333  0.270681  1
  Si  Si20  1  0.333333  0.666667  0.270681  1
  Si  Si21  1  0.333333  0.666667  0.769237  1
  Si  Si22  1  0.666667  0.333333  0.769237  1
  Si  Si23  1  0.000000  0.000000  0.423561  1
