# generated using pymatgen
data_Tb3Pr2Sn3Hg
_symmetry_space_group_name_H-M   'P 1'
_cell_length_a   7.96907300
_cell_length_b   8.46663000
_cell_length_c   15.66574300
_cell_angle_alpha   90.00000000
_cell_angle_beta   90.00000000
_cell_angle_gamma   90.00000000
_symmetry_Int_Tables_number   1
_chemical_formula_structural   Tb3Pr2Sn3Hg
_chemical_formula_sum   'Tb12 Pr8 Sn12 Hg4'
_cell_volume   1056.98636214
_cell_formula_units_Z   4
loop_
 _symmetry_equiv_pos_site_id
 _symmetry_equiv_pos_as_xyz
  1  'x, y, z'
loop_
 _atom_site_type_symbol
 _atom_site_label
 _atom_site_symmetry_multiplicity
 _atom_site_fract_x
 _atom_site_fract_y
 _atom_site_fract_z
 _atom_site_occupancy
  Tb  Tb0  1  0.337338  0.832679  0.874333  1
  Tb  Tb1  1  0.837338  0.667321  0.625667  1
  Tb  Tb2  1  0.662662  0.167321  0.374333  1
  Tb  Tb3  1  0.162662  0.332679  0.125667  1
  Tb  Tb4  1  0.662662  0.167321  0.125667  1
  Tb  Tb5  1  0.162662  0.332679  0.374333  1
  Tb  Tb6  1  0.337338  0.832679  0.625667  1
  Tb  Tb7  1  0.837338  0.667321  0.874333  1
  Tb  Tb8  1  0.180467  0.495034  0.750000  1
  Tb  Tb9  1  0.680467  0.004966  0.750000  1
  Tb  Tb10  1  0.819533  0.504966  0.250000  1
  Tb  Tb11  1  0.319533  0.995034  0.250000  1
  Pr  Pr12  1  0.502575  0.316887  0.907971  1
  Pr  Pr13  1  0.002575  0.183113  0.592029  1
  Pr  Pr14  1  0.497425  0.683113  0.407971  1
  Pr  Pr15  1  0.997425  0.816887  0.092029  1
  Pr  Pr16  1  0.497425  0.683113  0.092029  1
  Pr  Pr17  1  0.997425  0.816887  0.407971  1
  Pr  Pr18  1  0.502575  0.316887  0.592029  1
  Pr  Pr19  1  0.002575  0.183113  0.907971  1
  Sn  Sn20  1  0.318625  0.037513  0.041410  1
  Sn  Sn21  1  0.818625  0.462487  0.458590  1
  Sn  Sn22  1  0.681375  0.962487  0.541410  1
  Sn  Sn23  1  0.181375  0.537513  0.958590  1
  Sn  Sn24  1  0.681375  0.962487  0.958590  1
  Sn  Sn25  1  0.181375  0.537513  0.541410  1
  Sn  Sn26  1  0.318625  0.037513  0.458590  1
  Sn  Sn27  1  0.818625  0.462487  0.041410  1
  Sn  Sn28  1  0.300955  0.136339  0.750000  1
  Sn  Sn29  1  0.800955  0.363661  0.750000  1
  Sn  Sn30  1  0.699045  0.863661  0.250000  1
  Sn  Sn31  1  0.199045  0.636339  0.250000  1
  Hg  Hg32  1  0.538231  0.620088  0.750000  1
  Hg  Hg33  1  0.038231  0.879912  0.750000  1
  Hg  Hg34  1  0.461769  0.379912  0.250000  1
  Hg  Hg35  1  0.961769  0.120088  0.250000  1
