# generated using pymatgen
data_Ca12Ga12Sn5(RhO16)3
_symmetry_space_group_name_H-M   'P 1'
_cell_length_a   10.97076768
_cell_length_b   10.97076754
_cell_length_c   10.97923100
_cell_angle_alpha   109.48685070
_cell_angle_beta   109.48685044
_cell_angle_gamma   109.45558536
_symmetry_Int_Tables_number   1
_chemical_formula_structural   Ca12Ga12Sn5(RhO16)3
_chemical_formula_sum   'Ca12 Ga12 Sn5 Rh3 O48'
_cell_volume   1017.04520863
_cell_formula_units_Z   1
loop_
 _symmetry_equiv_pos_site_id
 _symmetry_equiv_pos_as_xyz
  1  'x, y, z'
loop_
 _atom_site_type_symbol
 _atom_site_label
 _atom_site_symmetry_multiplicity
 _atom_site_fract_x
 _atom_site_fract_y
 _atom_site_fract_z
 _atom_site_occupancy
  Ca  Ca0  1  0.249457  0.375276  0.125024  1
  Ca  Ca1  1  0.750543  0.624724  0.874976  1
  Ca  Ca2  1  0.748790  0.123643  0.374536  1
  Ca  Ca3  1  0.125819  0.250543  0.375567  1
  Ca  Ca4  1  0.374853  0.751210  0.125746  1
  Ca  Ca5  1  0.251210  0.876357  0.625464  1
  Ca  Ca6  1  0.874181  0.749457  0.624433  1
  Ca  Ca7  1  0.625147  0.248790  0.874254  1
  Ca  Ca8  1  0.376357  0.125147  0.250893  1
  Ca  Ca9  1  0.623643  0.874853  0.749107  1
  Ca  Ca10  1  0.124724  0.374181  0.749749  1
  Ca  Ca11  1  0.875276  0.625819  0.250251  1
  Ga  Ga12  1  0.251655  0.623762  0.375669  1
  Ga  Ga13  1  0.748345  0.376238  0.624331  1
  Ga  Ga14  1  0.750087  0.876816  0.126427  1
  Ga  Ga15  1  0.372107  0.248345  0.624014  1
  Ga  Ga16  1  0.627893  0.751655  0.375986  1
  Ga  Ga17  1  0.249913  0.123184  0.873573  1
  Ga  Ga18  1  0.126730  0.749913  0.876341  1
  Ga  Ga19  1  0.873270  0.250087  0.123659  1
  Ga  Ga20  1  0.623184  0.373270  0.249611  1
  Ga  Ga21  1  0.376816  0.626730  0.750389  1
  Ga  Ga22  1  0.876238  0.127893  0.751907  1
  Ga  Ga23  1  0.123762  0.872107  0.248093  1
  Sn  Sn24  1  0.500000  0.000000  0.500000  1
  Sn  Sn25  1  0.500000  0.000000  0.000000  1
  Sn  Sn26  1  0.500000  0.500000  0.500000  1
  Sn  Sn27  1  0.000000  0.000000  0.500000  1
  Sn  Sn28  1  0.000000  0.500000  0.000000  1
  Rh  Rh29  1  0.000000  0.000000  0.000000  1
  Rh  Rh30  1  0.000000  0.500000  0.500000  1
  Rh  Rh31  1  0.500000  0.500000  0.000000  1
  O  O32  1  0.474571  0.378473  0.292047  1
  O  O33  1  0.525429  0.621527  0.707953  1
  O  O34  1  0.586338  0.182661  0.206526  1
  O  O35  1  0.915374  0.122410  0.598327  1
  O  O36  1  0.291140  0.472299  0.377244  1
  O  O37  1  0.317963  0.920226  0.294122  1
  O  O38  1  0.413662  0.817339  0.793474  1
  O  O39  1  0.084626  0.877590  0.401673  1
  O  O40  1  0.708860  0.527701  0.622756  1
  O  O41  1  0.682037  0.079774  0.705878  1
  O  O42  1  0.027701  0.318840  0.904945  1
  O  O43  1  0.207036  0.584626  0.182954  1
  O  O44  1  0.114443  0.019327  0.194423  1
  O  O45  1  0.972299  0.681160  0.095055  1
  O  O46  1  0.792964  0.415374  0.817046  1
  O  O47  1  0.885557  0.980673  0.805577  1
  O  O48  1  0.596323  0.913662  0.120188  1
  O  O49  1  0.176948  0.480590  0.598238  1
  O  O50  1  0.403677  0.086338  0.879812  1
  O  O51  1  0.823052  0.519410  0.401762  1
  O  O52  1  0.903901  0.025429  0.317476  1
  O  O53  1  0.380987  0.577285  0.901072  1
  O  O54  1  0.096099  0.974571  0.682524  1
  O  O55  1  0.619013  0.422715  0.098928  1
  O  O56  1  0.377590  0.292964  0.475917  1
  O  O57  1  0.579774  0.897737  0.373897  1
  O  O58  1  0.622410  0.707036  0.524083  1
  O  O59  1  0.420226  0.102263  0.626103  1
  O  O60  1  0.121527  0.596099  0.913574  1
  O  O61  1  0.019410  0.196359  0.117648  1
  O  O62  1  0.878473  0.403901  0.086426  1
  O  O63  1  0.980590  0.803641  0.882352  1
  O  O64  1  0.317339  0.903677  0.023865  1
  O  O65  1  0.922715  0.303702  0.323787  1
  O  O66  1  0.682661  0.096323  0.976135  1
  O  O67  1  0.077285  0.696298  0.676213  1
  O  O68  1  0.181160  0.208860  0.586105  1
  O  O69  1  0.480673  0.595117  0.175096  1
  O  O70  1  0.818840  0.791140  0.413895  1
  O  O71  1  0.519327  0.404883  0.824904  1
  O  O72  1  0.303641  0.323052  0.921290  1
  O  O73  1  0.696359  0.676948  0.078710  1
  O  O74  1  0.196298  0.119013  0.020085  1
  O  O75  1  0.803702  0.880987  0.979915  1
  O  O76  1  0.904883  0.385557  0.579980  1
  O  O77  1  0.095117  0.614443  0.420020  1
  O  O78  1  0.602263  0.182037  0.476160  1
  O  O79  1  0.397737  0.817963  0.523840  1
