# generated using pymatgen
data_LaIn2(SnRh)4
_symmetry_space_group_name_H-M   'P 1'
_cell_length_a   7.02689541
_cell_length_b   7.02689511
_cell_length_c   6.99754849
_cell_angle_alpha   120.23505623
_cell_angle_beta   120.23505549
_cell_angle_gamma   89.83434750
_symmetry_Int_Tables_number   1
_chemical_formula_structural   LaIn2(SnRh)4
_chemical_formula_sum   'La1 In2 Sn4 Rh4'
_cell_volume   242.93142913
_cell_formula_units_Z   1
loop_
 _symmetry_equiv_pos_site_id
 _symmetry_equiv_pos_as_xyz
  1  'x, y, z'
loop_
 _atom_site_type_symbol
 _atom_site_label
 _atom_site_symmetry_multiplicity
 _atom_site_fract_x
 _atom_site_fract_y
 _atom_site_fract_z
 _atom_site_occupancy
  La  La0  1  0.000735  0.000735  0.000000  1
  In  In1  1  0.467875  0.122141  0.000000  1
  In  In2  1  0.122141  0.467875  0.000000  1
  Sn  Sn3  1  0.874470  0.874470  0.342098  1
  Sn  Sn4  1  0.501531  0.001531  0.500000  1
  Sn  Sn5  1  0.001531  0.501531  0.500000  1
  Sn  Sn6  1  0.532372  0.532372  0.657903  1
  Rh  Rh7  1  0.748825  0.400829  0.000000  1
  Rh  Rh8  1  0.400829  0.748825  0.000000  1
  Rh  Rh9  1  0.608694  0.608694  0.367696  1
  Rh  Rh10  1  0.240998  0.240998  0.632305  1
