# generated using pymatgen
data_DyLu19Rh12
_symmetry_space_group_name_H-M   'P 1'
_cell_length_a   10.68824810
_cell_length_b   10.69361031
_cell_length_c   6.27217501
_cell_angle_alpha   89.97707994
_cell_angle_beta   90.00893401
_cell_angle_gamma   90.01322230
_symmetry_Int_Tables_number   1
_chemical_formula_structural   DyLu19Rh12
_chemical_formula_sum   'Dy1 Lu19 Rh12'
_cell_volume   716.88417897
_cell_formula_units_Z   1
loop_
 _symmetry_equiv_pos_site_id
 _symmetry_equiv_pos_as_xyz
  1  'x, y, z'
loop_
 _atom_site_type_symbol
 _atom_site_label
 _atom_site_symmetry_multiplicity
 _atom_site_fract_x
 _atom_site_fract_y
 _atom_site_fract_z
 _atom_site_occupancy
  Dy  Dy0  1  0.088268  0.290156  0.123594  1
  Lu  Lu1  1  0.292263  0.086861  0.378222  1
  Lu  Lu2  1  0.291564  0.912271  0.878040  1
  Lu  Lu3  1  0.708414  0.087700  0.877393  1
  Lu  Lu4  1  0.708395  0.912194  0.377753  1
  Lu  Lu5  1  0.587749  0.791624  0.877822  1
  Lu  Lu6  1  0.587750  0.208418  0.377752  1
  Lu  Lu7  1  0.412295  0.791485  0.377690  1
  Lu  Lu8  1  0.412424  0.208399  0.877457  1
  Lu  Lu9  1  0.208669  0.412848  0.622271  1
  Lu  Lu10  1  0.208556  0.588562  0.122211  1
  Lu  Lu11  1  0.790951  0.412625  0.122308  1
  Lu  Lu12  1  0.791267  0.587918  0.622427  1
  Lu  Lu13  1  0.912110  0.708535  0.122464  1
  Lu  Lu14  1  0.911651  0.291790  0.622327  1
  Lu  Lu15  1  0.087867  0.708657  0.622389  1
  Lu  Lu16  1  0.999813  0.999866  0.499995  1
  Lu  Lu17  1  0.999545  0.998993  0.999641  1
  Lu  Lu18  1  0.500022  0.500160  0.999595  1
  Lu  Lu19  1  0.500222  0.500115  0.499862  1
  Rh  Rh20  1  0.845188  0.153025  0.250592  1
  Rh  Rh21  1  0.846320  0.846171  0.750056  1
  Rh  Rh22  1  0.154172  0.152735  0.747154  1
  Rh  Rh23  1  0.153630  0.846333  0.249954  1
  Rh  Rh24  1  0.653679  0.346329  0.750073  1
  Rh  Rh25  1  0.653687  0.653644  0.250002  1
  Rh  Rh26  1  0.347967  0.346593  0.250933  1
  Rh  Rh27  1  0.346442  0.653675  0.750041  1
  Rh  Rh28  1  0.500200  0.999959  0.124088  1
  Rh  Rh29  1  0.500024  0.999899  0.624222  1
  Rh  Rh30  1  0.999489  0.501257  0.874726  1
  Rh  Rh31  1  0.999408  0.501204  0.376949  1
