# generated using pymatgen
data_Sr2Ca3Mn(PO4)4
_symmetry_space_group_name_H-M   'P 1'
_cell_length_a   9.21058045
_cell_length_b   9.25818858
_cell_length_c   9.64870873
_cell_angle_alpha   68.54449234
_cell_angle_beta   89.46447927
_cell_angle_gamma   91.17392245
_symmetry_Int_Tables_number   1
_chemical_formula_structural   Sr2Ca3Mn(PO4)4
_chemical_formula_sum   'Sr4 Ca6 Mn2 P8 O32'
_cell_volume   765.47412712
_cell_formula_units_Z   2
loop_
 _symmetry_equiv_pos_site_id
 _symmetry_equiv_pos_as_xyz
  1  'x, y, z'
loop_
 _atom_site_type_symbol
 _atom_site_label
 _atom_site_symmetry_multiplicity
 _atom_site_fract_x
 _atom_site_fract_y
 _atom_site_fract_z
 _atom_site_occupancy
  Sr  Sr0  1  0.239012  0.779655  0.223945  1
  Sr  Sr1  1  0.760988  0.220345  0.776055  1
  Sr  Sr2  1  0.255496  0.393270  0.609347  1
  Sr  Sr3  1  0.744504  0.606730  0.390653  1
  Ca  Ca4  1  0.077836  0.979524  0.769954  1
  Ca  Ca5  1  0.922164  0.020476  0.230046  1
  Ca  Ca6  1  0.248535  0.639477  0.872682  1
  Ca  Ca7  1  0.751465  0.360523  0.127318  1
  Ca  Ca8  1  0.607561  0.767980  0.975659  1
  Ca  Ca9  1  0.392439  0.232020  0.024341  1
  Mn  Mn10  1  0.725450  0.889165  0.604995  1
  Mn  Mn11  1  0.274550  0.110835  0.395005  1
  P  P12  1  0.064165  0.782670  0.522394  1
  P  P13  1  0.935835  0.217330  0.477606  1
  P  P14  1  0.071635  0.241557  0.943552  1
  P  P15  1  0.928365  0.758443  0.056448  1
  P  P16  1  0.423123  0.468854  0.231507  1
  P  P17  1  0.576877  0.531146  0.768493  1
  P  P18  1  0.432553  0.046647  0.746270  1
  P  P19  1  0.567447  0.953353  0.253730  1
  O  O20  1  0.127927  0.641913  0.497398  1
  O  O21  1  0.872073  0.358087  0.502602  1
  O  O22  1  0.895871  0.788948  0.506027  1
  O  O23  1  0.104129  0.211052  0.493973  1
  O  O24  1  0.108628  0.789372  0.674187  1
  O  O25  1  0.891372  0.210628  0.325813  1
  O  O26  1  0.873640  0.067713  0.608618  1
  O  O27  1  0.126360  0.932287  0.391382  1
  O  O28  1  0.083192  0.738540  0.001765  1
  O  O29  1  0.916808  0.261460  0.998235  1
  O  O30  1  0.139544  0.096642  0.062751  1
  O  O31  1  0.860456  0.903358  0.937249  1
  O  O32  1  0.053781  0.217710  0.792693  1
  O  O33  1  0.946219  0.782290  0.207307  1
  O  O34  1  0.176876  0.382093  0.916286  1
  O  O35  1  0.823124  0.617907  0.083714  1
  O  O36  1  0.345025  0.514897  0.350860  1
  O  O37  1  0.654975  0.485103  0.649140  1
  O  O38  1  0.412177  0.548951  0.739068  1
  O  O39  1  0.587823  0.451049  0.260932  1
  O  O40  1  0.643562  0.684854  0.775866  1
  O  O41  1  0.356438  0.315146  0.224134  1
  O  O42  1  0.399972  0.601956  0.076115  1
  O  O43  1  0.600028  0.398044  0.923885  1
  O  O44  1  0.377373  0.111153  0.585384  1
  O  O45  1  0.622627  0.888847  0.414616  1
  O  O46  1  0.595063  0.997323  0.752705  1
  O  O47  1  0.404937  0.002677  0.247295  1
  O  O48  1  0.338315  0.903727  0.844901  1
  O  O49  1  0.661685  0.096273  0.155099  1
  O  O50  1  0.574376  0.820817  0.190751  1
  O  O51  1  0.425624  0.179183  0.809249  1
