# generated using pymatgen
data_IrRhBr6
_symmetry_space_group_name_H-M   'P 1'
_cell_length_a   6.46220630
_cell_length_b   6.46220653
_cell_length_c   6.92886004
_cell_angle_alpha   81.40117527
_cell_angle_beta   81.40117556
_cell_angle_gamma   120.00780227
_symmetry_Int_Tables_number   1
_chemical_formula_structural   IrRhBr6
_chemical_formula_sum   'Ir1 Rh1 Br6'
_cell_volume   239.09703004
_cell_formula_units_Z   1
loop_
 _symmetry_equiv_pos_site_id
 _symmetry_equiv_pos_as_xyz
  1  'x, y, z'
loop_
 _atom_site_type_symbol
 _atom_site_label
 _atom_site_symmetry_multiplicity
 _atom_site_fract_x
 _atom_site_fract_y
 _atom_site_fract_z
 _atom_site_occupancy
  Ir  Ir0  1  0.833281  0.166719  0.000000  1
  Rh  Rh1  1  0.166696  0.833304  0.000000  1
  Br  Br2  1  0.920781  0.566747  0.788723  1
  Br  Br3  1  0.433253  0.079219  0.211277  1
  Br  Br4  1  0.784732  0.785931  0.211493  1
  Br  Br5  1  0.214069  0.215268  0.788507  1
  Br  Br6  1  0.569111  0.921923  0.788741  1
  Br  Br7  1  0.078077  0.430889  0.211259  1
