# generated using pymatgen
data_Dy2Mn3Ni6P7Ir3
_symmetry_space_group_name_H-M   'P 1'
_cell_length_a   9.21517800
_cell_length_b   9.21517778
_cell_length_c   3.82370200
_cell_angle_alpha   90.00000000
_cell_angle_beta   90.00000000
_cell_angle_gamma   120.00000077
_symmetry_Int_Tables_number   1
_chemical_formula_structural   Dy2Mn3Ni6P7Ir3
_chemical_formula_sum   'Dy2 Mn3 Ni6 P7 Ir3'
_cell_volume   281.20440096
_cell_formula_units_Z   1
loop_
 _symmetry_equiv_pos_site_id
 _symmetry_equiv_pos_as_xyz
  1  'x, y, z'
loop_
 _atom_site_type_symbol
 _atom_site_label
 _atom_site_symmetry_multiplicity
 _atom_site_fract_x
 _atom_site_fract_y
 _atom_site_fract_z
 _atom_site_occupancy
  Dy  Dy0  1  0.666667  0.333333  0.000000  1
  Dy  Dy1  1  0.000000  0.000000  0.500000  1
  Mn  Mn2  1  0.536564  0.748039  0.500000  1
  Mn  Mn3  1  0.251961  0.788527  0.500000  1
  Mn  Mn4  1  0.211473  0.463436  0.500000  1
  Ni  Ni5  1  0.764270  0.729450  0.000000  1
  Ni  Ni6  1  0.270550  0.034821  0.000000  1
  Ni  Ni7  1  0.965179  0.235730  0.000000  1
  Ni  Ni8  1  0.490589  0.941634  0.000000  1
  Ni  Ni9  1  0.058366  0.548955  0.000000  1
  Ni  Ni10  1  0.451045  0.509411  0.000000  1
  P  P11  1  0.444644  0.066893  0.500000  1
  P  P12  1  0.933107  0.377750  0.500000  1
  P  P13  1  0.622250  0.555356  0.500000  1
  P  P14  1  0.333333  0.666667  0.000000  1
  P  P15  1  0.746023  0.959825  0.000000  1
  P  P16  1  0.040175  0.786197  0.000000  1
  P  P17  1  0.213803  0.253977  0.000000  1
  Ir  Ir18  1  0.719542  0.097332  0.500000  1
  Ir  Ir19  1  0.902668  0.622210  0.500000  1
  Ir  Ir20  1  0.377790  0.280458  0.500000  1
