# generated using pymatgen
data_La4SmTmTa2O14
_symmetry_space_group_name_H-M   'P 1'
_cell_length_a   6.66243983
_cell_length_b   6.67174809
_cell_length_c   7.75282300
_cell_angle_alpha   90.00000000
_cell_angle_beta   90.00000000
_cell_angle_gamma   108.94494082
_symmetry_Int_Tables_number   1
_chemical_formula_structural   La4SmTmTa2O14
_chemical_formula_sum   'La4 Sm1 Tm1 Ta2 O14'
_cell_volume   325.94652271
_cell_formula_units_Z   1
loop_
 _symmetry_equiv_pos_site_id
 _symmetry_equiv_pos_as_xyz
  1  'x, y, z'
loop_
 _atom_site_type_symbol
 _atom_site_label
 _atom_site_symmetry_multiplicity
 _atom_site_fract_x
 _atom_site_fract_y
 _atom_site_fract_z
 _atom_site_occupancy
  La  La0  1  0.478690  0.474777  0.498710  1
  La  La1  1  0.478690  0.474777  0.001290  1
  La  La2  1  0.529543  0.992482  0.750000  1
  La  La3  1  0.995941  0.533739  0.250000  1
  Sm  Sm4  1  0.996518  0.464394  0.750000  1
  Tm  Tm5  1  0.472149  0.997817  0.250000  1
  Ta  Ta6  1  0.998354  0.998757  0.498084  1
  Ta  Ta7  1  0.998354  0.998757  0.001916  1
  O  O8  1  0.699104  0.957820  0.453546  1
  O  O9  1  0.936086  0.693897  0.538151  1
  O  O10  1  0.699104  0.957820  0.046454  1
  O  O11  1  0.936086  0.693897  0.961849  1
  O  O12  1  0.321149  0.068758  0.514253  1
  O  O13  1  0.079353  0.322069  0.479270  1
  O  O14  1  0.321149  0.068758  0.985747  1
  O  O15  1  0.079353  0.322069  0.020730  1
  O  O16  1  0.945035  0.055756  0.750000  1
  O  O17  1  0.056320  0.942320  0.250000  1
  O  O18  1  0.361782  0.622540  0.750000  1
  O  O19  1  0.619300  0.351495  0.250000  1
  O  O20  1  0.633958  0.357555  0.750000  1
  O  O21  1  0.363985  0.649746  0.250000  1
