# generated using pymatgen
data_Tb4ErIn4CuPt
_symmetry_space_group_name_H-M   'P 1'
_cell_length_a   3.64524400
_cell_length_b   8.10623338
_cell_length_c   18.20475700
_cell_angle_alpha   90.23790565
_cell_angle_beta   90.00000000
_cell_angle_gamma   90.00000000
_symmetry_Int_Tables_number   1
_chemical_formula_structural   Tb4ErIn4CuPt
_chemical_formula_sum   'Tb8 Er2 In8 Cu2 Pt2'
_cell_volume   537.93134268
_cell_formula_units_Z   2
loop_
 _symmetry_equiv_pos_site_id
 _symmetry_equiv_pos_as_xyz
  1  'x, y, z'
loop_
 _atom_site_type_symbol
 _atom_site_label
 _atom_site_symmetry_multiplicity
 _atom_site_fract_x
 _atom_site_fract_y
 _atom_site_fract_z
 _atom_site_occupancy
  Tb  Tb0  1  0.000000  0.117322  0.415623  1
  Tb  Tb1  1  0.000000  0.882678  0.584377  1
  Tb  Tb2  1  0.000000  0.382924  0.915619  1
  Tb  Tb3  1  0.000000  0.617076  0.084381  1
  Tb  Tb4  1  0.000000  0.246613  0.219367  1
  Tb  Tb5  1  0.000000  0.753387  0.780633  1
  Tb  Tb6  1  0.000000  0.000000  0.000000  1
  Tb  Tb7  1  0.000000  0.500000  0.500000  1
  Er  Er8  1  0.000000  0.261276  0.720380  1
  Er  Er9  1  0.000000  0.738724  0.279620  1
  In  In10  1  0.500000  0.422691  0.352038  1
  In  In11  1  0.500000  0.577309  0.647962  1
  In  In12  1  0.500000  0.074778  0.848941  1
  In  In13  1  0.500000  0.925222  0.151059  1
  In  In14  1  0.500000  0.291657  0.067001  1
  In  In15  1  0.500000  0.708343  0.932999  1
  In  In16  1  0.500000  0.207579  0.568953  1
  In  In17  1  0.500000  0.792421  0.431047  1
  Cu  Cu18  1  0.500000  0.024492  0.302007  1
  Cu  Cu19  1  0.500000  0.975508  0.697993  1
  Pt  Pt20  1  0.500000  0.471431  0.801703  1
  Pt  Pt21  1  0.500000  0.528569  0.198297  1
