# generated using pymatgen
data_Th5Co19(Si3P)3
_symmetry_space_group_name_H-M   'P 1'
_cell_length_a   12.35404100
_cell_length_b   12.35404268
_cell_length_c   3.82823100
_cell_angle_alpha   90.00000000
_cell_angle_beta   90.00000000
_cell_angle_gamma   119.99999817
_symmetry_Int_Tables_number   1
_chemical_formula_structural   Th5Co19(Si3P)3
_chemical_formula_sum   'Th5 Co19 Si9 P3'
_cell_volume   505.99579910
_cell_formula_units_Z   1
loop_
 _symmetry_equiv_pos_site_id
 _symmetry_equiv_pos_as_xyz
  1  'x, y, z'
loop_
 _atom_site_type_symbol
 _atom_site_label
 _atom_site_symmetry_multiplicity
 _atom_site_fract_x
 _atom_site_fract_y
 _atom_site_fract_z
 _atom_site_occupancy
  Th  Th0  1  0.666667  0.333333  0.000000  1
  Th  Th1  1  0.333333  0.666667  0.000000  1
  Th  Th2  1  0.189505  0.189505  0.500000  1
  Th  Th3  1  0.810495  0.000000  0.500000  1
  Th  Th4  1  0.000000  0.810495  0.500000  1
  Co  Co5  1  0.823757  0.197537  0.000000  1
  Co  Co6  1  0.802463  0.626218  0.000000  1
  Co  Co7  1  0.373782  0.176243  0.000000  1
  Co  Co8  1  0.197537  0.823757  0.000000  1
  Co  Co9  1  0.626218  0.802463  0.000000  1
  Co  Co10  1  0.176243  0.373782  0.000000  1
  Co  Co11  1  0.563942  0.563942  0.000000  1
  Co  Co12  1  0.436058  0.000000  0.000000  1
  Co  Co13  1  0.000000  0.436058  0.000000  1
  Co  Co14  1  0.642281  0.123441  0.500000  1
  Co  Co15  1  0.876559  0.518840  0.500000  1
  Co  Co16  1  0.481160  0.357719  0.500000  1
  Co  Co17  1  0.123441  0.642281  0.500000  1
  Co  Co18  1  0.518840  0.876559  0.500000  1
  Co  Co19  1  0.357719  0.481160  0.500000  1
  Co  Co20  1  0.723733  0.723733  0.500000  1
  Co  Co21  1  0.276267  0.000000  0.500000  1
  Co  Co22  1  0.000000  0.276267  0.500000  1
  Co  Co23  1  0.000000  0.000000  0.000000  1
  Si  Si24  1  0.378618  0.378618  0.000000  1
  Si  Si25  1  0.621382  0.000000  0.000000  1
  Si  Si26  1  0.000000  0.621382  0.000000  1
  Si  Si27  1  0.842685  0.315950  0.500000  1
  Si  Si28  1  0.684050  0.526734  0.500000  1
  Si  Si29  1  0.473266  0.157315  0.500000  1
  Si  Si30  1  0.315950  0.842685  0.500000  1
  Si  Si31  1  0.526734  0.684050  0.500000  1
  Si  Si32  1  0.157315  0.473266  0.500000  1
  P  P33  1  0.815196  0.815196  0.000000  1
  P  P34  1  0.184804  0.000000  0.000000  1
  P  P35  1  0.000000  0.184804  0.000000  1
