# generated using pymatgen
data_YbYTaIr3
_symmetry_space_group_name_H-M   'P 1'
_cell_length_a   5.24189343
_cell_length_b   5.24189299
_cell_length_c   5.24189434
_cell_angle_alpha   65.38763751
_cell_angle_beta   65.38763524
_cell_angle_gamma   65.38763269
_symmetry_Int_Tables_number   1
_chemical_formula_structural   YbYTaIr3
_chemical_formula_sum   'Yb1 Y1 Ta1 Ir3'
_cell_volume   113.78849712
_cell_formula_units_Z   1
loop_
 _symmetry_equiv_pos_site_id
 _symmetry_equiv_pos_as_xyz
  1  'x, y, z'
loop_
 _atom_site_type_symbol
 _atom_site_label
 _atom_site_symmetry_multiplicity
 _atom_site_fract_x
 _atom_site_fract_y
 _atom_site_fract_z
 _atom_site_occupancy
  Yb  Yb0  1  0.999542  0.999542  0.999542  1
  Y  Y1  1  0.250147  0.250147  0.250147  1
  Ta  Ta2  1  0.624049  0.624049  0.624049  1
  Ir  Ir3  1  0.626647  0.626647  0.122968  1
  Ir  Ir4  1  0.626647  0.122968  0.626647  1
  Ir  Ir5  1  0.122968  0.626647  0.626647  1
