# generated using pymatgen
data_ZrSc6(TiSb2)3
_symmetry_space_group_name_H-M   'P 1'
_cell_length_a   8.37301500
_cell_length_b   8.37301378
_cell_length_c   5.68865900
_cell_angle_alpha   90.00000000
_cell_angle_beta   90.00000000
_cell_angle_gamma   120.00000877
_symmetry_Int_Tables_number   1
_chemical_formula_structural   ZrSc6(TiSb2)3
_chemical_formula_sum   'Zr1 Sc6 Ti3 Sb6'
_cell_volume   345.38555473
_cell_formula_units_Z   1
loop_
 _symmetry_equiv_pos_site_id
 _symmetry_equiv_pos_as_xyz
  1  'x, y, z'
loop_
 _atom_site_type_symbol
 _atom_site_label
 _atom_site_symmetry_multiplicity
 _atom_site_fract_x
 _atom_site_fract_y
 _atom_site_fract_z
 _atom_site_occupancy
  Zr  Zr0  1  0.666667  0.333333  0.500000  1
  Sc  Sc1  1  0.751754  0.749770  0.748821  1
  Sc  Sc2  1  0.250230  0.001984  0.748821  1
  Sc  Sc3  1  0.998016  0.248246  0.748821  1
  Sc  Sc4  1  0.250230  0.248246  0.251179  1
  Sc  Sc5  1  0.751754  0.001984  0.251179  1
  Sc  Sc6  1  0.998016  0.749770  0.251179  1
  Ti  Ti7  1  0.666667  0.333333  0.000000  1
  Ti  Ti8  1  0.333333  0.666667  0.000000  1
  Ti  Ti9  1  0.333333  0.666667  0.500000  1
  Sb  Sb10  1  0.387273  0.392395  0.754301  1
  Sb  Sb11  1  0.607605  0.994878  0.754301  1
  Sb  Sb12  1  0.005122  0.612727  0.754301  1
  Sb  Sb13  1  0.607605  0.612727  0.245699  1
  Sb  Sb14  1  0.387273  0.994878  0.245699  1
  Sb  Sb15  1  0.005122  0.392395  0.245699  1
