# generated using pymatgen
data_Zr16IrPd4Rh3O4
_symmetry_space_group_name_H-M   'P 1'
_cell_length_a   8.89854386
_cell_length_b   8.85446581
_cell_length_c   8.89854300
_cell_angle_alpha   59.83518954
_cell_angle_beta   59.99999948
_cell_angle_gamma   59.83519188
_symmetry_Int_Tables_number   1
_chemical_formula_structural   Zr16IrPd4Rh3O4
_chemical_formula_sum   'Zr16 Ir1 Pd4 Rh3 O4'
_cell_volume   494.53706114
_cell_formula_units_Z   1
loop_
 _symmetry_equiv_pos_site_id
 _symmetry_equiv_pos_as_xyz
  1  'x, y, z'
loop_
 _atom_site_type_symbol
 _atom_site_label
 _atom_site_symmetry_multiplicity
 _atom_site_fract_x
 _atom_site_fract_y
 _atom_site_fract_z
 _atom_site_occupancy
  Zr  Zr0  1  0.317408  0.683143  0.317408  1
  Zr  Zr1  1  0.932874  0.568639  0.932874  1
  Zr  Zr2  1  0.682903  0.316060  0.682903  1
  Zr  Zr3  1  0.682903  0.316060  0.318134  1
  Zr  Zr4  1  0.317408  0.683143  0.682043  1
  Zr  Zr5  1  0.628701  0.118908  0.126196  1
  Zr  Zr6  1  0.935079  0.933001  0.565961  1
  Zr  Zr7  1  0.682043  0.683143  0.317408  1
  Zr  Zr8  1  0.114680  0.655961  0.114680  1
  Zr  Zr9  1  0.126196  0.118908  0.628701  1
  Zr  Zr10  1  0.318134  0.316060  0.682903  1
  Zr  Zr11  1  0.126196  0.118908  0.126196  1
  Zr  Zr12  1  0.565613  0.568639  0.932874  1
  Zr  Zr13  1  0.565961  0.933001  0.935079  1
  Zr  Zr14  1  0.932874  0.568639  0.565613  1
  Zr  Zr15  1  0.565961  0.933001  0.565961  1
  Ir  Ir16  1  0.347426  0.957722  0.347426  1
  Pd  Pd17  1  0.335471  0.345135  0.335471  1
  Pd  Pd18  1  0.983923  0.345135  0.335471  1
  Pd  Pd19  1  0.335471  0.345135  0.983923  1
  Pd  Pd20  1  0.909630  0.271111  0.909630  1
  Rh  Rh21  1  0.293021  0.910139  0.898420  1
  Rh  Rh22  1  0.898420  0.910139  0.898420  1
  Rh  Rh23  1  0.898420  0.910139  0.293021  1
  O  O24  1  0.626143  0.622452  0.626143  1
  O  O25  1  0.125262  0.622452  0.626143  1
  O  O26  1  0.626143  0.622452  0.125262  1
  O  O27  1  0.625740  0.122780  0.625740  1
