# generated using pymatgen
data_Dy4Zn(Ga2Pt)10
_symmetry_space_group_name_H-M   'P 1'
_cell_length_a   4.14907054
_cell_length_b   11.01381127
_cell_length_c   13.66410000
_cell_angle_alpha   82.03370519
_cell_angle_beta   81.26738987
_cell_angle_gamma   79.14305486
_symmetry_Int_Tables_number   1
_chemical_formula_structural   Dy4Zn(Ga2Pt)10
_chemical_formula_sum   'Dy4 Zn1 Ga20 Pt10'
_cell_volume   602.22030243
_cell_formula_units_Z   1
loop_
 _symmetry_equiv_pos_site_id
 _symmetry_equiv_pos_as_xyz
  1  'x, y, z'
loop_
 _atom_site_type_symbol
 _atom_site_label
 _atom_site_symmetry_multiplicity
 _atom_site_fract_x
 _atom_site_fract_y
 _atom_site_fract_z
 _atom_site_occupancy
  Dy  Dy0  1  0.123924  0.087650  0.664502  1
  Dy  Dy1  1  0.876076  0.912350  0.335498  1
  Dy  Dy2  1  0.772185  0.631565  0.824064  1
  Dy  Dy3  1  0.227815  0.368435  0.175936  1
  Zn  Zn4  1  0.500000  0.500000  0.500000  1
  Ga  Ga5  1  0.010539  0.068374  0.910550  1
  Ga  Ga6  1  0.989461  0.931626  0.089450  1
  Ga  Ga7  1  0.062254  0.673738  0.201754  1
  Ga  Ga8  1  0.937746  0.326262  0.798246  1
  Ga  Ga9  1  0.110473  0.328295  0.450758  1
  Ga  Ga10  1  0.889527  0.671705  0.549242  1
  Ga  Ga11  1  0.201701  0.602477  0.994121  1
  Ga  Ga12  1  0.798299  0.397523  0.005879  1
  Ga  Ga13  1  0.258118  0.782300  0.701465  1
  Ga  Ga14  1  0.741882  0.217700  0.298535  1
  Ga  Ga15  1  0.303242  0.897663  0.495853  1
  Ga  Ga16  1  0.696758  0.102337  0.504147  1
  Ga  Ga17  1  0.385756  0.525364  0.703123  1
  Ga  Ga18  1  0.614244  0.474636  0.296877  1
  Ga  Ga19  1  0.398130  0.204906  0.998833  1
  Ga  Ga20  1  0.601870  0.795094  0.001167  1
  Ga  Ga21  1  0.544249  0.280673  0.630830  1
  Ga  Ga22  1  0.455751  0.719327  0.369170  1
  Ga  Ga23  1  0.634886  0.934970  0.795260  1
  Ga  Ga24  1  0.365114  0.065030  0.204740  1
  Pt  Pt25  1  0.024567  0.567442  0.383423  1
  Pt  Pt26  1  0.975433  0.432558  0.616577  1
  Pt  Pt27  1  0.140134  0.831030  0.888702  1
  Pt  Pt28  1  0.859866  0.168970  0.111298  1
  Pt  Pt29  1  0.244800  0.120589  0.389809  1
  Pt  Pt30  1  0.755200  0.879411  0.610191  1
  Pt  Pt31  1  0.345773  0.420305  0.888148  1
  Pt  Pt32  1  0.654227  0.579695  0.111852  1
  Pt  Pt33  1  0.507306  0.169952  0.815435  1
  Pt  Pt34  1  0.492694  0.830048  0.184565  1
