# generated using pymatgen
data_CeNd2(CuGe)4
_symmetry_space_group_name_H-M   'P 1'
_cell_length_a   8.16133423
_cell_length_b   8.16133346
_cell_length_c   8.16133379
_cell_angle_alpha   149.20622226
_cell_angle_beta   131.21648755
_cell_angle_gamma   58.80707139
_symmetry_Int_Tables_number   1
_chemical_formula_structural   CeNd2(CuGe)4
_chemical_formula_sum   'Ce1 Nd2 Cu4 Ge4'
_cell_volume   207.70446372
_cell_formula_units_Z   1
loop_
 _symmetry_equiv_pos_site_id
 _symmetry_equiv_pos_as_xyz
  1  'x, y, z'
loop_
 _atom_site_type_symbol
 _atom_site_label
 _atom_site_symmetry_multiplicity
 _atom_site_fract_x
 _atom_site_fract_y
 _atom_site_fract_z
 _atom_site_occupancy
  Ce  Ce0  1  0.500000  0.000000  0.500000  1
  Nd  Nd1  1  0.867977  0.867977  0.000000  1
  Nd  Nd2  1  0.132023  0.132023  0.000000  1
  Cu  Cu3  1  0.853207  0.666607  0.186600  1
  Cu  Cu4  1  0.146793  0.333393  0.813400  1
  Cu  Cu5  1  0.480007  0.666607  0.813400  1
  Cu  Cu6  1  0.519993  0.333393  0.186600  1
  Ge  Ge7  1  0.285320  0.785320  0.500000  1
  Ge  Ge8  1  0.807863  0.500000  0.307863  1
  Ge  Ge9  1  0.192137  0.500000  0.692137  1
  Ge  Ge10  1  0.714680  0.214680  0.500000  1
