# generated using pymatgen
data_BaLu2Si3O10
_symmetry_space_group_name_H-M   'P 1'
_cell_length_a   12.26058200
_cell_length_b   5.40836352
_cell_length_c   6.82085832
_cell_angle_alpha   73.17371474
_cell_angle_beta   90.00000000
_cell_angle_gamma   90.00000000
_symmetry_Int_Tables_number   1
_chemical_formula_structural   BaLu2Si3O10
_chemical_formula_sum   'Ba2 Lu4 Si6 O20'
_cell_volume   432.92502484
_cell_formula_units_Z   2
loop_
 _symmetry_equiv_pos_site_id
 _symmetry_equiv_pos_as_xyz
  1  'x, y, z'
loop_
 _atom_site_type_symbol
 _atom_site_label
 _atom_site_symmetry_multiplicity
 _atom_site_fract_x
 _atom_site_fract_y
 _atom_site_fract_z
 _atom_site_occupancy
  Ba  Ba0  1  0.250000  0.238129  0.016927  1
  Ba  Ba1  1  0.750000  0.761871  0.983073  1
  Lu  Lu2  1  0.100970  0.848707  0.678501  1
  Lu  Lu3  1  0.600970  0.151293  0.321499  1
  Lu  Lu4  1  0.899030  0.151293  0.321499  1
  Lu  Lu5  1  0.399030  0.848707  0.678501  1
  Si  Si6  1  0.250000  0.427763  0.483357  1
  Si  Si7  1  0.750000  0.572237  0.516643  1
  Si  Si8  1  0.056270  0.697143  0.210920  1
  Si  Si9  1  0.556270  0.302857  0.789080  1
  Si  Si10  1  0.943730  0.302857  0.789080  1
  Si  Si11  1  0.443730  0.697143  0.210920  1
  O  O12  1  0.250000  0.646539  0.605577  1
  O  O13  1  0.750000  0.353461  0.394423  1
  O  O14  1  0.250000  0.129937  0.632825  1
  O  O15  1  0.750000  0.870063  0.367175  1
  O  O16  1  0.143363  0.459323  0.330575  1
  O  O17  1  0.643363  0.540677  0.669425  1
  O  O18  1  0.856637  0.540677  0.669425  1
  O  O19  1  0.356637  0.459323  0.330575  1
  O  O20  1  0.942207  0.551856  0.196958  1
  O  O21  1  0.442207  0.448144  0.803042  1
  O  O22  1  0.057793  0.448144  0.803042  1
  O  O23  1  0.557793  0.551856  0.196958  1
  O  O24  1  0.114391  0.848079  0.994140  1
  O  O25  1  0.614391  0.151921  0.005860  1
  O  O26  1  0.885609  0.151921  0.005860  1
  O  O27  1  0.385609  0.848079  0.994140  1
  O  O28  1  0.044683  0.895091  0.355517  1
  O  O29  1  0.544683  0.104909  0.644483  1
  O  O30  1  0.955317  0.104909  0.644483  1
  O  O31  1  0.455317  0.895091  0.355517  1
