# generated using pymatgen
data_YErSc3Ga4
_symmetry_space_group_name_H-M   'P 1'
_cell_length_a   7.26242006
_cell_length_b   7.57091102
_cell_length_c   14.44641010
_cell_angle_alpha   90.00275712
_cell_angle_beta   90.01338484
_cell_angle_gamma   90.00741610
_symmetry_Int_Tables_number   1
_chemical_formula_structural   YErSc3Ga4
_chemical_formula_sum   'Y4 Er4 Sc12 Ga16'
_cell_volume   794.30890338
_cell_formula_units_Z   4
loop_
 _symmetry_equiv_pos_site_id
 _symmetry_equiv_pos_as_xyz
  1  'x, y, z'
loop_
 _atom_site_type_symbol
 _atom_site_label
 _atom_site_symmetry_multiplicity
 _atom_site_fract_x
 _atom_site_fract_y
 _atom_site_fract_z
 _atom_site_occupancy
  Y  Y0  1  0.010503  0.180142  0.094360  1
  Y  Y1  1  0.989499  0.820010  0.905634  1
  Y  Y2  1  0.489503  0.679936  0.905796  1
  Y  Y3  1  0.989466  0.819960  0.594250  1
  Er  Er4  1  0.510521  0.319614  0.094426  1
  Er  Er5  1  0.010557  0.180482  0.405497  1
  Er  Er6  1  0.510539  0.319597  0.405666  1
  Er  Er7  1  0.489420  0.680297  0.594358  1
  Sc  Sc8  1  0.162418  0.502753  0.749890  1
  Sc  Sc9  1  0.837520  0.496855  0.250110  1
  Sc  Sc10  1  0.337897  0.003182  0.250114  1
  Sc  Sc11  1  0.662050  0.997235  0.749898  1
  Sc  Sc12  1  0.330157  0.173050  0.624660  1
  Sc  Sc13  1  0.669937  0.827106  0.375280  1
  Sc  Sc14  1  0.170152  0.672873  0.375232  1
  Sc  Sc15  1  0.669911  0.827058  0.124865  1
  Sc  Sc16  1  0.829964  0.327026  0.624627  1
  Sc  Sc17  1  0.330214  0.173068  0.875285  1
  Sc  Sc18  1  0.829980  0.326983  0.875231  1
  Sc  Sc19  1  0.170119  0.672866  0.124839  1
  Ga  Ga20  1  0.030739  0.116452  0.750055  1
  Ga  Ga21  1  0.969369  0.883896  0.250089  1
  Ga  Ga22  1  0.469470  0.615754  0.249971  1
  Ga  Ga23  1  0.530651  0.383849  0.749901  1
  Ga  Ga24  1  0.283774  0.870615  0.749736  1
  Ga  Ga25  1  0.716300  0.129839  0.250188  1
  Ga  Ga26  1  0.217177  0.370359  0.250222  1
  Ga  Ga27  1  0.782929  0.629160  0.749845  1
  Ga  Ga28  1  0.163174  0.464906  0.540355  1
  Ga  Ga29  1  0.836953  0.534077  0.459287  1
  Ga  Ga30  1  0.337322  0.965503  0.459415  1
  Ga  Ga31  1  0.836879  0.534696  0.040597  1
  Ga  Ga32  1  0.662181  0.034938  0.540325  1
  Ga  Ga33  1  0.162645  0.464854  0.959656  1
  Ga  Ga34  1  0.662234  0.035557  0.959733  1
  Ga  Ga35  1  0.337876  0.965453  0.040605  1
