# generated using pymatgen
data_Lu8Ta2Nb7Si16Mo3
_symmetry_space_group_name_H-M   'P 1'
_cell_length_a   6.73809431
_cell_length_b   6.99042018
_cell_length_c   13.23886223
_cell_angle_alpha   89.99659162
_cell_angle_beta   89.97895237
_cell_angle_gamma   89.98037094
_symmetry_Int_Tables_number   1
_chemical_formula_structural   Lu8Ta2Nb7Si16Mo3
_chemical_formula_sum   'Lu8 Ta2 Nb7 Si16 Mo3'
_cell_volume   623.57827090
_cell_formula_units_Z   1
loop_
 _symmetry_equiv_pos_site_id
 _symmetry_equiv_pos_as_xyz
  1  'x, y, z'
loop_
 _atom_site_type_symbol
 _atom_site_label
 _atom_site_symmetry_multiplicity
 _atom_site_fract_x
 _atom_site_fract_y
 _atom_site_fract_z
 _atom_site_occupancy
  Lu  Lu0  1  0.501675  0.326929  0.094487  1
  Lu  Lu1  1  0.001252  0.173021  0.405511  1
  Lu  Lu2  1  0.498062  0.673096  0.594977  1
  Lu  Lu3  1  0.998006  0.826846  0.905295  1
  Lu  Lu4  1  0.497671  0.673067  0.904750  1
  Lu  Lu5  1  0.998240  0.827564  0.594554  1
  Lu  Lu6  1  0.501724  0.326999  0.405667  1
  Lu  Lu7  1  0.001336  0.173040  0.094618  1
  Ta  Ta8  1  0.834797  0.329037  0.625808  1
  Ta  Ta9  1  0.660874  0.007824  0.749709  1
  Nb  Nb10  1  0.334372  0.171047  0.874824  1
  Nb  Nb11  1  0.165853  0.669836  0.126077  1
  Nb  Nb12  1  0.666207  0.830233  0.373525  1
  Nb  Nb13  1  0.165665  0.669913  0.374134  1
  Nb  Nb14  1  0.666217  0.830166  0.126654  1
  Nb  Nb15  1  0.834115  0.329390  0.874470  1
  Nb  Nb16  1  0.334287  0.171106  0.624983  1
  Si  Si17  1  0.666530  0.036415  0.541284  1
  Si  Si18  1  0.165161  0.462859  0.957750  1
  Si  Si19  1  0.334744  0.962527  0.042755  1
  Si  Si20  1  0.834452  0.537066  0.458084  1
  Si  Si21  1  0.334596  0.962695  0.457155  1
  Si  Si22  1  0.834673  0.537100  0.042465  1
  Si  Si23  1  0.665659  0.035971  0.958529  1
  Si  Si24  1  0.165244  0.462943  0.542137  1
  Si  Si25  1  0.532196  0.383545  0.749827  1
  Si  Si26  1  0.038225  0.119155  0.750279  1
  Si  Si27  1  0.466128  0.618218  0.250054  1
  Si  Si28  1  0.966917  0.881905  0.250065  1
  Si  Si29  1  0.796214  0.633024  0.749744  1
  Si  Si30  1  0.293291  0.863540  0.749838  1
  Si  Si31  1  0.203422  0.364314  0.250128  1
  Si  Si32  1  0.703276  0.135682  0.250035  1
  Mo  Mo33  1  0.159792  0.494085  0.749559  1
  Mo  Mo34  1  0.339972  0.994739  0.250144  1
  Mo  Mo35  1  0.839158  0.505105  0.250125  1
