# generated using pymatgen
data_Dy15Tm5Bi12
_symmetry_space_group_name_H-M   'P 1'
_cell_length_a   8.25695482
_cell_length_b   9.48689203
_cell_length_c   12.05084116
_cell_angle_alpha   89.99803422
_cell_angle_beta   90.05018097
_cell_angle_gamma   90.00875581
_symmetry_Int_Tables_number   1
_chemical_formula_structural   Dy15Tm5Bi12
_chemical_formula_sum   'Dy15 Tm5 Bi12'
_cell_volume   943.97622447
_cell_formula_units_Z   1
loop_
 _symmetry_equiv_pos_site_id
 _symmetry_equiv_pos_as_xyz
  1  'x, y, z'
loop_
 _atom_site_type_symbol
 _atom_site_label
 _atom_site_symmetry_multiplicity
 _atom_site_fract_x
 _atom_site_fract_y
 _atom_site_fract_z
 _atom_site_occupancy
  Dy  Dy0  1  0.352301  0.750176  0.215776  1
  Dy  Dy1  1  0.852171  0.750078  0.284306  1
  Dy  Dy2  1  0.647554  0.250299  0.784451  1
  Dy  Dy3  1  0.148272  0.250397  0.715958  1
  Dy  Dy4  1  0.807393  0.064053  0.558552  1
  Dy  Dy5  1  0.692404  0.935780  0.058461  1
  Dy  Dy6  1  0.192667  0.564029  0.441500  1
  Dy  Dy7  1  0.475556  0.250097  0.488296  1
  Dy  Dy8  1  0.976171  0.250206  0.011598  1
  Dy  Dy9  1  0.524494  0.750190  0.511821  1
  Dy  Dy10  1  0.024707  0.749841  0.988245  1
  Dy  Dy11  1  0.312541  0.250032  0.218462  1
  Dy  Dy12  1  0.812507  0.250236  0.281285  1
  Dy  Dy13  1  0.687659  0.749774  0.781321  1
  Dy  Dy14  1  0.187432  0.750228  0.718641  1
  Tm  Tm15  1  0.692521  0.564751  0.058417  1
  Tm  Tm16  1  0.192334  0.935162  0.441548  1
  Tm  Tm17  1  0.307472  0.065208  0.941659  1
  Tm  Tm18  1  0.807600  0.435230  0.558425  1
  Tm  Tm19  1  0.307207  0.434850  0.941511  1
  Bi  Bi20  1  0.406817  0.749421  0.956730  1
  Bi  Bi21  1  0.907336  0.748841  0.543080  1
  Bi  Bi22  1  0.592174  0.251742  0.042833  1
  Bi  Bi23  1  0.092728  0.248823  0.456951  1
  Bi  Bi24  1  0.565076  0.995557  0.325287  1
  Bi  Bi25  1  0.065088  0.504571  0.174438  1
  Bi  Bi26  1  0.434694  0.495567  0.674888  1
  Bi  Bi27  1  0.934902  0.004603  0.825409  1
  Bi  Bi28  1  0.434371  0.004653  0.674767  1
  Bi  Bi29  1  0.934783  0.495491  0.825529  1
  Bi  Bi30  1  0.565417  0.504584  0.325258  1
  Bi  Bi31  1  0.065650  0.995531  0.174597  1
