# generated using pymatgen
data_Tb2YbSe3
_symmetry_space_group_name_H-M   'P 1'
_cell_length_a   4.11054400
_cell_length_b   4.11054354
_cell_length_c   10.11803600
_cell_angle_alpha   90.00000000
_cell_angle_beta   90.00000000
_cell_angle_gamma   120.00000368
_symmetry_Int_Tables_number   1
_chemical_formula_structural   Tb2YbSe3
_chemical_formula_sum   'Tb2 Yb1 Se3'
_cell_volume   148.05578808
_cell_formula_units_Z   1
loop_
 _symmetry_equiv_pos_site_id
 _symmetry_equiv_pos_as_xyz
  1  'x, y, z'
loop_
 _atom_site_type_symbol
 _atom_site_label
 _atom_site_symmetry_multiplicity
 _atom_site_fract_x
 _atom_site_fract_y
 _atom_site_fract_z
 _atom_site_occupancy
  Tb  Tb0  1  0.333333  0.666667  0.657317  1
  Tb  Tb1  1  0.666667  0.333333  0.342683  1
  Yb  Yb2  1  0.000000  0.000000  0.000000  1
  Se  Se3  1  0.333333  0.666667  0.169359  1
  Se  Se4  1  0.666667  0.333333  0.830641  1
  Se  Se5  1  0.000000  0.000000  0.500000  1
