# generated using pymatgen
data_Zn14B6PtRh17
_symmetry_space_group_name_H-M   'P 1'
_cell_length_a   2.88458900
_cell_length_b   11.39910500
_cell_length_c   14.85206300
_cell_angle_alpha   90.00000000
_cell_angle_beta   90.00000000
_cell_angle_gamma   90.00000000
_symmetry_Int_Tables_number   1
_chemical_formula_structural   Zn14B6PtRh17
_chemical_formula_sum   'Zn14 B6 Pt1 Rh17'
_cell_volume   488.36156847
_cell_formula_units_Z   1
loop_
 _symmetry_equiv_pos_site_id
 _symmetry_equiv_pos_as_xyz
  1  'x, y, z'
loop_
 _atom_site_type_symbol
 _atom_site_label
 _atom_site_symmetry_multiplicity
 _atom_site_fract_x
 _atom_site_fract_y
 _atom_site_fract_z
 _atom_site_occupancy
  Zn  Zn0  1  0.500000  0.500000  0.348871  1
  Zn  Zn1  1  0.500000  0.000000  0.652303  1
  Zn  Zn2  1  0.500000  0.388302  0.998483  1
  Zn  Zn3  1  0.500000  0.112952  0.998819  1
  Zn  Zn4  1  0.500000  0.611698  0.998483  1
  Zn  Zn5  1  0.500000  0.887048  0.998819  1
  Zn  Zn6  1  0.500000  0.369296  0.770853  1
  Zn  Zn7  1  0.500000  0.134537  0.231747  1
  Zn  Zn8  1  0.500000  0.630704  0.770853  1
  Zn  Zn9  1  0.500000  0.865463  0.231747  1
  Zn  Zn10  1  0.500000  0.296748  0.602309  1
  Zn  Zn11  1  0.500000  0.203937  0.398483  1
  Zn  Zn12  1  0.500000  0.703252  0.602309  1
  Zn  Zn13  1  0.500000  0.796063  0.398483  1
  B  B14  1  0.500000  0.500000  0.531800  1
  B  B15  1  0.500000  0.000000  0.468774  1
  B  B16  1  0.500000  0.142274  0.821943  1
  B  B17  1  0.500000  0.359113  0.177529  1
  B  B18  1  0.500000  0.857726  0.821943  1
  B  B19  1  0.500000  0.640887  0.177529  1
  Pt  Pt20  1  0.000000  0.000000  0.124282  1
  Rh  Rh21  1  0.000000  0.245576  0.895262  1
  Rh  Rh22  1  0.000000  0.255290  0.103965  1
  Rh  Rh23  1  0.000000  0.754424  0.895262  1
  Rh  Rh24  1  0.000000  0.744710  0.103965  1
  Rh  Rh25  1  0.000000  0.500000  0.643986  1
  Rh  Rh26  1  0.000000  0.000000  0.356503  1
  Rh  Rh27  1  0.000000  0.173711  0.717487  1
  Rh  Rh28  1  0.000000  0.327772  0.282241  1
  Rh  Rh29  1  0.000000  0.826289  0.717487  1
  Rh  Rh30  1  0.000000  0.672228  0.282241  1
  Rh  Rh31  1  0.000000  0.500000  0.137098  1
  Rh  Rh32  1  0.000000  0.000000  0.860466  1
  Rh  Rh33  1  0.000000  0.120884  0.529052  1
  Rh  Rh34  1  0.000000  0.379026  0.471364  1
  Rh  Rh35  1  0.000000  0.879116  0.529052  1
  Rh  Rh36  1  0.000000  0.620974  0.471364  1
  Rh  Rh37  1  0.000000  0.500000  0.876838  1
