# generated using pymatgen
data_Dy3Zn3AgIrAu
_symmetry_space_group_name_H-M   'P 1'
_cell_length_a   7.55637400
_cell_length_b   7.55637377
_cell_length_c   3.75212500
_cell_angle_alpha   90.00000000
_cell_angle_beta   90.00000000
_cell_angle_gamma   120.00000977
_symmetry_Int_Tables_number   1
_chemical_formula_structural   Dy3Zn3AgIrAu
_chemical_formula_sum   'Dy3 Zn3 Ag1 Ir1 Au1'
_cell_volume   185.53880877
_cell_formula_units_Z   1
loop_
 _symmetry_equiv_pos_site_id
 _symmetry_equiv_pos_as_xyz
  1  'x, y, z'
loop_
 _atom_site_type_symbol
 _atom_site_label
 _atom_site_symmetry_multiplicity
 _atom_site_fract_x
 _atom_site_fract_y
 _atom_site_fract_z
 _atom_site_occupancy
  Dy  Dy0  1  0.018829  0.417696  0.500000  1
  Dy  Dy1  1  0.582304  0.601133  0.500000  1
  Dy  Dy2  1  0.398867  0.981171  0.500000  1
  Zn  Zn3  1  0.003565  0.736328  0.000000  1
  Zn  Zn4  1  0.263672  0.267238  0.000000  1
  Zn  Zn5  1  0.732762  0.996435  0.000000  1
  Ag  Ag6  1  0.000000  0.000000  0.500000  1
  Ir  Ir7  1  0.333333  0.666667  0.000000  1
  Au  Au8  1  0.666667  0.333333  0.000000  1
