# generated using pymatgen
data_Li6Co11Si6Pd
_symmetry_space_group_name_H-M   'P 1'
_cell_length_a   3.89166800
_cell_length_b   5.51679900
_cell_length_c   11.68745200
_cell_angle_alpha   90.00013095
_cell_angle_beta   89.99970570
_cell_angle_gamma   90.00000000
_symmetry_Int_Tables_number   1
_chemical_formula_structural   Li6Co11Si6Pd
_chemical_formula_sum   'Li6 Co11 Si6 Pd1'
_cell_volume   250.92433661
_cell_formula_units_Z   1
loop_
 _symmetry_equiv_pos_site_id
 _symmetry_equiv_pos_as_xyz
  1  'x, y, z'
loop_
 _atom_site_type_symbol
 _atom_site_label
 _atom_site_symmetry_multiplicity
 _atom_site_fract_x
 _atom_site_fract_y
 _atom_site_fract_z
 _atom_site_occupancy
  Li  Li0  1  0.000000  0.993073  0.000028  1
  Li  Li1  1  0.499778  0.504487  0.169976  1
  Li  Li2  1  0.999746  0.999414  0.334537  1
  Li  Li3  1  0.500000  0.498165  0.499977  1
  Li  Li4  1  0.000255  0.999424  0.665438  1
  Li  Li5  1  0.500221  0.504475  0.830049  1
  Co  Co6  1  0.500001  0.755315  0.000019  1
  Co  Co7  1  0.999822  0.249686  0.168743  1
  Co  Co8  1  0.999800  0.750378  0.168832  1
  Co  Co9  1  0.499787  0.249635  0.334757  1
  Co  Co10  1  0.499780  0.746910  0.336774  1
  Co  Co11  1  0.000000  0.249941  0.499974  1
  Co  Co12  1  0.000001  0.749309  0.499979  1
  Co  Co13  1  0.500213  0.249635  0.665223  1
  Co  Co14  1  0.500220  0.746912  0.663209  1
  Co  Co15  1  0.000178  0.249680  0.831274  1
  Co  Co16  1  0.000200  0.750381  0.831190  1
  Si  Si17  1  0.000000  0.523415  0.000006  1
  Si  Si18  1  0.499793  0.990337  0.175030  1
  Si  Si19  1  0.999776  0.498935  0.334206  1
  Si  Si20  1  0.500000  0.000458  0.499991  1
  Si  Si21  1  0.000225  0.498933  0.665786  1
  Si  Si22  1  0.500208  0.990342  0.824980  1
  Pd  Pd23  1  0.500000  0.250766  0.000018  1
