# generated using pymatgen
data_Ho4Hf4Pt3Rh
_symmetry_space_group_name_H-M   'P 1'
_cell_length_a   4.66052800
_cell_length_b   7.03104100
_cell_length_c   8.19785664
_cell_angle_alpha   89.94940411
_cell_angle_beta   90.00000000
_cell_angle_gamma   90.00000000
_symmetry_Int_Tables_number   1
_chemical_formula_structural   Ho4Hf4Pt3Rh
_chemical_formula_sum   'Ho4 Hf4 Pt3 Rh1'
_cell_volume   268.63024100
_cell_formula_units_Z   1
loop_
 _symmetry_equiv_pos_site_id
 _symmetry_equiv_pos_as_xyz
  1  'x, y, z'
loop_
 _atom_site_type_symbol
 _atom_site_label
 _atom_site_symmetry_multiplicity
 _atom_site_fract_x
 _atom_site_fract_y
 _atom_site_fract_z
 _atom_site_occupancy
  Ho  Ho0  1  0.250000  0.519724  0.175017  1
  Ho  Ho1  1  0.750000  0.484528  0.823000  1
  Ho  Ho2  1  0.250000  0.015967  0.320222  1
  Ho  Ho3  1  0.750000  0.981097  0.678735  1
  Hf  Hf4  1  0.250000  0.140327  0.921785  1
  Hf  Hf5  1  0.750000  0.855655  0.076129  1
  Hf  Hf6  1  0.250000  0.645536  0.576949  1
  Hf  Hf7  1  0.750000  0.353761  0.422491  1
  Pt  Pt8  1  0.750000  0.729095  0.404727  1
  Pt  Pt9  1  0.250000  0.270569  0.595519  1
  Pt  Pt10  1  0.750000  0.231608  0.095425  1
  Rh  Rh11  1  0.250000  0.772133  0.910003  1
