# generated using pymatgen
data_Ta2HgPbO7
_symmetry_space_group_name_H-M   'P 1'
_cell_length_a   7.57107601
_cell_length_b   7.57107589
_cell_length_c   7.66371200
_cell_angle_alpha   59.59441981
_cell_angle_beta   59.59442035
_cell_angle_gamma   59.07737848
_symmetry_Int_Tables_number   1
_chemical_formula_structural   Ta2HgPbO7
_chemical_formula_sum   'Ta4 Hg2 Pb2 O14'
_cell_volume   306.52556380
_cell_formula_units_Z   2
loop_
 _symmetry_equiv_pos_site_id
 _symmetry_equiv_pos_as_xyz
  1  'x, y, z'
loop_
 _atom_site_type_symbol
 _atom_site_label
 _atom_site_symmetry_multiplicity
 _atom_site_fract_x
 _atom_site_fract_y
 _atom_site_fract_z
 _atom_site_occupancy
  Ta  Ta0  1  0.125000  0.625000  0.125000  1
  Ta  Ta1  1  0.125000  0.125000  0.625000  1
  Ta  Ta2  1  0.625000  0.125000  0.125000  1
  Ta  Ta3  1  0.125000  0.125000  0.125000  1
  Hg  Hg4  1  0.125000  0.625000  0.625000  1
  Hg  Hg5  1  0.625000  0.125000  0.625000  1
  Pb  Pb6  1  0.625000  0.625000  0.625000  1
  Pb  Pb7  1  0.625000  0.625000  0.125000  1
  O  O8  1  0.776583  0.776583  0.723417  1
  O  O9  1  0.191685  0.811614  0.815498  1
  O  O10  1  0.191685  0.811614  0.181203  1
  O  O11  1  0.811614  0.191685  0.815498  1
  O  O12  1  0.181515  0.181515  0.818485  1
  O  O13  1  0.808722  0.808722  0.191278  1
  O  O14  1  0.438386  0.058315  0.068797  1
  O  O15  1  0.811614  0.191685  0.181203  1
  O  O16  1  0.058315  0.438386  0.068797  1
  O  O17  1  0.068485  0.068485  0.431515  1
  O  O18  1  0.441278  0.441278  0.058722  1
  O  O19  1  0.438386  0.058315  0.434502  1
  O  O20  1  0.058315  0.438386  0.434502  1
  O  O21  1  0.473417  0.473417  0.526583  1
