# generated using pymatgen
data_LuNb5(ReSi)6
_symmetry_space_group_name_H-M   'P 1'
_cell_length_a   7.65900581
_cell_length_b   7.59592696
_cell_length_c   7.65900667
_cell_angle_alpha   126.78925185
_cell_angle_beta   125.88674171
_cell_angle_gamma   79.53576280
_symmetry_Int_Tables_number   1
_chemical_formula_structural   LuNb5(ReSi)6
_chemical_formula_sum   'Lu1 Nb5 Re6 Si6'
_cell_volume   279.07262647
_cell_formula_units_Z   1
loop_
 _symmetry_equiv_pos_site_id
 _symmetry_equiv_pos_as_xyz
  1  'x, y, z'
loop_
 _atom_site_type_symbol
 _atom_site_label
 _atom_site_symmetry_multiplicity
 _atom_site_fract_x
 _atom_site_fract_y
 _atom_site_fract_z
 _atom_site_occupancy
  Lu  Lu0  1  0.537163  0.067712  0.030550  1
  Nb  Nb1  1  0.458457  0.498607  0.540150  1
  Nb  Nb2  1  0.946946  0.485317  0.038371  1
  Nb  Nb3  1  0.054344  0.104370  0.550026  1
  Nb  Nb4  1  0.745096  0.903680  0.658584  1
  Nb  Nb5  1  0.252520  0.907166  0.154645  1
  Re  Re6  1  0.487229  0.246600  0.732127  1
  Re  Re7  1  0.014472  0.246600  0.259372  1
  Re  Re8  1  0.085874  0.749278  0.584323  1
  Re  Re9  1  0.893362  0.498091  0.642431  1
  Re  Re10  1  0.664956  0.749278  0.163405  1
  Re  Re11  1  0.355660  0.498091  0.104728  1
  Si  Si12  1  0.735908  0.475475  0.239567  1
  Si  Si13  1  0.275053  0.542721  0.767669  1
  Si  Si14  1  0.321226  0.823670  0.481255  1
  Si  Si15  1  0.671472  0.160935  0.503086  1
  Si  Si16  1  0.842416  0.823670  0.002445  1
  Si  Si17  1  0.157849  0.160935  0.989463  1
