# generated using pymatgen
data_Tb8Nb11Si16W
_symmetry_space_group_name_H-M   'P 1'
_cell_length_a   7.07153523
_cell_length_b   7.07153525
_cell_length_c   13.08854325
_cell_angle_alpha   89.98266969
_cell_angle_beta   90.01732921
_cell_angle_gamma   90.00042648
_symmetry_Int_Tables_number   1
_chemical_formula_structural   Tb8Nb11Si16W
_chemical_formula_sum   'Tb8 Nb11 Si16 W1'
_cell_volume   654.51362648
_cell_formula_units_Z   1
loop_
 _symmetry_equiv_pos_site_id
 _symmetry_equiv_pos_as_xyz
  1  'x, y, z'
loop_
 _atom_site_type_symbol
 _atom_site_label
 _atom_site_symmetry_multiplicity
 _atom_site_fract_x
 _atom_site_fract_y
 _atom_site_fract_z
 _atom_site_occupancy
  Tb  Tb0  1  0.342385  0.002397  0.467620  1
  Tb  Tb1  1  0.497740  0.841211  0.716887  1
  Tb  Tb2  1  0.502812  0.158127  0.217952  1
  Tb  Tb3  1  0.841211  0.497740  0.283113  1
  Tb  Tb4  1  0.158127  0.502812  0.782048  1
  Tb  Tb5  1  0.658437  0.997397  0.967605  1
  Tb  Tb6  1  0.002397  0.342385  0.532380  1
  Tb  Tb7  1  0.997397  0.658437  0.032395  1
  Nb  Nb8  1  0.328216  0.328216  0.000000  1
  Nb  Nb9  1  0.171570  0.827634  0.250695  1
  Nb  Nb10  1  0.827634  0.171570  0.749305  1
  Nb  Nb11  1  0.153209  0.007274  0.874343  1
  Nb  Nb12  1  0.493175  0.653204  0.124705  1
  Nb  Nb13  1  0.507497  0.346793  0.623931  1
  Nb  Nb14  1  0.653204  0.493175  0.875295  1
  Nb  Nb15  1  0.346793  0.507497  0.376069  1
  Nb  Nb16  1  0.846765  0.992847  0.374759  1
  Nb  Nb17  1  0.007274  0.153209  0.125657  1
  Nb  Nb18  1  0.992847  0.846765  0.625241  1
  Si  Si19  1  0.203830  0.132483  0.682998  1
  Si  Si20  1  0.366910  0.703460  0.933186  1
  Si  Si21  1  0.633111  0.298867  0.433569  1
  Si  Si22  1  0.703460  0.366910  0.066814  1
  Si  Si23  1  0.298867  0.633111  0.566431  1
  Si  Si24  1  0.796192  0.866767  0.183368  1
  Si  Si25  1  0.132483  0.203830  0.317002  1
  Si  Si26  1  0.866767  0.796192  0.816632  1
  Si  Si27  1  0.292887  0.953633  0.063609  1
  Si  Si28  1  0.547833  0.791679  0.315242  1
  Si  Si29  1  0.453706  0.206930  0.813410  1
  Si  Si30  1  0.791679  0.547833  0.684758  1
  Si  Si31  1  0.206930  0.453706  0.186590  1
  Si  Si32  1  0.707099  0.044293  0.563074  1
  Si  Si33  1  0.953633  0.292887  0.936391  1
  Si  Si34  1  0.044293  0.707099  0.436926  1
  W  W35  1  0.671635  0.671635  0.500000  1
