# generated using pymatgen
data_Nd3Th5Zn8Ir7Rh
_symmetry_space_group_name_H-M   'P 1'
_cell_length_a   3.97398200
_cell_length_b   7.49539530
_cell_length_c   16.62962290
_cell_angle_alpha   90.35589226
_cell_angle_beta   90.00000000
_cell_angle_gamma   90.00000000
_symmetry_Int_Tables_number   1
_chemical_formula_structural   Nd3Th5Zn8Ir7Rh
_chemical_formula_sum   'Nd3 Th5 Zn8 Ir7 Rh1'
_cell_volume   495.32980420
_cell_formula_units_Z   1
loop_
 _symmetry_equiv_pos_site_id
 _symmetry_equiv_pos_as_xyz
  1  'x, y, z'
loop_
 _atom_site_type_symbol
 _atom_site_label
 _atom_site_symmetry_multiplicity
 _atom_site_fract_x
 _atom_site_fract_y
 _atom_site_fract_z
 _atom_site_occupancy
  Nd  Nd0  1  0.750000  0.445387  0.214202  1
  Nd  Nd1  1  0.250000  0.052558  0.713824  1
  Nd  Nd2  1  0.250000  0.553078  0.785912  1
  Th  Th3  1  0.250000  0.171802  0.938109  1
  Th  Th4  1  0.250000  0.671077  0.561675  1
  Th  Th5  1  0.750000  0.326897  0.439103  1
  Th  Th6  1  0.750000  0.946649  0.284854  1
  Th  Th7  1  0.750000  0.829110  0.060622  1
  Zn  Zn8  1  0.750000  0.006648  0.561315  1
  Zn  Zn9  1  0.250000  0.614706  0.345681  1
  Zn  Zn10  1  0.750000  0.382662  0.654336  1
  Zn  Zn11  1  0.250000  0.496560  0.061803  1
  Zn  Zn12  1  0.750000  0.507702  0.938601  1
  Zn  Zn13  1  0.250000  0.992695  0.441426  1
  Zn  Zn14  1  0.250000  0.123176  0.152000  1
  Zn  Zn15  1  0.750000  0.882667  0.845850  1
  Ir  Ir16  1  0.750000  0.744012  0.437362  1
  Ir  Ir17  1  0.250000  0.232438  0.317381  1
  Ir  Ir18  1  0.750000  0.249008  0.819755  1
  Ir  Ir19  1  0.750000  0.749676  0.680535  1
  Ir  Ir20  1  0.250000  0.257820  0.560744  1
  Ir  Ir21  1  0.250000  0.758877  0.185979  1
  Ir  Ir22  1  0.250000  0.758202  0.939909  1
  Rh  Rh23  1  0.750000  0.246591  0.059020  1
