# generated using pymatgen
data_Y3Tm7Al3Ir
_symmetry_space_group_name_H-M   'P 1'
_cell_length_a   9.45695900
_cell_length_b   9.45695898
_cell_length_c   9.52925400
_cell_angle_alpha   90.00000000
_cell_angle_beta   90.00000000
_cell_angle_gamma   119.99999658
_symmetry_Int_Tables_number   1
_chemical_formula_structural   Y3Tm7Al3Ir
_chemical_formula_sum   'Y6 Tm14 Al6 Ir2'
_cell_volume   738.06151637
_cell_formula_units_Z   2
loop_
 _symmetry_equiv_pos_site_id
 _symmetry_equiv_pos_as_xyz
  1  'x, y, z'
loop_
 _atom_site_type_symbol
 _atom_site_label
 _atom_site_symmetry_multiplicity
 _atom_site_fract_x
 _atom_site_fract_y
 _atom_site_fract_z
 _atom_site_occupancy
  Y  Y0  1  0.539998  0.460002  0.250000  1
  Y  Y1  1  0.539998  0.079997  0.250000  1
  Y  Y2  1  0.920003  0.460002  0.250000  1
  Y  Y3  1  0.460002  0.539998  0.750000  1
  Y  Y4  1  0.460002  0.920003  0.750000  1
  Y  Y5  1  0.079997  0.539998  0.750000  1
  Tm  Tm6  1  0.000000  0.000000  0.500000  1
  Tm  Tm7  1  0.000000  0.000000  0.000000  1
  Tm  Tm8  1  0.206554  0.793446  0.440646  1
  Tm  Tm9  1  0.206554  0.413109  0.440646  1
  Tm  Tm10  1  0.586891  0.793446  0.440646  1
  Tm  Tm11  1  0.793446  0.206554  0.559354  1
  Tm  Tm12  1  0.793446  0.586891  0.559354  1
  Tm  Tm13  1  0.413109  0.206554  0.559354  1
  Tm  Tm14  1  0.793446  0.206554  0.940646  1
  Tm  Tm15  1  0.793446  0.586891  0.940646  1
  Tm  Tm16  1  0.413109  0.206554  0.940646  1
  Tm  Tm17  1  0.206554  0.793446  0.059354  1
  Tm  Tm18  1  0.206554  0.413109  0.059354  1
  Tm  Tm19  1  0.586891  0.793446  0.059354  1
  Al  Al20  1  0.889879  0.110121  0.250000  1
  Al  Al21  1  0.889879  0.779759  0.250000  1
  Al  Al22  1  0.220241  0.110121  0.250000  1
  Al  Al23  1  0.110121  0.889879  0.750000  1
  Al  Al24  1  0.110121  0.220241  0.750000  1
  Al  Al25  1  0.779759  0.889879  0.750000  1
  Ir  Ir26  1  0.333333  0.666667  0.250000  1
  Ir  Ir27  1  0.666667  0.333333  0.750000  1
