# generated using pymatgen
data_Nd3Sn3PdRuPt
_symmetry_space_group_name_H-M   'P 1'
_cell_length_a   7.63208500
_cell_length_b   7.63208605
_cell_length_c   4.13554300
_cell_angle_alpha   90.00000000
_cell_angle_beta   90.00000000
_cell_angle_gamma   119.99999110
_symmetry_Int_Tables_number   1
_chemical_formula_structural   Nd3Sn3PdRuPt
_chemical_formula_sum   'Nd3 Sn3 Pd1 Ru1 Pt1'
_cell_volume   208.61698694
_cell_formula_units_Z   1
loop_
 _symmetry_equiv_pos_site_id
 _symmetry_equiv_pos_as_xyz
  1  'x, y, z'
loop_
 _atom_site_type_symbol
 _atom_site_label
 _atom_site_symmetry_multiplicity
 _atom_site_fract_x
 _atom_site_fract_y
 _atom_site_fract_z
 _atom_site_occupancy
  Nd  Nd0  1  0.593846  0.591082  0.000000  1
  Nd  Nd1  1  0.408918  0.002764  0.000000  1
  Nd  Nd2  1  0.997236  0.406154  0.000000  1
  Sn  Sn3  1  0.000724  0.751370  0.500000  1
  Sn  Sn4  1  0.248630  0.249354  0.500000  1
  Sn  Sn5  1  0.750646  0.999276  0.500000  1
  Pd  Pd6  1  0.333333  0.666667  0.500000  1
  Ru  Ru7  1  0.000000  0.000000  0.000000  1
  Pt  Pt8  1  0.666667  0.333333  0.500000  1
