# generated using pymatgen
data_Np2GaB2Ru5
_symmetry_space_group_name_H-M   'P 1'
_cell_length_a   9.51902400
_cell_length_b   9.51902400
_cell_length_c   3.08880400
_cell_angle_alpha   90.00000000
_cell_angle_beta   90.00000000
_cell_angle_gamma   90.00000000
_symmetry_Int_Tables_number   1
_chemical_formula_structural   Np2GaB2Ru5
_chemical_formula_sum   'Np4 Ga2 B4 Ru10'
_cell_volume   279.88214562
_cell_formula_units_Z   2
loop_
 _symmetry_equiv_pos_site_id
 _symmetry_equiv_pos_as_xyz
  1  'x, y, z'
loop_
 _atom_site_type_symbol
 _atom_site_label
 _atom_site_symmetry_multiplicity
 _atom_site_fract_x
 _atom_site_fract_y
 _atom_site_fract_z
 _atom_site_occupancy
  Np  Np0  1  0.823337  0.676663  0.000000  1
  Np  Np1  1  0.176663  0.323337  0.000000  1
  Np  Np2  1  0.323337  0.823337  0.000000  1
  Np  Np3  1  0.676663  0.176663  0.000000  1
  Ga  Ga4  1  0.500000  0.500000  0.000000  1
  Ga  Ga5  1  0.000000  0.000000  0.000000  1
  B  B6  1  0.622894  0.877106  0.000000  1
  B  B7  1  0.377106  0.122894  0.000000  1
  B  B8  1  0.122894  0.622894  0.000000  1
  B  B9  1  0.877106  0.377106  0.000000  1
  Ru  Ru10  1  0.571871  0.717685  0.500000  1
  Ru  Ru11  1  0.428129  0.282315  0.500000  1
  Ru  Ru12  1  0.071871  0.782315  0.500000  1
  Ru  Ru13  1  0.928129  0.217685  0.500000  1
  Ru  Ru14  1  0.282315  0.571871  0.500000  1
  Ru  Ru15  1  0.717685  0.428129  0.500000  1
  Ru  Ru16  1  0.217685  0.071871  0.500000  1
  Ru  Ru17  1  0.782315  0.928129  0.500000  1
  Ru  Ru18  1  0.500000  0.000000  0.500000  1
  Ru  Ru19  1  0.000000  0.500000  0.500000  1
