# generated using pymatgen
data_Pu3AlZn3Ge2
_symmetry_space_group_name_H-M   'P 1'
_cell_length_a   6.83640300
_cell_length_b   6.83640354
_cell_length_c   4.45354300
_cell_angle_alpha   90.00000000
_cell_angle_beta   90.00000000
_cell_angle_gamma   120.00000224
_symmetry_Int_Tables_number   1
_chemical_formula_structural   Pu3AlZn3Ge2
_chemical_formula_sum   'Pu3 Al1 Zn3 Ge2'
_cell_volume   180.25678384
_cell_formula_units_Z   1
loop_
 _symmetry_equiv_pos_site_id
 _symmetry_equiv_pos_as_xyz
  1  'x, y, z'
loop_
 _atom_site_type_symbol
 _atom_site_label
 _atom_site_symmetry_multiplicity
 _atom_site_fract_x
 _atom_site_fract_y
 _atom_site_fract_z
 _atom_site_occupancy
  Pu  Pu0  1  0.563074  0.563074  0.000000  1
  Pu  Pu1  1  0.436926  0.000000  0.000000  1
  Pu  Pu2  1  0.000000  0.436926  0.000000  1
  Al  Al3  1  0.000000  0.000000  0.000000  1
  Zn  Zn4  1  0.236135  0.236135  0.500000  1
  Zn  Zn5  1  0.763865  0.000000  0.500000  1
  Zn  Zn6  1  0.000000  0.763865  0.500000  1
  Ge  Ge7  1  0.333333  0.666667  0.500000  1
  Ge  Ge8  1  0.666667  0.333333  0.500000  1
