# generated using pymatgen
data_Zr5NpI24
_symmetry_space_group_name_H-M   'P 1'
_cell_length_a   8.95666511
_cell_length_b   9.02001262
_cell_length_c   18.60037308
_cell_angle_alpha   77.25849984
_cell_angle_beta   90.76890722
_cell_angle_gamma   89.95545941
_symmetry_Int_Tables_number   1
_chemical_formula_structural   Zr5NpI24
_chemical_formula_sum   'Zr5 Np1 I24'
_cell_volume   1465.56296660
_cell_formula_units_Z   1
loop_
 _symmetry_equiv_pos_site_id
 _symmetry_equiv_pos_as_xyz
  1  'x, y, z'
loop_
 _atom_site_type_symbol
 _atom_site_label
 _atom_site_symmetry_multiplicity
 _atom_site_fract_x
 _atom_site_fract_y
 _atom_site_fract_z
 _atom_site_occupancy
  Zr  Zr0  1  0.120313  0.188245  0.414273  1
  Zr  Zr1  1  0.612957  0.997890  0.752682  1
  Zr  Zr2  1  0.880071  0.188793  0.917562  1
  Zr  Zr3  1  0.120174  0.812123  0.082447  1
  Zr  Zr4  1  0.386492  0.999837  0.250552  1
  Np  Np5  1  0.880747  0.823450  0.582463  1
  I  I6  1  0.106715  0.393840  0.908115  1
  I  I7  1  0.583503  0.765702  0.259338  1
  I  I8  1  0.127736  0.068494  0.574659  1
  I  I9  1  0.355031  0.373563  0.427672  1
  I  I10  1  0.126361  0.783159  0.240962  1
  I  I11  1  0.126800  0.222023  0.256300  1
  I  I12  1  0.114065  0.935732  0.924499  1
  I  I13  1  0.416355  0.233318  0.742296  1
  I  I14  1  0.893811  0.606382  0.092044  1
  I  I15  1  0.872793  0.217023  0.759310  1
  I  I16  1  0.414441  0.767086  0.758683  1
  I  I17  1  0.894415  0.393701  0.407303  1
  I  I18  1  0.583092  0.233961  0.241562  1
  I  I19  1  0.652025  0.077356  0.592223  1
  I  I20  1  0.339218  0.928563  0.408060  1
  I  I21  1  0.870522  0.775388  0.749287  1
  I  I22  1  0.112456  0.594808  0.592384  1
  I  I23  1  0.644813  0.374710  0.928097  1
  I  I24  1  0.335825  0.071682  0.092056  1
  I  I25  1  0.885312  0.064668  0.075501  1
  I  I26  1  0.640094  0.614284  0.571476  1
  I  I27  1  0.660661  0.929869  0.910465  1
  I  I28  1  0.355353  0.626094  0.071820  1
  I  I29  1  0.887849  0.938257  0.415911  1
