# generated using pymatgen
data_Dy6Tm10Cd4NiRu3
_symmetry_space_group_name_H-M   'P 1'
_cell_length_a   9.47898144
_cell_length_b   9.58843414
_cell_length_c   9.58843400
_cell_angle_alpha   60.00000049
_cell_angle_beta   59.61729184
_cell_angle_gamma   59.61729267
_symmetry_Int_Tables_number   1
_chemical_formula_structural   Dy6Tm10Cd4NiRu3
_chemical_formula_sum   'Dy6 Tm10 Cd4 Ni1 Ru3'
_cell_volume   612.64013811
_cell_formula_units_Z   1
loop_
 _symmetry_equiv_pos_site_id
 _symmetry_equiv_pos_as_xyz
  1  'x, y, z'
loop_
 _atom_site_type_symbol
 _atom_site_label
 _atom_site_symmetry_multiplicity
 _atom_site_fract_x
 _atom_site_fract_y
 _atom_site_fract_z
 _atom_site_occupancy
  Dy  Dy0  1  0.189214  0.810371  0.810371  1
  Dy  Dy1  1  0.808297  0.188651  0.188651  1
  Dy  Dy2  1  0.808297  0.188651  0.814400  1
  Dy  Dy3  1  0.189214  0.810371  0.190044  1
  Dy  Dy4  1  0.808297  0.814400  0.188651  1
  Dy  Dy5  1  0.189214  0.190044  0.810371  1
  Tm  Tm6  1  0.600958  0.594990  0.594990  1
  Tm  Tm7  1  0.600958  0.594990  0.209064  1
  Tm  Tm8  1  0.600958  0.209064  0.594990  1
  Tm  Tm9  1  0.213311  0.595563  0.595563  1
  Tm  Tm10  1  0.061534  0.437457  0.437457  1
  Tm  Tm11  1  0.434812  0.063455  0.063455  1
  Tm  Tm12  1  0.434812  0.063455  0.438277  1
  Tm  Tm13  1  0.061534  0.437457  0.063552  1
  Tm  Tm14  1  0.434812  0.438277  0.063455  1
  Tm  Tm15  1  0.061534  0.063552  0.437457  1
  Cd  Cd16  1  0.828437  0.829983  0.829983  1
  Cd  Cd17  1  0.828437  0.829983  0.511596  1
  Cd  Cd18  1  0.828437  0.511596  0.829983  1
  Cd  Cd19  1  0.507375  0.830875  0.830875  1
  Ni  Ni20  1  0.826587  0.391137  0.391137  1
  Ru  Ru21  1  0.394323  0.389591  0.389591  1
  Ru  Ru22  1  0.394323  0.389591  0.826494  1
  Ru  Ru23  1  0.394323  0.826494  0.389591  1
