# generated using pymatgen
data_Sr4In4Hg3Au
_symmetry_space_group_name_H-M   'P 1'
_cell_length_a   4.98525800
_cell_length_b   7.99917612
_cell_length_c   8.76496770
_cell_angle_alpha   89.34649398
_cell_angle_beta   90.00000000
_cell_angle_gamma   90.00000000
_symmetry_Int_Tables_number   1
_chemical_formula_structural   Sr4In4Hg3Au
_chemical_formula_sum   'Sr4 In4 Hg3 Au1'
_cell_volume   349.50626739
_cell_formula_units_Z   1
loop_
 _symmetry_equiv_pos_site_id
 _symmetry_equiv_pos_as_xyz
  1  'x, y, z'
loop_
 _atom_site_type_symbol
 _atom_site_label
 _atom_site_symmetry_multiplicity
 _atom_site_fract_x
 _atom_site_fract_y
 _atom_site_fract_z
 _atom_site_occupancy
  Sr  Sr0  1  0.750000  0.999019  0.705907  1
  Sr  Sr1  1  0.250000  0.010171  0.292680  1
  Sr  Sr2  1  0.750000  0.489577  0.802838  1
  Sr  Sr3  1  0.250000  0.500603  0.201760  1
  In  In4  1  0.750000  0.311177  0.412134  1
  In  In5  1  0.250000  0.183261  0.929822  1
  In  In6  1  0.250000  0.687584  0.579350  1
  In  In7  1  0.750000  0.822933  0.078250  1
  Hg  Hg8  1  0.250000  0.787828  0.906346  1
  Hg  Hg9  1  0.250000  0.292458  0.593933  1
  Hg  Hg10  1  0.750000  0.709969  0.406119  1
  Au  Au11  1  0.750000  0.205420  0.090860  1
