# generated using pymatgen
data_Ca2Pr8Si5Sn
_symmetry_space_group_name_H-M   'P 1'
_cell_length_a   9.14405024
_cell_length_b   9.14405022
_cell_length_c   9.14404988
_cell_angle_alpha   129.22211718
_cell_angle_beta   129.22212720
_cell_angle_gamma   74.65343173
_symmetry_Int_Tables_number   1
_chemical_formula_structural   Ca2Pr8Si5Sn
_chemical_formula_sum   'Ca2 Pr8 Si5 Sn1'
_cell_volume   447.07168107
_cell_formula_units_Z   1
loop_
 _symmetry_equiv_pos_site_id
 _symmetry_equiv_pos_as_xyz
  1  'x, y, z'
loop_
 _atom_site_type_symbol
 _atom_site_label
 _atom_site_symmetry_multiplicity
 _atom_site_fract_x
 _atom_site_fract_y
 _atom_site_fract_z
 _atom_site_occupancy
  Ca  Ca0  1  0.990298  0.990298  0.000000  1
  Ca  Ca1  1  0.509702  0.509702  0.000000  1
  Pr  Pr2  1  0.828007  0.312510  0.857354  1
  Pr  Pr3  1  0.187490  0.671993  0.142646  1
  Pr  Pr4  1  0.455156  0.970653  0.142646  1
  Pr  Pr5  1  0.312510  0.455156  0.484503  1
  Pr  Pr6  1  0.044844  0.187490  0.515497  1
  Pr  Pr7  1  0.529347  0.044844  0.857354  1
  Pr  Pr8  1  0.671993  0.529347  0.484503  1
  Pr  Pr9  1  0.970653  0.828007  0.515497  1
  Si  Si10  1  0.113742  0.613742  0.727486  1
  Si  Si11  1  0.886258  0.386258  0.272514  1
  Si  Si12  1  0.613742  0.886258  0.500000  1
  Si  Si13  1  0.386258  0.113742  0.500000  1
  Si  Si14  1  0.250000  0.250000  0.000000  1
  Sn  Sn15  1  0.750000  0.750000  0.000000  1
