# generated using pymatgen
data_CeEr3(Hf3Ge4)2
_symmetry_space_group_name_H-M   'P 1'
_cell_length_a   7.27513600
_cell_length_b   7.34529427
_cell_length_c   13.88091248
_cell_angle_alpha   90.18194692
_cell_angle_beta   90.00000000
_cell_angle_gamma   90.00000000
_symmetry_Int_Tables_number   1
_chemical_formula_structural   CeEr3(Hf3Ge4)2
_chemical_formula_sum   'Ce2 Er6 Hf12 Ge16'
_cell_volume   741.76466591
_cell_formula_units_Z   2
loop_
 _symmetry_equiv_pos_site_id
 _symmetry_equiv_pos_as_xyz
  1  'x, y, z'
loop_
 _atom_site_type_symbol
 _atom_site_label
 _atom_site_symmetry_multiplicity
 _atom_site_fract_x
 _atom_site_fract_y
 _atom_site_fract_z
 _atom_site_occupancy
  Ce  Ce0  1  0.492426  0.823310  0.406147  1
  Ce  Ce1  1  0.992426  0.676690  0.093853  1
  Er  Er2  1  0.009461  0.322996  0.903757  1
  Er  Er3  1  0.509461  0.177004  0.596243  1
  Er  Er4  1  0.488155  0.822675  0.096625  1
  Er  Er5  1  0.988155  0.677325  0.403375  1
  Er  Er6  1  0.010307  0.322649  0.596569  1
  Er  Er7  1  0.510307  0.177351  0.903431  1
  Hf  Hf8  1  0.850895  0.833751  0.874692  1
  Hf  Hf9  1  0.350895  0.666249  0.625308  1
  Hf  Hf10  1  0.651993  0.333148  0.124165  1
  Hf  Hf11  1  0.151993  0.166852  0.375835  1
  Hf  Hf12  1  0.147984  0.166262  0.124594  1
  Hf  Hf13  1  0.647984  0.333738  0.375406  1
  Hf  Hf14  1  0.349553  0.667222  0.874460  1
  Hf  Hf15  1  0.849553  0.832778  0.625540  1
  Hf  Hf16  1  0.177992  0.999531  0.750467  1
  Hf  Hf17  1  0.677992  0.500469  0.749533  1
  Hf  Hf18  1  0.321052  0.499761  0.250348  1
  Hf  Hf19  1  0.821052  0.000239  0.249652  1
  Ge  Ge20  1  0.686524  0.537615  0.955246  1
  Ge  Ge21  1  0.186524  0.962385  0.544754  1
  Ge  Ge22  1  0.807316  0.038688  0.042548  1
  Ge  Ge23  1  0.307316  0.461312  0.457452  1
  Ge  Ge24  1  0.315163  0.457948  0.042531  1
  Ge  Ge25  1  0.815163  0.042052  0.457469  1
  Ge  Ge26  1  0.190256  0.962972  0.955876  1
  Ge  Ge27  1  0.690256  0.537028  0.544124  1
  Ge  Ge28  1  0.317480  0.357147  0.750111  1
  Ge  Ge29  1  0.817480  0.142853  0.749889  1
  Ge  Ge30  1  0.183022  0.860392  0.251553  1
  Ge  Ge31  1  0.683022  0.639608  0.248447  1
  Ge  Ge32  1  0.051606  0.624756  0.749767  1
  Ge  Ge33  1  0.551606  0.875244  0.750233  1
  Ge  Ge34  1  0.448816  0.126876  0.249742  1
  Ge  Ge35  1  0.948816  0.373124  0.250258  1
