# generated using pymatgen
data_Ca12Ta7Re12WN48
_symmetry_space_group_name_H-M   'P 1'
_cell_length_a   11.22317407
_cell_length_b   11.23841213
_cell_length_c   11.23841229
_cell_angle_alpha   109.49866854
_cell_angle_beta   109.44375645
_cell_angle_gamma   109.44375987
_symmetry_Int_Tables_number   1
_chemical_formula_structural   Ca12Ta7Re12WN48
_chemical_formula_sum   'Ca12 Ta7 Re12 W1 N48'
_cell_volume   1091.56802809
_cell_formula_units_Z   1
loop_
 _symmetry_equiv_pos_site_id
 _symmetry_equiv_pos_as_xyz
  1  'x, y, z'
loop_
 _atom_site_type_symbol
 _atom_site_label
 _atom_site_symmetry_multiplicity
 _atom_site_fract_x
 _atom_site_fract_y
 _atom_site_fract_z
 _atom_site_occupancy
  Ca  Ca0  1  0.251017  0.375490  0.124731  1
  Ca  Ca1  1  0.375527  0.749241  0.124510  1
  Ca  Ca2  1  0.374904  0.125105  0.250215  1
  Ca  Ca3  1  0.873714  0.624731  0.249241  1
  Ca  Ca4  1  0.749798  0.125110  0.374895  1
  Ca  Ca5  1  0.124689  0.249785  0.374890  1
  Ca  Ca6  1  0.875311  0.750215  0.625110  1
  Ca  Ca7  1  0.250202  0.874890  0.625105  1
  Ca  Ca8  1  0.126286  0.375269  0.750759  1
  Ca  Ca9  1  0.625096  0.874895  0.749785  1
  Ca  Ca10  1  0.624473  0.250759  0.875490  1
  Ca  Ca11  1  0.748983  0.624510  0.875269  1
  Ta  Ta12  1  0.000000  0.000000  0.000000  1
  Ta  Ta13  1  0.500000  0.000000  0.000000  1
  Ta  Ta14  1  0.000000  0.500000  0.000000  1
  Ta  Ta15  1  0.000000  0.000000  0.500000  1
  Ta  Ta16  1  0.500000  0.000000  0.500000  1
  Ta  Ta17  1  0.000000  0.500000  0.500000  1
  Ta  Ta18  1  0.500000  0.500000  0.500000  1
  Re  Re19  1  0.874582  0.250141  0.125457  1
  Re  Re20  1  0.749517  0.874969  0.124789  1
  Re  Re21  1  0.624728  0.375211  0.250180  1
  Re  Re22  1  0.124441  0.875317  0.249859  1
  Re  Re23  1  0.250875  0.625457  0.375317  1
  Re  Re24  1  0.625452  0.750180  0.374969  1
  Re  Re25  1  0.374548  0.249820  0.625031  1
  Re  Re26  1  0.749125  0.374543  0.624683  1
  Re  Re27  1  0.875559  0.124683  0.750141  1
  Re  Re28  1  0.375272  0.624789  0.749820  1
  Re  Re29  1  0.250483  0.125031  0.875211  1
  Re  Re30  1  0.125418  0.749859  0.874543  1
  W  W31  1  0.500000  0.500000  0.000000  1
  N  N32  1  0.195958  0.114064  0.010831  1
  N  N33  1  0.313457  0.896635  0.010391  1
  N  N34  1  0.886237  0.396954  0.083212  1
  N  N35  1  0.690686  0.685046  0.080974  1
  N  N36  1  0.609712  0.419026  0.104073  1
  N  N37  1  0.989283  0.686257  0.103046  1
  N  N38  1  0.009760  0.197307  0.113414  1
  N  N39  1  0.603226  0.917015  0.113752  1
  N  N40  1  0.196975  0.583212  0.186257  1
  N  N41  1  0.494361  0.604073  0.185046  1
  N  N42  1  0.113474  0.010841  0.197038  1
  N  N43  1  0.582777  0.185633  0.195879  1
  N  N44  1  0.489474  0.386248  0.303263  1
  N  N45  1  0.312455  0.916108  0.302693  1
  N  N46  1  0.897143  0.010245  0.314367  1
  N  N47  1  0.916436  0.302962  0.313804  1
  N  N48  1  0.303065  0.489609  0.386244  1
  N  N49  1  0.581894  0.896767  0.385936  1
  N  N50  1  0.814874  0.510831  0.396767  1
  N  N51  1  0.083179  0.886244  0.396635  1
  N  N52  1  0.103654  0.613414  0.416108  1
  N  N53  1  0.813790  0.803263  0.417015  1
  N  N54  1  0.602633  0.186196  0.489159  1
  N  N55  1  0.386898  0.304121  0.489755  1
  N  N56  1  0.613102  0.695879  0.510245  1
  N  N57  1  0.397367  0.813804  0.510841  1
  N  N58  1  0.186210  0.196737  0.582985  1
  N  N59  1  0.896346  0.386586  0.583892  1
  N  N60  1  0.916821  0.113756  0.603365  1
  N  N61  1  0.185126  0.489169  0.603233  1
  N  N62  1  0.418106  0.103233  0.614064  1
  N  N63  1  0.696935  0.510391  0.613756  1
  N  N64  1  0.083564  0.697038  0.686196  1
  N  N65  1  0.102857  0.989755  0.685633  1
  N  N66  1  0.687545  0.083892  0.697307  1
  N  N67  1  0.510526  0.613752  0.696737  1
  N  N68  1  0.417223  0.814367  0.804121  1
  N  N69  1  0.886526  0.989159  0.802962  1
  N  N70  1  0.505639  0.395927  0.814954  1
  N  N71  1  0.803025  0.416788  0.813743  1
  N  N72  1  0.396774  0.082985  0.886248  1
  N  N73  1  0.990240  0.802693  0.886586  1
  N  N74  1  0.010717  0.313743  0.896954  1
  N  N75  1  0.390288  0.580974  0.895927  1
  N  N76  1  0.309314  0.314954  0.919026  1
  N  N77  1  0.113763  0.603046  0.916788  1
  N  N78  1  0.686543  0.103365  0.989609  1
  N  N79  1  0.804042  0.885936  0.989169  1
