# generated using pymatgen
data_Tm3ZnCu3Si4
_symmetry_space_group_name_H-M   'P 1'
_cell_length_a   7.79959993
_cell_length_b   7.84052820
_cell_length_c   7.84052814
_cell_angle_alpha   149.36469194
_cell_angle_beta   130.71865116
_cell_angle_gamma   59.20012716
_symmetry_Int_Tables_number   1
_chemical_formula_structural   Tm3ZnCu3Si4
_chemical_formula_sum   'Tm3 Zn1 Cu3 Si4'
_cell_volume   183.66735535
_cell_formula_units_Z   1
loop_
 _symmetry_equiv_pos_site_id
 _symmetry_equiv_pos_as_xyz
  1  'x, y, z'
loop_
 _atom_site_type_symbol
 _atom_site_label
 _atom_site_symmetry_multiplicity
 _atom_site_fract_x
 _atom_site_fract_y
 _atom_site_fract_z
 _atom_site_occupancy
  Tm  Tm0  1  0.365655  0.871812  0.493843  1
  Tm  Tm1  1  0.626072  0.126995  0.499077  1
  Tm  Tm2  1  0.000824  0.000261  0.000563  1
  Zn  Zn3  1  0.640804  0.332409  0.308395  1
  Cu  Cu4  1  0.361306  0.668599  0.692707  1
  Cu  Cu5  1  0.023613  0.330080  0.693533  1
  Cu  Cu6  1  0.979754  0.669896  0.309857  1
  Si  Si7  1  0.211106  0.214529  0.996577  1
  Si  Si8  1  0.791210  0.782276  0.008934  1
  Si  Si9  1  0.687393  0.503567  0.183825  1
  Si  Si10  1  0.312264  0.499575  0.812688  1
