# generated using pymatgen
data_LaY11(CoPd)2
_symmetry_space_group_name_H-M   'P 1'
_cell_length_a   6.47616080
_cell_length_b   7.08758607
_cell_length_c   9.56383300
_cell_angle_alpha   90.00000000
_cell_angle_beta   90.00000000
_cell_angle_gamma   89.75991054
_symmetry_Int_Tables_number   1
_chemical_formula_structural   LaY11(CoPd)2
_chemical_formula_sum   'La1 Y11 Co2 Pd2'
_cell_volume   438.97940002
_cell_formula_units_Z   1
loop_
 _symmetry_equiv_pos_site_id
 _symmetry_equiv_pos_as_xyz
  1  'x, y, z'
loop_
 _atom_site_type_symbol
 _atom_site_label
 _atom_site_symmetry_multiplicity
 _atom_site_fract_x
 _atom_site_fract_y
 _atom_site_fract_z
 _atom_site_occupancy
  La  La0  1  0.618731  0.059673  0.250000  1
  Y  Y1  1  0.373607  0.954012  0.750000  1
  Y  Y2  1  0.152049  0.476716  0.750000  1
  Y  Y3  1  0.855296  0.525535  0.250000  1
  Y  Y4  1  0.174888  0.184493  0.059972  1
  Y  Y5  1  0.819756  0.812631  0.934076  1
  Y  Y6  1  0.672034  0.333017  0.932386  1
  Y  Y7  1  0.819756  0.812631  0.565924  1
  Y  Y8  1  0.329145  0.667105  0.065641  1
  Y  Y9  1  0.174888  0.184493  0.440028  1
  Y  Y10  1  0.329145  0.667105  0.434359  1
  Y  Y11  1  0.672034  0.333017  0.567614  1
  Co  Co12  1  0.450493  0.375587  0.250000  1
  Co  Co13  1  0.554018  0.614975  0.750000  1
  Pd  Pd14  1  0.952459  0.110705  0.750000  1
  Pd  Pd15  1  0.051699  0.888304  0.250000  1
