# generated using pymatgen
data_U4MnNi3
_symmetry_space_group_name_H-M   'P 1'
_cell_length_a   5.36551062
_cell_length_b   5.54017607
_cell_length_c   5.54017509
_cell_angle_alpha   110.10103886
_cell_angle_beta   108.83379910
_cell_angle_gamma   108.83381238
_symmetry_Int_Tables_number   1
_chemical_formula_structural   U4MnNi3
_chemical_formula_sum   'U4 Mn1 Ni3'
_cell_volume   127.75924778
_cell_formula_units_Z   1
loop_
 _symmetry_equiv_pos_site_id
 _symmetry_equiv_pos_as_xyz
  1  'x, y, z'
loop_
 _atom_site_type_symbol
 _atom_site_label
 _atom_site_symmetry_multiplicity
 _atom_site_fract_x
 _atom_site_fract_y
 _atom_site_fract_z
 _atom_site_occupancy
  U  U0  1  0.085191  0.500000  0.000000  1
  U  U1  1  0.006101  0.078415  0.498251  1
  U  U2  1  0.507849  0.001749  0.080163  1
  U  U3  1  0.427686  0.419837  0.421585  1
  Mn  Mn4  1  0.575928  0.500000  0.000000  1
  Ni  Ni5  1  0.000444  0.605990  0.498097  1
  Ni  Ni6  1  0.502348  0.001903  0.607892  1
  Ni  Ni7  1  0.894454  0.892108  0.894010  1
