# generated using pymatgen
data_Hf6Ti4Ga12Fe3Rh4
_symmetry_space_group_name_H-M   'P 1'
_cell_length_a   8.66238235
_cell_length_b   8.65217677
_cell_length_c   8.67306313
_cell_angle_alpha   60.01019225
_cell_angle_beta   60.04073107
_cell_angle_gamma   59.96097023
_symmetry_Int_Tables_number   1
_chemical_formula_structural   Hf6Ti4Ga12Fe3Rh4
_chemical_formula_sum   'Hf6 Ti4 Ga12 Fe3 Rh4'
_cell_volume   459.68342895
_cell_formula_units_Z   1
loop_
 _symmetry_equiv_pos_site_id
 _symmetry_equiv_pos_as_xyz
  1  'x, y, z'
loop_
 _atom_site_type_symbol
 _atom_site_label
 _atom_site_symmetry_multiplicity
 _atom_site_fract_x
 _atom_site_fract_y
 _atom_site_fract_z
 _atom_site_occupancy
  Hf  Hf0  1  0.695119  0.700052  0.303723  1
  Hf  Hf1  1  0.301106  0.700052  0.303723  1
  Hf  Hf2  1  0.696842  0.300080  0.306235  1
  Hf  Hf3  1  0.306453  0.302289  0.694074  1
  Hf  Hf4  1  0.697184  0.302289  0.694074  1
  Hf  Hf5  1  0.303406  0.699960  0.693228  1
  Ti  Ti6  1  0.877666  0.885761  0.358908  1
  Ti  Ti7  1  0.882545  0.354276  0.880635  1
  Ti  Ti8  1  0.356880  0.885748  0.873662  1
  Ti  Ti9  1  0.883711  0.885748  0.873662  1
  Ga  Ga10  1  0.119715  0.110903  0.649666  1
  Ga  Ga11  1  0.114893  0.653451  0.116762  1
  Ga  Ga12  1  0.651256  0.111829  0.123339  1
  Ga  Ga13  1  0.113575  0.111829  0.123339  1
  Ga  Ga14  1  0.660179  0.660028  0.019614  1
  Ga  Ga15  1  0.665697  0.012447  0.656158  1
  Ga  Ga16  1  0.015235  0.668843  0.657865  1
  Ga  Ga17  1  0.658057  0.668843  0.657865  1
  Ga  Ga18  1  0.339146  0.339966  0.981742  1
  Ga  Ga19  1  0.333580  0.988371  0.344469  1
  Ga  Ga20  1  0.986132  0.330118  0.341544  1
  Ga  Ga21  1  0.342206  0.330118  0.341544  1
  Fe  Fe22  1  0.999951  0.002317  0.997782  1
  Fe  Fe23  1  0.996745  0.998354  0.503864  1
  Fe  Fe24  1  0.501037  0.998354  0.503864  1
  Rh  Rh25  1  0.999171  0.498720  0.502937  1
  Rh  Rh26  1  0.502085  0.499599  0.998772  1
  Rh  Rh27  1  0.999544  0.499599  0.998772  1
  Rh  Rh28  1  0.500885  0.000052  0.998177  1
