# generated using pymatgen
data_Dy(LuPb)5
_symmetry_space_group_name_H-M   'P 1'
_cell_length_a   11.57898878
_cell_length_b   11.57898900
_cell_length_c   11.57076948
_cell_angle_alpha   132.53998143
_cell_angle_beta   59.15293821
_cell_angle_gamma   146.79950796
_symmetry_Int_Tables_number   1
_chemical_formula_structural   Dy(LuPb)5
_chemical_formula_sum   'Dy2 Lu10 Pb10'
_cell_volume   620.46612446
_cell_formula_units_Z   2
loop_
 _symmetry_equiv_pos_site_id
 _symmetry_equiv_pos_as_xyz
  1  'x, y, z'
loop_
 _atom_site_type_symbol
 _atom_site_label
 _atom_site_symmetry_multiplicity
 _atom_site_fract_x
 _atom_site_fract_y
 _atom_site_fract_z
 _atom_site_occupancy
  Dy  Dy0  1  0.137593  0.114988  0.252581  1
  Dy  Dy1  1  0.862406  0.885014  0.747420  1
  Lu  Lu2  1  0.363166  0.612676  0.975842  1
  Lu  Lu3  1  0.636834  0.387325  0.024156  1
  Lu  Lu4  1  0.554676  0.250645  0.304523  1
  Lu  Lu5  1  0.946121  0.250152  0.695477  1
  Lu  Lu6  1  0.445325  0.749355  0.695477  1
  Lu  Lu7  1  0.053879  0.749848  0.304523  1
  Lu  Lu8  1  0.441431  0.241146  0.682576  1
  Lu  Lu9  1  0.558570  0.758854  0.317424  1
  Lu  Lu10  1  0.059037  0.744428  0.803465  1
  Lu  Lu11  1  0.940963  0.255574  0.196536  1
  Pb  Pb12  1  0.295133  0.306314  0.601447  1
  Pb  Pb13  1  0.704867  0.693686  0.398552  1
  Pb  Pb14  1  0.206058  0.804397  0.010452  1
  Pb  Pb15  1  0.793944  0.195603  0.989548  1
  Pb  Pb16  1  0.251136  0.251136  0.000000  1
  Pb  Pb17  1  0.748863  0.748863  0.000000  1
  Pb  Pb18  1  0.072534  0.410262  0.482796  1
  Pb  Pb19  1  0.927467  0.589738  0.517204  1
  Pb  Pb20  1  0.425875  0.907052  0.332927  1
  Pb  Pb21  1  0.574125  0.092948  0.667073  1
