# generated using pymatgen
data_Ce2MnAl4Ni
_symmetry_space_group_name_H-M   'P 1'
_cell_length_a   5.21519491
_cell_length_b   5.21519405
_cell_length_c   7.16887000
_cell_angle_alpha   90.00000000
_cell_angle_beta   90.00000000
_cell_angle_gamma   131.36970268
_symmetry_Int_Tables_number   1
_chemical_formula_structural   Ce2MnAl4Ni
_chemical_formula_sum   'Ce2 Mn1 Al4 Ni1'
_cell_volume   146.32537700
_cell_formula_units_Z   1
loop_
 _symmetry_equiv_pos_site_id
 _symmetry_equiv_pos_as_xyz
  1  'x, y, z'
loop_
 _atom_site_type_symbol
 _atom_site_label
 _atom_site_symmetry_multiplicity
 _atom_site_fract_x
 _atom_site_fract_y
 _atom_site_fract_z
 _atom_site_occupancy
  Ce  Ce0  1  0.542262  0.457738  0.250000  1
  Ce  Ce1  1  0.436195  0.563805  0.750000  1
  Mn  Mn2  1  0.318521  0.681479  0.250000  1
  Al  Al3  1  0.841286  0.158714  0.052732  1
  Al  Al4  1  0.153811  0.846189  0.950580  1
  Al  Al5  1  0.153811  0.846189  0.549420  1
  Al  Al6  1  0.841286  0.158714  0.447268  1
  Ni  Ni7  1  0.712828  0.287172  0.750000  1
