# generated using pymatgen
data_Sc2Fe3P7Ru9
_symmetry_space_group_name_H-M   'P 1'
_cell_length_a   9.25071700
_cell_length_b   9.25071818
_cell_length_c   3.81956500
_cell_angle_alpha   90.00000000
_cell_angle_beta   90.00000000
_cell_angle_gamma   119.99999935
_symmetry_Int_Tables_number   1
_chemical_formula_structural   Sc2Fe3P7Ru9
_chemical_formula_sum   'Sc2 Fe3 P7 Ru9'
_cell_volume   283.07100402
_cell_formula_units_Z   1
loop_
 _symmetry_equiv_pos_site_id
 _symmetry_equiv_pos_as_xyz
  1  'x, y, z'
loop_
 _atom_site_type_symbol
 _atom_site_label
 _atom_site_symmetry_multiplicity
 _atom_site_fract_x
 _atom_site_fract_y
 _atom_site_fract_z
 _atom_site_occupancy
  Sc  Sc0  1  0.666667  0.333333  0.500000  1
  Sc  Sc1  1  0.333333  0.666667  0.000000  1
  Fe  Fe2  1  0.730111  0.889088  0.000000  1
  Fe  Fe3  1  0.110912  0.841021  0.000000  1
  Fe  Fe4  1  0.158979  0.269889  0.000000  1
  P  P5  1  0.600805  0.719543  0.500000  1
  P  P6  1  0.000000  0.000000  0.000000  1
  P  P7  1  0.280457  0.881261  0.500000  1
  P  P8  1  0.118739  0.399195  0.500000  1
  P  P9  1  0.888546  0.584066  0.000000  1
  P  P10  1  0.415934  0.304480  0.000000  1
  P  P11  1  0.695520  0.111454  0.000000  1
  Ru  Ru12  1  0.558835  0.945338  0.500000  1
  Ru  Ru13  1  0.386504  0.441165  0.500000  1
  Ru  Ru14  1  0.911839  0.116965  0.500000  1
  Ru  Ru15  1  0.205126  0.088161  0.500000  1
  Ru  Ru16  1  0.883035  0.794874  0.500000  1
  Ru  Ru17  1  0.423550  0.062820  0.000000  1
  Ru  Ru18  1  0.937180  0.360731  0.000000  1
  Ru  Ru19  1  0.639269  0.576450  0.000000  1
  Ru  Ru20  1  0.054662  0.613496  0.500000  1
