# generated using pymatgen
data_SrSb12Os3Pt
_symmetry_space_group_name_H-M   'P 1'
_cell_length_a   8.18998666
_cell_length_b   8.18998639
_cell_length_c   8.21336500
_cell_angle_alpha   109.52905317
_cell_angle_beta   109.52905249
_cell_angle_gamma   109.41332758
_symmetry_Int_Tables_number   1
_chemical_formula_structural   SrSb12Os3Pt
_chemical_formula_sum   'Sr1 Sb12 Os3 Pt1'
_cell_volume   423.79432390
_cell_formula_units_Z   1
loop_
 _symmetry_equiv_pos_site_id
 _symmetry_equiv_pos_as_xyz
  1  'x, y, z'
loop_
 _atom_site_type_symbol
 _atom_site_label
 _atom_site_symmetry_multiplicity
 _atom_site_fract_x
 _atom_site_fract_y
 _atom_site_fract_z
 _atom_site_occupancy
  Sr  Sr0  1  0.000000  0.000000  0.000000  1
  Sb  Sb1  1  0.842004  0.652589  0.502384  1
  Sb  Sb2  1  0.157996  0.347411  0.497616  1
  Sb  Sb3  1  0.157505  0.660929  0.819489  1
  Sb  Sb4  1  0.842495  0.339071  0.180511  1
  Sb  Sb5  1  0.660929  0.503425  0.841441  1
  Sb  Sb6  1  0.339071  0.496575  0.158559  1
  Sb  Sb7  1  0.652589  0.810586  0.150205  1
  Sb  Sb8  1  0.347411  0.189414  0.849795  1
  Sb  Sb9  1  0.503425  0.842495  0.661984  1
  Sb  Sb10  1  0.496575  0.157505  0.338016  1
  Sb  Sb11  1  0.189414  0.842004  0.339619  1
  Sb  Sb12  1  0.810586  0.157996  0.660381  1
  Os  Os13  1  0.500000  0.500000  0.500000  1
  Os  Os14  1  0.500000  0.000000  0.000000  1
  Os  Os15  1  0.000000  0.500000  0.000000  1
  Pt  Pt16  1  0.000000  0.000000  0.500000  1
