# generated using pymatgen
data_Y4Ga18(IrPd)3
_symmetry_space_group_name_H-M   'P 1'
_cell_length_a   7.65395501
_cell_length_b   7.65395543
_cell_length_c   9.53899562
_cell_angle_alpha   89.96654867
_cell_angle_beta   89.96655092
_cell_angle_gamma   119.79659614
_symmetry_Int_Tables_number   1
_chemical_formula_structural   Y4Ga18(IrPd)3
_chemical_formula_sum   'Y4 Ga18 Ir3 Pd3'
_cell_volume   484.94369878
_cell_formula_units_Z   1
loop_
 _symmetry_equiv_pos_site_id
 _symmetry_equiv_pos_as_xyz
  1  'x, y, z'
loop_
 _atom_site_type_symbol
 _atom_site_label
 _atom_site_symmetry_multiplicity
 _atom_site_fract_x
 _atom_site_fract_y
 _atom_site_fract_z
 _atom_site_occupancy
  Y  Y0  1  0.996326  0.668496  0.249804  1
  Y  Y1  1  0.003222  0.331075  0.749975  1
  Y  Y2  1  0.668925  0.996778  0.250025  1
  Y  Y3  1  0.331504  0.003674  0.750196  1
  Ga  Ga4  1  0.129133  0.128033  0.250483  1
  Ga  Ga5  1  0.871967  0.870867  0.749517  1
  Ga  Ga6  1  0.001221  0.336095  0.080997  1
  Ga  Ga7  1  0.002799  0.665847  0.919421  1
  Ga  Ga8  1  0.000671  0.663002  0.579054  1
  Ga  Ga9  1  0.336998  0.999329  0.420946  1
  Ga  Ga10  1  0.998802  0.337095  0.420564  1
  Ga  Ga11  1  0.662905  0.001198  0.579436  1
  Ga  Ga12  1  0.663905  0.998779  0.919003  1
  Ga  Ga13  1  0.334153  0.997201  0.080579  1
  Ga  Ga14  1  0.334035  0.334128  0.565702  1
  Ga  Ga15  1  0.665872  0.665965  0.434298  1
  Ga  Ga16  1  0.665336  0.667347  0.067838  1
  Ga  Ga17  1  0.332653  0.334664  0.932162  1
  Ga  Ga18  1  0.338592  0.546031  0.250333  1
  Ga  Ga19  1  0.662358  0.455425  0.748051  1
  Ga  Ga20  1  0.544575  0.337642  0.251949  1
  Ga  Ga21  1  0.453969  0.661408  0.749667  1
  Ir  Ir22  1  0.329475  0.670525  0.000000  1
  Ir  Ir23  1  0.328626  0.671374  0.500000  1
  Ir  Ir24  1  0.671276  0.328724  0.500000  1
  Pd  Pd25  1  0.670897  0.329103  0.000000  1
  Pd  Pd26  1  0.000159  0.999841  0.000000  1
  Pd  Pd27  1  0.999647  0.000353  0.500000  1
