# generated using pymatgen
data_Li4LaBi2
_symmetry_space_group_name_H-M   'P 1'
_cell_length_a   8.90927405
_cell_length_b   8.90927378
_cell_length_c   8.90927325
_cell_angle_alpha   30.78571322
_cell_angle_beta   30.78571885
_cell_angle_gamma   30.78571874
_symmetry_Int_Tables_number   1
_chemical_formula_structural   Li4LaBi2
_chemical_formula_sum   'Li4 La1 Bi2'
_cell_volume   164.29149561
_cell_formula_units_Z   1
loop_
 _symmetry_equiv_pos_site_id
 _symmetry_equiv_pos_as_xyz
  1  'x, y, z'
loop_
 _atom_site_type_symbol
 _atom_site_label
 _atom_site_symmetry_multiplicity
 _atom_site_fract_x
 _atom_site_fract_y
 _atom_site_fract_z
 _atom_site_occupancy
  Li  Li0  1  0.138002  0.138002  0.138002  1
  Li  Li1  1  0.429827  0.429827  0.429827  1
  Li  Li2  1  0.570173  0.570173  0.570173  1
  Li  Li3  1  0.861998  0.861998  0.861998  1
  La  La4  1  0.000000  0.000000  0.000000  1
  Bi  Bi5  1  0.252897  0.252897  0.252897  1
  Bi  Bi6  1  0.747103  0.747103  0.747103  1
