# generated using pymatgen
data_Ca3LaAl13Au9
_symmetry_space_group_name_H-M   'P 1'
_cell_length_a   11.75972000
_cell_length_b   11.75971927
_cell_length_c   4.24295400
_cell_angle_alpha   90.00000000
_cell_angle_beta   90.00000000
_cell_angle_gamma   119.99999642
_symmetry_Int_Tables_number   1
_chemical_formula_structural   Ca3LaAl13Au9
_chemical_formula_sum   'Ca3 La1 Al13 Au9'
_cell_volume   508.15114264
_cell_formula_units_Z   1
loop_
 _symmetry_equiv_pos_site_id
 _symmetry_equiv_pos_as_xyz
  1  'x, y, z'
loop_
 _atom_site_type_symbol
 _atom_site_label
 _atom_site_symmetry_multiplicity
 _atom_site_fract_x
 _atom_site_fract_y
 _atom_site_fract_z
 _atom_site_occupancy
  Ca  Ca0  1  0.204851  0.795149  0.500000  1
  Ca  Ca1  1  0.590298  0.795149  0.500000  1
  Ca  Ca2  1  0.204851  0.409702  0.500000  1
  La  La3  1  0.666667  0.333333  0.000000  1
  Al  Al4  1  0.948478  0.291705  0.000000  1
  Al  Al5  1  0.708295  0.656773  0.000000  1
  Al  Al6  1  0.948478  0.656773  0.000000  1
  Al  Al7  1  0.343227  0.051522  0.000000  1
  Al  Al8  1  0.165205  0.082602  0.500000  1
  Al  Al9  1  0.917398  0.834795  0.500000  1
  Al  Al10  1  0.708295  0.051522  0.000000  1
  Al  Al11  1  0.531237  0.062473  0.500000  1
  Al  Al12  1  0.917398  0.082602  0.500000  1
  Al  Al13  1  0.343227  0.291705  0.000000  1
  Al  Al14  1  0.531237  0.468763  0.500000  1
  Al  Al15  1  0.937527  0.468763  0.500000  1
  Al  Al16  1  0.333333  0.666667  0.000000  1
  Au  Au17  1  0.456420  0.543580  0.000000  1
  Au  Au18  1  0.825843  0.912922  0.000000  1
  Au  Au19  1  0.456420  0.912839  0.000000  1
  Au  Au20  1  0.087078  0.174157  0.000000  1
  Au  Au21  1  0.087078  0.912922  0.000000  1
  Au  Au22  1  0.790421  0.580842  0.500000  1
  Au  Au23  1  0.087161  0.543580  0.000000  1
  Au  Au24  1  0.790421  0.209579  0.500000  1
  Au  Au25  1  0.419158  0.209579  0.500000  1
