# generated using pymatgen
data_Sr3Ca9(HoSn2)8
_symmetry_space_group_name_H-M   'P 1'
_cell_length_a   7.87132004
_cell_length_b   8.45273317
_cell_length_c   16.08078100
_cell_angle_alpha   90.00925248
_cell_angle_beta   90.00559032
_cell_angle_gamma   89.99322750
_symmetry_Int_Tables_number   1
_chemical_formula_structural   Sr3Ca9(HoSn2)8
_chemical_formula_sum   'Sr3 Ca9 Ho8 Sn16'
_cell_volume   1069.92135757
_cell_formula_units_Z   1
loop_
 _symmetry_equiv_pos_site_id
 _symmetry_equiv_pos_as_xyz
  1  'x, y, z'
loop_
 _atom_site_type_symbol
 _atom_site_label
 _atom_site_symmetry_multiplicity
 _atom_site_fract_x
 _atom_site_fract_y
 _atom_site_fract_z
 _atom_site_occupancy
  Sr  Sr0  1  0.998955  0.182166  0.093058  1
  Sr  Sr1  1  0.501005  0.682093  0.907307  1
  Sr  Sr2  1  0.001511  0.817925  0.592347  1
  Ca  Ca3  1  0.501646  0.685673  0.592669  1
  Ca  Ca4  1  0.001612  0.813974  0.906734  1
  Ca  Ca5  1  0.498368  0.314067  0.093160  1
  Ca  Ca6  1  0.998431  0.186735  0.406662  1
  Ca  Ca7  1  0.499001  0.313599  0.407407  1
  Ca  Ca8  1  0.831389  0.509039  0.749874  1
  Ca  Ca9  1  0.331627  0.991065  0.750083  1
  Ca  Ca10  1  0.168921  0.490138  0.250582  1
  Ca  Ca11  1  0.668236  0.009918  0.250675  1
  Ho  Ho12  1  0.669451  0.168040  0.621979  1
  Ho  Ho13  1  0.170046  0.332718  0.877505  1
  Ho  Ho14  1  0.329958  0.832896  0.122867  1
  Ho  Ho15  1  0.828902  0.666454  0.377755  1
  Ho  Ho16  1  0.330478  0.832524  0.377916  1
  Ho  Ho17  1  0.829709  0.667854  0.122406  1
  Ho  Ho18  1  0.669956  0.167969  0.878012  1
  Ho  Ho19  1  0.170402  0.332076  0.621517  1
  Sn  Sn20  1  0.669840  0.963096  0.459246  1
  Sn  Sn21  1  0.170258  0.539881  0.040094  1
  Sn  Sn22  1  0.329334  0.039793  0.960036  1
  Sn  Sn23  1  0.827676  0.459593  0.539022  1
  Sn  Sn24  1  0.332983  0.039636  0.538876  1
  Sn  Sn25  1  0.832326  0.462464  0.960163  1
  Sn  Sn26  1  0.667584  0.962391  0.039911  1
  Sn  Sn27  1  0.171793  0.535198  0.459301  1
  Sn  Sn28  1  0.466407  0.371620  0.749768  1
  Sn  Sn29  1  0.966281  0.128475  0.750139  1
  Sn  Sn30  1  0.532993  0.627774  0.249991  1
  Sn  Sn31  1  0.033856  0.872433  0.250548  1
  Sn  Sn32  1  0.712453  0.877641  0.750330  1
  Sn  Sn33  1  0.212386  0.622456  0.749489  1
  Sn  Sn34  1  0.289301  0.124164  0.251531  1
  Sn  Sn35  1  0.784925  0.376460  0.251039  1
