# generated using pymatgen
data_NdAlSiPt2
_symmetry_space_group_name_H-M   'P 1'
_cell_length_a   4.27220400
_cell_length_b   4.27461500
_cell_length_c   10.14306500
_cell_angle_alpha   90.00000000
_cell_angle_beta   90.00000000
_cell_angle_gamma   90.00000000
_symmetry_Int_Tables_number   1
_chemical_formula_structural   NdAlSiPt2
_chemical_formula_sum   'Nd2 Al2 Si2 Pt4'
_cell_volume   185.23292995
_cell_formula_units_Z   2
loop_
 _symmetry_equiv_pos_site_id
 _symmetry_equiv_pos_as_xyz
  1  'x, y, z'
loop_
 _atom_site_type_symbol
 _atom_site_label
 _atom_site_symmetry_multiplicity
 _atom_site_fract_x
 _atom_site_fract_y
 _atom_site_fract_z
 _atom_site_occupancy
  Nd  Nd0  1  0.000000  0.500000  0.251465  1
  Nd  Nd1  1  0.500000  0.000000  0.743981  1
  Al  Al2  1  0.000000  0.000000  0.498533  1
  Al  Al3  1  0.000000  0.500000  0.870225  1
  Si  Si4  1  0.500000  0.500000  0.499234  1
  Si  Si5  1  0.500000  0.000000  0.130399  1
  Pt  Pt6  1  0.000000  0.000000  0.006483  1
  Pt  Pt7  1  0.500000  0.500000  0.006821  1
  Pt  Pt8  1  0.000000  0.500000  0.624516  1
  Pt  Pt9  1  0.500000  0.000000  0.368340  1
