# generated using pymatgen
data_Ti6NbTc12W5
_symmetry_space_group_name_H-M   'P 1'
_cell_length_a   4.40476900
_cell_length_b   6.25887400
_cell_length_c   13.32237500
_cell_angle_alpha   90.00000000
_cell_angle_beta   89.99981863
_cell_angle_gamma   90.00000000
_symmetry_Int_Tables_number   1
_chemical_formula_structural   Ti6NbTc12W5
_chemical_formula_sum   'Ti6 Nb1 Tc12 W5'
_cell_volume   367.28314647
_cell_formula_units_Z   1
loop_
 _symmetry_equiv_pos_site_id
 _symmetry_equiv_pos_as_xyz
  1  'x, y, z'
loop_
 _atom_site_type_symbol
 _atom_site_label
 _atom_site_symmetry_multiplicity
 _atom_site_fract_x
 _atom_site_fract_y
 _atom_site_fract_z
 _atom_site_occupancy
  Ti  Ti0  1  0.000000  0.000000  0.000000  1
  Ti  Ti1  1  0.499887  0.500000  0.167207  1
  Ti  Ti2  1  0.999884  0.000000  0.332810  1
  Ti  Ti3  1  0.499999  0.500000  0.500000  1
  Ti  Ti4  1  0.000117  0.000000  0.667191  1
  Ti  Ti5  1  0.500112  0.500000  0.832793  1
  Nb  Nb6  1  0.000000  0.500000  0.000000  1
  Tc  Tc7  1  0.499999  0.246645  0.000000  1
  Tc  Tc8  1  0.499999  0.753355  0.000000  1
  Tc  Tc9  1  0.999901  0.248306  0.168700  1
  Tc  Tc10  1  0.999901  0.751694  0.168700  1
  Tc  Tc11  1  0.499892  0.250236  0.333844  1
  Tc  Tc12  1  0.499892  0.749764  0.333844  1
  Tc  Tc13  1  0.000000  0.249918  0.500000  1
  Tc  Tc14  1  0.000000  0.750082  0.500000  1
  Tc  Tc15  1  0.500107  0.250236  0.666156  1
  Tc  Tc16  1  0.500107  0.749764  0.666156  1
  Tc  Tc17  1  0.000100  0.248306  0.831300  1
  Tc  Tc18  1  0.000100  0.751694  0.831300  1
  W  W19  1  0.499891  0.000000  0.166270  1
  W  W20  1  0.999886  0.500000  0.333463  1
  W  W21  1  0.499999  0.000000  0.500000  1
  W  W22  1  0.000115  0.500000  0.666536  1
  W  W23  1  0.500108  0.000000  0.833730  1
