# generated using pymatgen
data_Y3HoCdIr
_symmetry_space_group_name_H-M   'P 1'
_cell_length_a   9.65985627
_cell_length_b   9.65985590
_cell_length_c   9.65985600
_cell_angle_alpha   59.99999965
_cell_angle_beta   60.00000091
_cell_angle_gamma   59.99999539
_symmetry_Int_Tables_number   1
_chemical_formula_structural   Y3HoCdIr
_chemical_formula_sum   'Y12 Ho4 Cd4 Ir4'
_cell_volume   637.37783037
_cell_formula_units_Z   4
loop_
 _symmetry_equiv_pos_site_id
 _symmetry_equiv_pos_as_xyz
  1  'x, y, z'
loop_
 _atom_site_type_symbol
 _atom_site_label
 _atom_site_symmetry_multiplicity
 _atom_site_fract_x
 _atom_site_fract_y
 _atom_site_fract_z
 _atom_site_occupancy
  Y  Y0  1  0.810013  0.189987  0.189987  1
  Y  Y1  1  0.189987  0.810013  0.810013  1
  Y  Y2  1  0.189987  0.810013  0.189987  1
  Y  Y3  1  0.810013  0.189987  0.810013  1
  Y  Y4  1  0.189987  0.189987  0.810013  1
  Y  Y5  1  0.810013  0.810013  0.189987  1
  Y  Y6  1  0.938258  0.561742  0.561742  1
  Y  Y7  1  0.561742  0.938258  0.938258  1
  Y  Y8  1  0.561742  0.938258  0.561742  1
  Y  Y9  1  0.938258  0.561742  0.938258  1
  Y  Y10  1  0.561742  0.561742  0.938258  1
  Y  Y11  1  0.938258  0.938258  0.561742  1
  Ho  Ho12  1  0.348761  0.348761  0.348761  1
  Ho  Ho13  1  0.348761  0.348761  0.953718  1
  Ho  Ho14  1  0.348761  0.953718  0.348761  1
  Ho  Ho15  1  0.953718  0.348761  0.348761  1
  Cd  Cd16  1  0.580718  0.580718  0.580718  1
  Cd  Cd17  1  0.580718  0.580718  0.257846  1
  Cd  Cd18  1  0.580718  0.257846  0.580718  1
  Cd  Cd19  1  0.257846  0.580718  0.580718  1
  Ir  Ir20  1  0.142577  0.142577  0.142577  1
  Ir  Ir21  1  0.142577  0.142577  0.572270  1
  Ir  Ir22  1  0.142577  0.572270  0.142577  1
  Ir  Ir23  1  0.572270  0.142577  0.142577  1
