# generated using pymatgen
data_CsHo3Se5
_symmetry_space_group_name_H-M   'P 1'
_cell_length_a   4.14291300
_cell_length_b   12.47406900
_cell_length_c   22.21988500
_cell_angle_alpha   90.00000000
_cell_angle_beta   90.00000000
_cell_angle_gamma   90.00000000
_symmetry_Int_Tables_number   1
_chemical_formula_structural   CsHo3Se5
_chemical_formula_sum   'Cs4 Ho12 Se20'
_cell_volume   1148.30105080
_cell_formula_units_Z   4
loop_
 _symmetry_equiv_pos_site_id
 _symmetry_equiv_pos_as_xyz
  1  'x, y, z'
loop_
 _atom_site_type_symbol
 _atom_site_label
 _atom_site_symmetry_multiplicity
 _atom_site_fract_x
 _atom_site_fract_y
 _atom_site_fract_z
 _atom_site_occupancy
  Cs  Cs0  1  0.250000  0.853422  0.092351  1
  Cs  Cs1  1  0.750000  0.146578  0.907649  1
  Cs  Cs2  1  0.750000  0.353422  0.407649  1
  Cs  Cs3  1  0.250000  0.646578  0.592351  1
  Ho  Ho4  1  0.750000  0.796975  0.825292  1
  Ho  Ho5  1  0.250000  0.203025  0.174708  1
  Ho  Ho6  1  0.250000  0.296975  0.674708  1
  Ho  Ho7  1  0.750000  0.703025  0.325292  1
  Ho  Ho8  1  0.250000  0.957242  0.697841  1
  Ho  Ho9  1  0.750000  0.042758  0.302159  1
  Ho  Ho10  1  0.750000  0.457242  0.802159  1
  Ho  Ho11  1  0.250000  0.542758  0.197841  1
  Ho  Ho12  1  0.750000  0.391827  0.054034  1
  Ho  Ho13  1  0.250000  0.608173  0.945966  1
  Ho  Ho14  1  0.250000  0.891827  0.445966  1
  Ho  Ho15  1  0.750000  0.108173  0.554034  1
  Se  Se16  1  0.250000  0.948319  0.568977  1
  Se  Se17  1  0.750000  0.051681  0.431023  1
  Se  Se18  1  0.750000  0.448319  0.931023  1
  Se  Se19  1  0.250000  0.551681  0.068977  1
  Se  Se20  1  0.750000  0.764198  0.952252  1
  Se  Se21  1  0.250000  0.235802  0.047748  1
  Se  Se22  1  0.250000  0.264198  0.547748  1
  Se  Se23  1  0.750000  0.735802  0.452252  1
  Se  Se24  1  0.250000  0.949287  0.825417  1
  Se  Se25  1  0.750000  0.050713  0.174583  1
  Se  Se26  1  0.750000  0.449287  0.674583  1
  Se  Se27  1  0.250000  0.550713  0.325417  1
  Se  Se28  1  0.750000  0.126018  0.684683  1
  Se  Se29  1  0.250000  0.873982  0.315317  1
  Se  Se30  1  0.250000  0.626018  0.815317  1
  Se  Se31  1  0.750000  0.373982  0.184683  1
  Se  Se32  1  0.750000  0.693656  0.197711  1
  Se  Se33  1  0.250000  0.306344  0.802289  1
  Se  Se34  1  0.250000  0.193656  0.302289  1
  Se  Se35  1  0.750000  0.806344  0.697711  1
