# generated using pymatgen
data_LiAl6Ir5
_symmetry_space_group_name_H-M   'P 1'
_cell_length_a   4.28648800
_cell_length_b   5.95228500
_cell_length_c   12.89649500
_cell_angle_alpha   90.00000000
_cell_angle_beta   89.99803511
_cell_angle_gamma   90.00000000
_symmetry_Int_Tables_number   1
_chemical_formula_structural   LiAl6Ir5
_chemical_formula_sum   'Li2 Al12 Ir10'
_cell_volume   329.04630914
_cell_formula_units_Z   2
loop_
 _symmetry_equiv_pos_site_id
 _symmetry_equiv_pos_as_xyz
  1  'x, y, z'
loop_
 _atom_site_type_symbol
 _atom_site_label
 _atom_site_symmetry_multiplicity
 _atom_site_fract_x
 _atom_site_fract_y
 _atom_site_fract_z
 _atom_site_occupancy
  Li  Li0  1  0.000003  0.000000  0.001977  1
  Li  Li1  1  0.500111  0.500000  0.164675  1
  Al  Al2  1  0.499996  0.247630  0.001394  1
  Al  Al3  1  0.499996  0.752370  0.001394  1
  Al  Al4  1  0.000089  0.252359  0.165300  1
  Al  Al5  1  0.000089  0.747641  0.165300  1
  Al  Al6  1  0.500081  0.251652  0.332434  1
  Al  Al7  1  0.500081  0.748347  0.332434  1
  Al  Al8  1  0.000001  0.251448  0.499304  1
  Al  Al9  1  0.000001  0.748553  0.499304  1
  Al  Al10  1  0.499923  0.248551  0.667353  1
  Al  Al11  1  0.499923  0.751448  0.667353  1
  Al  Al12  1  0.999909  0.248348  0.834218  1
  Al  Al13  1  0.999909  0.751652  0.834218  1
  Ir  Ir14  1  0.999978  0.500000  0.998404  1
  Ir  Ir15  1  0.500086  0.000000  0.168232  1
  Ir  Ir16  1  0.000080  0.500000  0.333123  1
  Ir  Ir17  1  0.499999  0.000000  0.500153  1
  Ir  Ir18  1  0.999930  0.500000  0.666513  1
  Ir  Ir19  1  0.499903  0.000000  0.833575  1
  Ir  Ir20  1  0.000061  0.000000  0.335843  1
  Ir  Ir21  1  0.499997  0.500000  0.502406  1
  Ir  Ir22  1  0.999935  0.000000  0.664254  1
  Ir  Ir23  1  0.499924  0.500000  0.830845  1
