# generated using pymatgen
data_La2Pr3DyTa2O14
_symmetry_space_group_name_H-M   'P 1'
_cell_length_a   6.69291605
_cell_length_b   6.69157300
_cell_length_c   7.73926200
_cell_angle_alpha   90.00000000
_cell_angle_beta   90.00000000
_cell_angle_gamma   110.51568501
_symmetry_Int_Tables_number   1
_chemical_formula_structural   La2Pr3DyTa2O14
_chemical_formula_sum   'La2 Pr3 Dy1 Ta2 O14'
_cell_volume   324.62824439
_cell_formula_units_Z   1
loop_
 _symmetry_equiv_pos_site_id
 _symmetry_equiv_pos_as_xyz
  1  'x, y, z'
loop_
 _atom_site_type_symbol
 _atom_site_label
 _atom_site_symmetry_multiplicity
 _atom_site_fract_x
 _atom_site_fract_y
 _atom_site_fract_z
 _atom_site_occupancy
  La  La0  1  0.000695  0.999153  0.001678  1
  La  La1  1  0.000695  0.999153  0.498322  1
  Pr  Pr2  1  0.479961  0.933177  0.750000  1
  Pr  Pr3  1  0.521388  0.065851  0.250000  1
  Pr  Pr4  1  0.931356  0.479904  0.750000  1
  Dy  Dy5  1  0.050036  0.516696  0.250000  1
  Ta  Ta6  1  0.497796  0.500952  0.002355  1
  Ta  Ta7  1  0.497796  0.500952  0.497645  1
  O  O8  1  0.850680  0.111090  0.750000  1
  O  O9  1  0.154063  0.874276  0.250000  1
  O  O10  1  0.108604  0.846442  0.750000  1
  O  O11  1  0.897317  0.162210  0.250000  1
  O  O12  1  0.436914  0.187887  0.965337  1
  O  O13  1  0.570862  0.816300  0.467390  1
  O  O14  1  0.188170  0.452832  0.524686  1
  O  O15  1  0.809825  0.551203  0.041017  1
  O  O16  1  0.432015  0.429946  0.250000  1
  O  O17  1  0.566056  0.563756  0.750000  1
  O  O18  1  0.188170  0.452832  0.975314  1
  O  O19  1  0.809825  0.551203  0.458983  1
  O  O20  1  0.436914  0.187887  0.534663  1
  O  O21  1  0.570862  0.816300  0.032610  1
