# generated using pymatgen
data_Tb12Co3Si8Tc
_symmetry_space_group_name_H-M   'P 1'
_cell_length_a   4.14863700
_cell_length_b   11.19981205
_cell_length_c   11.50016220
_cell_angle_alpha   89.77610587
_cell_angle_beta   90.00000000
_cell_angle_gamma   90.00000000
_symmetry_Int_Tables_number   1
_chemical_formula_structural   Tb12Co3Si8Tc
_chemical_formula_sum   'Tb12 Co3 Si8 Tc1'
_cell_volume   534.33893511
_cell_formula_units_Z   1
loop_
 _symmetry_equiv_pos_site_id
 _symmetry_equiv_pos_as_xyz
  1  'x, y, z'
loop_
 _atom_site_type_symbol
 _atom_site_label
 _atom_site_symmetry_multiplicity
 _atom_site_fract_x
 _atom_site_fract_y
 _atom_site_fract_z
 _atom_site_occupancy
  Tb  Tb0  1  0.250000  0.061478  0.882567  1
  Tb  Tb1  1  0.250000  0.442297  0.381340  1
  Tb  Tb2  1  0.750000  0.945011  0.124836  1
  Tb  Tb3  1  0.750000  0.558048  0.618577  1
  Tb  Tb4  1  0.250000  0.128841  0.556077  1
  Tb  Tb5  1  0.250000  0.375009  0.058464  1
  Tb  Tb6  1  0.750000  0.872790  0.441980  1
  Tb  Tb7  1  0.750000  0.617476  0.939623  1
  Tb  Tb8  1  0.250000  0.798403  0.713779  1
  Tb  Tb9  1  0.250000  0.697291  0.215940  1
  Tb  Tb10  1  0.750000  0.201247  0.281550  1
  Tb  Tb11  1  0.750000  0.299667  0.780883  1
  Co  Co12  1  0.250000  0.365423  0.627966  1
  Co  Co13  1  0.250000  0.137093  0.130510  1
  Co  Co14  1  0.750000  0.635577  0.370190  1
  Si  Si15  1  0.250000  0.813900  0.980351  1
  Si  Si16  1  0.250000  0.682774  0.472177  1
  Si  Si17  1  0.750000  0.185295  0.026191  1
  Si  Si18  1  0.750000  0.317816  0.525188  1
  Si  Si19  1  0.250000  0.489132  0.800130  1
  Si  Si20  1  0.250000  0.010325  0.303304  1
  Si  Si21  1  0.750000  0.505723  0.199498  1
  Si  Si22  1  0.750000  0.996438  0.694052  1
  Tc  Tc23  1  0.750000  0.862948  0.874826  1
