# generated using pymatgen
data_K3LiAs2O7
_symmetry_space_group_name_H-M   'P 1'
_cell_length_a   5.87725826
_cell_length_b   5.87725888
_cell_length_c   13.90424000
_cell_angle_alpha   90.00000000
_cell_angle_beta   90.00000000
_cell_angle_gamma   115.11060761
_symmetry_Int_Tables_number   1
_chemical_formula_structural   K3LiAs2O7
_chemical_formula_sum   'K6 Li2 As4 O14'
_cell_volume   434.89120830
_cell_formula_units_Z   2
loop_
 _symmetry_equiv_pos_site_id
 _symmetry_equiv_pos_as_xyz
  1  'x, y, z'
loop_
 _atom_site_type_symbol
 _atom_site_label
 _atom_site_symmetry_multiplicity
 _atom_site_fract_x
 _atom_site_fract_y
 _atom_site_fract_z
 _atom_site_occupancy
  K  K0  1  0.353845  0.353845  0.500000  1
  K  K1  1  0.646155  0.646155  0.000000  1
  K  K2  1  0.048094  0.705518  0.623201  1
  K  K3  1  0.705518  0.048094  0.376799  1
  K  K4  1  0.951906  0.294482  0.123201  1
  K  K5  1  0.294482  0.951906  0.876799  1
  Li  Li6  1  0.535643  0.464357  0.750000  1
  Li  Li7  1  0.464357  0.535643  0.250000  1
  As  As8  1  0.686057  0.031938  0.653816  1
  As  As9  1  0.031938  0.686057  0.346184  1
  As  As10  1  0.313943  0.968062  0.153816  1
  As  As11  1  0.968062  0.313943  0.846184  1
  O  O12  1  0.568153  0.712165  0.642390  1
  O  O13  1  0.712165  0.568153  0.357610  1
  O  O14  1  0.431847  0.287835  0.142390  1
  O  O15  1  0.287835  0.431847  0.857610  1
  O  O16  1  0.857121  0.199620  0.558770  1
  O  O17  1  0.199620  0.857121  0.441230  1
  O  O18  1  0.142879  0.800380  0.058770  1
  O  O19  1  0.800380  0.142879  0.941230  1
  O  O20  1  0.463140  0.128226  0.689619  1
  O  O21  1  0.128226  0.463140  0.310381  1
  O  O22  1  0.536860  0.871774  0.189619  1
  O  O23  1  0.871774  0.536860  0.810381  1
  O  O24  1  0.912679  0.087321  0.750000  1
  O  O25  1  0.087321  0.912679  0.250000  1
