# generated using pymatgen
data_PrNdCr2F14
_symmetry_space_group_name_H-M   'P 1'
_cell_length_a   5.62641800
_cell_length_b   9.08638199
_cell_length_c   12.08858871
_cell_angle_alpha   62.27504410
_cell_angle_beta   90.00000000
_cell_angle_gamma   90.00000000
_symmetry_Int_Tables_number   1
_chemical_formula_structural   PrNdCr2F14
_chemical_formula_sum   'Pr2 Nd2 Cr4 F28'
_cell_volume   547.06081989
_cell_formula_units_Z   2
loop_
 _symmetry_equiv_pos_site_id
 _symmetry_equiv_pos_as_xyz
  1  'x, y, z'
loop_
 _atom_site_type_symbol
 _atom_site_label
 _atom_site_symmetry_multiplicity
 _atom_site_fract_x
 _atom_site_fract_y
 _atom_site_fract_z
 _atom_site_occupancy
  Pr  Pr0  1  0.238840  0.192987  0.234400  1
  Pr  Pr1  1  0.738840  0.807013  0.265600  1
  Nd  Nd2  1  0.761475  0.807700  0.765666  1
  Nd  Nd3  1  0.261475  0.192300  0.734334  1
  Cr  Cr4  1  0.755878  0.275261  0.955951  1
  Cr  Cr5  1  0.255878  0.724739  0.544049  1
  Cr  Cr6  1  0.245249  0.725958  0.041424  1
  Cr  Cr7  1  0.745249  0.274042  0.458576  1
  F  F8  1  0.437411  0.708174  0.923661  1
  F  F9  1  0.937411  0.291826  0.576339  1
  F  F10  1  0.562697  0.292342  0.073809  1
  F  F11  1  0.062697  0.707658  0.426191  1
  F  F12  1  0.469136  0.285730  0.542895  1
  F  F13  1  0.969136  0.714270  0.957105  1
  F  F14  1  0.530300  0.712987  0.459558  1
  F  F15  1  0.030300  0.287013  0.040442  1
  F  F16  1  0.763408  0.504082  0.862403  1
  F  F17  1  0.263408  0.495918  0.637597  1
  F  F18  1  0.235895  0.497379  0.135072  1
  F  F19  1  0.735895  0.502621  0.364928  1
  F  F20  1  0.761704  0.047571  0.045513  1
  F  F21  1  0.261704  0.952429  0.454487  1
  F  F22  1  0.239278  0.953751  0.952564  1
  F  F23  1  0.739278  0.046249  0.547436  1
  F  F24  1  0.985621  0.731897  0.632275  1
  F  F25  1  0.485621  0.268103  0.867725  1
  F  F26  1  0.016135  0.268389  0.370582  1
  F  F27  1  0.516135  0.731611  0.129418  1
  F  F28  1  0.054347  0.741769  0.162597  1
  F  F29  1  0.554347  0.258231  0.337403  1
  F  F30  1  0.948200  0.258536  0.835340  1
  F  F31  1  0.448200  0.741464  0.664660  1
  F  F32  1  0.401703  0.968257  0.225677  1
  F  F33  1  0.901703  0.031743  0.274323  1
  F  F34  1  0.592724  0.029119  0.773587  1
  F  F35  1  0.092724  0.970881  0.726413  1
