# generated using pymatgen
data_PrNdFe6(B4Os)2
_symmetry_space_group_name_H-M   'P 1'
_cell_length_a   7.13633915
_cell_length_b   7.32465168
_cell_length_c   3.86949400
_cell_angle_alpha   90.00000000
_cell_angle_beta   90.00000000
_cell_angle_gamma   91.24806870
_symmetry_Int_Tables_number   1
_chemical_formula_structural   PrNdFe6(B4Os)2
_chemical_formula_sum   'Pr1 Nd1 Fe6 B8 Os2'
_cell_volume   202.21510473
_cell_formula_units_Z   1
loop_
 _symmetry_equiv_pos_site_id
 _symmetry_equiv_pos_as_xyz
  1  'x, y, z'
loop_
 _atom_site_type_symbol
 _atom_site_label
 _atom_site_symmetry_multiplicity
 _atom_site_fract_x
 _atom_site_fract_y
 _atom_site_fract_z
 _atom_site_occupancy
  Pr  Pr0  1  0.500000  0.500000  0.429861  1
  Nd  Nd1  1  0.000000  0.000000  0.936801  1
  Fe  Fe2  1  0.891935  0.347310  0.395494  1
  Fe  Fe3  1  0.108065  0.652690  0.395494  1
  Fe  Fe4  1  0.377392  0.110051  0.619036  1
  Fe  Fe5  1  0.622608  0.889949  0.619036  1
  Fe  Fe6  1  0.618165  0.123502  0.119491  1
  Fe  Fe7  1  0.381835  0.876498  0.119491  1
  B  B8  1  0.660039  0.816696  0.118844  1
  B  B9  1  0.339961  0.183304  0.118844  1
  B  B10  1  0.311270  0.833773  0.616362  1
  B  B11  1  0.688730  0.166227  0.616362  1
  B  B12  1  0.828759  0.730141  0.401979  1
  B  B13  1  0.171241  0.269859  0.401979  1
  B  B14  1  0.211580  0.670935  0.898600  1
  B  B15  1  0.788420  0.329065  0.898600  1
  Os  Os16  1  0.145957  0.388970  0.896861  1
  Os  Os17  1  0.854043  0.611030  0.896861  1
