# generated using pymatgen
data_Zr8MnBi4P
_symmetry_space_group_name_H-M   'P 1'
_cell_length_a   8.29747829
_cell_length_b   8.29764431
_cell_length_c   8.29748059
_cell_angle_alpha   95.81659083
_cell_angle_beta   95.80959584
_cell_angle_gamma   142.88393945
_symmetry_Int_Tables_number   1
_chemical_formula_structural   Zr8MnBi4P
_chemical_formula_sum   'Zr8 Mn1 Bi4 P1'
_cell_volume   326.80498246
_cell_formula_units_Z   1
loop_
 _symmetry_equiv_pos_site_id
 _symmetry_equiv_pos_as_xyz
  1  'x, y, z'
loop_
 _atom_site_type_symbol
 _atom_site_label
 _atom_site_symmetry_multiplicity
 _atom_site_fract_x
 _atom_site_fract_y
 _atom_site_fract_z
 _atom_site_occupancy
  Zr  Zr0  1  0.697543  0.583551  0.278886  1
  Zr  Zr1  1  0.583488  0.304648  0.885979  1
  Zr  Zr2  1  0.081330  0.195352  0.278840  1
  Zr  Zr3  1  0.916472  0.802552  0.721275  1
  Zr  Zr4  1  0.195335  0.916449  0.113991  1
  Zr  Zr5  1  0.802556  0.081251  0.886058  1
  Zr  Zr6  1  0.304805  0.418749  0.721305  1
  Zr  Zr7  1  0.418723  0.697448  0.113919  1
  Mn  Mn8  1  0.749850  0.750000  0.999850  1
  Bi  Bi9  1  0.139198  0.639212  0.778332  1
  Bi  Bi10  1  0.360821  0.139241  0.499971  1
  Bi  Bi11  1  0.639118  0.860788  0.499986  1
  Bi  Bi12  1  0.860730  0.360759  0.221578  1
  P  P13  1  0.250031  0.250000  0.000031  1
