# generated using pymatgen
data_Dy8Lu12Ga15Si
_symmetry_space_group_name_H-M   'P 1'
_cell_length_a   7.40262364
_cell_length_b   7.71109653
_cell_length_c   15.00914700
_cell_angle_alpha   90.00000000
_cell_angle_beta   90.00000000
_cell_angle_gamma   90.15680501
_symmetry_Int_Tables_number   1
_chemical_formula_structural   Dy8Lu12Ga15Si
_chemical_formula_sum   'Dy8 Lu12 Ga15 Si1'
_cell_volume   856.75410620
_cell_formula_units_Z   1
loop_
 _symmetry_equiv_pos_site_id
 _symmetry_equiv_pos_as_xyz
  1  'x, y, z'
loop_
 _atom_site_type_symbol
 _atom_site_label
 _atom_site_symmetry_multiplicity
 _atom_site_fract_x
 _atom_site_fract_y
 _atom_site_fract_z
 _atom_site_occupancy
  Dy  Dy0  1  0.013531  0.178854  0.095650  1
  Dy  Dy1  1  0.985328  0.818883  0.903499  1
  Dy  Dy2  1  0.486923  0.679088  0.903380  1
  Dy  Dy3  1  0.985328  0.818883  0.596501  1
  Dy  Dy4  1  0.513514  0.320585  0.095326  1
  Dy  Dy5  1  0.013531  0.178854  0.404350  1
  Dy  Dy6  1  0.513514  0.320585  0.404674  1
  Dy  Dy7  1  0.486923  0.679088  0.596620  1
  Lu  Lu8  1  0.162198  0.508173  0.750000  1
  Lu  Lu9  1  0.834688  0.491263  0.250000  1
  Lu  Lu10  1  0.335683  0.008673  0.250000  1
  Lu  Lu11  1  0.664887  0.989969  0.750000  1
  Lu  Lu12  1  0.330177  0.174840  0.621374  1
  Lu  Lu13  1  0.671333  0.825955  0.378239  1
  Lu  Lu14  1  0.171274  0.673454  0.377820  1
  Lu  Lu15  1  0.671333  0.825955  0.121761  1
  Lu  Lu16  1  0.827501  0.328522  0.621929  1
  Lu  Lu17  1  0.330177  0.174840  0.878626  1
  Lu  Lu18  1  0.827501  0.328522  0.878071  1
  Lu  Lu19  1  0.171274  0.673454  0.122180  1
  Ga  Ga20  1  0.034783  0.113276  0.750000  1
  Ga  Ga21  1  0.965613  0.887915  0.250000  1
  Ga  Ga22  1  0.465759  0.612999  0.250000  1
  Ga  Ga23  1  0.534488  0.392297  0.750000  1
  Ga  Ga24  1  0.280589  0.871388  0.750000  1
  Ga  Ga25  1  0.719906  0.127976  0.250000  1
  Ga  Ga26  1  0.219498  0.371469  0.250000  1
  Ga  Ga27  1  0.158764  0.468415  0.540372  1
  Ga  Ga28  1  0.841114  0.531742  0.460385  1
  Ga  Ga29  1  0.340537  0.967934  0.460571  1
  Ga  Ga30  1  0.841114  0.531742  0.039615  1
  Ga  Ga31  1  0.660352  0.031235  0.540517  1
  Ga  Ga32  1  0.158764  0.468415  0.959628  1
  Ga  Ga33  1  0.660352  0.031235  0.959483  1
  Ga  Ga34  1  0.340537  0.967934  0.039429  1
  Si  Si35  1  0.781204  0.625581  0.750000  1
