# generated using pymatgen
data_TlAgBi2(Pt2O7)2
_symmetry_space_group_name_H-M   'P 1'
_cell_length_a   7.40055232
_cell_length_b   7.40055306
_cell_length_c   7.26065406
_cell_angle_alpha   59.68853663
_cell_angle_beta   59.68853625
_cell_angle_gamma   60.39292969
_symmetry_Int_Tables_number   1
_chemical_formula_structural   TlAgBi2(Pt2O7)2
_chemical_formula_sum   'Tl1 Ag1 Bi2 Pt4 O14'
_cell_volume   280.66552479
_cell_formula_units_Z   1
loop_
 _symmetry_equiv_pos_site_id
 _symmetry_equiv_pos_as_xyz
  1  'x, y, z'
loop_
 _atom_site_type_symbol
 _atom_site_label
 _atom_site_symmetry_multiplicity
 _atom_site_fract_x
 _atom_site_fract_y
 _atom_site_fract_z
 _atom_site_occupancy
  Tl  Tl0  1  0.125000  0.125000  0.125000  1
  Ag  Ag1  1  0.125000  0.125000  0.625000  1
  Bi  Bi2  1  0.125000  0.625000  0.125000  1
  Bi  Bi3  1  0.625000  0.125000  0.125000  1
  Pt  Pt4  1  0.625000  0.625000  0.125000  1
  Pt  Pt5  1  0.625000  0.125000  0.625000  1
  Pt  Pt6  1  0.125000  0.625000  0.625000  1
  Pt  Pt7  1  0.625000  0.625000  0.625000  1
  O  O8  1  0.242953  0.242953  0.261681  1
  O  O9  1  0.007047  0.007047  0.988319  1
  O  O10  1  0.548312  0.955020  0.540327  1
  O  O11  1  0.292838  0.708580  0.288219  1
  O  O12  1  0.540102  0.540102  0.961455  1
  O  O13  1  0.955020  0.548312  0.540327  1
  O  O14  1  0.541420  0.957162  0.961781  1
  O  O15  1  0.955376  0.955376  0.540355  1
  O  O16  1  0.957162  0.541420  0.961781  1
  O  O17  1  0.708580  0.292838  0.288219  1
  O  O18  1  0.294980  0.701688  0.709673  1
  O  O19  1  0.701688  0.294980  0.709673  1
  O  O20  1  0.294624  0.294624  0.709645  1
  O  O21  1  0.709898  0.709898  0.288545  1
