# generated using pymatgen
data_Rb4Zr6RuBr18
_symmetry_space_group_name_H-M   'P 1'
_cell_length_a   10.83254267
_cell_length_b   11.03436850
_cell_length_c   11.13712064
_cell_angle_alpha   118.40312726
_cell_angle_beta   100.41742489
_cell_angle_gamma   103.96587803
_symmetry_Int_Tables_number   1
_chemical_formula_structural   Rb4Zr6RuBr18
_chemical_formula_sum   'Rb4 Zr6 Ru1 Br18'
_cell_volume   1066.04091379
_cell_formula_units_Z   1
loop_
 _symmetry_equiv_pos_site_id
 _symmetry_equiv_pos_as_xyz
  1  'x, y, z'
loop_
 _atom_site_type_symbol
 _atom_site_label
 _atom_site_symmetry_multiplicity
 _atom_site_fract_x
 _atom_site_fract_y
 _atom_site_fract_z
 _atom_site_occupancy
  Rb  Rb0  1  0.655276  0.537623  0.228220  1
  Rb  Rb1  1  0.344724  0.462377  0.771780  1
  Rb  Rb2  1  0.689964  0.226907  0.564665  1
  Rb  Rb3  1  0.310036  0.773093  0.435335  1
  Zr  Zr4  1  0.157019  0.058193  0.238358  1
  Zr  Zr5  1  0.842981  0.941807  0.761642  1
  Zr  Zr6  1  0.856092  0.129943  0.136400  1
  Zr  Zr7  1  0.143908  0.870057  0.863600  1
  Zr  Zr8  1  0.151180  0.246925  0.046596  1
  Zr  Zr9  1  0.848820  0.753075  0.953404  1
  Ru  Ru10  1  0.000000  0.000000  0.000000  1
  Br  Br11  1  0.008587  0.403702  0.194001  1
  Br  Br12  1  0.991413  0.596298  0.805999  1
  Br  Br13  1  0.326642  0.329774  0.307811  1
  Br  Br14  1  0.673358  0.670226  0.692189  1
  Br  Br15  1  0.322118  0.517882  0.100345  1
  Br  Br16  1  0.677882  0.482118  0.899655  1
  Br  Br17  1  0.004830  0.798733  0.206829  1
  Br  Br18  1  0.995170  0.201267  0.793171  1
  Br  Br19  1  0.704375  0.272840  0.285466  1
  Br  Br20  1  0.295625  0.727160  0.714534  1
  Br  Br21  1  0.313588  0.126055  0.904394  1
  Br  Br22  1  0.686412  0.873945  0.095606  1
  Br  Br23  1  0.015434  0.201232  0.402016  1
  Br  Br24  1  0.984566  0.798768  0.597984  1
  Br  Br25  1  0.318199  0.923535  0.109289  1
  Br  Br26  1  0.681801  0.076465  0.890711  1
  Br  Br27  1  0.333784  0.121112  0.498514  1
  Br  Br28  1  0.666216  0.878888  0.501486  1
