# generated using pymatgen
data_SmZnCdPt3
_symmetry_space_group_name_H-M   'P 1'
_cell_length_a   5.24874093
_cell_length_b   5.24874103
_cell_length_c   5.24874141
_cell_angle_alpha   63.60317464
_cell_angle_beta   63.60316280
_cell_angle_gamma   63.60316994
_symmetry_Int_Tables_number   1
_chemical_formula_structural   SmZnCdPt3
_chemical_formula_sum   'Sm1 Zn1 Cd1 Pt3'
_cell_volume   110.38707692
_cell_formula_units_Z   1
loop_
 _symmetry_equiv_pos_site_id
 _symmetry_equiv_pos_as_xyz
  1  'x, y, z'
loop_
 _atom_site_type_symbol
 _atom_site_label
 _atom_site_symmetry_multiplicity
 _atom_site_fract_x
 _atom_site_fract_y
 _atom_site_fract_z
 _atom_site_occupancy
  Sm  Sm0  1  0.246226  0.246226  0.246226  1
  Zn  Zn1  1  0.626942  0.626942  0.626942  1
  Cd  Cd2  1  0.996939  0.996939  0.996939  1
  Pt  Pt3  1  0.627490  0.627490  0.124913  1
  Pt  Pt4  1  0.627490  0.124913  0.627490  1
  Pt  Pt5  1  0.124913  0.627490  0.627490  1
