# generated using pymatgen
data_Pr12Nb8ZnW11N48
_symmetry_space_group_name_H-M   'P 1'
_cell_length_a   11.39167741
_cell_length_b   11.39167782
_cell_length_c   11.39167700
_cell_angle_alpha   109.51101215
_cell_angle_beta   109.39167390
_cell_angle_gamma   109.51100651
_symmetry_Int_Tables_number   1
_chemical_formula_structural   Pr12Nb8ZnW11N48
_chemical_formula_sum   'Pr12 Nb8 Zn1 W11 N48'
_cell_volume   1137.99540489
_cell_formula_units_Z   1
loop_
 _symmetry_equiv_pos_site_id
 _symmetry_equiv_pos_as_xyz
  1  'x, y, z'
loop_
 _atom_site_type_symbol
 _atom_site_label
 _atom_site_symmetry_multiplicity
 _atom_site_fract_x
 _atom_site_fract_y
 _atom_site_fract_z
 _atom_site_occupancy
  Pr  Pr0  1  0.371020  0.750000  0.121021  1
  Pr  Pr1  1  0.247820  0.371974  0.125224  1
  Pr  Pr2  1  0.374146  0.117961  0.241801  1
  Pr  Pr3  1  0.874777  0.622596  0.246750  1
  Pr  Pr4  1  0.753250  0.128027  0.375846  1
  Pr  Pr5  1  0.121919  0.250000  0.371919  1
  Pr  Pr6  1  0.878980  0.750000  0.628980  1
  Pr  Pr7  1  0.243815  0.867656  0.625854  1
  Pr  Pr8  1  0.123840  0.382039  0.756185  1
  Pr  Pr9  1  0.624154  0.877404  0.752180  1
  Pr  Pr10  1  0.628081  0.250000  0.878082  1
  Pr  Pr11  1  0.758199  0.632345  0.876161  1
  Nb  Nb12  1  0.004142  0.017667  0.011808  1
  Nb  Nb13  1  0.513526  0.007666  0.995858  1
  Nb  Nb14  1  0.988192  0.492335  0.005858  1
  Nb  Nb15  1  0.500018  0.498974  0.000155  1
  Nb  Nb16  1  0.999845  0.999863  0.498820  1
  Nb  Nb17  1  0.498957  0.500138  0.499983  1
  Nb  Nb18  1  0.501181  0.001026  0.501044  1
  Nb  Nb19  1  0.994142  0.482333  0.486475  1
  Zn  Zn20  1  0.875000  0.250000  0.125000  1
  W  W21  1  0.750588  0.875815  0.125140  1
  W  W22  1  0.625227  0.374552  0.249412  1
  W  W23  1  0.127248  0.875463  0.252316  1
  W  W24  1  0.249326  0.624185  0.374773  1
  W  W25  1  0.625000  0.750000  0.375000  1
  W  W26  1  0.375000  0.250000  0.625000  1
  W  W27  1  0.747684  0.374932  0.623145  1
  W  W28  1  0.874860  0.125448  0.750674  1
  W  W29  1  0.376855  0.624537  0.751787  1
  W  W30  1  0.248213  0.125068  0.872752  1
  W  W31  1  0.125000  0.750000  0.875000  1
  N  N32  1  0.198485  0.112691  0.010510  1
  N  N33  1  0.312702  0.899925  0.021480  1
  N  N34  1  0.878639  0.409727  0.079130  1
  N  N35  1  0.699501  0.684155  0.080836  1
  N  N36  1  0.989490  0.687975  0.102181  1
  N  N37  1  0.614114  0.416726  0.100572  1
  N  N38  1  0.031087  0.200492  0.121361  1
  N  N39  1  0.603709  0.917806  0.117820  1
  N  N40  1  0.200016  0.582194  0.185905  1
  N  N41  1  0.488218  0.602109  0.184742  1
  N  N42  1  0.586793  0.186203  0.199384  1
  N  N43  1  0.116240  0.012120  0.200280  1
  N  N44  1  0.316554  0.916518  0.302665  1
  N  N45  1  0.484654  0.381336  0.300499  1
  N  N46  1  0.920870  0.299508  0.330595  1
  N  N47  1  0.899428  0.013541  0.316154  1
  N  N48  1  0.582634  0.897892  0.386109  1
  N  N49  1  0.302613  0.486459  0.385887  1
  N  N50  1  0.814096  0.514112  0.396291  1
  N  N51  1  0.081609  0.882356  0.399561  1
  N  N52  1  0.099410  0.612592  0.413207  1
  N  N53  1  0.815258  0.803475  0.417366  1
  N  N54  1  0.600439  0.182048  0.482793  1
  N  N55  1  0.384758  0.302244  0.486993  1
  N  N56  1  0.613891  0.696524  0.511781  1
  N  N57  1  0.396682  0.815846  0.515346  1
  N  N58  1  0.184748  0.197755  0.582512  1
  N  N59  1  0.897820  0.387310  0.585795  1
  N  N60  1  0.919164  0.118664  0.603318  1
  N  N61  1  0.188161  0.487880  0.604121  1
  N  N62  1  0.417488  0.102235  0.615243  1
  N  N63  1  0.697334  0.513889  0.613852  1
  N  N64  1  0.087223  0.708777  0.687298  1
  N  N65  1  0.099964  0.986110  0.683446  1
  N  N66  1  0.683846  0.083274  0.697387  1
  N  N67  1  0.517206  0.617643  0.699253  1
  N  N68  1  0.882180  0.985889  0.799984  1
  N  N69  1  0.414205  0.812025  0.801515  1
  N  N70  1  0.513007  0.397766  0.815253  1
  N  N71  1  0.799720  0.415961  0.811839  1
  N  N72  1  0.395879  0.084039  0.883760  1
  N  N73  1  0.978521  0.791224  0.878447  1
  N  N74  1  0.013182  0.313797  0.900590  1
  N  N75  1  0.386148  0.583482  0.900037  1
  N  N76  1  0.300746  0.317952  0.918391  1
  N  N77  1  0.121553  0.600074  0.912777  1
  N  N78  1  0.669405  0.090273  0.968913  1
  N  N79  1  0.800616  0.887409  0.986819  1
