# generated using pymatgen
data_Er2Al4Si2Ni
_symmetry_space_group_name_H-M   'P 1'
_cell_length_a   4.08179057
_cell_length_b   4.08179696
_cell_length_c   10.00691106
_cell_angle_alpha   101.70866744
_cell_angle_beta   101.70849778
_cell_angle_gamma   89.99799833
_symmetry_Int_Tables_number   1
_chemical_formula_structural   Er2Al4Si2Ni
_chemical_formula_sum   'Er2 Al4 Si2 Ni1'
_cell_volume   159.71215289
_cell_formula_units_Z   1
loop_
 _symmetry_equiv_pos_site_id
 _symmetry_equiv_pos_as_xyz
  1  'x, y, z'
loop_
 _atom_site_type_symbol
 _atom_site_label
 _atom_site_symmetry_multiplicity
 _atom_site_fract_x
 _atom_site_fract_y
 _atom_site_fract_z
 _atom_site_occupancy
  Er  Er0  1  0.187721  0.187717  0.375042  1
  Er  Er1  1  0.812279  0.812279  0.624958  1
  Al  Al2  1  0.568747  0.068684  0.137493  1
  Al  Al3  1  0.068683  0.568750  0.137493  1
  Al  Al4  1  0.931318  0.431253  0.862507  1
  Al  Al5  1  0.431254  0.931319  0.862507  1
  Si  Si6  1  0.661813  0.661812  0.323584  1
  Si  Si7  1  0.338189  0.338185  0.676415  1
  Ni  Ni8  1  0.000002  0.000006  0.000002  1
