# generated using pymatgen
data_Ta4BeTc2B3
_symmetry_space_group_name_H-M   'P 1'
_cell_length_a   6.09938811
_cell_length_b   6.09938806
_cell_length_c   3.29235000
_cell_angle_alpha   90.00000000
_cell_angle_beta   90.00000000
_cell_angle_gamma   90.01880617
_symmetry_Int_Tables_number   1
_chemical_formula_structural   Ta4BeTc2B3
_chemical_formula_sum   'Ta4 Be1 Tc2 B3'
_cell_volume   122.48375952
_cell_formula_units_Z   1
loop_
 _symmetry_equiv_pos_site_id
 _symmetry_equiv_pos_as_xyz
  1  'x, y, z'
loop_
 _atom_site_type_symbol
 _atom_site_label
 _atom_site_symmetry_multiplicity
 _atom_site_fract_x
 _atom_site_fract_y
 _atom_site_fract_z
 _atom_site_occupancy
  Ta  Ta0  1  0.676959  0.176959  0.500000  1
  Ta  Ta1  1  0.327977  0.827977  0.500000  1
  Ta  Ta2  1  0.176110  0.318338  0.500000  1
  Ta  Ta3  1  0.818338  0.676110  0.500000  1
  Be  Be4  1  0.113686  0.613686  0.000000  1
  Tc  Tc5  1  0.502142  0.498080  0.000000  1
  Tc  Tc6  1  0.998080  0.002142  0.000000  1
  B  B7  1  0.885519  0.385519  0.000000  1
  B  B8  1  0.611828  0.889362  0.000000  1
  B  B9  1  0.389362  0.111828  0.000000  1
