# generated using pymatgen
data_Dy5P12Ir2Rh14W3
_symmetry_space_group_name_H-M   'P 1'
_cell_length_a   12.68424100
_cell_length_b   12.70291306
_cell_length_c   3.93568000
_cell_angle_alpha   90.00000000
_cell_angle_beta   90.00000000
_cell_angle_gamma   119.95139049
_symmetry_Int_Tables_number   1
_chemical_formula_structural   Dy5P12Ir2Rh14W3
_chemical_formula_sum   'Dy5 P12 Ir2 Rh14 W3'
_cell_volume   549.45324257
_cell_formula_units_Z   1
loop_
 _symmetry_equiv_pos_site_id
 _symmetry_equiv_pos_as_xyz
  1  'x, y, z'
loop_
 _atom_site_type_symbol
 _atom_site_label
 _atom_site_symmetry_multiplicity
 _atom_site_fract_x
 _atom_site_fract_y
 _atom_site_fract_z
 _atom_site_occupancy
  Dy  Dy0  1  0.333251  0.666314  0.500000  1
  Dy  Dy1  1  0.666938  0.333686  0.500000  1
  Dy  Dy2  1  0.000104  0.812228  0.000000  1
  Dy  Dy3  1  0.187875  0.187772  0.000000  1
  Dy  Dy4  1  0.811935  0.000000  0.000000  1
  P  P5  1  0.999730  0.638124  0.500000  1
  P  P6  1  0.361607  0.361876  0.500000  1
  P  P7  1  0.638486  0.000000  0.500000  1
  P  P8  1  0.516829  0.681655  0.000000  1
  P  P9  1  0.318036  0.834181  0.000000  1
  P  P10  1  0.164813  0.482874  0.000000  1
  P  P11  1  0.483855  0.165819  0.000000  1
  P  P12  1  0.681939  0.517126  0.000000  1
  P  P13  1  0.835175  0.318345  0.000000  1
  P  P14  1  0.000020  0.176731  0.500000  1
  P  P15  1  0.823289  0.823269  0.500000  1
  P  P16  1  0.176627  0.000000  0.500000  1
  Ir  Ir17  1  0.284427  0.000000  0.000000  1
  Ir  Ir18  1  0.999931  0.000000  0.500000  1
  Rh  Rh19  1  0.512312  0.868419  0.000000  1
  Rh  Rh20  1  0.131170  0.643489  0.000000  1
  Rh  Rh21  1  0.356074  0.487343  0.000000  1
  Rh  Rh22  1  0.487682  0.356511  0.000000  1
  Rh  Rh23  1  0.868732  0.512657  0.000000  1
  Rh  Rh24  1  0.643893  0.131581  0.000000  1
  Rh  Rh25  1  0.999964  0.283856  0.000000  1
  Rh  Rh26  1  0.716107  0.716144  0.000000  1
  Rh  Rh27  1  0.623700  0.801161  0.500000  1
  Rh  Rh28  1  0.198389  0.821971  0.500000  1
  Rh  Rh29  1  0.177301  0.376263  0.500000  1
  Rh  Rh30  1  0.376419  0.178029  0.500000  1
  Rh  Rh31  1  0.801038  0.623737  0.500000  1
  Rh  Rh32  1  0.822539  0.198839  0.500000  1
  W  W33  1  0.999849  0.452031  0.500000  1
  W  W34  1  0.547818  0.547969  0.500000  1
  W  W35  1  0.452150  0.000000  0.500000  1
