# generated using pymatgen
data_Ac3ZnGa11
_symmetry_space_group_name_H-M   'P 1'
_cell_length_a   8.91651948
_cell_length_b   8.91651910
_cell_length_c   8.91651813
_cell_angle_alpha   149.63735694
_cell_angle_beta   109.45642727
_cell_angle_gamma   78.70074568
_symmetry_Int_Tables_number   1
_chemical_formula_structural   Ac3ZnGa11
_chemical_formula_sum   'Ac3 Zn1 Ga11'
_cell_volume   331.58621502
_cell_formula_units_Z   1
loop_
 _symmetry_equiv_pos_site_id
 _symmetry_equiv_pos_as_xyz
  1  'x, y, z'
loop_
 _atom_site_type_symbol
 _atom_site_label
 _atom_site_symmetry_multiplicity
 _atom_site_fract_x
 _atom_site_fract_y
 _atom_site_fract_z
 _atom_site_occupancy
  Ac  Ac0  1  0.999696  0.000000  0.999696  1
  Ac  Ac1  1  0.334821  0.334099  0.000722  1
  Ac  Ac2  1  0.666621  0.665901  0.000722  1
  Zn  Zn3  1  0.624442  0.000000  0.624442  1
  Ga  Ga4  1  0.379392  0.000000  0.379392  1
  Ga  Ga5  1  0.250681  0.500000  0.750681  1
  Ga  Ga6  1  0.750107  0.500000  0.250107  1
  Ga  Ga7  1  0.586710  0.836124  0.750586  1
  Ga  Ga8  1  0.914461  0.163876  0.750586  1
  Ga  Ga9  1  0.293241  0.667642  0.625599  1
  Ga  Ga10  1  0.957957  0.332358  0.625599  1
  Ga  Ga11  1  0.043017  0.666742  0.376275  1
  Ga  Ga12  1  0.709532  0.333258  0.376275  1
  Ga  Ga13  1  0.084094  0.833934  0.250162  1
  Ga  Ga14  1  0.416226  0.166066  0.250162  1
