# generated using pymatgen
data_Zr2Ti3Ge4
_symmetry_space_group_name_H-M   'P 1'
_cell_length_a   6.81632200
_cell_length_b   6.93097800
_cell_length_c   13.16084200
_cell_angle_alpha   90.00000000
_cell_angle_beta   90.00000000
_cell_angle_gamma   90.00000000
_symmetry_Int_Tables_number   1
_chemical_formula_structural   Zr2Ti3Ge4
_chemical_formula_sum   'Zr8 Ti12 Ge16'
_cell_volume   621.76789541
_cell_formula_units_Z   4
loop_
 _symmetry_equiv_pos_site_id
 _symmetry_equiv_pos_as_xyz
  1  'x, y, z'
loop_
 _atom_site_type_symbol
 _atom_site_label
 _atom_site_symmetry_multiplicity
 _atom_site_fract_x
 _atom_site_fract_y
 _atom_site_fract_z
 _atom_site_occupancy
  Zr  Zr0  1  0.491980  0.674887  0.094319  1
  Zr  Zr1  1  0.991980  0.825113  0.405681  1
  Zr  Zr2  1  0.508020  0.325113  0.594319  1
  Zr  Zr3  1  0.008020  0.174887  0.905681  1
  Zr  Zr4  1  0.508020  0.325113  0.905681  1
  Zr  Zr5  1  0.008020  0.174887  0.594319  1
  Zr  Zr6  1  0.491980  0.674887  0.405681  1
  Zr  Zr7  1  0.991980  0.825113  0.094319  1
  Ti  Ti8  1  0.333125  0.004582  0.250000  1
  Ti  Ti9  1  0.833125  0.495418  0.250000  1
  Ti  Ti10  1  0.666875  0.995418  0.750000  1
  Ti  Ti11  1  0.166875  0.504582  0.750000  1
  Ti  Ti12  1  0.660323  0.165117  0.125886  1
  Ti  Ti13  1  0.160323  0.334883  0.374114  1
  Ti  Ti14  1  0.339677  0.834883  0.625886  1
  Ti  Ti15  1  0.839677  0.665117  0.874114  1
  Ti  Ti16  1  0.339677  0.834883  0.874114  1
  Ti  Ti17  1  0.839677  0.665117  0.625886  1
  Ti  Ti18  1  0.660323  0.165117  0.374114  1
  Ti  Ti19  1  0.160323  0.334883  0.125886  1
  Ge  Ge20  1  0.692911  0.856269  0.250000  1
  Ge  Ge21  1  0.192911  0.643731  0.250000  1
  Ge  Ge22  1  0.307089  0.143731  0.750000  1
  Ge  Ge23  1  0.807089  0.356269  0.750000  1
  Ge  Ge24  1  0.680412  0.957860  0.958599  1
  Ge  Ge25  1  0.180412  0.542140  0.541401  1
  Ge  Ge26  1  0.319588  0.042140  0.458599  1
  Ge  Ge27  1  0.819588  0.457860  0.041401  1
  Ge  Ge28  1  0.319588  0.042140  0.041401  1
  Ge  Ge29  1  0.819588  0.457860  0.458599  1
  Ge  Ge30  1  0.680412  0.957860  0.541401  1
  Ge  Ge31  1  0.180412  0.542140  0.958599  1
  Ge  Ge32  1  0.463074  0.376302  0.250000  1
  Ge  Ge33  1  0.963074  0.123698  0.250000  1
  Ge  Ge34  1  0.536926  0.623698  0.750000  1
  Ge  Ge35  1  0.036926  0.876302  0.750000  1
