# generated using pymatgen
data_DyTm11(TcRu)2
_symmetry_space_group_name_H-M   'P 1'
_cell_length_a   6.21042215
_cell_length_b   7.30119718
_cell_length_c   9.01031500
_cell_angle_alpha   90.00000000
_cell_angle_beta   90.00000000
_cell_angle_gamma   90.02508586
_symmetry_Int_Tables_number   1
_chemical_formula_structural   DyTm11(TcRu)2
_chemical_formula_sum   'Dy1 Tm11 Tc2 Ru2'
_cell_volume   408.55932905
_cell_formula_units_Z   1
loop_
 _symmetry_equiv_pos_site_id
 _symmetry_equiv_pos_as_xyz
  1  'x, y, z'
loop_
 _atom_site_type_symbol
 _atom_site_label
 _atom_site_symmetry_multiplicity
 _atom_site_fract_x
 _atom_site_fract_y
 _atom_site_fract_z
 _atom_site_occupancy
  Dy  Dy0  1  0.623818  0.039894  0.250000  1
  Tm  Tm1  1  0.334498  0.676654  0.063520  1
  Tm  Tm2  1  0.164993  0.176872  0.436632  1
  Tm  Tm3  1  0.664192  0.324240  0.562552  1
  Tm  Tm4  1  0.836036  0.823677  0.937358  1
  Tm  Tm5  1  0.664192  0.324240  0.937448  1
  Tm  Tm6  1  0.836036  0.823677  0.562642  1
  Tm  Tm7  1  0.334498  0.676654  0.436480  1
  Tm  Tm8  1  0.164993  0.176872  0.063368  1
  Tm  Tm9  1  0.875970  0.539757  0.250000  1
  Tm  Tm10  1  0.131985  0.456467  0.750000  1
  Tm  Tm11  1  0.368128  0.956515  0.750000  1
  Tc  Tc12  1  0.038403  0.886429  0.250000  1
  Tc  Tc13  1  0.462306  0.387053  0.250000  1
  Ru  Ru14  1  0.960645  0.115518  0.750000  1
  Ru  Ru15  1  0.539309  0.615477  0.750000  1
