# generated using pymatgen
data_Tc4As5P
_symmetry_space_group_name_H-M   'P 1'
_cell_length_a   6.59963993
_cell_length_b   6.63975097
_cell_length_c   8.02215077
_cell_angle_alpha   95.82872402
_cell_angle_beta   101.65843482
_cell_angle_gamma   104.43818239
_symmetry_Int_Tables_number   1
_chemical_formula_structural   Tc4As5P
_chemical_formula_sum   'Tc8 As10 P2'
_cell_volume   329.09884662
_cell_formula_units_Z   2
loop_
 _symmetry_equiv_pos_site_id
 _symmetry_equiv_pos_as_xyz
  1  'x, y, z'
loop_
 _atom_site_type_symbol
 _atom_site_label
 _atom_site_symmetry_multiplicity
 _atom_site_fract_x
 _atom_site_fract_y
 _atom_site_fract_z
 _atom_site_occupancy
  Tc  Tc0  1  0.081945  0.572482  0.852702  1
  Tc  Tc1  1  0.918062  0.427523  0.147297  1
  Tc  Tc2  1  0.471713  0.140695  0.635529  1
  Tc  Tc3  1  0.528293  0.859306  0.364473  1
  Tc  Tc4  1  0.630416  0.570149  0.861139  1
  Tc  Tc5  1  0.369581  0.429849  0.138860  1
  Tc  Tc6  1  0.910739  0.131694  0.624569  1
  Tc  Tc7  1  0.089252  0.868318  0.375436  1
  As  As8  1  0.034270  0.190788  0.951272  1
  As  As9  1  0.965729  0.809209  0.048726  1
  As  As10  1  0.628343  0.844962  0.678563  1
  As  As11  1  0.371659  0.155033  0.321439  1
  As  As12  1  0.543573  0.204568  0.963863  1
  As  As13  1  0.456426  0.795429  0.036137  1
  As  As14  1  0.261741  0.416976  0.637260  1
  As  As15  1  0.738251  0.583000  0.362737  1
  As  As16  1  0.140282  0.870684  0.685835  1
  As  As17  1  0.859720  0.129325  0.314166  1
  P  P18  1  0.764200  0.428774  0.623881  1
  P  P19  1  0.235803  0.571224  0.376119  1
