# generated using pymatgen
data_Er4TmZn2Bi
_symmetry_space_group_name_H-M   'P 1'
_cell_length_a   8.55563833
_cell_length_b   8.55563770
_cell_length_c   8.55563745
_cell_angle_alpha   123.67830943
_cell_angle_beta   123.67830568
_cell_angle_gamma   83.73893762
_symmetry_Int_Tables_number   1
_chemical_formula_structural   Er4TmZn2Bi
_chemical_formula_sum   'Er8 Tm2 Zn4 Bi2'
_cell_volume   415.49758169
_cell_formula_units_Z   2
loop_
 _symmetry_equiv_pos_site_id
 _symmetry_equiv_pos_as_xyz
  1  'x, y, z'
loop_
 _atom_site_type_symbol
 _atom_site_label
 _atom_site_symmetry_multiplicity
 _atom_site_fract_x
 _atom_site_fract_y
 _atom_site_fract_z
 _atom_site_occupancy
  Er  Er0  1  0.511646  0.011646  0.806140  1
  Er  Er1  1  0.205504  0.705504  0.193860  1
  Er  Er2  1  0.011646  0.205504  0.500000  1
  Er  Er3  1  0.705504  0.511646  0.500000  1
  Er  Er4  1  0.488354  0.988354  0.193860  1
  Er  Er5  1  0.794496  0.294496  0.806140  1
  Er  Er6  1  0.988354  0.794496  0.500000  1
  Er  Er7  1  0.294496  0.488354  0.500000  1
  Tm  Tm8  1  0.500000  0.500000  0.000000  1
  Tm  Tm9  1  0.000000  0.000000  0.000000  1
  Zn  Zn10  1  0.139023  0.639023  0.778047  1
  Zn  Zn11  1  0.860977  0.360977  0.221953  1
  Zn  Zn12  1  0.639023  0.860977  0.500000  1
  Zn  Zn13  1  0.360977  0.139023  0.500000  1
  Bi  Bi14  1  0.250000  0.250000  0.000000  1
  Bi  Bi15  1  0.750000  0.750000  0.000000  1
