# generated using pymatgen
data_Ho13Er7(Bi2Ru)4
_symmetry_space_group_name_H-M   'P 1'
_cell_length_a   7.93664604
_cell_length_b   8.98886718
_cell_length_c   12.40879715
_cell_angle_alpha   89.98939932
_cell_angle_beta   89.99687808
_cell_angle_gamma   90.00530943
_symmetry_Int_Tables_number   1
_chemical_formula_structural   Ho13Er7(Bi2Ru)4
_chemical_formula_sum   'Ho13 Er7 Bi8 Ru4'
_cell_volume   885.26164906
_cell_formula_units_Z   1
loop_
 _symmetry_equiv_pos_site_id
 _symmetry_equiv_pos_as_xyz
  1  'x, y, z'
loop_
 _atom_site_type_symbol
 _atom_site_label
 _atom_site_symmetry_multiplicity
 _atom_site_fract_x
 _atom_site_fract_y
 _atom_site_fract_z
 _atom_site_occupancy
  Ho  Ho0  1  0.340972  0.750058  0.707960  1
  Ho  Ho1  1  0.659133  0.249976  0.291926  1
  Ho  Ho2  1  0.840871  0.250137  0.791875  1
  Ho  Ho3  1  0.159042  0.749985  0.208041  1
  Ho  Ho4  1  0.877154  0.749774  0.808654  1
  Ho  Ho5  1  0.122403  0.250332  0.191425  1
  Ho  Ho6  1  0.377423  0.249904  0.691152  1
  Ho  Ho7  1  0.622586  0.750106  0.308806  1
  Ho  Ho8  1  0.174538  0.042878  0.935735  1
  Ho  Ho9  1  0.055577  0.750056  0.495971  1
  Ho  Ho10  1  0.944381  0.250015  0.503855  1
  Ho  Ho11  1  0.555871  0.250218  0.004009  1
  Ho  Ho12  1  0.444702  0.749719  0.996144  1
  Er  Er13  1  0.673752  0.543069  0.564369  1
  Er  Er14  1  0.326367  0.456975  0.435660  1
  Er  Er15  1  0.173681  0.457064  0.935648  1
  Er  Er16  1  0.326336  0.043079  0.435647  1
  Er  Er17  1  0.826243  0.543237  0.064435  1
  Er  Er18  1  0.673775  0.957016  0.564345  1
  Er  Er19  1  0.825996  0.956956  0.064407  1
  Bi  Bi20  1  0.568557  0.507329  0.827765  1
  Bi  Bi21  1  0.431298  0.492596  0.172280  1
  Bi  Bi22  1  0.068807  0.492564  0.672051  1
  Bi  Bi23  1  0.431113  0.007427  0.172126  1
  Bi  Bi24  1  0.931163  0.507503  0.327923  1
  Bi  Bi25  1  0.569091  0.992521  0.827781  1
  Bi  Bi26  1  0.931309  0.992565  0.327823  1
  Bi  Bi27  1  0.068592  0.007359  0.672071  1
  Ru  Ru28  1  0.073958  0.749753  0.989510  1
  Ru  Ru29  1  0.925286  0.250116  0.010236  1
  Ru  Ru30  1  0.574095  0.249785  0.510330  1
  Ru  Ru31  1  0.425929  0.749928  0.490036  1
