# generated using pymatgen
data_La3ZnIn4Ir
_symmetry_space_group_name_H-M   'P 1'
_cell_length_a   8.09447500
_cell_length_b   8.09447527
_cell_length_c   4.11716500
_cell_angle_alpha   90.00000000
_cell_angle_beta   90.00000000
_cell_angle_gamma   120.00000300
_symmetry_Int_Tables_number   1
_chemical_formula_structural   La3ZnIn4Ir
_chemical_formula_sum   'La3 Zn1 In4 Ir1'
_cell_volume   233.61798689
_cell_formula_units_Z   1
loop_
 _symmetry_equiv_pos_site_id
 _symmetry_equiv_pos_as_xyz
  1  'x, y, z'
loop_
 _atom_site_type_symbol
 _atom_site_label
 _atom_site_symmetry_multiplicity
 _atom_site_fract_x
 _atom_site_fract_y
 _atom_site_fract_z
 _atom_site_occupancy
  La  La0  1  0.057182  0.301786  0.500000  1
  La  La1  1  0.698214  0.755394  0.500000  1
  La  La2  1  0.244606  0.942818  0.500000  1
  Zn  Zn3  1  0.666667  0.333333  0.500000  1
  In  In4  1  0.668954  0.082999  0.000000  1
  In  In5  1  0.917001  0.585956  0.000000  1
  In  In6  1  0.414044  0.331046  0.000000  1
  In  In7  1  0.333333  0.666667  0.000000  1
  Ir  Ir8  1  0.000000  0.000000  0.000000  1
