# generated using pymatgen
data_Sc4HgC2Cl
_symmetry_space_group_name_H-M   'P 1'
_cell_length_a   3.33760900
_cell_length_b   3.33760996
_cell_length_c   13.59660000
_cell_angle_alpha   90.00000000
_cell_angle_beta   90.00000000
_cell_angle_gamma   120.00000041
_symmetry_Int_Tables_number   1
_chemical_formula_structural   Sc4HgC2Cl
_chemical_formula_sum   'Sc4 Hg1 C2 Cl1'
_cell_volume   131.16923675
_cell_formula_units_Z   1
loop_
 _symmetry_equiv_pos_site_id
 _symmetry_equiv_pos_as_xyz
  1  'x, y, z'
loop_
 _atom_site_type_symbol
 _atom_site_label
 _atom_site_symmetry_multiplicity
 _atom_site_fract_x
 _atom_site_fract_y
 _atom_site_fract_z
 _atom_site_occupancy
  Sc  Sc0  1  0.333333  0.666666  0.102823  1
  Sc  Sc1  1  0.333333  0.666666  0.397177  1
  Sc  Sc2  1  0.666666  0.333333  0.574218  1
  Sc  Sc3  1  0.666666  0.333333  0.925782  1
  Hg  Hg4  1  0.333333  0.666666  0.750000  1
  C  C5  1  0.000000  0.000000  0.023207  1
  C  C6  1  0.000000  0.000000  0.476793  1
  Cl  Cl7  1  0.666666  0.333333  0.250000  1
