# generated using pymatgen
data_Ba2ThNp3F18
_symmetry_space_group_name_H-M   'P 1'
_cell_length_a   7.17783075
_cell_length_b   7.17178241
_cell_length_c   9.01293000
_cell_angle_alpha   79.01917875
_cell_angle_beta   78.65446264
_cell_angle_gamma   60.86342214
_symmetry_Int_Tables_number   1
_chemical_formula_structural   Ba2ThNp3F18
_chemical_formula_sum   'Ba2 Th1 Np3 F18'
_cell_volume   394.90075943
_cell_formula_units_Z   1
loop_
 _symmetry_equiv_pos_site_id
 _symmetry_equiv_pos_as_xyz
  1  'x, y, z'
loop_
 _atom_site_type_symbol
 _atom_site_label
 _atom_site_symmetry_multiplicity
 _atom_site_fract_x
 _atom_site_fract_y
 _atom_site_fract_z
 _atom_site_occupancy
  Ba  Ba0  1  0.584227  0.347801  0.404291  1
  Ba  Ba1  1  0.353415  0.584409  0.897683  1
  Th  Th2  1  0.899582  0.701283  0.313070  1
  Np  Np3  1  0.294482  0.091375  0.190764  1
  Np  Np4  1  0.091884  0.289897  0.695587  1
  Np  Np5  1  0.701276  0.897789  0.812773  1
  F  F6  1  0.083072  0.910178  0.252292  1
  F  F7  1  0.907430  0.087361  0.749109  1
  F  F8  1  0.932500  0.379512  0.238668  1
  F  F9  1  0.631855  0.054780  0.252839  1
  F  F10  1  0.053974  0.628159  0.757061  1
  F  F11  1  0.376576  0.933609  0.737156  1
  F  F12  1  0.161171  0.538059  0.479479  1
  F  F13  1  0.478572  0.815840  0.025183  1
  F  F14  1  0.818350  0.477856  0.522848  1
  F  F15  1  0.531123  0.163475  0.979939  1
  F  F16  1  0.912287  0.766103  0.042944  1
  F  F17  1  0.232546  0.145238  0.450727  1
  F  F18  1  0.139402  0.229963  0.954824  1
  F  F19  1  0.767437  0.907153  0.530220  1
  F  F20  1  0.542368  0.745016  0.318696  1
  F  F21  1  0.266108  0.456052  0.191494  1
  F  F22  1  0.451030  0.267348  0.690003  1
  F  F23  1  0.745932  0.538344  0.814743  1
