# generated using pymatgen
data_Sc2Be2SiRh5
_symmetry_space_group_name_H-M   'P 1'
_cell_length_a   9.44447200
_cell_length_b   9.44447200
_cell_length_c   3.07306800
_cell_angle_alpha   90.00000000
_cell_angle_beta   90.00000000
_cell_angle_gamma   90.00000000
_symmetry_Int_Tables_number   1
_chemical_formula_structural   Sc2Be2SiRh5
_chemical_formula_sum   'Sc4 Be4 Si2 Rh10'
_cell_volume   274.11167729
_cell_formula_units_Z   2
loop_
 _symmetry_equiv_pos_site_id
 _symmetry_equiv_pos_as_xyz
  1  'x, y, z'
loop_
 _atom_site_type_symbol
 _atom_site_label
 _atom_site_symmetry_multiplicity
 _atom_site_fract_x
 _atom_site_fract_y
 _atom_site_fract_z
 _atom_site_occupancy
  Sc  Sc0  1  0.174576  0.674576  0.000000  1
  Sc  Sc1  1  0.674576  0.825424  0.000000  1
  Sc  Sc2  1  0.325424  0.174576  0.000000  1
  Sc  Sc3  1  0.825424  0.325424  0.000000  1
  Be  Be4  1  0.375629  0.875629  0.000000  1
  Be  Be5  1  0.875629  0.624371  0.000000  1
  Be  Be6  1  0.124371  0.375629  0.000000  1
  Be  Be7  1  0.624371  0.124371  0.000000  1
  Si  Si8  1  0.000000  0.000000  0.000000  1
  Si  Si9  1  0.500000  0.500000  0.000000  1
  Rh  Rh10  1  0.000000  0.500000  0.500000  1
  Rh  Rh11  1  0.500000  0.000000  0.500000  1
  Rh  Rh12  1  0.295652  0.432343  0.500000  1
  Rh  Rh13  1  0.704349  0.567657  0.500000  1
  Rh  Rh14  1  0.567657  0.295652  0.500000  1
  Rh  Rh15  1  0.432343  0.704349  0.500000  1
  Rh  Rh16  1  0.932343  0.795651  0.500000  1
  Rh  Rh17  1  0.795651  0.067657  0.500000  1
  Rh  Rh18  1  0.204348  0.932343  0.500000  1
  Rh  Rh19  1  0.067657  0.204348  0.500000  1
