# generated using pymatgen
data_ErTm(CuP2)2
_symmetry_space_group_name_H-M   'P 1'
_cell_length_a   3.68500800
_cell_length_b   3.72581200
_cell_length_c   19.31534200
_cell_angle_alpha   90.00000000
_cell_angle_beta   90.00000000
_cell_angle_gamma   90.00000000
_symmetry_Int_Tables_number   1
_chemical_formula_structural   ErTm(CuP2)2
_chemical_formula_sum   'Er2 Tm2 Cu4 P8'
_cell_volume   265.19282786
_cell_formula_units_Z   2
loop_
 _symmetry_equiv_pos_site_id
 _symmetry_equiv_pos_as_xyz
  1  'x, y, z'
loop_
 _atom_site_type_symbol
 _atom_site_label
 _atom_site_symmetry_multiplicity
 _atom_site_fract_x
 _atom_site_fract_y
 _atom_site_fract_z
 _atom_site_occupancy
  Er  Er0  1  0.750000  0.275600  0.616659  1
  Er  Er1  1  0.750000  0.224400  0.116659  1
  Tm  Tm2  1  0.250000  0.724420  0.383128  1
  Tm  Tm3  1  0.250000  0.775580  0.883128  1
  Cu  Cu4  1  0.250000  0.227353  0.249979  1
  Cu  Cu5  1  0.750000  0.772949  0.750564  1
  Cu  Cu6  1  0.250000  0.272647  0.749979  1
  Cu  Cu7  1  0.750000  0.727051  0.250564  1
  P  P8  1  0.750000  0.795111  0.500523  1
  P  P9  1  0.750000  0.704889  0.000523  1
  P  P10  1  0.250000  0.204846  0.498551  1
  P  P11  1  0.250000  0.295154  0.998551  1
  P  P12  1  0.250000  0.726248  0.170567  1
  P  P13  1  0.750000  0.226214  0.330029  1
  P  P14  1  0.750000  0.273786  0.830029  1
  P  P15  1  0.250000  0.773752  0.670567  1
