# generated using pymatgen
data_Sc12Al(RuBr8)2
_symmetry_space_group_name_H-M   'P 1'
_cell_length_a   8.78360850
_cell_length_b   11.51434729
_cell_length_c   12.13503000
_cell_angle_alpha   117.53680203
_cell_angle_beta   101.16660394
_cell_angle_gamma   100.69024661
_symmetry_Int_Tables_number   1
_chemical_formula_structural   Sc12Al(RuBr8)2
_chemical_formula_sum   'Sc12 Al1 Ru2 Br16'
_cell_volume   1012.90349738
_cell_formula_units_Z   1
loop_
 _symmetry_equiv_pos_site_id
 _symmetry_equiv_pos_as_xyz
  1  'x, y, z'
loop_
 _atom_site_type_symbol
 _atom_site_label
 _atom_site_symmetry_multiplicity
 _atom_site_fract_x
 _atom_site_fract_y
 _atom_site_fract_z
 _atom_site_occupancy
  Sc  Sc0  1  0.090059  0.256406  0.350181  1
  Sc  Sc1  1  0.909941  0.743594  0.649819  1
  Sc  Sc2  1  0.771163  0.537344  0.319957  1
  Sc  Sc3  1  0.228837  0.462656  0.680043  1
  Sc  Sc4  1  0.288693  0.743508  0.649533  1
  Sc  Sc5  1  0.711307  0.256492  0.350467  1
  Sc  Sc6  1  0.149793  0.536804  0.319993  1
  Sc  Sc7  1  0.850207  0.463196  0.680007  1
  Sc  Sc8  1  0.404764  0.357365  0.272362  1
  Sc  Sc9  1  0.595236  0.642635  0.727638  1
  Sc  Sc10  1  0.458272  0.306805  0.520816  1
  Sc  Sc11  1  0.541728  0.693195  0.479184  1
  Al  Al12  1  0.000000  0.500000  0.500000  1
  Ru  Ru13  1  0.333474  0.500015  0.499736  1
  Ru  Ru14  1  0.666527  0.499985  0.500264  1
  Br  Br15  1  0.394442  0.737197  0.877917  1
  Br  Br16  1  0.605558  0.262803  0.122083  1
  Br  Br17  1  0.186581  0.957779  0.780815  1
  Br  Br18  1  0.813419  0.042221  0.219185  1
  Br  Br19  1  0.338651  0.102497  0.255307  1
  Br  Br20  1  0.661349  0.897503  0.744693  1
  Br  Br21  1  0.559640  0.439917  0.793929  1
  Br  Br22  1  0.440360  0.560083  0.206071  1
  Br  Br23  1  0.306164  0.821369  0.464317  1
  Br  Br24  1  0.693836  0.178631  0.535683  1
  Br  Br25  1  0.167706  0.177712  0.533745  1
  Br  Br26  1  0.832294  0.822288  0.466255  1
  Br  Br27  1  0.926620  0.571187  0.163137  1
  Br  Br28  1  0.073380  0.428813  0.836863  1
  Br  Br29  1  0.921939  0.736328  0.878181  1
  Br  Br30  1  0.078061  0.263672  0.121819  1
