# generated using pymatgen
data_Dy9TmGa3NiBi2
_symmetry_space_group_name_H-M   'P 1'
_cell_length_a   8.56127926
_cell_length_b   8.56127849
_cell_length_c   8.74805910
_cell_angle_alpha   124.41875714
_cell_angle_beta   124.42899382
_cell_angle_gamma   81.06649285
_symmetry_Int_Tables_number   1
_chemical_formula_structural   Dy9TmGa3NiBi2
_chemical_formula_sum   'Dy9 Tm1 Ga3 Ni1 Bi2'
_cell_volume   423.37497444
_cell_formula_units_Z   1
loop_
 _symmetry_equiv_pos_site_id
 _symmetry_equiv_pos_as_xyz
  1  'x, y, z'
loop_
 _atom_site_type_symbol
 _atom_site_label
 _atom_site_symmetry_multiplicity
 _atom_site_fract_x
 _atom_site_fract_y
 _atom_site_fract_z
 _atom_site_occupancy
  Dy  Dy0  1  0.502762  0.505897  0.008660  1
  Dy  Dy1  1  0.779792  0.295603  0.795497  1
  Dy  Dy2  1  0.203267  0.720916  0.204403  1
  Dy  Dy3  1  0.483486  0.001135  0.204403  1
  Dy  Dy4  1  0.302915  0.458466  0.498841  1
  Dy  Dy5  1  0.040374  0.195925  0.498841  1
  Dy  Dy6  1  0.499897  0.015706  0.795497  1
  Dy  Dy7  1  0.705878  0.516693  0.501117  1
  Dy  Dy8  1  0.984425  0.795239  0.501117  1
  Tm  Tm9  1  0.995468  0.997335  0.992801  1
  Ga  Ga10  1  0.146434  0.646007  0.792441  1
  Ga  Ga11  1  0.855643  0.351927  0.207570  1
  Ga  Ga12  1  0.635550  0.866044  0.501595  1
  Ni  Ni13  1  0.375561  0.122297  0.497859  1
  Bi  Bi14  1  0.243336  0.254465  0.999679  1
  Bi  Bi15  1  0.745214  0.756343  0.999679  1
