# generated using pymatgen
data_Sc22Os5Pt3
_symmetry_space_group_name_H-M   'P 1'
_cell_length_a   9.48605930
_cell_length_b   9.52236645
_cell_length_c   9.55718584
_cell_angle_alpha   59.62748747
_cell_angle_beta   60.00377915
_cell_angle_gamma   59.77686247
_symmetry_Int_Tables_number   1
_chemical_formula_structural   Sc22Os5Pt3
_chemical_formula_sum   'Sc22 Os5 Pt3'
_cell_volume   607.69659547
_cell_formula_units_Z   1
loop_
 _symmetry_equiv_pos_site_id
 _symmetry_equiv_pos_as_xyz
  1  'x, y, z'
loop_
 _atom_site_type_symbol
 _atom_site_label
 _atom_site_symmetry_multiplicity
 _atom_site_fract_x
 _atom_site_fract_y
 _atom_site_fract_z
 _atom_site_occupancy
  Sc  Sc0  1  0.846823  0.840748  0.842268  1
  Sc  Sc1  1  0.528999  0.155464  0.160576  1
  Sc  Sc2  1  0.159252  0.153177  0.529839  1
  Sc  Sc3  1  0.155464  0.528999  0.154959  1
  Sc  Sc4  1  0.840748  0.846823  0.470161  1
  Sc  Sc5  1  0.844536  0.471001  0.845041  1
  Sc  Sc6  1  0.471001  0.844536  0.839424  1
  Sc  Sc7  1  0.153177  0.159252  0.157732  1
  Sc  Sc8  1  0.195564  0.804436  0.197620  1
  Sc  Sc9  1  0.195149  0.804851  0.803500  1
  Sc  Sc10  1  0.804851  0.195149  0.196500  1
  Sc  Sc11  1  0.804349  0.804349  0.195651  1
  Sc  Sc12  1  0.195651  0.195651  0.804349  1
  Sc  Sc13  1  0.804436  0.195564  0.802380  1
  Sc  Sc14  1  0.384940  0.378757  0.387503  1
  Sc  Sc15  1  0.149465  0.620683  0.617520  1
  Sc  Sc16  1  0.620683  0.149465  0.612333  1
  Sc  Sc17  1  0.621243  0.615060  0.151201  1
  Sc  Sc18  1  0.379317  0.850535  0.387667  1
  Sc  Sc19  1  0.378757  0.384940  0.848799  1
  Sc  Sc20  1  0.850535  0.379317  0.382480  1
  Sc  Sc21  1  0.615060  0.621243  0.612497  1
  Os  Os22  1  0.000000  0.000000  0.500000  1
  Os  Os23  1  0.500000  0.000000  0.500000  1
  Os  Os24  1  0.000000  0.500000  0.000000  1
  Os  Os25  1  0.500000  0.500000  0.500000  1
  Os  Os26  1  0.000000  0.000000  0.000000  1
  Pt  Pt27  1  0.500000  0.500000  0.000000  1
  Pt  Pt28  1  0.000000  0.500000  0.500000  1
  Pt  Pt29  1  0.500000  0.000000  0.000000  1
