# generated using pymatgen
data_Li3La2NdGaSi2
_symmetry_space_group_name_H-M   'P 1'
_cell_length_a   7.37990900
_cell_length_b   7.34013779
_cell_length_c   4.41690100
_cell_angle_alpha   90.00000000
_cell_angle_beta   90.00000000
_cell_angle_gamma   120.17940351
_symmetry_Int_Tables_number   1
_chemical_formula_structural   Li3La2NdGaSi2
_chemical_formula_sum   'Li3 La2 Nd1 Ga1 Si2'
_cell_volume   206.83096660
_cell_formula_units_Z   1
loop_
 _symmetry_equiv_pos_site_id
 _symmetry_equiv_pos_as_xyz
  1  'x, y, z'
loop_
 _atom_site_type_symbol
 _atom_site_label
 _atom_site_symmetry_multiplicity
 _atom_site_fract_x
 _atom_site_fract_y
 _atom_site_fract_z
 _atom_site_occupancy
  Li  Li0  1  0.757306  0.759752  0.500000  1
  Li  Li1  1  0.244530  0.000000  0.500000  1
  Li  Li2  1  0.997554  0.240248  0.500000  1
  La  La3  1  0.001057  0.574180  0.000000  1
  La  La4  1  0.426878  0.425820  0.000000  1
  Nd  Nd5  1  0.573936  0.000000  0.000000  1
  Ga  Ga6  1  0.995006  0.000000  0.000000  1
  Si  Si7  1  0.337875  0.672017  0.500000  1
  Si  Si8  1  0.665859  0.327983  0.500000  1
