# generated using pymatgen
data_Ti6Mn5Si6Os
_symmetry_space_group_name_H-M   'P 1'
_cell_length_a   7.32446684
_cell_length_b   7.29859755
_cell_length_c   7.32453742
_cell_angle_alpha   126.68956837
_cell_angle_beta   128.27944819
_cell_angle_gamma   77.54650100
_symmetry_Int_Tables_number   1
_chemical_formula_structural   Ti6Mn5Si6Os
_chemical_formula_sum   'Ti6 Mn5 Si6 Os1'
_cell_volume   238.93860438
_cell_formula_units_Z   1
loop_
 _symmetry_equiv_pos_site_id
 _symmetry_equiv_pos_as_xyz
  1  'x, y, z'
loop_
 _atom_site_type_symbol
 _atom_site_label
 _atom_site_symmetry_multiplicity
 _atom_site_fract_x
 _atom_site_fract_y
 _atom_site_fract_z
 _atom_site_occupancy
  Ti  Ti0  1  0.455148  0.409235  0.459238  1
  Ti  Ti1  1  0.552416  0.003150  0.954590  1
  Ti  Ti2  1  0.048227  0.003243  0.451114  1
  Ti  Ti3  1  0.950365  0.409832  0.954415  1
  Ti  Ti4  1  0.249835  0.596613  0.847647  1
  Ti  Ti5  1  0.749244  0.596858  0.346725  1
  Mn  Mn6  1  0.999657  0.259112  0.259395  1
  Mn  Mn7  1  0.499996  0.262619  0.762640  1
  Mn  Mn8  1  0.370597  0.744101  0.373828  1
  Mn  Mn9  1  0.628423  0.003819  0.374952  1
  Mn  Mn10  1  0.871470  0.747267  0.875484  1
  Si  Si11  1  0.253699  0.003120  0.262889  1
  Si  Si12  1  0.740545  0.003388  0.749294  1
  Si  Si13  1  0.167509  0.665776  0.498715  1
  Si  Si14  1  0.833272  0.336407  0.502658  1
  Si  Si15  1  0.666355  0.671259  0.004489  1
  Si  Si16  1  0.335327  0.339439  0.004667  1
  Os  Os17  1  0.127916  0.002762  0.875262  1
