# generated using pymatgen
data_Y6Ho14CoBi8Ru3
_symmetry_space_group_name_H-M   'P 1'
_cell_length_a   7.96425608
_cell_length_b   8.96825200
_cell_length_c   12.44653711
_cell_angle_alpha   90.00000000
_cell_angle_beta   89.78305498
_cell_angle_gamma   90.00000000
_symmetry_Int_Tables_number   1
_chemical_formula_structural   Y6Ho14CoBi8Ru3
_chemical_formula_sum   'Y6 Ho14 Co1 Bi8 Ru3'
_cell_volume   888.99321020
_cell_formula_units_Z   1
loop_
 _symmetry_equiv_pos_site_id
 _symmetry_equiv_pos_as_xyz
  1  'x, y, z'
loop_
 _atom_site_type_symbol
 _atom_site_label
 _atom_site_symmetry_multiplicity
 _atom_site_fract_x
 _atom_site_fract_y
 _atom_site_fract_z
 _atom_site_occupancy
  Y  Y0  1  0.344977  0.750000  0.702104  1
  Y  Y1  1  0.656966  0.250000  0.292698  1
  Y  Y2  1  0.843150  0.250000  0.791808  1
  Y  Y3  1  0.155200  0.750000  0.206393  1
  Y  Y4  1  0.878873  0.750000  0.806108  1
  Y  Y5  1  0.617301  0.750000  0.311406  1
  Ho  Ho6  1  0.119687  0.250000  0.192567  1
  Ho  Ho7  1  0.379512  0.250000  0.691968  1
  Ho  Ho8  1  0.675680  0.543255  0.563686  1
  Ho  Ho9  1  0.324727  0.461892  0.437198  1
  Ho  Ho10  1  0.175964  0.458041  0.936047  1
  Ho  Ho11  1  0.324727  0.038108  0.437198  1
  Ho  Ho12  1  0.823899  0.542477  0.064336  1
  Ho  Ho13  1  0.675680  0.956745  0.563686  1
  Ho  Ho14  1  0.823899  0.957523  0.064336  1
  Ho  Ho15  1  0.175964  0.041959  0.936047  1
  Ho  Ho16  1  0.054482  0.750000  0.497057  1
  Ho  Ho17  1  0.947429  0.250000  0.503134  1
  Ho  Ho18  1  0.554575  0.250000  0.003433  1
  Ho  Ho19  1  0.445674  0.750000  0.995857  1
  Co  Co20  1  0.428895  0.750000  0.490908  1
  Bi  Bi21  1  0.570593  0.508332  0.827233  1
  Bi  Bi22  1  0.428707  0.491955  0.172672  1
  Bi  Bi23  1  0.071900  0.491642  0.671790  1
  Bi  Bi24  1  0.428707  0.008045  0.172672  1
  Bi  Bi25  1  0.928929  0.508544  0.328512  1
  Bi  Bi26  1  0.570593  0.991668  0.827233  1
  Bi  Bi27  1  0.928929  0.991456  0.328512  1
  Bi  Bi28  1  0.071900  0.008358  0.671790  1
  Ru  Ru29  1  0.074329  0.750000  0.989026  1
  Ru  Ru30  1  0.925942  0.250000  0.011461  1
  Ru  Ru31  1  0.572208  0.250000  0.511122  1
