# generated using pymatgen
data_Ce3Dy(AlRu)4
_symmetry_space_group_name_H-M   'P 1'
_cell_length_a   4.01175400
_cell_length_b   7.27866190
_cell_length_c   15.94190973
_cell_angle_alpha   90.10383472
_cell_angle_beta   90.00000000
_cell_angle_gamma   90.00000000
_symmetry_Int_Tables_number   1
_chemical_formula_structural   Ce3Dy(AlRu)4
_chemical_formula_sum   'Ce6 Dy2 Al8 Ru8'
_cell_volume   465.50620419
_cell_formula_units_Z   2
loop_
 _symmetry_equiv_pos_site_id
 _symmetry_equiv_pos_as_xyz
  1  'x, y, z'
loop_
 _atom_site_type_symbol
 _atom_site_label
 _atom_site_symmetry_multiplicity
 _atom_site_fract_x
 _atom_site_fract_y
 _atom_site_fract_z
 _atom_site_occupancy
  Ce  Ce0  1  0.750000  0.825515  0.438030  1
  Ce  Ce1  1  0.750000  0.456795  0.282264  1
  Ce  Ce2  1  0.750000  0.328034  0.062740  1
  Ce  Ce3  1  0.250000  0.672957  0.938627  1
  Ce  Ce4  1  0.250000  0.047430  0.779680  1
  Ce  Ce5  1  0.250000  0.541603  0.718578  1
  Dy  Dy6  1  0.750000  0.957634  0.218244  1
  Dy  Dy7  1  0.250000  0.161392  0.559943  1
  Al  Al8  1  0.750000  0.491579  0.562775  1
  Al  Al9  1  0.750000  0.369726  0.850870  1
  Al  Al10  1  0.750000  0.004251  0.936746  1
  Al  Al11  1  0.750000  0.871197  0.649267  1
  Al  Al12  1  0.250000  0.489406  0.437940  1
  Al  Al13  1  0.250000  0.996012  0.066192  1
  Al  Al14  1  0.250000  0.637132  0.152273  1
  Al  Al15  1  0.250000  0.126387  0.344838  1
  Ru  Ru16  1  0.750000  0.747034  0.816208  1
  Ru  Ru17  1  0.250000  0.237392  0.937700  1
  Ru  Ru18  1  0.750000  0.266025  0.427180  1
  Ru  Ru19  1  0.250000  0.754737  0.324135  1
  Ru  Ru20  1  0.750000  0.761602  0.062021  1
  Ru  Ru21  1  0.750000  0.250909  0.689807  1
  Ru  Ru22  1  0.250000  0.271138  0.179424  1
  Ru  Ru23  1  0.250000  0.734113  0.564518  1
