# generated using pymatgen
data_Ti12AgSn7Bi2
_symmetry_space_group_name_H-M   'P 1'
_cell_length_a   9.32487352
_cell_length_b   9.33806567
_cell_length_c   5.71626900
_cell_angle_alpha   90.00000069
_cell_angle_beta   90.08264724
_cell_angle_gamma   120.04680681
_symmetry_Int_Tables_number   1
_chemical_formula_structural   Ti12AgSn7Bi2
_chemical_formula_sum   'Ti12 Ag1 Sn7 Bi2'
_cell_volume   430.86134134
_cell_formula_units_Z   1
loop_
 _symmetry_equiv_pos_site_id
 _symmetry_equiv_pos_as_xyz
  1  'x, y, z'
loop_
 _atom_site_type_symbol
 _atom_site_label
 _atom_site_symmetry_multiplicity
 _atom_site_fract_x
 _atom_site_fract_y
 _atom_site_fract_z
 _atom_site_occupancy
  Ti  Ti0  1  0.841387  0.684078  0.754775  1
  Ti  Ti1  1  0.158613  0.842692  0.245225  1
  Ti  Ti2  1  0.686437  0.841262  0.243078  1
  Ti  Ti3  1  0.313563  0.154825  0.756922  1
  Ti  Ti4  1  0.843327  0.153592  0.758221  1
  Ti  Ti5  1  0.156673  0.310265  0.241779  1
  Ti  Ti6  1  0.495945  0.998339  0.502043  1
  Ti  Ti7  1  0.502210  0.501221  0.002045  1
  Ti  Ti8  1  0.000000  0.503267  0.000000  1
  Ti  Ti9  1  0.000000  0.506108  0.500000  1
  Ti  Ti10  1  0.497790  0.999011  0.997955  1
  Ti  Ti11  1  0.504055  0.502395  0.497957  1
  Ag  Ag12  1  0.000000  0.994011  0.500000  1
  Sn  Sn13  1  0.397906  0.199788  0.255579  1
  Sn  Sn14  1  0.602094  0.801882  0.744421  1
  Sn  Sn15  1  0.198728  0.802252  0.746523  1
  Sn  Sn16  1  0.801272  0.603525  0.253477  1
  Sn  Sn17  1  0.665416  0.333319  0.753708  1
  Sn  Sn18  1  0.334584  0.667904  0.246292  1
  Sn  Sn19  1  0.000000  0.995589  0.000000  1
  Bi  Bi20  1  0.201363  0.403019  0.743376  1
  Bi  Bi21  1  0.798637  0.201656  0.256624  1
