# generated using pymatgen
data_Th3Al3Co2Au
_symmetry_space_group_name_H-M   'P 1'
_cell_length_a   7.15337400
_cell_length_b   7.15337297
_cell_length_c   4.13071800
_cell_angle_alpha   90.00000000
_cell_angle_beta   90.00000000
_cell_angle_gamma   119.99999549
_symmetry_Int_Tables_number   1
_chemical_formula_structural   Th3Al3Co2Au
_chemical_formula_sum   'Th3 Al3 Co2 Au1'
_cell_volume   183.05348440
_cell_formula_units_Z   1
loop_
 _symmetry_equiv_pos_site_id
 _symmetry_equiv_pos_as_xyz
  1  'x, y, z'
loop_
 _atom_site_type_symbol
 _atom_site_label
 _atom_site_symmetry_multiplicity
 _atom_site_fract_x
 _atom_site_fract_y
 _atom_site_fract_z
 _atom_site_occupancy
  Th  Th0  1  0.601375  0.021919  0.000000  1
  Th  Th1  1  0.978081  0.579456  0.000000  1
  Th  Th2  1  0.420544  0.398625  0.000000  1
  Al  Al3  1  0.227279  0.003422  0.500000  1
  Al  Al4  1  0.996578  0.223857  0.500000  1
  Al  Al5  1  0.776143  0.772721  0.500000  1
  Co  Co6  1  0.666667  0.333333  0.500000  1
  Co  Co7  1  0.000000  0.000000  0.000000  1
  Au  Au8  1  0.333333  0.666667  0.500000  1
