# generated using pymatgen
data_Er7TmGa12Ag3Au
_symmetry_space_group_name_H-M   'P 1'
_cell_length_a   7.06226800
_cell_length_b   8.96491910
_cell_length_c   8.96491900
_cell_angle_alpha   119.99999594
_cell_angle_beta   90.00000000
_cell_angle_gamma   90.00000000
_symmetry_Int_Tables_number   1
_chemical_formula_structural   Er7TmGa12Ag3Au
_chemical_formula_sum   'Er7 Tm1 Ga12 Ag3 Au1'
_cell_volume   491.54987319
_cell_formula_units_Z   1
loop_
 _symmetry_equiv_pos_site_id
 _symmetry_equiv_pos_as_xyz
  1  'x, y, z'
loop_
 _atom_site_type_symbol
 _atom_site_label
 _atom_site_symmetry_multiplicity
 _atom_site_fract_x
 _atom_site_fract_y
 _atom_site_fract_z
 _atom_site_occupancy
  Er  Er0  1  0.250752  0.000000  0.000000  1
  Er  Er1  1  0.748930  0.489713  0.510287  1
  Er  Er2  1  0.250293  0.513143  0.486857  1
  Er  Er3  1  0.748930  0.020574  0.510287  1
  Er  Er4  1  0.250293  0.973715  0.486857  1
  Er  Er5  1  0.748930  0.489713  0.979426  1
  Er  Er6  1  0.250293  0.513143  0.026285  1
  Tm  Tm7  1  0.750164  0.000000  0.000000  1
  Ga  Ga8  1  0.969149  0.836308  0.163692  1
  Ga  Ga9  1  0.034067  0.164893  0.835107  1
  Ga  Ga10  1  0.969149  0.327384  0.163692  1
  Ga  Ga11  1  0.464600  0.165721  0.834279  1
  Ga  Ga12  1  0.034067  0.670215  0.835107  1
  Ga  Ga13  1  0.536153  0.835900  0.164100  1
  Ga  Ga14  1  0.969149  0.836308  0.672616  1
  Ga  Ga15  1  0.464600  0.668557  0.834279  1
  Ga  Ga16  1  0.034067  0.164893  0.329785  1
  Ga  Ga17  1  0.536153  0.328203  0.164100  1
  Ga  Ga18  1  0.464600  0.165721  0.331443  1
  Ga  Ga19  1  0.536153  0.835900  0.671797  1
  Ag  Ag20  1  0.964443  0.666667  0.333333  1
  Ag  Ag21  1  0.028228  0.333333  0.666667  1
  Ag  Ag22  1  0.471287  0.333333  0.666667  1
  Au  Au23  1  0.525553  0.666667  0.333333  1
