# generated using pymatgen
data_Dy12TlCuNi4
_symmetry_space_group_name_H-M   'P 1'
_cell_length_a   8.35071768
_cell_length_b   8.35071728
_cell_length_c   8.35071900
_cell_angle_alpha   112.40229333
_cell_angle_beta   109.42042113
_cell_angle_gamma   106.64228502
_symmetry_Int_Tables_number   1
_chemical_formula_structural   Dy12TlCuNi4
_chemical_formula_sum   'Dy12 Tl1 Cu1 Ni4'
_cell_volume   447.14604509
_cell_formula_units_Z   1
loop_
 _symmetry_equiv_pos_site_id
 _symmetry_equiv_pos_as_xyz
  1  'x, y, z'
loop_
 _atom_site_type_symbol
 _atom_site_label
 _atom_site_symmetry_multiplicity
 _atom_site_fract_x
 _atom_site_fract_y
 _atom_site_fract_z
 _atom_site_occupancy
  Dy  Dy0  1  0.025369  0.718971  0.306397  1
  Dy  Dy1  1  0.974631  0.281029  0.693603  1
  Dy  Dy2  1  0.587426  0.281029  0.306397  1
  Dy  Dy3  1  0.412574  0.718971  0.693603  1
  Dy  Dy4  1  0.676504  0.868603  0.192099  1
  Dy  Dy5  1  0.323496  0.515594  0.192099  1
  Dy  Dy6  1  0.323496  0.131397  0.807901  1
  Dy  Dy7  1  0.676504  0.484406  0.807901  1
  Dy  Dy8  1  0.180510  0.206848  0.387358  1
  Dy  Dy9  1  0.819490  0.206848  0.026337  1
  Dy  Dy10  1  0.180510  0.793152  0.973663  1
  Dy  Dy11  1  0.819490  0.793152  0.612642  1
  Tl  Tl12  1  0.500000  0.000000  0.500000  1
  Cu  Cu13  1  0.000000  0.500000  0.500000  1
  Ni  Ni14  1  0.641445  0.500000  0.141445  1
  Ni  Ni15  1  0.358555  0.500000  0.858555  1
  Ni  Ni16  1  0.875818  0.875818  0.000000  1
  Ni  Ni17  1  0.124182  0.124182  0.000000  1
