# generated using pymatgen
data_YbEr(NbSe2)6
_symmetry_space_group_name_H-M   'P 1'
_cell_length_a   6.05794100
_cell_length_b   6.05793919
_cell_length_c   14.74944600
_cell_angle_alpha   90.00000000
_cell_angle_beta   90.00000000
_cell_angle_gamma   120.00000442
_symmetry_Int_Tables_number   1
_chemical_formula_structural   YbEr(NbSe2)6
_chemical_formula_sum   'Yb1 Er1 Nb6 Se12'
_cell_volume   468.76617814
_cell_formula_units_Z   1
loop_
 _symmetry_equiv_pos_site_id
 _symmetry_equiv_pos_as_xyz
  1  'x, y, z'
loop_
 _atom_site_type_symbol
 _atom_site_label
 _atom_site_symmetry_multiplicity
 _atom_site_fract_x
 _atom_site_fract_y
 _atom_site_fract_z
 _atom_site_occupancy
  Yb  Yb0  1  0.666667  0.333333  0.750000  1
  Er  Er1  1  0.333333  0.666667  0.250000  1
  Nb  Nb2  1  0.333333  0.666667  0.008234  1
  Nb  Nb3  1  0.000000  0.000000  0.006526  1
  Nb  Nb4  1  0.666667  0.333333  0.005946  1
  Nb  Nb5  1  0.333333  0.666667  0.491766  1
  Nb  Nb6  1  0.000000  0.000000  0.493474  1
  Nb  Nb7  1  0.666667  0.333333  0.494054  1
  Se  Se8  1  0.673569  0.666187  0.379085  1
  Se  Se9  1  0.665392  0.670090  0.606899  1
  Se  Se10  1  0.004700  0.670090  0.893101  1
  Se  Se11  1  0.665392  0.995300  0.893101  1
  Se  Se12  1  0.673569  0.007383  0.120915  1
  Se  Se13  1  0.333813  0.007383  0.379085  1
  Se  Se14  1  0.004700  0.334608  0.606899  1
  Se  Se15  1  0.329910  0.995300  0.606899  1
  Se  Se16  1  0.992617  0.666187  0.120915  1
  Se  Se17  1  0.329910  0.334608  0.893101  1
  Se  Se18  1  0.992617  0.326431  0.379085  1
  Se  Se19  1  0.333813  0.326431  0.120915  1
