# generated using pymatgen
data_Li2V3Ni9P7
_symmetry_space_group_name_H-M   'P 1'
_cell_length_a   9.11964800
_cell_length_b   9.11964641
_cell_length_c   3.56629200
_cell_angle_alpha   90.00000000
_cell_angle_beta   90.00000000
_cell_angle_gamma   120.00000578
_symmetry_Int_Tables_number   1
_chemical_formula_structural   Li2V3Ni9P7
_chemical_formula_sum   'Li2 V3 Ni9 P7'
_cell_volume   256.86420110
_cell_formula_units_Z   1
loop_
 _symmetry_equiv_pos_site_id
 _symmetry_equiv_pos_as_xyz
  1  'x, y, z'
loop_
 _atom_site_type_symbol
 _atom_site_label
 _atom_site_symmetry_multiplicity
 _atom_site_fract_x
 _atom_site_fract_y
 _atom_site_fract_z
 _atom_site_occupancy
  Li  Li0  1  0.333333  0.666667  0.000000  1
  Li  Li1  1  0.000000  0.000000  0.500000  1
  V  V2  1  0.763357  0.555108  0.500000  1
  V  V3  1  0.444892  0.208249  0.500000  1
  V  V4  1  0.791751  0.236643  0.500000  1
  Ni  Ni5  1  0.280720  0.386770  0.500000  1
  Ni  Ni6  1  0.613230  0.893949  0.500000  1
  Ni  Ni7  1  0.106051  0.719280  0.500000  1
  Ni  Ni8  1  0.505858  0.455753  0.000000  1
  Ni  Ni9  1  0.544247  0.050106  0.000000  1
  Ni  Ni10  1  0.949894  0.494142  0.000000  1
  Ni  Ni11  1  0.728436  0.770518  0.000000  1
  Ni  Ni12  1  0.229482  0.957918  0.000000  1
  Ni  Ni13  1  0.042082  0.271564  0.000000  1
  P  P14  1  0.959536  0.747645  0.000000  1
  P  P15  1  0.252355  0.211891  0.000000  1
  P  P16  1  0.788109  0.040464  0.000000  1
  P  P17  1  0.666667  0.333333  0.000000  1
  P  P18  1  0.543807  0.624339  0.500000  1
  P  P19  1  0.375661  0.919468  0.500000  1
  P  P20  1  0.080532  0.456193  0.500000  1
