# generated using pymatgen
data_La2Tb3PrOsI10
_symmetry_space_group_name_H-M   'P 1'
_cell_length_a   7.97887276
_cell_length_b   9.99005183
_cell_length_c   9.93245967
_cell_angle_alpha   106.85814711
_cell_angle_beta   96.30662019
_cell_angle_gamma   105.90564337
_symmetry_Int_Tables_number   1
_chemical_formula_structural   La2Tb3PrOsI10
_chemical_formula_sum   'La2 Tb3 Pr1 Os1 I10'
_cell_volume   713.09506573
_cell_formula_units_Z   1
loop_
 _symmetry_equiv_pos_site_id
 _symmetry_equiv_pos_as_xyz
  1  'x, y, z'
loop_
 _atom_site_type_symbol
 _atom_site_label
 _atom_site_symmetry_multiplicity
 _atom_site_fract_x
 _atom_site_fract_y
 _atom_site_fract_z
 _atom_site_occupancy
  La  La0  1  0.387594  0.957611  0.729207  1
  La  La1  1  0.617685  0.045280  0.272746  1
  Tb  Tb2  1  0.473503  0.290361  0.589050  1
  Tb  Tb3  1  0.530652  0.711121  0.414043  1
  Tb  Tb4  1  0.852402  0.130378  0.670071  1
  Pr  Pr5  1  0.137450  0.864613  0.323161  1
  Os  Os6  1  0.500818  0.000438  0.499975  1
  I  I7  1  0.418808  0.623348  0.674112  1
  I  I8  1  0.582577  0.377561  0.327984  1
  I  I9  1  0.283696  0.264115  0.841810  1
  I  I10  1  0.699627  0.730814  0.150953  1
  I  I11  1  0.851906  0.450477  0.770216  1
  I  I12  1  0.155503  0.540982  0.230942  1
  I  I13  1  0.051659  0.186903  0.419187  1
  I  I14  1  0.239257  0.914211  0.038503  1
  I  I15  1  0.770579  0.090345  0.955806  1
  I  I16  1  0.946285  0.821443  0.592236  1
