# generated using pymatgen
data_Y2Ho(P2Ir3)3
_symmetry_space_group_name_H-M   'P 1'
_cell_length_a   3.98088900
_cell_length_b   11.19598700
_cell_length_c   12.80849800
_cell_angle_alpha   90.00000000
_cell_angle_beta   90.00000000
_cell_angle_gamma   90.00000000
_symmetry_Int_Tables_number   1
_chemical_formula_structural   Y2Ho(P2Ir3)3
_chemical_formula_sum   'Y4 Ho2 P12 Ir18'
_cell_volume   570.87451881
_cell_formula_units_Z   2
loop_
 _symmetry_equiv_pos_site_id
 _symmetry_equiv_pos_as_xyz
  1  'x, y, z'
loop_
 _atom_site_type_symbol
 _atom_site_label
 _atom_site_symmetry_multiplicity
 _atom_site_fract_x
 _atom_site_fract_y
 _atom_site_fract_z
 _atom_site_occupancy
  Y  Y0  1  0.000000  0.500000  0.522712  1
  Y  Y1  1  0.500000  0.000000  0.477351  1
  Y  Y2  1  0.500000  0.815192  0.204163  1
  Y  Y3  1  0.500000  0.184808  0.204163  1
  Ho  Ho4  1  0.000000  0.684976  0.795853  1
  Ho  Ho5  1  0.000000  0.315024  0.795853  1
  P  P6  1  0.500000  0.314948  0.618036  1
  P  P7  1  0.500000  0.685052  0.618036  1
  P  P8  1  0.000000  0.185062  0.382234  1
  P  P9  1  0.000000  0.814938  0.382234  1
  P  P10  1  0.500000  0.500000  0.875606  1
  P  P11  1  0.000000  0.000000  0.124226  1
  P  P12  1  0.500000  0.845051  0.893652  1
  P  P13  1  0.500000  0.154949  0.893652  1
  P  P14  1  0.000000  0.654443  0.106254  1
  P  P15  1  0.000000  0.345557  0.106254  1
  P  P16  1  0.500000  0.500000  0.359549  1
  P  P17  1  0.000000  0.000000  0.640357  1
  Ir  Ir18  1  0.000000  0.500000  0.970651  1
  Ir  Ir19  1  0.500000  0.000000  0.028577  1
  Ir  Ir20  1  0.500000  0.294703  0.430300  1
  Ir  Ir21  1  0.500000  0.705297  0.430300  1
  Ir  Ir22  1  0.000000  0.205558  0.570031  1
  Ir  Ir23  1  0.000000  0.794442  0.570031  1
  Ir  Ir24  1  0.500000  0.869146  0.714077  1
  Ir  Ir25  1  0.500000  0.130854  0.714077  1
  Ir  Ir26  1  0.000000  0.630291  0.286269  1
  Ir  Ir27  1  0.000000  0.369709  0.286269  1
  Ir  Ir28  1  0.500000  0.336757  0.001362  1
  Ir  Ir29  1  0.500000  0.663243  0.001362  1
  Ir  Ir30  1  0.000000  0.163490  0.998153  1
  Ir  Ir31  1  0.000000  0.836510  0.998153  1
  Ir  Ir32  1  0.500000  0.500000  0.181477  1
  Ir  Ir33  1  0.000000  0.000000  0.818375  1
  Ir  Ir34  1  0.500000  0.500000  0.699721  1
  Ir  Ir35  1  0.000000  0.000000  0.300630  1
