# generated using pymatgen
data_Hf3Re2TcGe3
_symmetry_space_group_name_H-M   'P 1'
_cell_length_a   7.07975900
_cell_length_b   7.08091010
_cell_length_c   3.44438100
_cell_angle_alpha   90.00000000
_cell_angle_beta   90.00000000
_cell_angle_gamma   119.99462724
_symmetry_Int_Tables_number   1
_chemical_formula_structural   Hf3Re2TcGe3
_chemical_formula_sum   'Hf3 Re2 Tc1 Ge3'
_cell_volume   149.54533896
_cell_formula_units_Z   1
loop_
 _symmetry_equiv_pos_site_id
 _symmetry_equiv_pos_as_xyz
  1  'x, y, z'
loop_
 _atom_site_type_symbol
 _atom_site_label
 _atom_site_symmetry_multiplicity
 _atom_site_fract_x
 _atom_site_fract_y
 _atom_site_fract_z
 _atom_site_occupancy
  Hf  Hf0  1  0.401698  0.000000  0.500000  1
  Hf  Hf1  1  0.001027  0.404280  0.500000  1
  Hf  Hf2  1  0.596748  0.595720  0.500000  1
  Re  Re3  1  0.000709  0.741931  0.000000  1
  Re  Re4  1  0.258778  0.258069  0.000000  1
  Tc  Tc5  1  0.742078  0.000000  0.000000  1
  Ge  Ge6  1  0.334662  0.667645  0.000000  1
  Ge  Ge7  1  0.667017  0.332355  0.000000  1
  Ge  Ge8  1  0.997282  0.000000  0.500000  1
