# generated using pymatgen
data_Ho8ScIn(SiB4)4
_symmetry_space_group_name_H-M   'P 1'
_cell_length_a   7.15283000
_cell_length_b   7.15283000
_cell_length_c   7.88925600
_cell_angle_alpha   90.00000000
_cell_angle_beta   90.00000000
_cell_angle_gamma   90.00000000
_symmetry_Int_Tables_number   1
_chemical_formula_structural   Ho8ScIn(SiB4)4
_chemical_formula_sum   'Ho8 Sc1 In1 Si4 B16'
_cell_volume   403.63782335
_cell_formula_units_Z   1
loop_
 _symmetry_equiv_pos_site_id
 _symmetry_equiv_pos_as_xyz
  1  'x, y, z'
loop_
 _atom_site_type_symbol
 _atom_site_label
 _atom_site_symmetry_multiplicity
 _atom_site_fract_x
 _atom_site_fract_y
 _atom_site_fract_z
 _atom_site_occupancy
  Ho  Ho0  1  0.681213  0.180711  0.228166  1
  Ho  Ho1  1  0.318787  0.819289  0.771834  1
  Ho  Ho2  1  0.318787  0.819289  0.228166  1
  Ho  Ho3  1  0.819289  0.681213  0.228166  1
  Ho  Ho4  1  0.819289  0.681213  0.771834  1
  Ho  Ho5  1  0.681213  0.180711  0.771834  1
  Ho  Ho6  1  0.180711  0.318787  0.771834  1
  Ho  Ho7  1  0.180711  0.318787  0.228166  1
  Sc  Sc8  1  0.000000  0.000000  0.500000  1
  In  In9  1  0.500000  0.500000  0.500000  1
  Si  Si10  1  0.107610  0.624493  0.500000  1
  Si  Si11  1  0.892390  0.375507  0.500000  1
  Si  Si12  1  0.375507  0.107610  0.500000  1
  Si  Si13  1  0.624493  0.892390  0.500000  1
  B  B14  1  0.172739  0.039763  0.000000  1
  B  B15  1  0.827261  0.960237  0.000000  1
  B  B16  1  0.960237  0.172739  0.000000  1
  B  B17  1  0.324510  0.539916  0.000000  1
  B  B18  1  0.039763  0.827261  0.000000  1
  B  B19  1  0.675490  0.460084  0.000000  1
  B  B20  1  0.539916  0.675490  0.000000  1
  B  B21  1  0.460084  0.324510  0.000000  1
  B  B22  1  0.088411  0.590055  0.000000  1
  B  B23  1  0.911589  0.409945  0.000000  1
  B  B24  1  0.409945  0.088411  0.000000  1
  B  B25  1  0.590055  0.911589  0.000000  1
  B  B26  1  0.000000  0.000000  0.167120  1
  B  B27  1  0.000000  0.000000  0.832880  1
  B  B28  1  0.500000  0.500000  0.841133  1
  B  B29  1  0.500000  0.500000  0.158867  1
