# generated using pymatgen
data_SiTe5Rh2
_symmetry_space_group_name_H-M   'P 1'
_cell_length_a   4.00253800
_cell_length_b   8.30930114
_cell_length_c   13.65890716
_cell_angle_alpha   77.98260267
_cell_angle_beta   90.00000000
_cell_angle_gamma   90.00000000
_symmetry_Int_Tables_number   1
_chemical_formula_structural   SiTe5Rh2
_chemical_formula_sum   'Si2 Te10 Rh4'
_cell_volume   444.31631369
_cell_formula_units_Z   2
loop_
 _symmetry_equiv_pos_site_id
 _symmetry_equiv_pos_as_xyz
  1  'x, y, z'
loop_
 _atom_site_type_symbol
 _atom_site_label
 _atom_site_symmetry_multiplicity
 _atom_site_fract_x
 _atom_site_fract_y
 _atom_site_fract_z
 _atom_site_occupancy
  Si  Si0  1  0.500000  0.162888  0.690679  1
  Si  Si1  1  0.500000  0.837112  0.309321  1
  Te  Te2  1  0.000000  0.953534  0.109450  1
  Te  Te3  1  0.000000  0.046466  0.890550  1
  Te  Te4  1  0.000000  0.469158  0.772550  1
  Te  Te5  1  0.000000  0.530842  0.227450  1
  Te  Te6  1  0.500000  0.672593  0.973326  1
  Te  Te7  1  0.500000  0.327407  0.026674  1
  Te  Te8  1  0.500000  0.160291  0.287265  1
  Te  Te9  1  0.500000  0.839709  0.712735  1
  Te  Te10  1  0.000000  0.232952  0.567824  1
  Te  Te11  1  0.000000  0.767048  0.432176  1
  Rh  Rh12  1  0.000000  0.248176  0.153746  1
  Rh  Rh13  1  0.000000  0.751824  0.846254  1
  Rh  Rh14  1  0.500000  0.747769  0.154964  1
  Rh  Rh15  1  0.500000  0.252231  0.845036  1
