# generated using pymatgen
data_Ta8Cr2SiB4P
_symmetry_space_group_name_H-M   'P 1'
_cell_length_a   6.05388857
_cell_length_b   6.05388861
_cell_length_c   7.16293776
_cell_angle_alpha   114.99786254
_cell_angle_beta   114.99786044
_cell_angle_gamma   89.99999144
_symmetry_Int_Tables_number   1
_chemical_formula_structural   Ta8Cr2SiB4P
_chemical_formula_sum   'Ta8 Cr2 Si1 B4 P1'
_cell_volume   210.48110198
_cell_formula_units_Z   1
loop_
 _symmetry_equiv_pos_site_id
 _symmetry_equiv_pos_as_xyz
  1  'x, y, z'
loop_
 _atom_site_type_symbol
 _atom_site_label
 _atom_site_symmetry_multiplicity
 _atom_site_fract_x
 _atom_site_fract_y
 _atom_site_fract_z
 _atom_site_occupancy
  Ta  Ta0  1  0.030840  0.533595  0.724945  1
  Ta  Ta1  1  0.694105  0.191350  0.724945  1
  Ta  Ta2  1  0.191350  0.030840  0.724945  1
  Ta  Ta3  1  0.533595  0.694105  0.724945  1
  Ta  Ta4  1  0.966405  0.469160  0.275055  1
  Ta  Ta5  1  0.308650  0.805895  0.275055  1
  Ta  Ta6  1  0.805895  0.966405  0.275055  1
  Ta  Ta7  1  0.469160  0.308650  0.275055  1
  Cr  Cr8  1  0.498729  0.498729  0.997458  1
  Cr  Cr9  1  0.001271  0.001271  0.002542  1
  Si  Si10  1  0.250000  0.250000  0.500000  1
  B  B11  1  0.379308  0.879308  0.000000  1
  B  B12  1  0.620692  0.120692  0.000000  1
  B  B13  1  0.120692  0.379308  0.000000  1
  B  B14  1  0.879308  0.620692  0.000000  1
  P  P15  1  0.750000  0.750000  0.500000  1
