# generated using pymatgen
data_Zr2BeRe3
_symmetry_space_group_name_H-M   'P 1'
_cell_length_a   5.20647600
_cell_length_b   5.20647558
_cell_length_c   8.46685000
_cell_angle_alpha   90.00000000
_cell_angle_beta   90.00000000
_cell_angle_gamma   120.00000264
_symmetry_Int_Tables_number   1
_chemical_formula_structural   Zr2BeRe3
_chemical_formula_sum   'Zr4 Be2 Re6'
_cell_volume   198.76512806
_cell_formula_units_Z   2
loop_
 _symmetry_equiv_pos_site_id
 _symmetry_equiv_pos_as_xyz
  1  'x, y, z'
loop_
 _atom_site_type_symbol
 _atom_site_label
 _atom_site_symmetry_multiplicity
 _atom_site_fract_x
 _atom_site_fract_y
 _atom_site_fract_z
 _atom_site_occupancy
  Zr  Zr0  1  0.333333  0.666667  0.436314  1
  Zr  Zr1  1  0.666667  0.333333  0.563686  1
  Zr  Zr2  1  0.666667  0.333333  0.936314  1
  Zr  Zr3  1  0.333333  0.666667  0.063686  1
  Be  Be4  1  0.000000  0.000000  0.500000  1
  Be  Be5  1  0.000000  0.000000  0.000000  1
  Re  Re6  1  0.832949  0.167051  0.250000  1
  Re  Re7  1  0.832949  0.665897  0.250000  1
  Re  Re8  1  0.334103  0.167051  0.250000  1
  Re  Re9  1  0.167051  0.832949  0.750000  1
  Re  Re10  1  0.167051  0.334103  0.750000  1
  Re  Re11  1  0.665897  0.832949  0.750000  1
