# generated using pymatgen
data_LiTa3(Pt3Rh)3
_symmetry_space_group_name_H-M   'P 1'
_cell_length_a   5.59911100
_cell_length_b   5.59911043
_cell_length_c   9.05616400
_cell_angle_alpha   90.00000000
_cell_angle_beta   90.00000000
_cell_angle_gamma   119.99999743
_symmetry_Int_Tables_number   1
_chemical_formula_structural   LiTa3(Pt3Rh)3
_chemical_formula_sum   'Li1 Ta3 Pt9 Rh3'
_cell_volume   245.87424098
_cell_formula_units_Z   1
loop_
 _symmetry_equiv_pos_site_id
 _symmetry_equiv_pos_as_xyz
  1  'x, y, z'
loop_
 _atom_site_type_symbol
 _atom_site_label
 _atom_site_symmetry_multiplicity
 _atom_site_fract_x
 _atom_site_fract_y
 _atom_site_fract_z
 _atom_site_occupancy
  Li  Li0  1  0.333333  0.666667  0.000000  1
  Ta  Ta1  1  0.666667  0.333333  0.500000  1
  Ta  Ta2  1  0.000000  0.000000  0.747613  1
  Ta  Ta3  1  0.000000  0.000000  0.252387  1
  Pt  Pt4  1  0.831508  0.168492  0.000000  1
  Pt  Pt5  1  0.831508  0.663016  0.000000  1
  Pt  Pt6  1  0.336984  0.168492  0.000000  1
  Pt  Pt7  1  0.999057  0.499528  0.746882  1
  Pt  Pt8  1  0.500472  0.499528  0.746882  1
  Pt  Pt9  1  0.500472  0.000943  0.746882  1
  Pt  Pt10  1  0.999057  0.499528  0.253118  1
  Pt  Pt11  1  0.500472  0.499528  0.253118  1
  Pt  Pt12  1  0.500472  0.000943  0.253118  1
  Rh  Rh13  1  0.168712  0.831288  0.500000  1
  Rh  Rh14  1  0.168712  0.337424  0.500000  1
  Rh  Rh15  1  0.662576  0.831288  0.500000  1
