# generated using pymatgen
data_Ho7Er9In4(RuRh)2
_symmetry_space_group_name_H-M   'P 1'
_cell_length_a   9.59854140
_cell_length_b   9.59308381
_cell_length_c   9.59898003
_cell_angle_alpha   59.84968877
_cell_angle_beta   59.84713239
_cell_angle_gamma   59.85407684
_symmetry_Int_Tables_number   1
_chemical_formula_structural   Ho7Er9In4(RuRh)2
_chemical_formula_sum   'Ho7 Er9 In4 Ru2 Rh2'
_cell_volume   622.86745597
_cell_formula_units_Z   1
loop_
 _symmetry_equiv_pos_site_id
 _symmetry_equiv_pos_as_xyz
  1  'x, y, z'
loop_
 _atom_site_type_symbol
 _atom_site_label
 _atom_site_symmetry_multiplicity
 _atom_site_fract_x
 _atom_site_fract_y
 _atom_site_fract_z
 _atom_site_occupancy
  Ho  Ho0  1  0.189140  0.193625  0.809476  1
  Ho  Ho1  1  0.438421  0.061930  0.061836  1
  Ho  Ho2  1  0.442686  0.060077  0.436899  1
  Ho  Ho3  1  0.059980  0.438819  0.059365  1
  Ho  Ho4  1  0.650913  0.047017  0.650400  1
  Ho  Ho5  1  0.192658  0.807641  0.808421  1
  Ho  Ho6  1  0.059955  0.059326  0.438345  1
  Er  Er7  1  0.808698  0.192026  0.192104  1
  Er  Er8  1  0.808620  0.808713  0.194156  1
  Er  Er9  1  0.650825  0.650628  0.047075  1
  Er  Er10  1  0.653359  0.650156  0.649976  1
  Er  Er11  1  0.059625  0.440995  0.440150  1
  Er  Er12  1  0.045199  0.650325  0.650244  1
  Er  Er13  1  0.808101  0.194215  0.809065  1
  Er  Er14  1  0.442951  0.437955  0.059413  1
  Er  Er15  1  0.189595  0.808621  0.194123  1
  In  In16  1  0.417813  0.747385  0.417130  1
  In  In17  1  0.417820  0.417320  0.747503  1
  In  In18  1  0.749840  0.416842  0.416666  1
  In  In19  1  0.416242  0.417621  0.416961  1
  Ru  Ru20  1  0.857385  0.422547  0.859250  1
  Ru  Ru21  1  0.858401  0.858854  0.422100  1
  Rh  Rh22  1  0.422654  0.858030  0.859436  1
  Rh  Rh23  1  0.859118  0.859332  0.859903  1
