# generated using pymatgen
data_CdHg6Pd12Au5
_symmetry_space_group_name_H-M   'P 1'
_cell_length_a   4.33205225
_cell_length_b   7.40601343
_cell_length_c   13.07542000
_cell_angle_alpha   89.99997902
_cell_angle_beta   89.99935368
_cell_angle_gamma   89.96129041
_symmetry_Int_Tables_number   1
_chemical_formula_structural   CdHg6Pd12Au5
_chemical_formula_sum   'Cd1 Hg6 Pd12 Au5'
_cell_volume   419.50170416
_cell_formula_units_Z   1
loop_
 _symmetry_equiv_pos_site_id
 _symmetry_equiv_pos_as_xyz
  1  'x, y, z'
loop_
 _atom_site_type_symbol
 _atom_site_label
 _atom_site_symmetry_multiplicity
 _atom_site_fract_x
 _atom_site_fract_y
 _atom_site_fract_z
 _atom_site_occupancy
  Cd  Cd0  1  0.000000  0.500000  0.000000  1
  Hg  Hg1  1  0.000000  0.000000  0.000000  1
  Hg  Hg2  1  0.499962  0.500000  0.169483  1
  Hg  Hg3  1  0.999975  0.000000  0.334371  1
  Hg  Hg4  1  0.500000  0.500000  0.500000  1
  Hg  Hg5  1  0.000025  0.000000  0.665629  1
  Hg  Hg6  1  0.500038  0.500000  0.830517  1
  Pd  Pd7  1  0.500000  0.252024  0.000000  1
  Pd  Pd8  1  0.500002  0.747975  0.000000  1
  Pd  Pd9  1  0.999900  0.249081  0.166468  1
  Pd  Pd10  1  0.999868  0.750917  0.166466  1
  Pd  Pd11  1  0.499906  0.249199  0.333914  1
  Pd  Pd12  1  0.499935  0.750803  0.333915  1
  Pd  Pd13  1  0.000055  0.251126  0.500000  1
  Pd  Pd14  1  0.999945  0.748874  0.500000  1
  Pd  Pd15  1  0.500064  0.249198  0.666085  1
  Pd  Pd16  1  0.500093  0.750802  0.666086  1
  Pd  Pd17  1  0.000131  0.249084  0.833534  1
  Pd  Pd18  1  0.000099  0.750920  0.833532  1
  Au  Au19  1  0.499956  0.999999  0.166724  1
  Au  Au20  1  0.999961  0.499999  0.332947  1
  Au  Au21  1  0.500000  0.000000  0.500000  1
  Au  Au22  1  0.000039  0.500001  0.667053  1
  Au  Au23  1  0.500044  0.000001  0.833276  1
