# generated using pymatgen
data_BaPd4Pt
_symmetry_space_group_name_H-M   'P 1'
_cell_length_a   5.65885900
_cell_length_b   5.59503578
_cell_length_c   4.41251400
_cell_angle_alpha   90.00000000
_cell_angle_beta   90.00000000
_cell_angle_gamma   120.37807319
_symmetry_Int_Tables_number   1
_chemical_formula_structural   BaPd4Pt
_chemical_formula_sum   'Ba1 Pd4 Pt1'
_cell_volume   120.52615203
_cell_formula_units_Z   1
loop_
 _symmetry_equiv_pos_site_id
 _symmetry_equiv_pos_as_xyz
  1  'x, y, z'
loop_
 _atom_site_type_symbol
 _atom_site_label
 _atom_site_symmetry_multiplicity
 _atom_site_fract_x
 _atom_site_fract_y
 _atom_site_fract_z
 _atom_site_occupancy
  Ba  Ba0  1  0.000000  0.000000  0.000000  1
  Pd  Pd1  1  0.335768  0.671537  0.000000  1
  Pd  Pd2  1  0.664232  0.328463  0.000000  1
  Pd  Pd3  1  0.500000  0.500000  0.500000  1
  Pd  Pd4  1  0.000000  0.500000  0.500000  1
  Pt  Pt5  1  0.500000  0.000000  0.500000  1
