# generated using pymatgen
data_In7RhCl12
_symmetry_space_group_name_H-M   'P 1'
_cell_length_a   8.85291255
_cell_length_b   8.85291095
_cell_length_c   8.85291127
_cell_angle_alpha   105.20387078
_cell_angle_beta   105.20386796
_cell_angle_gamma   105.20388294
_symmetry_Int_Tables_number   1
_chemical_formula_structural   In7RhCl12
_chemical_formula_sum   'In7 Rh1 Cl12'
_cell_volume   603.91595315
_cell_formula_units_Z   1
loop_
 _symmetry_equiv_pos_site_id
 _symmetry_equiv_pos_as_xyz
  1  'x, y, z'
loop_
 _atom_site_type_symbol
 _atom_site_label
 _atom_site_symmetry_multiplicity
 _atom_site_fract_x
 _atom_site_fract_y
 _atom_site_fract_z
 _atom_site_occupancy
  In  In0  1  0.056903  0.063993  0.320270  1
  In  In1  1  0.320270  0.056903  0.063993  1
  In  In2  1  0.063993  0.320270  0.056903  1
  In  In3  1  0.943097  0.936007  0.679730  1
  In  In4  1  0.679730  0.943097  0.936007  1
  In  In5  1  0.936007  0.679730  0.943097  1
  In  In6  1  0.500000  0.500000  0.500000  1
  Rh  Rh7  1  0.000000  0.000000  0.000000  1
  Cl  Cl8  1  0.984590  0.565308  0.190354  1
  Cl  Cl9  1  0.190354  0.984590  0.565308  1
  Cl  Cl10  1  0.565308  0.190354  0.984590  1
  Cl  Cl11  1  0.015410  0.434692  0.809646  1
  Cl  Cl12  1  0.809646  0.015410  0.434692  1
  Cl  Cl13  1  0.434692  0.809646  0.015410  1
  Cl  Cl14  1  0.494771  0.199003  0.391598  1
  Cl  Cl15  1  0.391598  0.494771  0.199003  1
  Cl  Cl16  1  0.199003  0.391598  0.494771  1
  Cl  Cl17  1  0.505229  0.800997  0.608402  1
  Cl  Cl18  1  0.608402  0.505229  0.800997  1
  Cl  Cl19  1  0.800997  0.608402  0.505229  1
