# generated using pymatgen
data_Dy7ErSc12Si15As
_symmetry_space_group_name_H-M   'P 1'
_cell_length_a   7.13236615
_cell_length_b   7.37430534
_cell_length_c   13.97688103
_cell_angle_alpha   90.04591990
_cell_angle_beta   88.97433095
_cell_angle_gamma   90.14119317
_symmetry_Int_Tables_number   1
_chemical_formula_structural   Dy7ErSc12Si15As
_chemical_formula_sum   'Dy7 Er1 Sc12 Si15 As1'
_cell_volume   735.01124200
_cell_formula_units_Z   1
loop_
 _symmetry_equiv_pos_site_id
 _symmetry_equiv_pos_as_xyz
  1  'x, y, z'
loop_
 _atom_site_type_symbol
 _atom_site_label
 _atom_site_symmetry_multiplicity
 _atom_site_fract_x
 _atom_site_fract_y
 _atom_site_fract_z
 _atom_site_occupancy
  Dy  Dy0  1  0.987952  0.824852  0.902712  1
  Dy  Dy1  1  0.487693  0.675488  0.902811  1
  Dy  Dy2  1  0.991696  0.822307  0.595797  1
  Dy  Dy3  1  0.512630  0.324864  0.097354  1
  Dy  Dy4  1  0.006862  0.177710  0.403945  1
  Dy  Dy5  1  0.505673  0.322049  0.402025  1
  Dy  Dy6  1  0.498901  0.676719  0.597510  1
  Er  Er7  1  0.012888  0.176377  0.097540  1
  Sc  Sc8  1  0.163702  0.501156  0.749966  1
  Sc  Sc9  1  0.836246  0.498498  0.252587  1
  Sc  Sc10  1  0.336209  0.001194  0.251054  1
  Sc  Sc11  1  0.663745  0.998975  0.749276  1
  Sc  Sc12  1  0.338728  0.171551  0.626679  1
  Sc  Sc13  1  0.662366  0.827010  0.373704  1
  Sc  Sc14  1  0.159626  0.673174  0.376995  1
  Sc  Sc15  1  0.669155  0.823783  0.125396  1
  Sc  Sc16  1  0.837469  0.327888  0.622703  1
  Sc  Sc17  1  0.330430  0.175982  0.874149  1
  Sc  Sc18  1  0.831936  0.322648  0.874633  1
  Sc  Sc19  1  0.168323  0.677218  0.124964  1
  Si  Si20  1  0.034886  0.116847  0.749221  1
  Si  Si21  1  0.964871  0.884045  0.249554  1
  Si  Si22  1  0.461215  0.617317  0.248984  1
  Si  Si23  1  0.537820  0.383056  0.750775  1
  Si  Si24  1  0.287539  0.871281  0.750026  1
  Si  Si25  1  0.714023  0.127350  0.249010  1
  Si  Si26  1  0.211244  0.373698  0.249606  1
  Si  Si27  1  0.789853  0.626505  0.750198  1
  Si  Si28  1  0.814659  0.539631  0.457239  1
  Si  Si29  1  0.334856  0.962899  0.460799  1
  Si  Si30  1  0.843914  0.534533  0.039637  1
  Si  Si31  1  0.665118  0.036955  0.539958  1
  Si  Si32  1  0.155858  0.464746  0.960418  1
  Si  Si33  1  0.655894  0.034697  0.959843  1
  Si  Si34  1  0.343296  0.966299  0.040154  1
  As  As35  1  0.182720  0.460700  0.542778  1
