# generated using pymatgen
data_Tm3In4AgRh
_symmetry_space_group_name_H-M   'P 1'
_cell_length_a   8.06346400
_cell_length_b   8.06346429
_cell_length_c   3.69398900
_cell_angle_alpha   90.00000000
_cell_angle_beta   90.00000000
_cell_angle_gamma   119.99999882
_symmetry_Int_Tables_number   1
_chemical_formula_structural   Tm3In4AgRh
_chemical_formula_sum   'Tm3 In4 Ag1 Rh1'
_cell_volume   208.00297807
_cell_formula_units_Z   1
loop_
 _symmetry_equiv_pos_site_id
 _symmetry_equiv_pos_as_xyz
  1  'x, y, z'
loop_
 _atom_site_type_symbol
 _atom_site_label
 _atom_site_symmetry_multiplicity
 _atom_site_fract_x
 _atom_site_fract_y
 _atom_site_fract_z
 _atom_site_occupancy
  Tm  Tm0  1  0.290773  0.246374  0.500000  1
  Tm  Tm1  1  0.753626  0.044399  0.500000  1
  Tm  Tm2  1  0.955601  0.709227  0.500000  1
  In  In3  1  0.061200  0.396273  0.000000  1
  In  In4  1  0.603727  0.664928  0.000000  1
  In  In5  1  0.335072  0.938800  0.000000  1
  In  In6  1  0.666667  0.333333  0.000000  1
  Ag  Ag7  1  0.333333  0.666667  0.500000  1
  Rh  Rh8  1  0.000000  0.000000  0.000000  1
