# generated using pymatgen
data_Tm6Si11GePt8
_symmetry_space_group_name_H-M   'P 1'
_cell_length_a   4.23167500
_cell_length_b   8.53062148
_cell_length_c   12.91683973
_cell_angle_alpha   80.35663543
_cell_angle_beta   90.00000000
_cell_angle_gamma   90.00000000
_symmetry_Int_Tables_number   1
_chemical_formula_structural   Tm6Si11GePt8
_chemical_formula_sum   'Tm6 Si11 Ge1 Pt8'
_cell_volume   459.69385148
_cell_formula_units_Z   1
loop_
 _symmetry_equiv_pos_site_id
 _symmetry_equiv_pos_as_xyz
  1  'x, y, z'
loop_
 _atom_site_type_symbol
 _atom_site_label
 _atom_site_symmetry_multiplicity
 _atom_site_fract_x
 _atom_site_fract_y
 _atom_site_fract_z
 _atom_site_occupancy
  Tm  Tm0  1  0.250000  0.763742  0.438853  1
  Tm  Tm1  1  0.250000  0.585233  0.184933  1
  Tm  Tm2  1  0.750000  0.233844  0.562638  1
  Tm  Tm3  1  0.750000  0.416196  0.813534  1
  Tm  Tm4  1  0.750000  0.927364  0.815547  1
  Tm  Tm5  1  0.250000  0.074347  0.184468  1
  Si  Si6  1  0.750000  0.588194  0.571655  1
  Si  Si7  1  0.750000  0.128061  0.004415  1
  Si  Si8  1  0.750000  0.871705  0.574297  1
  Si  Si9  1  0.250000  0.698326  0.714124  1
  Si  Si10  1  0.750000  0.305076  0.285300  1
  Si  Si11  1  0.750000  0.808569  0.275999  1
  Si  Si12  1  0.250000  0.873533  0.994817  1
  Si  Si13  1  0.250000  0.194034  0.723319  1
  Si  Si14  1  0.250000  0.379003  0.001019  1
  Si  Si15  1  0.250000  0.114625  0.431674  1
  Si  Si16  1  0.750000  0.622158  0.998284  1
  Ge  Ge17  1  0.250000  0.403963  0.426774  1
  Pt  Pt18  1  0.750000  0.352604  0.099351  1
  Pt  Pt19  1  0.250000  0.972061  0.624070  1
  Pt  Pt20  1  0.750000  0.850732  0.088757  1
  Pt  Pt21  1  0.750000  0.029604  0.375134  1
  Pt  Pt22  1  0.250000  0.648520  0.900313  1
  Pt  Pt23  1  0.250000  0.150957  0.910553  1
  Pt  Pt24  1  0.750000  0.540021  0.372755  1
  Pt  Pt25  1  0.250000  0.467528  0.627418  1
