# generated using pymatgen
data_Er4GaCo2Ru5
_symmetry_space_group_name_H-M   'P 1'
_cell_length_a   5.23362500
_cell_length_b   5.18247129
_cell_length_c   8.75250400
_cell_angle_alpha   90.00000000
_cell_angle_beta   90.00000000
_cell_angle_gamma   119.97915985
_symmetry_Int_Tables_number   1
_chemical_formula_structural   Er4GaCo2Ru5
_chemical_formula_sum   'Er4 Ga1 Co2 Ru5'
_cell_volume   205.63338219
_cell_formula_units_Z   1
loop_
 _symmetry_equiv_pos_site_id
 _symmetry_equiv_pos_as_xyz
  1  'x, y, z'
loop_
 _atom_site_type_symbol
 _atom_site_label
 _atom_site_symmetry_multiplicity
 _atom_site_fract_x
 _atom_site_fract_y
 _atom_site_fract_z
 _atom_site_occupancy
  Er  Er0  1  0.329869  0.663959  0.432171  1
  Er  Er1  1  0.661015  0.327265  0.562131  1
  Er  Er2  1  0.661015  0.327265  0.937869  1
  Er  Er3  1  0.329869  0.663959  0.067829  1
  Ga  Ga4  1  0.175264  0.346283  0.750000  1
  Co  Co5  1  0.179205  0.839363  0.750000  1
  Co  Co6  1  0.341381  0.172792  0.250000  1
  Ru  Ru7  1  0.835030  0.669870  0.250000  1
  Ru  Ru8  1  0.668698  0.837790  0.750000  1
  Ru  Ru9  1  0.995213  0.986957  0.999909  1
  Ru  Ru10  1  0.828227  0.177540  0.250000  1
  Ru  Ru11  1  0.995213  0.986957  0.500091  1
