# generated using pymatgen
data_Ho12ZnCo4Sn
_symmetry_space_group_name_H-M   'P 1'
_cell_length_a   8.26578267
_cell_length_b   8.26578306
_cell_length_c   8.26578329
_cell_angle_alpha   111.96049163
_cell_angle_beta   109.39531418
_cell_angle_gamma   107.09452135
_symmetry_Int_Tables_number   1
_chemical_formula_structural   Ho12ZnCo4Sn
_chemical_formula_sum   'Ho12 Zn1 Co4 Sn1'
_cell_volume   433.95484233
_cell_formula_units_Z   1
loop_
 _symmetry_equiv_pos_site_id
 _symmetry_equiv_pos_as_xyz
  1  'x, y, z'
loop_
 _atom_site_type_symbol
 _atom_site_label
 _atom_site_symmetry_multiplicity
 _atom_site_fract_x
 _atom_site_fract_y
 _atom_site_fract_z
 _atom_site_occupancy
  Ho  Ho0  1  0.428618  0.227662  0.200956  1
  Ho  Ho1  1  0.571382  0.772338  0.799044  1
  Ho  Ho2  1  0.026706  0.227662  0.799044  1
  Ho  Ho3  1  0.973294  0.772338  0.200956  1
  Ho  Ho4  1  0.182195  0.284059  0.466252  1
  Ho  Ho5  1  0.817805  0.715941  0.533748  1
  Ho  Ho6  1  0.182195  0.715941  0.898136  1
  Ho  Ho7  1  0.817805  0.284059  0.101864  1
  Ho  Ho8  1  0.322842  0.633427  0.310585  1
  Ho  Ho9  1  0.677158  0.366573  0.689415  1
  Ho  Ho10  1  0.322842  0.012256  0.689415  1
  Ho  Ho11  1  0.677158  0.987744  0.310585  1
  Zn  Zn12  1  0.000000  0.000000  0.000000  1
  Co  Co13  1  0.349050  0.000000  0.349050  1
  Co  Co14  1  0.650950  0.000000  0.650950  1
  Co  Co15  1  0.114424  0.614424  0.500000  1
  Co  Co16  1  0.885576  0.385576  0.500000  1
  Sn  Sn17  1  0.500000  0.500000  0.000000  1
