# generated using pymatgen
data_Nd4DyHo3(B6Os)4
_symmetry_space_group_name_H-M   'P 1'
_cell_length_a   3.69965800
_cell_length_b   9.23808701
_cell_length_c   11.66262401
_cell_angle_alpha   90.00497783
_cell_angle_beta   90.00000000
_cell_angle_gamma   90.00000000
_symmetry_Int_Tables_number   1
_chemical_formula_structural   Nd4DyHo3(B6Os)4
_chemical_formula_sum   'Nd4 Dy1 Ho3 B24 Os4'
_cell_volume   398.60239215
_cell_formula_units_Z   1
loop_
 _symmetry_equiv_pos_site_id
 _symmetry_equiv_pos_as_xyz
  1  'x, y, z'
loop_
 _atom_site_type_symbol
 _atom_site_label
 _atom_site_symmetry_multiplicity
 _atom_site_fract_x
 _atom_site_fract_y
 _atom_site_fract_z
 _atom_site_occupancy
  Nd  Nd0  1  0.000000  0.322525  0.414210  1
  Nd  Nd1  1  0.000000  0.677466  0.585936  1
  Nd  Nd2  1  0.000000  0.822381  0.085738  1
  Nd  Nd3  1  0.000000  0.177627  0.914145  1
  Dy  Dy4  1  0.000000  0.944363  0.372367  1
  Ho  Ho5  1  0.000000  0.055749  0.627855  1
  Ho  Ho6  1  0.000000  0.444349  0.127555  1
  Ho  Ho7  1  0.000000  0.555649  0.872335  1
  B  B8  1  0.500000  0.556026  0.430466  1
  B  B9  1  0.500000  0.443760  0.569617  1
  B  B10  1  0.500000  0.056221  0.069442  1
  B  B11  1  0.500000  0.943806  0.930408  1
  B  B12  1  0.500000  0.748922  0.417445  1
  B  B13  1  0.500000  0.250720  0.582578  1
  B  B14  1  0.500000  0.249432  0.082481  1
  B  B15  1  0.500000  0.750672  0.917451  1
  B  B16  1  0.500000  0.790248  0.266928  1
  B  B17  1  0.500000  0.209413  0.733046  1
  B  B18  1  0.500000  0.290882  0.232949  1
  B  B19  1  0.500000  0.709363  0.766996  1
  B  B20  1  0.500000  0.630652  0.185326  1
  B  B21  1  0.500000  0.369218  0.814574  1
  B  B22  1  0.500000  0.131072  0.314408  1
  B  B23  1  0.500000  0.869164  0.685495  1
  B  B24  1  0.500000  0.985848  0.213841  1
  B  B25  1  0.500000  0.014408  0.785923  1
  B  B26  1  0.500000  0.485421  0.285832  1
  B  B27  1  0.500000  0.514435  0.714120  1
  B  B28  1  0.500000  0.603392  0.028292  1
  B  B29  1  0.500000  0.396597  0.971664  1
  B  B30  1  0.500000  0.103946  0.471923  1
  B  B31  1  0.500000  0.896370  0.528726  1
  Os  Os32  1  0.000000  0.638673  0.319631  1
  Os  Os33  1  0.000000  0.361028  0.680412  1
  Os  Os34  1  0.000000  0.139256  0.180170  1
  Os  Os35  1  0.000000  0.860945  0.819715  1
