# generated using pymatgen
data_TbEr(Si2Ni9)2
_symmetry_space_group_name_H-M   'P 1'
_cell_length_a   7.54665062
_cell_length_b   7.55833002
_cell_length_c   7.54665009
_cell_angle_alpha   99.54398499
_cell_angle_beta   99.50643401
_cell_angle_gamma   131.89342071
_symmetry_Int_Tables_number   1
_chemical_formula_structural   TbEr(Si2Ni9)2
_chemical_formula_sum   'Tb1 Er1 Si4 Ni18'
_cell_volume   292.83221020
_cell_formula_units_Z   1
loop_
 _symmetry_equiv_pos_site_id
 _symmetry_equiv_pos_as_xyz
  1  'x, y, z'
loop_
 _atom_site_type_symbol
 _atom_site_label
 _atom_site_symmetry_multiplicity
 _atom_site_fract_x
 _atom_site_fract_y
 _atom_site_fract_z
 _atom_site_occupancy
  Tb  Tb0  1  0.500003  0.500169  0.000166  1
  Er  Er1  1  0.749972  0.249828  0.499857  1
  Si  Si2  1  0.625301  0.875046  0.750363  1
  Si  Si3  1  0.125002  0.374690  0.249688  1
  Si  Si4  1  0.125041  0.875327  0.750286  1
  Si  Si5  1  0.124683  0.875046  0.249745  1
  Ni  Ni6  1  0.249817  0.749699  0.499882  1
  Ni  Ni7  1  0.000435  0.000434  0.999999  1
  Ni  Ni8  1  0.686219  0.013034  0.079195  1
  Ni  Ni9  1  0.685781  0.606910  0.673026  1
  Ni  Ni10  1  0.261691  0.436442  0.578430  1
  Ni  Ni11  1  0.262242  0.683421  0.825639  1
  Ni  Ni12  1  0.933839  0.013034  0.326815  1
  Ni  Ni13  1  0.933885  0.606910  0.921129  1
  Ni  Ni14  1  0.858013  0.436442  0.174752  1
  Ni  Ni15  1  0.857781  0.683421  0.421179  1
  Ni  Ni16  1  0.563107  0.737709  0.421377  1
  Ni  Ni17  1  0.564053  0.142238  0.825834  1
  Ni  Ni18  1  0.987301  0.313893  0.920527  1
  Ni  Ni19  1  0.986692  0.066234  0.673190  1
  Ni  Ni20  1  0.316332  0.737709  0.174602  1
  Ni  Ni21  1  0.316404  0.142238  0.578185  1
  Ni  Ni22  1  0.393365  0.313893  0.326591  1
  Ni  Ni23  1  0.393044  0.066234  0.079542  1
