# generated using pymatgen
data_Tb2Dy6CdNi2Hg
_symmetry_space_group_name_H-M   'P 1'
_cell_length_a   9.52947286
_cell_length_b   9.52947272
_cell_length_c   9.52838300
_cell_angle_alpha   60.00377920
_cell_angle_beta   60.00377971
_cell_angle_gamma   59.74643206
_symmetry_Int_Tables_number   1
_chemical_formula_structural   Tb2Dy6CdNi2Hg
_chemical_formula_sum   'Tb4 Dy12 Cd2 Ni4 Hg2'
_cell_volume   610.69940529
_cell_formula_units_Z   2
loop_
 _symmetry_equiv_pos_site_id
 _symmetry_equiv_pos_as_xyz
  1  'x, y, z'
loop_
 _atom_site_type_symbol
 _atom_site_label
 _atom_site_symmetry_multiplicity
 _atom_site_fract_x
 _atom_site_fract_y
 _atom_site_fract_z
 _atom_site_occupancy
  Tb  Tb0  1  0.598785  0.598785  0.597659  1
  Tb  Tb1  1  0.598785  0.598785  0.204773  1
  Tb  Tb2  1  0.601825  0.198066  0.600056  1
  Tb  Tb3  1  0.198066  0.601825  0.600056  1
  Dy  Dy4  1  0.061835  0.438470  0.439264  1
  Dy  Dy5  1  0.438470  0.061835  0.060431  1
  Dy  Dy6  1  0.438470  0.061835  0.439264  1
  Dy  Dy7  1  0.061835  0.438470  0.060431  1
  Dy  Dy8  1  0.439016  0.439016  0.060984  1
  Dy  Dy9  1  0.061023  0.061023  0.438977  1
  Dy  Dy10  1  0.186173  0.812863  0.814443  1
  Dy  Dy11  1  0.812863  0.186173  0.186520  1
  Dy  Dy12  1  0.812863  0.186173  0.814443  1
  Dy  Dy13  1  0.186173  0.812863  0.186520  1
  Dy  Dy14  1  0.813431  0.813431  0.186569  1
  Dy  Dy15  1  0.186500  0.186500  0.813500  1
  Cd  Cd16  1  0.830174  0.506990  0.831419  1
  Cd  Cd17  1  0.506990  0.830174  0.831419  1
  Ni  Ni18  1  0.392454  0.392454  0.394421  1
  Ni  Ni19  1  0.392454  0.392454  0.820670  1
  Ni  Ni20  1  0.390743  0.823192  0.393032  1
  Ni  Ni21  1  0.823192  0.390743  0.393032  1
  Hg  Hg22  1  0.833941  0.833941  0.836309  1
  Hg  Hg23  1  0.833941  0.833941  0.495811  1
