# generated using pymatgen
data_TbMnFeO5
_symmetry_space_group_name_H-M   'P 1'
_cell_length_a   5.80269200
_cell_length_b   7.36250400
_cell_length_c   8.65217500
_cell_angle_alpha   90.00000000
_cell_angle_beta   90.00000000
_cell_angle_gamma   90.00000000
_symmetry_Int_Tables_number   1
_chemical_formula_structural   TbMnFeO5
_chemical_formula_sum   'Tb4 Mn4 Fe4 O20'
_cell_volume   369.64118857
_cell_formula_units_Z   4
loop_
 _symmetry_equiv_pos_site_id
 _symmetry_equiv_pos_as_xyz
  1  'x, y, z'
loop_
 _atom_site_type_symbol
 _atom_site_label
 _atom_site_symmetry_multiplicity
 _atom_site_fract_x
 _atom_site_fract_y
 _atom_site_fract_z
 _atom_site_occupancy
  Tb  Tb0  1  0.000000  0.366932  0.669579  1
  Tb  Tb1  1  0.000000  0.633068  0.330421  1
  Tb  Tb2  1  0.000000  0.866932  0.830421  1
  Tb  Tb3  1  0.000000  0.133068  0.169579  1
  Mn  Mn4  1  0.249429  0.500000  0.000000  1
  Mn  Mn5  1  0.750571  0.000000  0.500000  1
  Mn  Mn6  1  0.750571  0.500000  0.000000  1
  Mn  Mn7  1  0.249429  0.000000  0.500000  1
  Fe  Fe8  1  0.500000  0.106679  0.853843  1
  Fe  Fe9  1  0.500000  0.893321  0.146157  1
  Fe  Fe10  1  0.500000  0.606679  0.646157  1
  Fe  Fe11  1  0.500000  0.393321  0.353843  1
  O  O12  1  0.241274  0.894818  0.295144  1
  O  O13  1  0.241274  0.105182  0.704856  1
  O  O14  1  0.758726  0.394818  0.204856  1
  O  O15  1  0.758726  0.605182  0.795144  1
  O  O16  1  0.758726  0.105182  0.704856  1
  O  O17  1  0.758726  0.894818  0.295144  1
  O  O18  1  0.241274  0.605182  0.795144  1
  O  O19  1  0.241274  0.394818  0.204856  1
  O  O20  1  0.500000  0.348760  0.931156  1
  O  O21  1  0.500000  0.651240  0.068844  1
  O  O22  1  0.500000  0.848760  0.568844  1
  O  O23  1  0.500000  0.151240  0.431156  1
  O  O24  1  0.267020  0.000000  0.000000  1
  O  O25  1  0.732980  0.500000  0.500000  1
  O  O26  1  0.732980  0.000000  0.000000  1
  O  O27  1  0.267020  0.500000  0.500000  1
  O  O28  1  0.000000  0.161232  0.443279  1
  O  O29  1  0.000000  0.838768  0.556721  1
  O  O30  1  0.000000  0.661232  0.056721  1
  O  O31  1  0.000000  0.338768  0.943279  1
