# generated using pymatgen
data_Pr17Nd3Si15Ru
_symmetry_space_group_name_H-M   'P 1'
_cell_length_a   7.94508917
_cell_length_b   7.94783011
_cell_length_c   15.31593401
_cell_angle_alpha   90.26285166
_cell_angle_beta   89.88693240
_cell_angle_gamma   90.18682070
_symmetry_Int_Tables_number   1
_chemical_formula_structural   Pr17Nd3Si15Ru
_chemical_formula_sum   'Pr17 Nd3 Si15 Ru1'
_cell_volume   967.12614879
_cell_formula_units_Z   1
loop_
 _symmetry_equiv_pos_site_id
 _symmetry_equiv_pos_as_xyz
  1  'x, y, z'
loop_
 _atom_site_type_symbol
 _atom_site_label
 _atom_site_symmetry_multiplicity
 _atom_site_fract_x
 _atom_site_fract_y
 _atom_site_fract_z
 _atom_site_occupancy
  Pr  Pr0  1  0.695321  0.689449  0.501876  1
  Pr  Pr1  1  0.372436  0.010988  0.449438  1
  Pr  Pr2  1  0.487918  0.879404  0.696885  1
  Pr  Pr3  1  0.510301  0.123156  0.197948  1
  Pr  Pr4  1  0.876393  0.488105  0.300526  1
  Pr  Pr5  1  0.126229  0.505271  0.799059  1
  Pr  Pr6  1  0.625121  0.988959  0.948235  1
  Pr  Pr7  1  0.006458  0.377938  0.552074  1
  Pr  Pr8  1  0.988367  0.624484  0.051116  1
  Pr  Pr9  1  0.133851  0.984128  0.873298  1
  Pr  Pr10  1  0.516989  0.630440  0.126183  1
  Pr  Pr11  1  0.471497  0.359766  0.628797  1
  Pr  Pr12  1  0.627290  0.515355  0.874350  1
  Pr  Pr13  1  0.374557  0.483898  0.373374  1
  Pr  Pr14  1  0.873782  0.021049  0.376658  1
  Pr  Pr15  1  0.981932  0.126557  0.124194  1
  Pr  Pr16  1  0.027089  0.882342  0.626760  1
  Nd  Nd17  1  0.306033  0.306514  0.998021  1
  Nd  Nd18  1  0.190753  0.809197  0.249514  1
  Nd  Nd19  1  0.823122  0.188208  0.749524  1
  Si  Si20  1  0.332670  0.693793  0.951659  1
  Si  Si21  1  0.664573  0.302646  0.451748  1
  Si  Si22  1  0.696076  0.334267  0.049837  1
  Si  Si23  1  0.303682  0.668429  0.547061  1
  Si  Si24  1  0.806963  0.831835  0.203859  1
  Si  Si25  1  0.168370  0.196910  0.297317  1
  Si  Si26  1  0.833044  0.801950  0.799712  1
  Si  Si27  1  0.287692  0.921975  0.059086  1
  Si  Si28  1  0.579109  0.787967  0.310402  1
  Si  Si29  1  0.423764  0.207803  0.811880  1
  Si  Si30  1  0.779306  0.582876  0.691399  1
  Si  Si31  1  0.212494  0.422362  0.189821  1
  Si  Si32  1  0.705074  0.075252  0.558855  1
  Si  Si33  1  0.919711  0.287257  0.941677  1
  Si  Si34  1  0.080341  0.715834  0.440089  1
  Ru  Ru35  1  0.191692  0.173635  0.697768  1
