# generated using pymatgen
data_Hf3ZrH15
_symmetry_space_group_name_H-M   'P 1'
_cell_length_a   6.92319275
_cell_length_b   6.92380555
_cell_length_c   6.95028306
_cell_angle_alpha   109.46547572
_cell_angle_beta   109.47875557
_cell_angle_gamma   109.29722554
_symmetry_Int_Tables_number   1
_chemical_formula_structural   Hf3ZrH15
_chemical_formula_sum   'Hf6 Zr2 H30'
_cell_volume   257.01024213
_cell_formula_units_Z   2
loop_
 _symmetry_equiv_pos_site_id
 _symmetry_equiv_pos_as_xyz
  1  'x, y, z'
loop_
 _atom_site_type_symbol
 _atom_site_label
 _atom_site_symmetry_multiplicity
 _atom_site_fract_x
 _atom_site_fract_y
 _atom_site_fract_z
 _atom_site_occupancy
  Hf  Hf0  1  0.905878  0.905179  0.905970  1
  Hf  Hf1  1  0.499896  0.999244  0.094140  1
  Hf  Hf2  1  0.999522  0.095968  0.500055  1
  Hf  Hf3  1  0.095556  0.499800  0.999188  1
  Hf  Hf4  1  0.999449  0.595924  0.499995  1
  Hf  Hf5  1  0.596377  0.500627  0.000806  1
  Zr  Zr6  1  0.499918  0.000113  0.593235  1
  Zr  Zr7  1  0.406764  0.406995  0.406863  1
  H  H8  1  0.656172  0.966242  0.383754  1
  H  H9  1  0.230713  0.312785  0.843689  1
  H  H10  1  0.184352  0.418358  0.532456  1
  H  H11  1  0.078123  0.266707  0.109237  1
  H  H12  1  0.267462  0.110167  0.078406  1
  H  H13  1  0.109931  0.078888  0.267696  1
  H  H14  1  0.468881  0.157517  0.890778  1
  H  H15  1  0.733070  0.348006  0.815652  1
  H  H16  1  0.626820  0.375207  0.249736  1
  H  H17  1  0.247193  0.624523  0.372800  1
  H  H18  1  0.750139  0.874432  0.125493  1
  H  H19  1  0.124630  0.748931  0.874484  1
  H  H20  1  0.374374  0.251724  0.627197  1
  H  H21  1  0.877073  0.125480  0.750256  1
  H  H22  1  0.772358  0.582442  0.616192  1
  H  H23  1  0.311253  0.843610  0.227129  1
  H  H24  1  0.386220  0.655704  0.966961  1
  H  H25  1  0.967772  0.386613  0.656209  1
  H  H26  1  0.534031  0.185840  0.415789  1
  H  H27  1  0.417407  0.532353  0.184327  1
  H  H28  1  0.843952  0.229830  0.312614  1
  H  H29  1  0.919246  0.688691  0.033037  1
  H  H30  1  0.811597  0.730359  0.343814  1
  H  H31  1  0.151903  0.885919  0.467531  1
  H  H32  1  0.689033  0.031753  0.921482  1
  H  H33  1  0.342260  0.811220  0.732275  1
  H  H34  1  0.887022  0.469102  0.156343  1
  H  H35  1  0.618254  0.770069  0.584222  1
  H  H36  1  0.584065  0.616427  0.772793  1
  H  H37  1  0.031333  0.917254  0.687397  1
