# generated using pymatgen
data_Ba2GdMoO6
_symmetry_space_group_name_H-M   'P 1'
_cell_length_a   6.08342705
_cell_length_b   6.08342594
_cell_length_c   10.42462355
_cell_angle_alpha   106.96464305
_cell_angle_beta   73.03535041
_cell_angle_gamma   120.00000435
_symmetry_Int_Tables_number   1
_chemical_formula_structural   Ba2GdMoO6
_chemical_formula_sum   'Ba4 Gd2 Mo2 O12'
_cell_volume   314.57423075
_cell_formula_units_Z   2
loop_
 _symmetry_equiv_pos_site_id
 _symmetry_equiv_pos_as_xyz
  1  'x, y, z'
loop_
 _atom_site_type_symbol
 _atom_site_label
 _atom_site_symmetry_multiplicity
 _atom_site_fract_x
 _atom_site_fract_y
 _atom_site_fract_z
 _atom_site_occupancy
  Ba  Ba0  1  0.874936  0.125064  0.375193  1
  Ba  Ba1  1  0.374936  0.625064  0.875193  1
  Ba  Ba2  1  0.625064  0.374936  0.124807  1
  Ba  Ba3  1  0.125064  0.874936  0.624807  1
  Gd  Gd4  1  0.500000  0.500000  0.500000  1
  Gd  Gd5  1  0.000000  0.000000  0.000000  1
  Mo  Mo6  1  0.750000  0.250000  0.750000  1
  Mo  Mo7  1  0.250000  0.750000  0.250000  1
  O  O8  1  0.368661  0.103109  0.365786  1
  O  O9  1  0.868661  0.603109  0.865786  1
  O  O10  1  0.131339  0.868661  0.134214  1
  O  O11  1  0.631339  0.368661  0.634214  1
  O  O12  1  0.368661  0.631339  0.365786  1
  O  O13  1  0.868661  0.131339  0.865786  1
  O  O14  1  0.896891  0.631339  0.365786  1
  O  O15  1  0.396891  0.131339  0.865786  1
  O  O16  1  0.131339  0.396891  0.134214  1
  O  O17  1  0.631339  0.896891  0.634214  1
  O  O18  1  0.603109  0.868661  0.134214  1
  O  O19  1  0.103109  0.368661  0.634214  1
