# generated using pymatgen
data_LiEuNb4O8
_symmetry_space_group_name_H-M   'P 1'
_cell_length_a   5.14767500
_cell_length_b   5.95877400
_cell_length_c   12.06734000
_cell_angle_alpha   90.00000000
_cell_angle_beta   90.00000000
_cell_angle_gamma   90.00000000
_symmetry_Int_Tables_number   1
_chemical_formula_structural   LiEuNb4O8
_chemical_formula_sum   'Li2 Eu2 Nb8 O16'
_cell_volume   370.15155925
_cell_formula_units_Z   2
loop_
 _symmetry_equiv_pos_site_id
 _symmetry_equiv_pos_as_xyz
  1  'x, y, z'
loop_
 _atom_site_type_symbol
 _atom_site_label
 _atom_site_symmetry_multiplicity
 _atom_site_fract_x
 _atom_site_fract_y
 _atom_site_fract_z
 _atom_site_occupancy
  Li  Li0  1  0.804248  0.250000  0.501719  1
  Li  Li1  1  0.804248  0.750000  0.998281  1
  Eu  Eu2  1  0.319121  0.250000  0.003211  1
  Eu  Eu3  1  0.319121  0.750000  0.496789  1
  Nb  Nb4  1  0.146286  0.000000  0.250000  1
  Nb  Nb5  1  0.146286  0.500000  0.250000  1
  Nb  Nb6  1  0.330684  0.250000  0.742326  1
  Nb  Nb7  1  0.330684  0.750000  0.757674  1
  Nb  Nb8  1  0.649529  0.250000  0.250968  1
  Nb  Nb9  1  0.649529  0.750000  0.249032  1
  Nb  Nb10  1  0.831992  0.000000  0.750000  1
  Nb  Nb11  1  0.831992  0.500000  0.750000  1
  O  O12  1  0.989438  0.250000  0.640286  1
  O  O13  1  0.989438  0.750000  0.859714  1
  O  O14  1  0.005767  0.250000  0.852844  1
  O  O15  1  0.005767  0.750000  0.647156  1
  O  O16  1  0.483485  0.499627  0.142922  1
  O  O17  1  0.483485  0.000373  0.142922  1
  O  O18  1  0.483485  0.999627  0.357078  1
  O  O19  1  0.483485  0.500373  0.357078  1
  O  O20  1  0.498276  0.508791  0.642732  1
  O  O21  1  0.498276  0.008791  0.857268  1
  O  O22  1  0.498276  0.491209  0.857268  1
  O  O23  1  0.498276  0.991209  0.642732  1
  O  O24  1  0.977732  0.750000  0.142749  1
  O  O25  1  0.977732  0.250000  0.357251  1
  O  O26  1  0.981681  0.250000  0.143552  1
  O  O27  1  0.981681  0.750000  0.356448  1
