# generated using pymatgen
data_Nd3Re3(SnN6)2
_symmetry_space_group_name_H-M   'P 1'
_cell_length_a   11.25077990
_cell_length_b   11.25077988
_cell_length_c   11.25078000
_cell_angle_alpha   109.47122085
_cell_angle_beta   109.47122082
_cell_angle_gamma   109.47122303
_symmetry_Int_Tables_number   1
_chemical_formula_structural   Nd3Re3(SnN6)2
_chemical_formula_sum   'Nd12 Re12 Sn8 N48'
_cell_volume   1096.29133934
_cell_formula_units_Z   4
loop_
 _symmetry_equiv_pos_site_id
 _symmetry_equiv_pos_as_xyz
  1  'x, y, z'
loop_
 _atom_site_type_symbol
 _atom_site_label
 _atom_site_symmetry_multiplicity
 _atom_site_fract_x
 _atom_site_fract_y
 _atom_site_fract_z
 _atom_site_occupancy
  Nd  Nd0  1  0.250000  0.375000  0.125000  1
  Nd  Nd1  1  0.375000  0.750000  0.125000  1
  Nd  Nd2  1  0.375000  0.125000  0.250000  1
  Nd  Nd3  1  0.875000  0.625000  0.250000  1
  Nd  Nd4  1  0.750000  0.125000  0.375000  1
  Nd  Nd5  1  0.125000  0.250000  0.375000  1
  Nd  Nd6  1  0.875000  0.750000  0.625000  1
  Nd  Nd7  1  0.250000  0.875000  0.625000  1
  Nd  Nd8  1  0.125000  0.375000  0.750000  1
  Nd  Nd9  1  0.625000  0.875000  0.750000  1
  Nd  Nd10  1  0.625000  0.250000  0.875000  1
  Nd  Nd11  1  0.750000  0.625000  0.875000  1
  Re  Re12  1  0.875000  0.250000  0.125000  1
  Re  Re13  1  0.750000  0.875000  0.125000  1
  Re  Re14  1  0.625000  0.375000  0.250000  1
  Re  Re15  1  0.125000  0.875000  0.250000  1
  Re  Re16  1  0.250000  0.625000  0.375000  1
  Re  Re17  1  0.625000  0.750000  0.375000  1
  Re  Re18  1  0.375000  0.250000  0.625000  1
  Re  Re19  1  0.750000  0.375000  0.625000  1
  Re  Re20  1  0.875000  0.125000  0.750000  1
  Re  Re21  1  0.375000  0.625000  0.750000  1
  Re  Re22  1  0.250000  0.125000  0.875000  1
  Re  Re23  1  0.125000  0.750000  0.875000  1
  Sn  Sn24  1  0.000000  0.000000  0.000000  1
  Sn  Sn25  1  0.500000  0.000000  0.000000  1
  Sn  Sn26  1  0.000000  0.500000  0.000000  1
  Sn  Sn27  1  0.500000  0.500000  0.000000  1
  Sn  Sn28  1  0.000000  0.000000  0.500000  1
  Sn  Sn29  1  0.500000  0.000000  0.500000  1
  Sn  Sn30  1  0.000000  0.500000  0.500000  1
  Sn  Sn31  1  0.500000  0.500000  0.500000  1
  N  N32  1  0.309088  0.900462  0.020251  1
  N  N33  1  0.211163  0.119787  0.020251  1
  N  N34  1  0.880213  0.400462  0.091374  1
  N  N35  1  0.711163  0.690912  0.091374  1
  N  N36  1  0.619787  0.408625  0.099538  1
  N  N37  1  0.979749  0.690912  0.099538  1
  N  N38  1  0.020251  0.211163  0.119787  1
  N  N39  1  0.599537  0.908625  0.119787  1
  N  N40  1  0.211163  0.591374  0.190912  1
  N  N41  1  0.479749  0.599537  0.190912  1
  N  N42  1  0.591374  0.190912  0.211163  1
  N  N43  1  0.119787  0.020251  0.211163  1
  N  N44  1  0.479749  0.380213  0.288837  1
  N  N45  1  0.309088  0.908625  0.288837  1
  N  N46  1  0.900462  0.020251  0.309088  1
  N  N47  1  0.908625  0.288837  0.309088  1
  N  N48  1  0.288837  0.479749  0.380213  1
  N  N49  1  0.591374  0.900462  0.380213  1
  N  N50  1  0.809088  0.520251  0.400462  1
  N  N51  1  0.091374  0.880213  0.400462  1
  N  N52  1  0.099538  0.619787  0.408625  1
  N  N53  1  0.809088  0.788837  0.408625  1
  N  N54  1  0.599537  0.190912  0.479749  1
  N  N55  1  0.380213  0.288837  0.479749  1
  N  N56  1  0.619787  0.711163  0.520251  1
  N  N57  1  0.400462  0.809088  0.520251  1
  N  N58  1  0.190912  0.211163  0.591374  1
  N  N59  1  0.900462  0.380213  0.591374  1
  N  N60  1  0.908625  0.119787  0.599537  1
  N  N61  1  0.190912  0.479749  0.599537  1
  N  N62  1  0.408625  0.099538  0.619787  1
  N  N63  1  0.711163  0.520251  0.619787  1
  N  N64  1  0.091374  0.711163  0.690912  1
  N  N65  1  0.099538  0.979749  0.690912  1
  N  N66  1  0.690912  0.091374  0.711163  1
  N  N67  1  0.520251  0.619787  0.711163  1
  N  N68  1  0.408625  0.809088  0.788837  1
  N  N69  1  0.880213  0.979749  0.788837  1
  N  N70  1  0.520251  0.400462  0.809088  1
  N  N71  1  0.788837  0.408625  0.809088  1
  N  N72  1  0.400462  0.091374  0.880213  1
  N  N73  1  0.979749  0.788837  0.880213  1
  N  N74  1  0.020251  0.309088  0.900462  1
  N  N75  1  0.380213  0.591374  0.900462  1
  N  N76  1  0.288837  0.309088  0.908625  1
  N  N77  1  0.119787  0.599537  0.908625  1
  N  N78  1  0.690912  0.099538  0.979749  1
  N  N79  1  0.788837  0.880213  0.979749  1
