# generated using pymatgen
data_LiYb4(RuO4)3
_symmetry_space_group_name_H-M   'P 1'
_cell_length_a   5.56226285
_cell_length_b   5.27716276
_cell_length_c   7.63707103
_cell_angle_alpha   89.34112072
_cell_angle_beta   90.42344562
_cell_angle_gamma   90.03624171
_symmetry_Int_Tables_number   1
_chemical_formula_structural   LiYb4(RuO4)3
_chemical_formula_sum   'Li1 Yb4 Ru3 O12'
_cell_volume   224.14971156
_cell_formula_units_Z   1
loop_
 _symmetry_equiv_pos_site_id
 _symmetry_equiv_pos_as_xyz
  1  'x, y, z'
loop_
 _atom_site_type_symbol
 _atom_site_label
 _atom_site_symmetry_multiplicity
 _atom_site_fract_x
 _atom_site_fract_y
 _atom_site_fract_z
 _atom_site_occupancy
  Li  Li0  1  0.500000  0.000000  0.000000  1
  Yb  Yb1  1  0.562592  0.477264  0.766485  1
  Yb  Yb2  1  0.077014  0.021687  0.770480  1
  Yb  Yb3  1  0.437408  0.522736  0.233515  1
  Yb  Yb4  1  0.922986  0.978313  0.229520  1
  Ru  Ru5  1  0.000000  0.500000  0.500000  1
  Ru  Ru6  1  0.500000  0.000000  0.500000  1
  Ru  Ru7  1  0.000000  0.500000  0.000000  1
  O  O8  1  0.711109  0.686529  0.045859  1
  O  O9  1  0.200798  0.801809  0.439024  1
  O  O10  1  0.296733  0.304067  0.560560  1
  O  O11  1  0.809438  0.204008  0.955791  1
  O  O12  1  0.288891  0.313471  0.954141  1
  O  O13  1  0.799202  0.198191  0.560976  1
  O  O14  1  0.703267  0.695933  0.439440  1
  O  O15  1  0.190562  0.795992  0.044209  1
  O  O16  1  0.472569  0.897009  0.738774  1
  O  O17  1  0.965760  0.607483  0.746569  1
  O  O18  1  0.527431  0.102991  0.261226  1
  O  O19  1  0.034240  0.392517  0.253431  1
