# generated using pymatgen
data_BaSr3LaU3O14
_symmetry_space_group_name_H-M   'P 1'
_cell_length_a   8.12138114
_cell_length_b   8.12138135
_cell_length_c   11.07160800
_cell_angle_alpha   90.00000000
_cell_angle_beta   90.00000000
_cell_angle_gamma   90.28626122
_symmetry_Int_Tables_number   1
_chemical_formula_structural   BaSr3LaU3O14
_chemical_formula_sum   'Ba2 Sr6 La2 U6 O28'
_cell_volume   730.23908924
_cell_formula_units_Z   2
loop_
 _symmetry_equiv_pos_site_id
 _symmetry_equiv_pos_as_xyz
  1  'x, y, z'
loop_
 _atom_site_type_symbol
 _atom_site_label
 _atom_site_symmetry_multiplicity
 _atom_site_fract_x
 _atom_site_fract_y
 _atom_site_fract_z
 _atom_site_occupancy
  Ba  Ba0  1  0.504608  0.495392  0.999092  1
  Ba  Ba1  1  0.995392  0.004608  0.499092  1
  Sr  Sr2  1  0.228323  0.269026  0.749732  1
  Sr  Sr3  1  0.750812  0.249188  0.774013  1
  Sr  Sr4  1  0.749188  0.250812  0.274013  1
  Sr  Sr5  1  0.271677  0.230974  0.249732  1
  Sr  Sr6  1  0.730974  0.771677  0.749732  1
  Sr  Sr7  1  0.769026  0.728323  0.249732  1
  La  La8  1  0.251353  0.748647  0.725867  1
  La  La9  1  0.248647  0.751353  0.225867  1
  U  U10  1  0.999897  0.000103  0.000265  1
  U  U11  1  0.500103  0.499897  0.500265  1
  U  U12  1  0.999819  0.501171  0.999856  1
  U  U13  1  0.500181  0.998829  0.499856  1
  U  U14  1  0.498829  0.000181  0.999856  1
  U  U15  1  0.001171  0.499819  0.499856  1
  O  O16  1  0.303135  0.023537  0.618801  1
  O  O17  1  0.465158  0.192201  0.882896  1
  O  O18  1  0.807799  0.534842  0.882896  1
  O  O19  1  0.499510  0.749341  0.578509  1
  O  O20  1  0.069084  0.930916  0.832247  1
  O  O21  1  0.312237  0.961399  0.369573  1
  O  O22  1  0.523537  0.803135  0.118801  1
  O  O23  1  0.692201  0.965158  0.382896  1
  O  O24  1  0.038601  0.687763  0.369573  1
  O  O25  1  0.461399  0.812237  0.869573  1
  O  O26  1  0.489763  0.250567  0.427164  1
  O  O27  1  0.034842  0.307799  0.382896  1
  O  O28  1  0.686399  0.031947  0.624683  1
  O  O29  1  0.187763  0.538601  0.869573  1
  O  O30  1  0.935877  0.064123  0.166085  1
  O  O31  1  0.749433  0.510237  0.427164  1
  O  O32  1  0.564123  0.435877  0.666085  1
  O  O33  1  0.430916  0.569084  0.332247  1
  O  O34  1  0.750567  0.989763  0.927164  1
  O  O35  1  0.250659  0.500490  0.578509  1
  O  O36  1  0.000490  0.750659  0.078509  1
  O  O37  1  0.010237  0.249433  0.927164  1
  O  O38  1  0.196865  0.476463  0.118801  1
  O  O39  1  0.249341  0.999510  0.078509  1
  O  O40  1  0.813601  0.468053  0.124683  1
  O  O41  1  0.968053  0.313601  0.624683  1
  O  O42  1  0.976463  0.696865  0.618801  1
  O  O43  1  0.531947  0.186399  0.124683  1
