# generated using pymatgen
data_Ce2CuRh3
_symmetry_space_group_name_H-M   'P 1'
_cell_length_a   5.14750623
_cell_length_b   5.51537258
_cell_length_c   5.51537200
_cell_angle_alpha   60.00000346
_cell_angle_beta   57.60640365
_cell_angle_gamma   57.60640498
_symmetry_Int_Tables_number   1
_chemical_formula_structural   Ce2CuRh3
_chemical_formula_sum   'Ce2 Cu1 Rh3'
_cell_volume   106.54491512
_cell_formula_units_Z   1
loop_
 _symmetry_equiv_pos_site_id
 _symmetry_equiv_pos_as_xyz
  1  'x, y, z'
loop_
 _atom_site_type_symbol
 _atom_site_label
 _atom_site_symmetry_multiplicity
 _atom_site_fract_x
 _atom_site_fract_y
 _atom_site_fract_z
 _atom_site_occupancy
  Ce  Ce0  1  0.501236  0.499588  0.499588  1
  Ce  Ce1  1  0.748764  0.750412  0.750412  1
  Cu  Cu2  1  0.625000  0.125000  0.125000  1
  Rh  Rh3  1  0.125000  0.125000  0.125000  1
  Rh  Rh4  1  0.125000  0.625000  0.125000  1
  Rh  Rh5  1  0.125000  0.125000  0.625000  1
