# generated using pymatgen
data_YErPu2(AlB4)4
_symmetry_space_group_name_H-M   'P 1'
_cell_length_a   3.57194200
_cell_length_b   5.94039516
_cell_length_c   11.51711621
_cell_angle_alpha   89.99782912
_cell_angle_beta   90.00000000
_cell_angle_gamma   90.00000000
_symmetry_Int_Tables_number   1
_chemical_formula_structural   YErPu2(AlB4)4
_chemical_formula_sum   'Y1 Er1 Pu2 Al4 B16'
_cell_volume   244.37877442
_cell_formula_units_Z   1
loop_
 _symmetry_equiv_pos_site_id
 _symmetry_equiv_pos_as_xyz
  1  'x, y, z'
loop_
 _atom_site_type_symbol
 _atom_site_label
 _atom_site_symmetry_multiplicity
 _atom_site_fract_x
 _atom_site_fract_y
 _atom_site_fract_z
 _atom_site_occupancy
  Y  Y0  1  0.500000  0.128579  0.650331  1
  Er  Er1  1  0.500000  0.871196  0.349513  1
  Pu  Pu2  1  0.500000  0.369983  0.150315  1
  Pu  Pu3  1  0.500000  0.630043  0.850066  1
  Al  Al4  1  0.500000  0.362397  0.408261  1
  Al  Al5  1  0.500000  0.637623  0.591172  1
  Al  Al6  1  0.500000  0.139562  0.910410  1
  Al  Al7  1  0.500000  0.860410  0.090085  1
  B  B8  1  0.000000  0.113264  0.047460  1
  B  B9  1  0.000000  0.886556  0.953004  1
  B  B10  1  0.000000  0.386075  0.545826  1
  B  B11  1  0.000000  0.614891  0.453226  1
  B  B12  1  0.000000  0.133114  0.468212  1
  B  B13  1  0.000000  0.866709  0.530397  1
  B  B14  1  0.000000  0.367019  0.968761  1
  B  B15  1  0.000000  0.633124  0.031643  1
  B  B16  1  0.000000  0.026632  0.192992  1
  B  B17  1  0.000000  0.972308  0.807664  1
  B  B18  1  0.000000  0.474119  0.692742  1
  B  B19  1  0.000000  0.526936  0.307203  1
  B  B20  1  0.000000  0.210205  0.312236  1
  B  B21  1  0.000000  0.788305  0.687930  1
  B  B22  1  0.000000  0.291216  0.812831  1
  B  B23  1  0.000000  0.709732  0.187721  1
