# generated using pymatgen
data_Lu10Pb6C
_symmetry_space_group_name_H-M   'P 1'
_cell_length_a   8.87477300
_cell_length_b   8.87477423
_cell_length_c   6.50069900
_cell_angle_alpha   90.00000000
_cell_angle_beta   90.00000000
_cell_angle_gamma   119.99999915
_symmetry_Int_Tables_number   1
_chemical_formula_structural   Lu10Pb6C
_chemical_formula_sum   'Lu10 Pb6 C1'
_cell_volume   443.40977186
_cell_formula_units_Z   1
loop_
 _symmetry_equiv_pos_site_id
 _symmetry_equiv_pos_as_xyz
  1  'x, y, z'
loop_
 _atom_site_type_symbol
 _atom_site_label
 _atom_site_symmetry_multiplicity
 _atom_site_fract_x
 _atom_site_fract_y
 _atom_site_fract_z
 _atom_site_occupancy
  Lu  Lu0  1  0.333333  0.666667  0.500000  1
  Lu  Lu1  1  0.666667  0.333333  0.500000  1
  Lu  Lu2  1  0.666667  0.333333  0.000000  1
  Lu  Lu3  1  0.333333  0.666667  0.000000  1
  Lu  Lu4  1  0.000000  0.776943  0.278446  1
  Lu  Lu5  1  0.223057  0.223057  0.278446  1
  Lu  Lu6  1  0.776943  0.000000  0.278446  1
  Lu  Lu7  1  0.000000  0.223057  0.721554  1
  Lu  Lu8  1  0.776943  0.776943  0.721554  1
  Lu  Lu9  1  0.223057  0.000000  0.721554  1
  Pb  Pb10  1  0.000000  0.399496  0.248928  1
  Pb  Pb11  1  0.600504  0.600504  0.248928  1
  Pb  Pb12  1  0.399496  0.000000  0.248928  1
  Pb  Pb13  1  0.000000  0.600504  0.751072  1
  Pb  Pb14  1  0.399496  0.399496  0.751072  1
  Pb  Pb15  1  0.600504  0.000000  0.751072  1
  C  C16  1  0.000000  0.000000  0.500000  1
