# generated using pymatgen
data_Dy8Er9Sc3(GaSi)8
_symmetry_space_group_name_H-M   'P 1'
_cell_length_a   7.34147722
_cell_length_b   7.63932322
_cell_length_c   14.75779700
_cell_angle_alpha   90.00000000
_cell_angle_beta   90.00000000
_cell_angle_gamma   90.02777818
_symmetry_Int_Tables_number   1
_chemical_formula_structural   Dy8Er9Sc3(GaSi)8
_chemical_formula_sum   'Dy8 Er9 Sc3 Ga8 Si8'
_cell_volume   827.67497062
_cell_formula_units_Z   1
loop_
 _symmetry_equiv_pos_site_id
 _symmetry_equiv_pos_as_xyz
  1  'x, y, z'
loop_
 _atom_site_type_symbol
 _atom_site_label
 _atom_site_symmetry_multiplicity
 _atom_site_fract_x
 _atom_site_fract_y
 _atom_site_fract_z
 _atom_site_occupancy
  Dy  Dy0  1  0.013903  0.180441  0.101635  1
  Dy  Dy1  1  0.984898  0.821786  0.900052  1
  Dy  Dy2  1  0.487434  0.680750  0.899993  1
  Dy  Dy3  1  0.984898  0.821786  0.599948  1
  Dy  Dy4  1  0.513461  0.320065  0.101539  1
  Dy  Dy5  1  0.013903  0.180441  0.398365  1
  Dy  Dy6  1  0.513461  0.320065  0.398461  1
  Dy  Dy7  1  0.487434  0.680750  0.600007  1
  Er  Er8  1  0.162762  0.508018  0.750000  1
  Er  Er9  1  0.330640  0.173108  0.623580  1
  Er  Er10  1  0.670546  0.826221  0.375135  1
  Er  Er11  1  0.170480  0.673580  0.374920  1
  Er  Er12  1  0.670546  0.826221  0.124865  1
  Er  Er13  1  0.828864  0.324733  0.623419  1
  Er  Er14  1  0.330640  0.173108  0.876420  1
  Er  Er15  1  0.828864  0.324733  0.876581  1
  Er  Er16  1  0.170480  0.673580  0.125080  1
  Sc  Sc17  1  0.834734  0.491765  0.250000  1
  Sc  Sc18  1  0.335046  0.007710  0.250000  1
  Sc  Sc19  1  0.664627  0.992413  0.750000  1
  Ga  Ga20  1  0.160640  0.467331  0.538865  1
  Ga  Ga21  1  0.839265  0.531810  0.459072  1
  Ga  Ga22  1  0.339192  0.968210  0.458963  1
  Ga  Ga23  1  0.839265  0.531810  0.040928  1
  Ga  Ga24  1  0.660560  0.031075  0.540119  1
  Ga  Ga25  1  0.160640  0.467331  0.961135  1
  Ga  Ga26  1  0.660560  0.031075  0.959881  1
  Ga  Ga27  1  0.339192  0.968210  0.041037  1
  Si  Si28  1  0.029098  0.100599  0.750000  1
  Si  Si29  1  0.971444  0.898874  0.250000  1
  Si  Si30  1  0.471509  0.600826  0.250000  1
  Si  Si31  1  0.534297  0.394908  0.750000  1
  Si  Si32  1  0.283490  0.875200  0.750000  1
  Si  Si33  1  0.718341  0.131185  0.250000  1
  Si  Si34  1  0.218331  0.368458  0.250000  1
  Si  Si35  1  0.776553  0.631819  0.750000  1
