# generated using pymatgen
data_CaTbTmZn11
_symmetry_space_group_name_H-M   'P 1'
_cell_length_a   8.18843837
_cell_length_b   8.18843734
_cell_length_c   8.18843771
_cell_angle_alpha   148.37077182
_cell_angle_beta   115.42855869
_cell_angle_gamma   73.68936190
_symmetry_Int_Tables_number   1
_chemical_formula_structural   CaTbTmZn11
_chemical_formula_sum   'Ca1 Tb1 Tm1 Zn11'
_cell_volume   255.83520344
_cell_formula_units_Z   1
loop_
 _symmetry_equiv_pos_site_id
 _symmetry_equiv_pos_as_xyz
  1  'x, y, z'
loop_
 _atom_site_type_symbol
 _atom_site_label
 _atom_site_symmetry_multiplicity
 _atom_site_fract_x
 _atom_site_fract_y
 _atom_site_fract_z
 _atom_site_occupancy
  Ca  Ca0  1  0.999990  0.999990  0.000000  1
  Tb  Tb1  1  0.702287  0.702287  0.000000  1
  Tm  Tm2  1  0.298028  0.298028  0.000000  1
  Zn  Zn3  1  0.500106  0.000106  0.500000  1
  Zn  Zn4  1  0.678991  0.499539  0.179452  1
  Zn  Zn5  1  0.320087  0.499539  0.820548  1
  Zn  Zn6  1  0.693048  0.337760  0.355288  1
  Zn  Zn7  1  0.306072  0.662788  0.643284  1
  Zn  Zn8  1  0.982472  0.337760  0.644712  1
  Zn  Zn9  1  0.019504  0.662788  0.356716  1
  Zn  Zn10  1  0.421640  0.137357  0.284281  1
  Zn  Zn11  1  0.576718  0.862350  0.714369  1
  Zn  Zn12  1  0.853076  0.137357  0.715719  1
  Zn  Zn13  1  0.147981  0.862350  0.285631  1
