# generated using pymatgen
data_CaLu4Si6P6Ir19
_symmetry_space_group_name_H-M   'P 1'
_cell_length_a   12.77783600
_cell_length_b   12.77783636
_cell_length_c   3.92868500
_cell_angle_alpha   90.00000000
_cell_angle_beta   90.00000000
_cell_angle_gamma   119.99999906
_symmetry_Int_Tables_number   1
_chemical_formula_structural   CaLu4Si6P6Ir19
_chemical_formula_sum   'Ca1 Lu4 Si6 P6 Ir19'
_cell_volume   555.51076119
_cell_formula_units_Z   1
loop_
 _symmetry_equiv_pos_site_id
 _symmetry_equiv_pos_as_xyz
  1  'x, y, z'
loop_
 _atom_site_type_symbol
 _atom_site_label
 _atom_site_symmetry_multiplicity
 _atom_site_fract_x
 _atom_site_fract_y
 _atom_site_fract_z
 _atom_site_occupancy
  Ca  Ca0  1  0.666667  0.333333  0.500000  1
  Lu  Lu1  1  0.333333  0.666667  0.500000  1
  Lu  Lu2  1  0.002412  0.816877  0.000000  1
  Lu  Lu3  1  0.183123  0.185535  0.000000  1
  Lu  Lu4  1  0.814465  0.997588  0.000000  1
  Si  Si5  1  0.999898  0.635725  0.500000  1
  Si  Si6  1  0.364275  0.364174  0.500000  1
  Si  Si7  1  0.635826  0.000102  0.500000  1
  Si  Si8  1  0.518771  0.681714  0.000000  1
  Si  Si9  1  0.318286  0.837056  0.000000  1
  Si  Si10  1  0.162944  0.481229  0.000000  1
  P  P11  1  0.484542  0.178051  0.000000  1
  P  P12  1  0.693511  0.515458  0.000000  1
  P  P13  1  0.821949  0.306489  0.000000  1
  P  P14  1  0.996031  0.175784  0.500000  1
  P  P15  1  0.824216  0.820245  0.500000  1
  P  P16  1  0.179755  0.003969  0.500000  1
  Ir  Ir17  1  0.514544  0.867163  0.000000  1
  Ir  Ir18  1  0.132837  0.647382  0.000000  1
  Ir  Ir19  1  0.352618  0.485456  0.000000  1
  Ir  Ir20  1  0.491587  0.367719  0.000000  1
  Ir  Ir21  1  0.876133  0.508413  0.000000  1
  Ir  Ir22  1  0.632281  0.123867  0.000000  1
  Ir  Ir23  1  0.015648  0.457769  0.500000  1
  Ir  Ir24  1  0.542231  0.557879  0.500000  1
  Ir  Ir25  1  0.442121  0.984352  0.500000  1
  Ir  Ir26  1  0.993861  0.277275  0.000000  1
  Ir  Ir27  1  0.722725  0.716585  0.000000  1
  Ir  Ir28  1  0.283415  0.006139  0.000000  1
  Ir  Ir29  1  0.634983  0.811317  0.500000  1
  Ir  Ir30  1  0.188683  0.823666  0.500000  1
  Ir  Ir31  1  0.176334  0.365017  0.500000  1
  Ir  Ir32  1  0.379182  0.181966  0.500000  1
  Ir  Ir33  1  0.802784  0.620818  0.500000  1
  Ir  Ir34  1  0.818034  0.197216  0.500000  1
  Ir  Ir35  1  0.000000  0.000000  0.500000  1
