# generated using pymatgen
data_Lu16In4PdRh3
_symmetry_space_group_name_H-M   'P 1'
_cell_length_a   9.48849927
_cell_length_b   9.48849912
_cell_length_c   9.48849803
_cell_angle_alpha   59.81757313
_cell_angle_beta   59.81757523
_cell_angle_gamma   59.81757638
_symmetry_Int_Tables_number   1
_chemical_formula_structural   Lu16In4PdRh3
_chemical_formula_sum   'Lu16 In4 Pd1 Rh3'
_cell_volume   601.55519827
_cell_formula_units_Z   1
loop_
 _symmetry_equiv_pos_site_id
 _symmetry_equiv_pos_as_xyz
  1  'x, y, z'
loop_
 _atom_site_type_symbol
 _atom_site_label
 _atom_site_symmetry_multiplicity
 _atom_site_fract_x
 _atom_site_fract_y
 _atom_site_fract_z
 _atom_site_occupancy
  Lu  Lu0  1  0.599264  0.599264  0.599264  1
  Lu  Lu1  1  0.603413  0.603413  0.197138  1
  Lu  Lu2  1  0.603413  0.197138  0.603413  1
  Lu  Lu3  1  0.197138  0.603413  0.603413  1
  Lu  Lu4  1  0.056376  0.438936  0.438936  1
  Lu  Lu5  1  0.438696  0.061263  0.061263  1
  Lu  Lu6  1  0.438936  0.056376  0.438936  1
  Lu  Lu7  1  0.061263  0.438696  0.061263  1
  Lu  Lu8  1  0.438936  0.438936  0.056376  1
  Lu  Lu9  1  0.061263  0.061263  0.438696  1
  Lu  Lu10  1  0.187732  0.812054  0.812054  1
  Lu  Lu11  1  0.814115  0.187600  0.187600  1
  Lu  Lu12  1  0.812054  0.187732  0.812054  1
  Lu  Lu13  1  0.187600  0.814115  0.187600  1
  Lu  Lu14  1  0.812054  0.812054  0.187732  1
  Lu  Lu15  1  0.187600  0.187600  0.814115  1
  In  In16  1  0.833723  0.833723  0.833723  1
  In  In17  1  0.833636  0.833636  0.499033  1
  In  In18  1  0.833636  0.499033  0.833636  1
  In  In19  1  0.499033  0.833636  0.833636  1
  Pd  Pd20  1  0.393340  0.393340  0.393340  1
  Rh  Rh21  1  0.392879  0.392879  0.821023  1
  Rh  Rh22  1  0.392879  0.821023  0.392879  1
  Rh  Rh23  1  0.821023  0.392879  0.392879  1
