# generated using pymatgen
data_Dy4Tm4Sc12Si15Hg
_symmetry_space_group_name_H-M   'P 1'
_cell_length_a   7.10872829
_cell_length_b   7.37512577
_cell_length_c   14.04444611
_cell_angle_alpha   89.95098525
_cell_angle_beta   89.58810993
_cell_angle_gamma   90.20190068
_symmetry_Int_Tables_number   1
_chemical_formula_structural   Dy4Tm4Sc12Si15Hg
_chemical_formula_sum   'Dy4 Tm4 Sc12 Si15 Hg1'
_cell_volume   736.29503999
_cell_formula_units_Z   1
loop_
 _symmetry_equiv_pos_site_id
 _symmetry_equiv_pos_as_xyz
  1  'x, y, z'
loop_
 _atom_site_type_symbol
 _atom_site_label
 _atom_site_symmetry_multiplicity
 _atom_site_fract_x
 _atom_site_fract_y
 _atom_site_fract_z
 _atom_site_occupancy
  Dy  Dy0  1  0.011981  0.175931  0.097210  1
  Dy  Dy1  1  0.987666  0.825141  0.904705  1
  Dy  Dy2  1  0.487765  0.676507  0.904726  1
  Dy  Dy3  1  0.988633  0.830807  0.597408  1
  Tm  Tm4  1  0.511887  0.322989  0.096979  1
  Tm  Tm5  1  0.007750  0.172247  0.397869  1
  Tm  Tm6  1  0.511220  0.321703  0.399186  1
  Tm  Tm7  1  0.496544  0.682010  0.599723  1
  Sc  Sc8  1  0.162466  0.501608  0.753853  1
  Sc  Sc9  1  0.836943  0.497710  0.250305  1
  Sc  Sc10  1  0.337788  0.001990  0.249110  1
  Sc  Sc11  1  0.664408  0.996290  0.751349  1
  Sc  Sc12  1  0.341715  0.168405  0.628598  1
  Sc  Sc13  1  0.664535  0.824675  0.372789  1
  Sc  Sc14  1  0.167208  0.677564  0.370678  1
  Sc  Sc15  1  0.669482  0.823699  0.124861  1
  Sc  Sc16  1  0.825679  0.325064  0.625806  1
  Sc  Sc17  1  0.329446  0.175343  0.876118  1
  Sc  Sc18  1  0.829669  0.322995  0.876204  1
  Sc  Sc19  1  0.169451  0.676240  0.125315  1
  Si  Si20  1  0.035387  0.119998  0.751396  1
  Si  Si21  1  0.965060  0.884874  0.248364  1
  Si  Si22  1  0.466864  0.613391  0.248065  1
  Si  Si23  1  0.533642  0.386893  0.751690  1
  Si  Si24  1  0.285165  0.871500  0.751125  1
  Si  Si25  1  0.712118  0.129578  0.248463  1
  Si  Si26  1  0.214054  0.369936  0.248569  1
  Si  Si27  1  0.787667  0.628146  0.752030  1
  Si  Si28  1  0.831102  0.536858  0.458572  1
  Si  Si29  1  0.338500  0.963522  0.459396  1
  Si  Si30  1  0.841994  0.534789  0.039387  1
  Si  Si31  1  0.659343  0.037296  0.536990  1
  Si  Si32  1  0.156646  0.463853  0.962562  1
  Si  Si33  1  0.656123  0.036053  0.961469  1
  Si  Si34  1  0.343475  0.965822  0.040329  1
  Hg  Hg35  1  0.170624  0.458572  0.538803  1
