# generated using pymatgen
data_Na3Mn(IO3)6
_symmetry_space_group_name_H-M   'P 1'
_cell_length_a   6.74143122
_cell_length_b   7.09554775
_cell_length_c   10.36007956
_cell_angle_alpha   99.37095511
_cell_angle_beta   109.08079137
_cell_angle_gamma   101.70375157
_symmetry_Int_Tables_number   1
_chemical_formula_structural   Na3Mn(IO3)6
_chemical_formula_sum   'Na3 Mn1 I6 O18'
_cell_volume   444.32089891
_cell_formula_units_Z   1
loop_
 _symmetry_equiv_pos_site_id
 _symmetry_equiv_pos_as_xyz
  1  'x, y, z'
loop_
 _atom_site_type_symbol
 _atom_site_label
 _atom_site_symmetry_multiplicity
 _atom_site_fract_x
 _atom_site_fract_y
 _atom_site_fract_z
 _atom_site_occupancy
  Na  Na0  1  0.390056  0.530544  0.297050  1
  Na  Na1  1  0.609944  0.469456  0.702950  1
  Na  Na2  1  0.000000  0.500000  0.500000  1
  Mn  Mn3  1  0.000000  0.000000  0.000000  1
  I  I4  1  0.562245  0.038836  0.201288  1
  I  I5  1  0.437755  0.961164  0.798712  1
  I  I6  1  0.790782  0.531893  0.106797  1
  I  I7  1  0.209218  0.468107  0.893203  1
  I  I8  1  0.150008  0.066315  0.382387  1
  I  I9  1  0.849992  0.933685  0.617613  1
  O  O10  1  0.587807  0.655246  0.137126  1
  O  O11  1  0.412193  0.344754  0.862874  1
  O  O12  1  0.980595  0.359841  0.722986  1
  O  O13  1  0.019405  0.640159  0.277014  1
  O  O14  1  0.605773  0.307655  0.252258  1
  O  O15  1  0.394227  0.692345  0.747742  1
  O  O16  1  0.050318  0.106653  0.200751  1
  O  O17  1  0.949682  0.893347  0.799249  1
  O  O18  1  0.296155  0.968088  0.040362  1
  O  O19  1  0.703845  0.031912  0.959638  1
  O  O20  1  0.303267  0.323907  0.469426  1
  O  O21  1  0.696733  0.676093  0.530574  1
  O  O22  1  0.889594  0.094479  0.403527  1
  O  O23  1  0.110406  0.905521  0.596473  1
  O  O24  1  0.557108  0.043482  0.674580  1
  O  O25  1  0.442892  0.956518  0.325420  1
  O  O26  1  0.117201  0.325515  0.006855  1
  O  O27  1  0.882799  0.674485  0.993145  1
