# generated using pymatgen
data_Tb2Th2TiAl7
_symmetry_space_group_name_H-M   'P 1'
_cell_length_a   5.61722900
_cell_length_b   5.61722960
_cell_length_c   9.24552700
_cell_angle_alpha   90.00000000
_cell_angle_beta   90.00000000
_cell_angle_gamma   119.99999055
_symmetry_Int_Tables_number   1
_chemical_formula_structural   Tb2Th2TiAl7
_chemical_formula_sum   'Tb2 Th2 Ti1 Al7'
_cell_volume   252.64263930
_cell_formula_units_Z   1
loop_
 _symmetry_equiv_pos_site_id
 _symmetry_equiv_pos_as_xyz
  1  'x, y, z'
loop_
 _atom_site_type_symbol
 _atom_site_label
 _atom_site_symmetry_multiplicity
 _atom_site_fract_x
 _atom_site_fract_y
 _atom_site_fract_z
 _atom_site_occupancy
  Tb  Tb0  1  0.666667  0.333333  0.435373  1
  Tb  Tb1  1  0.333333  0.666667  0.564627  1
  Th  Th2  1  0.333333  0.666667  0.945487  1
  Th  Th3  1  0.666667  0.333333  0.054513  1
  Ti  Ti4  1  0.000000  0.000000  0.000000  1
  Al  Al5  1  0.000000  0.000000  0.500000  1
  Al  Al6  1  0.663177  0.831589  0.255827  1
  Al  Al7  1  0.168411  0.831589  0.255827  1
  Al  Al8  1  0.168411  0.336823  0.255827  1
  Al  Al9  1  0.336823  0.168411  0.744173  1
  Al  Al10  1  0.831589  0.168411  0.744173  1
  Al  Al11  1  0.831589  0.663177  0.744173  1
