# generated using pymatgen
data_Tb16MgCd3(IrPd)2
_symmetry_space_group_name_H-M   'P 1'
_cell_length_a   9.72948713
_cell_length_b   9.72948664
_cell_length_c   9.69565393
_cell_angle_alpha   60.00335347
_cell_angle_beta   60.00335503
_cell_angle_gamma   60.28731689
_symmetry_Int_Tables_number   1
_chemical_formula_structural   Tb16MgCd3(IrPd)2
_chemical_formula_sum   'Tb16 Mg1 Cd3 Ir2 Pd2'
_cell_volume   650.42654062
_cell_formula_units_Z   1
loop_
 _symmetry_equiv_pos_site_id
 _symmetry_equiv_pos_as_xyz
  1  'x, y, z'
loop_
 _atom_site_type_symbol
 _atom_site_label
 _atom_site_symmetry_multiplicity
 _atom_site_fract_x
 _atom_site_fract_y
 _atom_site_fract_z
 _atom_site_occupancy
  Tb  Tb0  1  0.600108  0.600108  0.595733  1
  Tb  Tb1  1  0.601633  0.601633  0.202099  1
  Tb  Tb2  1  0.607515  0.193627  0.600805  1
  Tb  Tb3  1  0.193627  0.607515  0.600805  1
  Tb  Tb4  1  0.054474  0.442486  0.439794  1
  Tb  Tb5  1  0.439009  0.057340  0.065191  1
  Tb  Tb6  1  0.442486  0.054474  0.439794  1
  Tb  Tb7  1  0.057340  0.439009  0.065191  1
  Tb  Tb8  1  0.442196  0.442196  0.058051  1
  Tb  Tb9  1  0.062315  0.062315  0.436637  1
  Tb  Tb10  1  0.187965  0.817597  0.812213  1
  Tb  Tb11  1  0.815423  0.187435  0.186304  1
  Tb  Tb12  1  0.817597  0.187965  0.812213  1
  Tb  Tb13  1  0.187435  0.815423  0.186304  1
  Tb  Tb14  1  0.814693  0.814693  0.187167  1
  Tb  Tb15  1  0.186889  0.186889  0.812356  1
  Mg  Mg16  1  0.826271  0.826271  0.827218  1
  Cd  Cd17  1  0.831395  0.831395  0.503670  1
  Cd  Cd18  1  0.830359  0.504893  0.831758  1
  Cd  Cd19  1  0.504893  0.830359  0.831758  1
  Ir  Ir20  1  0.390426  0.822324  0.394045  1
  Ir  Ir21  1  0.822324  0.390426  0.394045  1
  Pd  Pd22  1  0.392097  0.392097  0.396505  1
  Pd  Pd23  1  0.391534  0.391534  0.820345  1
