# generated using pymatgen
data_Yb2CdIr4PbO14
_symmetry_space_group_name_H-M   'P 1'
_cell_length_a   7.34580167
_cell_length_b   7.27222475
_cell_length_c   7.22983419
_cell_angle_alpha   59.15246148
_cell_angle_beta   59.46796407
_cell_angle_gamma   59.66475225
_symmetry_Int_Tables_number   1
_chemical_formula_structural   Yb2CdIr4PbO14
_chemical_formula_sum   'Yb2 Cd1 Ir4 Pb1 O14'
_cell_volume   269.53588586
_cell_formula_units_Z   1
loop_
 _symmetry_equiv_pos_site_id
 _symmetry_equiv_pos_as_xyz
  1  'x, y, z'
loop_
 _atom_site_type_symbol
 _atom_site_label
 _atom_site_symmetry_multiplicity
 _atom_site_fract_x
 _atom_site_fract_y
 _atom_site_fract_z
 _atom_site_occupancy
  Yb  Yb0  1  0.625000  0.125000  0.125000  1
  Yb  Yb1  1  0.125000  0.125000  0.125000  1
  Cd  Cd2  1  0.125000  0.125000  0.625000  1
  Ir  Ir3  1  0.125000  0.625000  0.625000  1
  Ir  Ir4  1  0.625000  0.125000  0.625000  1
  Ir  Ir5  1  0.625000  0.625000  0.125000  1
  Ir  Ir6  1  0.625000  0.625000  0.625000  1
  Pb  Pb7  1  0.125000  0.625000  0.125000  1
  O  O8  1  0.711447  0.696412  0.294802  1
  O  O9  1  0.299945  0.300950  0.701576  1
  O  O10  1  0.697529  0.300950  0.701576  1
  O  O11  1  0.297338  0.696412  0.294802  1
  O  O12  1  0.300572  0.687612  0.711244  1
  O  O13  1  0.707080  0.294701  0.291139  1
  O  O14  1  0.538553  0.553588  0.955198  1
  O  O15  1  0.950055  0.949050  0.548424  1
  O  O16  1  0.552471  0.949050  0.548424  1
  O  O17  1  0.952662  0.553588  0.955198  1
  O  O18  1  0.949428  0.562388  0.538756  1
  O  O19  1  0.542920  0.955299  0.958861  1
  O  O20  1  0.244638  0.252182  0.258543  1
  O  O21  1  0.005362  0.997818  0.991457  1
