# generated using pymatgen
data_HfZr3(SiRh5)2
_symmetry_space_group_name_H-M   'P 1'
_cell_length_a   4.05657600
_cell_length_b   5.58448230
_cell_length_c   10.89348058
_cell_angle_alpha   89.96270197
_cell_angle_beta   90.00000000
_cell_angle_gamma   90.00000000
_symmetry_Int_Tables_number   1
_chemical_formula_structural   HfZr3(SiRh5)2
_chemical_formula_sum   'Hf1 Zr3 Si2 Rh10'
_cell_volume   246.77951521
_cell_formula_units_Z   1
loop_
 _symmetry_equiv_pos_site_id
 _symmetry_equiv_pos_as_xyz
  1  'x, y, z'
loop_
 _atom_site_type_symbol
 _atom_site_label
 _atom_site_symmetry_multiplicity
 _atom_site_fract_x
 _atom_site_fract_y
 _atom_site_fract_z
 _atom_site_occupancy
  Hf  Hf0  1  0.500000  0.324229  0.140987  1
  Zr  Zr1  1  0.500000  0.176492  0.640701  1
  Zr  Zr2  1  0.500000  0.823358  0.359023  1
  Zr  Zr3  1  0.500000  0.676243  0.859397  1
  Si  Si4  1  0.000000  0.499916  0.499885  1
  Si  Si5  1  0.000000  0.000148  0.000276  1
  Rh  Rh6  1  0.500000  0.180109  0.898695  1
  Rh  Rh7  1  0.500000  0.820286  0.102603  1
  Rh  Rh8  1  0.500000  0.679786  0.602402  1
  Rh  Rh9  1  0.500000  0.320103  0.396724  1
  Rh  Rh10  1  0.000000  0.429898  0.741249  1
  Rh  Rh11  1  0.000000  0.569230  0.258060  1
  Rh  Rh12  1  0.000000  0.000137  0.500000  1
  Rh  Rh13  1  0.000000  0.497943  0.001147  1
  Rh  Rh14  1  0.000000  0.072048  0.239852  1
  Rh  Rh15  1  0.000000  0.930074  0.758998  1
