# generated using pymatgen
data_Ho2ErTm9Rh4
_symmetry_space_group_name_H-M   'P 1'
_cell_length_a   6.25946110
_cell_length_b   7.11615582
_cell_length_c   9.25549100
_cell_angle_alpha   90.00000000
_cell_angle_beta   90.00000000
_cell_angle_gamma   89.96239503
_symmetry_Int_Tables_number   1
_chemical_formula_structural   Ho2ErTm9Rh4
_chemical_formula_sum   'Ho2 Er1 Tm9 Rh4'
_cell_volume   412.27002832
_cell_formula_units_Z   1
loop_
 _symmetry_equiv_pos_site_id
 _symmetry_equiv_pos_as_xyz
  1  'x, y, z'
loop_
 _atom_site_type_symbol
 _atom_site_label
 _atom_site_symmetry_multiplicity
 _atom_site_fract_x
 _atom_site_fract_y
 _atom_site_fract_z
 _atom_site_occupancy
  Ho  Ho0  1  0.368427  0.533704  0.250000  1
  Ho  Ho1  1  0.631889  0.466222  0.750000  1
  Er  Er2  1  0.131800  0.033740  0.250000  1
  Tm  Tm3  1  0.673227  0.178293  0.062842  1
  Tm  Tm4  1  0.172500  0.321222  0.936990  1
  Tm  Tm5  1  0.827486  0.678860  0.437131  1
  Tm  Tm6  1  0.326636  0.821702  0.563113  1
  Tm  Tm7  1  0.326636  0.821702  0.936887  1
  Tm  Tm8  1  0.827486  0.678860  0.062869  1
  Tm  Tm9  1  0.172500  0.321222  0.563010  1
  Tm  Tm10  1  0.673227  0.178293  0.437158  1
  Tm  Tm11  1  0.867953  0.965841  0.750000  1
  Rh  Rh12  1  0.052125  0.616308  0.750000  1
  Rh  Rh13  1  0.552379  0.884761  0.250000  1
  Rh  Rh14  1  0.448282  0.115050  0.750000  1
  Rh  Rh15  1  0.947446  0.384220  0.250000  1
