# generated using pymatgen
data_Tb2B6Ir8Rh
_symmetry_space_group_name_H-M   'P 1'
_cell_length_a   5.64267720
_cell_length_b   5.64267576
_cell_length_c   8.64513000
_cell_angle_alpha   90.00000000
_cell_angle_beta   90.00000000
_cell_angle_gamma   119.92516524
_symmetry_Int_Tables_number   1
_chemical_formula_structural   Tb2B6Ir8Rh
_chemical_formula_sum   'Tb2 B6 Ir8 Rh1'
_cell_volume   238.56100927
_cell_formula_units_Z   1
loop_
 _symmetry_equiv_pos_site_id
 _symmetry_equiv_pos_as_xyz
  1  'x, y, z'
loop_
 _atom_site_type_symbol
 _atom_site_label
 _atom_site_symmetry_multiplicity
 _atom_site_fract_x
 _atom_site_fract_y
 _atom_site_fract_z
 _atom_site_occupancy
  Tb  Tb0  1  0.000000  0.000000  0.701899  1
  Tb  Tb1  1  0.000000  0.000000  0.298497  1
  B  B2  1  0.666785  0.333215  0.999795  1
  B  B3  1  0.333215  0.666785  0.999795  1
  B  B4  1  0.666744  0.333256  0.667749  1
  B  B5  1  0.333256  0.666744  0.667749  1
  B  B6  1  0.333222  0.666778  0.332178  1
  B  B7  1  0.666778  0.333222  0.332178  1
  Ir  Ir8  1  0.500000  0.500000  0.836614  1
  Ir  Ir9  1  0.500000  0.000000  0.836459  1
  Ir  Ir10  1  0.000000  0.500000  0.836459  1
  Ir  Ir11  1  0.500000  0.000000  0.163906  1
  Ir  Ir12  1  0.000000  0.500000  0.163906  1
  Ir  Ir13  1  0.500000  0.500000  0.499125  1
  Ir  Ir14  1  0.500000  0.000000  0.499792  1
  Ir  Ir15  1  0.000000  0.500000  0.499792  1
  Rh  Rh16  1  0.500000  0.500000  0.164110  1
