# generated using pymatgen
data_Dy4Sc4Rh3Au
_symmetry_space_group_name_H-M   'P 1'
_cell_length_a   4.49073400
_cell_length_b   7.06348855
_cell_length_c   8.53787533
_cell_angle_alpha   89.89559466
_cell_angle_beta   90.00000000
_cell_angle_gamma   90.00000000
_symmetry_Int_Tables_number   1
_chemical_formula_structural   Dy4Sc4Rh3Au
_chemical_formula_sum   'Dy4 Sc4 Rh3 Au1'
_cell_volume   270.82307476
_cell_formula_units_Z   1
loop_
 _symmetry_equiv_pos_site_id
 _symmetry_equiv_pos_as_xyz
  1  'x, y, z'
loop_
 _atom_site_type_symbol
 _atom_site_label
 _atom_site_symmetry_multiplicity
 _atom_site_fract_x
 _atom_site_fract_y
 _atom_site_fract_z
 _atom_site_occupancy
  Dy  Dy0  1  0.250000  0.016814  0.327490  1
  Dy  Dy1  1  0.250000  0.528820  0.179489  1
  Dy  Dy2  1  0.750000  0.981685  0.670871  1
  Dy  Dy3  1  0.750000  0.484776  0.821193  1
  Sc  Sc4  1  0.250000  0.134801  0.921186  1
  Sc  Sc5  1  0.250000  0.638996  0.571454  1
  Sc  Sc6  1  0.750000  0.855375  0.066496  1
  Sc  Sc7  1  0.750000  0.361541  0.431797  1
  Rh  Rh8  1  0.250000  0.256431  0.596197  1
  Rh  Rh9  1  0.250000  0.752641  0.904815  1
  Rh  Rh10  1  0.750000  0.743509  0.403258  1
  Au  Au11  1  0.750000  0.244611  0.105754  1
