# generated using pymatgen
data_YbNb8CrSe16
_symmetry_space_group_name_H-M   'P 1'
_cell_length_a   7.00351400
_cell_length_b   7.00351483
_cell_length_c   13.79596500
_cell_angle_alpha   90.00000000
_cell_angle_beta   90.00000000
_cell_angle_gamma   119.99999607
_symmetry_Int_Tables_number   1
_chemical_formula_structural   YbNb8CrSe16
_chemical_formula_sum   'Yb1 Nb8 Cr1 Se16'
_cell_volume   586.02316903
_cell_formula_units_Z   1
loop_
 _symmetry_equiv_pos_site_id
 _symmetry_equiv_pos_as_xyz
  1  'x, y, z'
loop_
 _atom_site_type_symbol
 _atom_site_label
 _atom_site_symmetry_multiplicity
 _atom_site_fract_x
 _atom_site_fract_y
 _atom_site_fract_z
 _atom_site_occupancy
  Yb  Yb0  1  0.000000  0.000000  0.500000  1
  Nb  Nb1  1  0.000000  0.000000  0.232012  1
  Nb  Nb2  1  0.000000  0.000000  0.767988  1
  Nb  Nb3  1  0.507046  0.014092  0.230948  1
  Nb  Nb4  1  0.985908  0.492954  0.230948  1
  Nb  Nb5  1  0.507046  0.492954  0.230948  1
  Nb  Nb6  1  0.492954  0.985908  0.769052  1
  Nb  Nb7  1  0.014092  0.507046  0.769052  1
  Nb  Nb8  1  0.492954  0.507046  0.769052  1
  Cr  Cr9  1  0.000000  0.000000  0.000000  1
  Se  Se10  1  0.333333  0.666667  0.893620  1
  Se  Se11  1  0.666667  0.333333  0.106380  1
  Se  Se12  1  0.666667  0.333333  0.357672  1
  Se  Se13  1  0.333333  0.666667  0.642328  1
  Se  Se14  1  0.169107  0.830893  0.351976  1
  Se  Se15  1  0.169107  0.338215  0.351976  1
  Se  Se16  1  0.661785  0.830893  0.351976  1
  Se  Se17  1  0.830893  0.169107  0.648024  1
  Se  Se18  1  0.830893  0.661785  0.648024  1
  Se  Se19  1  0.338215  0.169107  0.648024  1
  Se  Se20  1  0.832835  0.167165  0.888821  1
  Se  Se21  1  0.832835  0.665671  0.888821  1
  Se  Se22  1  0.334329  0.167165  0.888821  1
  Se  Se23  1  0.167165  0.832835  0.111179  1
  Se  Se24  1  0.167165  0.334329  0.111179  1
  Se  Se25  1  0.665671  0.832835  0.111179  1
