# generated using pymatgen
data_Na2B2S7
_symmetry_space_group_name_H-M   'P 1'
_cell_length_a   7.89385694
_cell_length_b   7.89385813
_cell_length_c   11.37787947
_cell_angle_alpha   61.77608609
_cell_angle_beta   61.77607911
_cell_angle_gamma   48.53533350
_symmetry_Int_Tables_number   1
_chemical_formula_structural   Na2B2S7
_chemical_formula_sum   'Na4 B4 S14'
_cell_volume   454.21213399
_cell_formula_units_Z   2
loop_
 _symmetry_equiv_pos_site_id
 _symmetry_equiv_pos_as_xyz
  1  'x, y, z'
loop_
 _atom_site_type_symbol
 _atom_site_label
 _atom_site_symmetry_multiplicity
 _atom_site_fract_x
 _atom_site_fract_y
 _atom_site_fract_z
 _atom_site_occupancy
  Na  Na0  1  0.666648  0.124107  0.030874  1
  Na  Na1  1  0.124107  0.666648  0.530874  1
  Na  Na2  1  0.333352  0.875893  0.969126  1
  Na  Na3  1  0.875893  0.333352  0.469126  1
  B  B4  1  0.836912  0.397945  0.149031  1
  B  B5  1  0.602055  0.163088  0.350969  1
  B  B6  1  0.163088  0.602055  0.850969  1
  B  B7  1  0.397945  0.836912  0.649031  1
  S  S8  1  0.528725  0.471275  0.250000  1
  S  S9  1  0.088941  0.071751  0.727012  1
  S  S10  1  0.928249  0.911059  0.772988  1
  S  S11  1  0.911059  0.928249  0.272988  1
  S  S12  1  0.440247  0.823618  0.473281  1
  S  S13  1  0.471275  0.528725  0.750000  1
  S  S14  1  0.176382  0.559753  0.026719  1
  S  S15  1  0.559753  0.176382  0.526719  1
  S  S16  1  0.823618  0.440247  0.973281  1
  S  S17  1  0.616074  0.856314  0.663589  1
  S  S18  1  0.856314  0.616074  0.163589  1
  S  S19  1  0.383926  0.143686  0.336411  1
  S  S20  1  0.143686  0.383926  0.836411  1
  S  S21  1  0.071751  0.088941  0.227012  1
