# generated using pymatgen
data_LiDy8Al(SiB4)4
_symmetry_space_group_name_H-M   'P 1'
_cell_length_a   7.14425300
_cell_length_b   7.14425300
_cell_length_c   7.78382800
_cell_angle_alpha   90.00000000
_cell_angle_beta   90.00000000
_cell_angle_gamma   90.00000000
_symmetry_Int_Tables_number   1
_chemical_formula_structural   LiDy8Al(SiB4)4
_chemical_formula_sum   'Li1 Dy8 Al1 Si4 B16'
_cell_volume   397.28931268
_cell_formula_units_Z   1
loop_
 _symmetry_equiv_pos_site_id
 _symmetry_equiv_pos_as_xyz
  1  'x, y, z'
loop_
 _atom_site_type_symbol
 _atom_site_label
 _atom_site_symmetry_multiplicity
 _atom_site_fract_x
 _atom_site_fract_y
 _atom_site_fract_z
 _atom_site_occupancy
  Li  Li0  1  0.500000  0.500000  0.500000  1
  Dy  Dy1  1  0.682543  0.183967  0.234777  1
  Dy  Dy2  1  0.317457  0.816033  0.765223  1
  Dy  Dy3  1  0.317457  0.816033  0.234777  1
  Dy  Dy4  1  0.816033  0.682543  0.234777  1
  Dy  Dy5  1  0.816033  0.682543  0.765223  1
  Dy  Dy6  1  0.682543  0.183967  0.765223  1
  Dy  Dy7  1  0.183967  0.317457  0.765223  1
  Dy  Dy8  1  0.183967  0.317457  0.234777  1
  Al  Al9  1  0.000000  0.000000  0.500000  1
  Si  Si10  1  0.114582  0.617253  0.500000  1
  Si  Si11  1  0.885418  0.382747  0.500000  1
  Si  Si12  1  0.382747  0.114582  0.500000  1
  Si  Si13  1  0.617253  0.885418  0.500000  1
  B  B14  1  0.173955  0.040126  0.000000  1
  B  B15  1  0.826045  0.959874  0.000000  1
  B  B16  1  0.959874  0.173955  0.000000  1
  B  B17  1  0.325822  0.539480  0.000000  1
  B  B18  1  0.040126  0.826045  0.000000  1
  B  B19  1  0.674178  0.460520  0.000000  1
  B  B20  1  0.539480  0.674178  0.000000  1
  B  B21  1  0.460520  0.325822  0.000000  1
  B  B22  1  0.089648  0.589025  0.000000  1
  B  B23  1  0.910352  0.410975  0.000000  1
  B  B24  1  0.410975  0.089648  0.000000  1
  B  B25  1  0.589025  0.910352  0.000000  1
  B  B26  1  0.000000  0.000000  0.164845  1
  B  B27  1  0.000000  0.000000  0.835155  1
  B  B28  1  0.500000  0.500000  0.838442  1
  B  B29  1  0.500000  0.500000  0.161558  1
