# generated using pymatgen
data_Sr2Ce2H11
_symmetry_space_group_name_H-M   'P 1'
_cell_length_a   6.74942756
_cell_length_b   6.74942713
_cell_length_c   6.74942766
_cell_angle_alpha   131.54372181
_cell_angle_beta   131.54371709
_cell_angle_gamma   70.95063526
_symmetry_Int_Tables_number   1
_chemical_formula_structural   Sr2Ce2H11
_chemical_formula_sum   'Sr2 Ce2 H11'
_cell_volume   168.66829742
_cell_formula_units_Z   1
loop_
 _symmetry_equiv_pos_site_id
 _symmetry_equiv_pos_as_xyz
  1  'x, y, z'
loop_
 _atom_site_type_symbol
 _atom_site_label
 _atom_site_symmetry_multiplicity
 _atom_site_fract_x
 _atom_site_fract_y
 _atom_site_fract_z
 _atom_site_occupancy
  Sr  Sr0  1  0.259875  0.259875  0.000000  1
  Sr  Sr1  1  0.740125  0.740125  0.000000  1
  Ce  Ce2  1  0.500000  0.000000  0.500000  1
  Ce  Ce3  1  0.000000  0.500000  0.500000  1
  H  H4  1  0.665953  0.122835  0.000000  1
  H  H5  1  0.334047  0.334047  0.456882  1
  H  H6  1  0.122835  0.665953  0.000000  1
  H  H7  1  0.877165  0.877165  0.543118  1
  H  H8  1  0.877165  0.334047  0.000000  1
  H  H9  1  0.665953  0.665953  0.543118  1
  H  H10  1  0.334047  0.877165  0.000000  1
  H  H11  1  0.122835  0.122835  0.456882  1
  H  H12  1  0.750000  0.250000  0.500000  1
  H  H13  1  0.500000  0.500000  0.000000  1
  H  H14  1  0.250000  0.750000  0.500000  1
