# generated using pymatgen
data_Sc20Al6CoRu
_symmetry_space_group_name_H-M   'P 1'
_cell_length_a   8.84684000
_cell_length_b   8.84683984
_cell_length_c   8.92582600
_cell_angle_alpha   90.00000000
_cell_angle_beta   90.00000000
_cell_angle_gamma   120.00000059
_symmetry_Int_Tables_number   1
_chemical_formula_structural   Sc20Al6CoRu
_chemical_formula_sum   'Sc20 Al6 Co1 Ru1'
_cell_volume   605.00001238
_cell_formula_units_Z   1
loop_
 _symmetry_equiv_pos_site_id
 _symmetry_equiv_pos_as_xyz
  1  'x, y, z'
loop_
 _atom_site_type_symbol
 _atom_site_label
 _atom_site_symmetry_multiplicity
 _atom_site_fract_x
 _atom_site_fract_y
 _atom_site_fract_z
 _atom_site_occupancy
  Sc  Sc0  1  0.000000  0.000000  0.499256  1
  Sc  Sc1  1  0.000000  0.000000  0.000744  1
  Sc  Sc2  1  0.209272  0.790728  0.437645  1
  Sc  Sc3  1  0.209272  0.418544  0.437645  1
  Sc  Sc4  1  0.581456  0.790728  0.437645  1
  Sc  Sc5  1  0.793178  0.206822  0.557596  1
  Sc  Sc6  1  0.793178  0.586356  0.557596  1
  Sc  Sc7  1  0.413644  0.206822  0.557596  1
  Sc  Sc8  1  0.793178  0.206822  0.942404  1
  Sc  Sc9  1  0.793178  0.586356  0.942404  1
  Sc  Sc10  1  0.413644  0.206822  0.942404  1
  Sc  Sc11  1  0.209272  0.790728  0.062355  1
  Sc  Sc12  1  0.209272  0.418544  0.062355  1
  Sc  Sc13  1  0.581456  0.790728  0.062355  1
  Sc  Sc14  1  0.541080  0.458920  0.250000  1
  Sc  Sc15  1  0.541080  0.082160  0.250000  1
  Sc  Sc16  1  0.917840  0.458920  0.250000  1
  Sc  Sc17  1  0.459563  0.540437  0.750000  1
  Sc  Sc18  1  0.459563  0.919127  0.750000  1
  Sc  Sc19  1  0.080873  0.540437  0.750000  1
  Al  Al20  1  0.887257  0.112743  0.250000  1
  Al  Al21  1  0.887257  0.774515  0.250000  1
  Al  Al22  1  0.225485  0.112743  0.250000  1
  Al  Al23  1  0.112269  0.887731  0.750000  1
  Al  Al24  1  0.112269  0.224538  0.750000  1
  Al  Al25  1  0.775462  0.887731  0.750000  1
  Co  Co26  1  0.333333  0.666667  0.250000  1
  Ru  Ru27  1  0.666667  0.333333  0.750000  1
