# generated using pymatgen
data_Th2Zn3Cu8Au
_symmetry_space_group_name_H-M   'P 1'
_cell_length_a   5.11512000
_cell_length_b   8.24064584
_cell_length_c   10.46512482
_cell_angle_alpha   90.17006211
_cell_angle_beta   90.00000000
_cell_angle_gamma   90.00000000
_symmetry_Int_Tables_number   1
_chemical_formula_structural   Th2Zn3Cu8Au
_chemical_formula_sum   'Th4 Zn6 Cu16 Au2'
_cell_volume   441.12287199
_cell_formula_units_Z   2
loop_
 _symmetry_equiv_pos_site_id
 _symmetry_equiv_pos_as_xyz
  1  'x, y, z'
loop_
 _atom_site_type_symbol
 _atom_site_label
 _atom_site_symmetry_multiplicity
 _atom_site_fract_x
 _atom_site_fract_y
 _atom_site_fract_z
 _atom_site_occupancy
  Th  Th0  1  0.250000  0.262675  0.557306  1
  Th  Th1  1  0.750000  0.737325  0.442694  1
  Th  Th2  1  0.250000  0.757822  0.934633  1
  Th  Th3  1  0.750000  0.242178  0.065367  1
  Zn  Zn4  1  0.750000  0.855776  0.138917  1
  Zn  Zn5  1  0.250000  0.144224  0.861083  1
  Zn  Zn6  1  0.750000  0.685353  0.751154  1
  Zn  Zn7  1  0.250000  0.314647  0.248846  1
  Zn  Zn8  1  0.750000  0.181817  0.753264  1
  Zn  Zn9  1  0.250000  0.818183  0.246736  1
  Cu  Cu10  1  0.504610  0.568297  0.186482  1
  Cu  Cu11  1  0.004610  0.431703  0.813518  1
  Cu  Cu12  1  0.994099  0.059053  0.308402  1
  Cu  Cu13  1  0.494099  0.940947  0.691598  1
  Cu  Cu14  1  0.750000  0.935992  0.904820  1
  Cu  Cu15  1  0.250000  0.064008  0.095180  1
  Cu  Cu16  1  0.750000  0.438974  0.607528  1
  Cu  Cu17  1  0.250000  0.561026  0.392472  1
  Cu  Cu18  1  0.750000  0.593708  0.984846  1
  Cu  Cu19  1  0.250000  0.406292  0.015154  1
  Cu  Cu20  1  0.750000  0.088862  0.514017  1
  Cu  Cu21  1  0.250000  0.911138  0.485983  1
  Cu  Cu22  1  0.505901  0.059053  0.308402  1
  Cu  Cu23  1  0.005901  0.940947  0.691598  1
  Cu  Cu24  1  0.995390  0.568297  0.186482  1
  Cu  Cu25  1  0.495390  0.431703  0.813518  1
  Au  Au26  1  0.750000  0.360702  0.361854  1
  Au  Au27  1  0.250000  0.639298  0.638146  1
