# generated using pymatgen
data_Cs3Na2HfP3
_symmetry_space_group_name_H-M   'P 1'
_cell_length_a   10.83353609
_cell_length_b   10.83353533
_cell_length_c   16.57708400
_cell_angle_alpha   90.00000000
_cell_angle_beta   90.00000000
_cell_angle_gamma   142.67943287
_symmetry_Int_Tables_number   1
_chemical_formula_structural   Cs3Na2HfP3
_chemical_formula_sum   'Cs12 Na8 Hf4 P12'
_cell_volume   1179.55298619
_cell_formula_units_Z   4
loop_
 _symmetry_equiv_pos_site_id
 _symmetry_equiv_pos_as_xyz
  1  'x, y, z'
loop_
 _atom_site_type_symbol
 _atom_site_label
 _atom_site_symmetry_multiplicity
 _atom_site_fract_x
 _atom_site_fract_y
 _atom_site_fract_z
 _atom_site_occupancy
  Cs  Cs0  1  0.947618  0.608685  0.824992  1
  Cs  Cs1  1  0.552382  0.891315  0.324992  1
  Cs  Cs2  1  0.391315  0.052382  0.175008  1
  Cs  Cs3  1  0.052382  0.391315  0.175008  1
  Cs  Cs4  1  0.891315  0.552382  0.324992  1
  Cs  Cs5  1  0.447618  0.108685  0.675008  1
  Cs  Cs6  1  0.608685  0.947618  0.824992  1
  Cs  Cs7  1  0.279472  0.279472  0.316028  1
  Cs  Cs8  1  0.779472  0.779472  0.183972  1
  Cs  Cs9  1  0.220528  0.220528  0.816028  1
  Cs  Cs10  1  0.720528  0.720528  0.683972  1
  Cs  Cs11  1  0.108685  0.447618  0.675008  1
  Na  Na12  1  0.919739  0.080261  0.000000  1
  Na  Na13  1  0.580261  0.419739  0.500000  1
  Na  Na14  1  0.080261  0.919739  0.000000  1
  Na  Na15  1  0.419739  0.580261  0.500000  1
  Na  Na16  1  0.754685  0.245315  0.000000  1
  Na  Na17  1  0.745315  0.254685  0.500000  1
  Na  Na18  1  0.245315  0.754685  0.000000  1
  Na  Na19  1  0.254685  0.745315  0.500000  1
  Hf  Hf20  1  0.584816  0.415184  0.000000  1
  Hf  Hf21  1  0.915184  0.084816  0.500000  1
  Hf  Hf22  1  0.415184  0.584816  0.000000  1
  Hf  Hf23  1  0.084816  0.915184  0.500000  1
  P  P24  1  0.866397  0.557190  0.088606  1
  P  P25  1  0.442810  0.133603  0.911394  1
  P  P26  1  0.633603  0.942810  0.588606  1
  P  P27  1  0.942810  0.633603  0.588606  1
  P  P28  1  0.133603  0.442810  0.911394  1
  P  P29  1  0.557190  0.866397  0.088606  1
  P  P30  1  0.366397  0.057190  0.411394  1
  P  P31  1  0.197039  0.197039  0.580562  1
  P  P32  1  0.697039  0.697039  0.919438  1
  P  P33  1  0.302961  0.302961  0.080562  1
  P  P34  1  0.057190  0.366397  0.411394  1
  P  P35  1  0.802961  0.802961  0.419438  1
