# generated using pymatgen
data_Ba6Y2Al2Co2O15
_symmetry_space_group_name_H-M   'P 1'
_cell_length_a   6.00386900
_cell_length_b   8.06827088
_cell_length_c   18.45853878
_cell_angle_alpha   88.39062264
_cell_angle_beta   90.00000000
_cell_angle_gamma   90.00000000
_symmetry_Int_Tables_number   1
_chemical_formula_structural   Ba6Y2Al2Co2O15
_chemical_formula_sum   'Ba12 Y4 Al4 Co4 O30'
_cell_volume   893.79443678
_cell_formula_units_Z   2
loop_
 _symmetry_equiv_pos_site_id
 _symmetry_equiv_pos_as_xyz
  1  'x, y, z'
loop_
 _atom_site_type_symbol
 _atom_site_label
 _atom_site_symmetry_multiplicity
 _atom_site_fract_x
 _atom_site_fract_y
 _atom_site_fract_z
 _atom_site_occupancy
  Ba  Ba0  1  0.755742  0.499212  0.080582  1
  Ba  Ba1  1  0.244258  0.500788  0.919418  1
  Ba  Ba2  1  0.755742  0.500788  0.419418  1
  Ba  Ba3  1  0.244258  0.499212  0.580582  1
  Ba  Ba4  1  0.747160  0.971690  0.086489  1
  Ba  Ba5  1  0.252840  0.028310  0.913511  1
  Ba  Ba6  1  0.747160  0.028310  0.413511  1
  Ba  Ba7  1  0.252840  0.971690  0.586489  1
  Ba  Ba8  1  0.727978  0.000000  0.750000  1
  Ba  Ba9  1  0.272022  0.000000  0.250000  1
  Ba  Ba10  1  0.669023  0.500000  0.750000  1
  Ba  Ba11  1  0.330977  0.500000  0.250000  1
  Y  Y12  1  0.747616  0.754123  0.909183  1
  Y  Y13  1  0.252384  0.245877  0.090817  1
  Y  Y14  1  0.747616  0.245877  0.590817  1
  Y  Y15  1  0.252384  0.754123  0.409183  1
  Al  Al16  1  0.769846  0.781268  0.266847  1
  Al  Al17  1  0.230154  0.218732  0.733153  1
  Al  Al18  1  0.769846  0.218732  0.233153  1
  Al  Al19  1  0.230154  0.781268  0.766847  1
  Co  Co20  1  0.748453  0.751439  0.562423  1
  Co  Co21  1  0.251547  0.248561  0.437577  1
  Co  Co22  1  0.748453  0.248561  0.937577  1
  Co  Co23  1  0.251547  0.751439  0.062423  1
  O  O24  1  0.208996  0.000000  0.750000  1
  O  O25  1  0.791004  0.000000  0.250000  1
  O  O26  1  0.507109  0.764642  0.000854  1
  O  O27  1  0.492891  0.235358  0.999146  1
  O  O28  1  0.507109  0.235358  0.499146  1
  O  O29  1  0.492891  0.764642  0.500854  1
  O  O30  1  0.762347  0.954911  0.606354  1
  O  O31  1  0.237653  0.045089  0.393646  1
  O  O32  1  0.762347  0.045089  0.893646  1
  O  O33  1  0.237653  0.954911  0.106354  1
  O  O34  1  0.009315  0.763536  0.994104  1
  O  O35  1  0.990685  0.236464  0.005896  1
  O  O36  1  0.009315  0.236464  0.505896  1
  O  O37  1  0.990685  0.763536  0.494104  1
  O  O38  1  0.315780  0.693193  0.685731  1
  O  O39  1  0.684220  0.306807  0.314269  1
  O  O40  1  0.315780  0.306807  0.814269  1
  O  O41  1  0.684220  0.693193  0.185731  1
  O  O42  1  0.450538  0.754658  0.832227  1
  O  O43  1  0.549462  0.245342  0.167773  1
  O  O44  1  0.450538  0.245342  0.667773  1
  O  O45  1  0.549462  0.754658  0.332227  1
  O  O46  1  0.971502  0.729811  0.809185  1
  O  O47  1  0.028498  0.270189  0.190815  1
  O  O48  1  0.971502  0.270189  0.690815  1
  O  O49  1  0.028498  0.729811  0.309185  1
  O  O50  1  0.751318  0.531382  0.591860  1
  O  O51  1  0.248682  0.468618  0.408140  1
  O  O52  1  0.751318  0.468618  0.908140  1
  O  O53  1  0.248682  0.531382  0.091860  1
