# generated using pymatgen
data_Nd4ZrRh3
_symmetry_space_group_name_H-M   'P 1'
_cell_length_a   11.19451600
_cell_length_b   11.19451600
_cell_length_c   6.37930800
_cell_angle_alpha   90.00000000
_cell_angle_beta   90.00000000
_cell_angle_gamma   90.00000000
_symmetry_Int_Tables_number   1
_chemical_formula_structural   Nd4ZrRh3
_chemical_formula_sum   'Nd16 Zr4 Rh12'
_cell_volume   799.43694297
_cell_formula_units_Z   4
loop_
 _symmetry_equiv_pos_site_id
 _symmetry_equiv_pos_as_xyz
  1  'x, y, z'
loop_
 _atom_site_type_symbol
 _atom_site_label
 _atom_site_symmetry_multiplicity
 _atom_site_fract_x
 _atom_site_fract_y
 _atom_site_fract_z
 _atom_site_occupancy
  Nd  Nd0  1  0.087062  0.286940  0.121693  1
  Nd  Nd1  1  0.786940  0.412938  0.121693  1
  Nd  Nd2  1  0.213060  0.587062  0.121693  1
  Nd  Nd3  1  0.912938  0.713060  0.121693  1
  Nd  Nd4  1  0.412938  0.786940  0.378307  1
  Nd  Nd5  1  0.587062  0.213060  0.378307  1
  Nd  Nd6  1  0.286940  0.087062  0.378307  1
  Nd  Nd7  1  0.713060  0.912938  0.378307  1
  Nd  Nd8  1  0.412938  0.213060  0.878307  1
  Nd  Nd9  1  0.713060  0.087062  0.878307  1
  Nd  Nd10  1  0.286940  0.912938  0.878307  1
  Nd  Nd11  1  0.587062  0.786940  0.878307  1
  Nd  Nd12  1  0.087062  0.713060  0.621693  1
  Nd  Nd13  1  0.912938  0.286940  0.621693  1
  Nd  Nd14  1  0.213060  0.412938  0.621693  1
  Nd  Nd15  1  0.786940  0.587062  0.621693  1
  Zr  Zr16  1  0.000000  0.000000  0.000000  1
  Zr  Zr17  1  0.500000  0.500000  0.000000  1
  Zr  Zr18  1  0.500000  0.500000  0.500000  1
  Zr  Zr19  1  0.000000  0.000000  0.500000  1
  Rh  Rh20  1  0.139241  0.860759  0.250000  1
  Rh  Rh21  1  0.360759  0.360759  0.250000  1
  Rh  Rh22  1  0.639241  0.639241  0.250000  1
  Rh  Rh23  1  0.860759  0.139241  0.250000  1
  Rh  Rh24  1  0.360759  0.639241  0.750000  1
  Rh  Rh25  1  0.139241  0.139241  0.750000  1
  Rh  Rh26  1  0.860759  0.860759  0.750000  1
  Rh  Rh27  1  0.639241  0.360759  0.750000  1
  Rh  Rh28  1  0.000000  0.500000  0.378746  1
  Rh  Rh29  1  0.500000  0.000000  0.121254  1
  Rh  Rh30  1  0.500000  0.000000  0.621254  1
  Rh  Rh31  1  0.000000  0.500000  0.878746  1
