# generated using pymatgen
data_Ho(TaBr3)6
_symmetry_space_group_name_H-M   'P 1'
_cell_length_a   10.70233326
_cell_length_b   10.70217297
_cell_length_c   10.70247206
_cell_angle_alpha   56.03343258
_cell_angle_beta   56.03466467
_cell_angle_gamma   56.03527398
_symmetry_Int_Tables_number   1
_chemical_formula_structural   Ho(TaBr3)6
_chemical_formula_sum   'Ho1 Ta6 Br18'
_cell_volume   787.18066197
_cell_formula_units_Z   1
loop_
 _symmetry_equiv_pos_site_id
 _symmetry_equiv_pos_as_xyz
  1  'x, y, z'
loop_
 _atom_site_type_symbol
 _atom_site_label
 _atom_site_symmetry_multiplicity
 _atom_site_fract_x
 _atom_site_fract_y
 _atom_site_fract_z
 _atom_site_occupancy
  Ho  Ho0  1  0.000000  0.000000  0.000000  1
  Ta  Ta1  1  0.412785  0.310088  0.642364  1
  Ta  Ta2  1  0.357634  0.587213  0.689917  1
  Ta  Ta3  1  0.689903  0.357636  0.587213  1
  Ta  Ta4  1  0.310097  0.642364  0.412787  1
  Ta  Ta5  1  0.642366  0.412787  0.310083  1
  Ta  Ta6  1  0.587215  0.689912  0.357636  1
  Br  Br7  1  0.568541  0.161622  0.441486  1
  Br  Br8  1  0.223113  0.371138  0.907887  1
  Br  Br9  1  0.907870  0.223108  0.371162  1
  Br  Br10  1  0.371158  0.907889  0.223113  1
  Br  Br11  1  0.776887  0.628862  0.092113  1
  Br  Br12  1  0.092130  0.776892  0.628838  1
  Br  Br13  1  0.700459  0.958264  0.161512  1
  Br  Br14  1  0.958254  0.161503  0.700468  1
  Br  Br15  1  0.161519  0.700464  0.958249  1
  Br  Br16  1  0.299541  0.041736  0.838488  1
  Br  Br17  1  0.041746  0.838497  0.299532  1
  Br  Br18  1  0.838481  0.299536  0.041751  1
  Br  Br19  1  0.558531  0.431449  0.838365  1
  Br  Br20  1  0.161629  0.441471  0.568550  1
  Br  Br21  1  0.441469  0.568551  0.161635  1
  Br  Br22  1  0.431459  0.838378  0.558514  1
  Br  Br23  1  0.838371  0.558529  0.431450  1
  Br  Br24  1  0.628842  0.092111  0.776887  1
