# generated using pymatgen
data_Y2Tm2CuPt3
_symmetry_space_group_name_H-M   'P 1'
_cell_length_a   4.50769300
_cell_length_b   5.54367403
_cell_length_c   6.96244694
_cell_angle_alpha   91.08339477
_cell_angle_beta   90.00000000
_cell_angle_gamma   90.00000000
_symmetry_Int_Tables_number   1
_chemical_formula_structural   Y2Tm2CuPt3
_chemical_formula_sum   'Y2 Tm2 Cu1 Pt3'
_cell_volume   173.95474127
_cell_formula_units_Z   1
loop_
 _symmetry_equiv_pos_site_id
 _symmetry_equiv_pos_as_xyz
  1  'x, y, z'
loop_
 _atom_site_type_symbol
 _atom_site_label
 _atom_site_symmetry_multiplicity
 _atom_site_fract_x
 _atom_site_fract_y
 _atom_site_fract_z
 _atom_site_occupancy
  Y  Y0  1  0.250000  0.641349  0.182562  1
  Y  Y1  1  0.750000  0.364434  0.813177  1
  Tm  Tm2  1  0.750000  0.138565  0.324915  1
  Tm  Tm3  1  0.250000  0.856184  0.679956  1
  Cu  Cu4  1  0.250000  0.135445  0.037045  1
  Pt  Pt5  1  0.750000  0.870154  0.964873  1
  Pt  Pt6  1  0.750000  0.657467  0.456327  1
  Pt  Pt7  1  0.250000  0.336403  0.541146  1
