# generated using pymatgen
data_Tm6Lu4In8PtRh3
_symmetry_space_group_name_H-M   'P 1'
_cell_length_a   3.56792500
_cell_length_b   7.99201319
_cell_length_c   18.05671800
_cell_angle_alpha   90.05147482
_cell_angle_beta   90.00000000
_cell_angle_gamma   90.00000000
_symmetry_Int_Tables_number   1
_chemical_formula_structural   Tm6Lu4In8PtRh3
_chemical_formula_sum   'Tm6 Lu4 In8 Pt1 Rh3'
_cell_volume   514.88536650
_cell_formula_units_Z   1
loop_
 _symmetry_equiv_pos_site_id
 _symmetry_equiv_pos_as_xyz
  1  'x, y, z'
loop_
 _atom_site_type_symbol
 _atom_site_label
 _atom_site_symmetry_multiplicity
 _atom_site_fract_x
 _atom_site_fract_y
 _atom_site_fract_z
 _atom_site_occupancy
  Tm  Tm0  1  0.000000  0.240563  0.221260  1
  Tm  Tm1  1  0.000000  0.755878  0.778997  1
  Tm  Tm2  1  0.000000  0.255911  0.721270  1
  Tm  Tm3  1  0.000000  0.747957  0.279262  1
  Tm  Tm4  1  0.000000  0.999687  0.999991  1
  Tm  Tm5  1  0.000000  0.500305  0.500098  1
  Lu  Lu6  1  0.000000  0.115463  0.412721  1
  Lu  Lu7  1  0.000000  0.883522  0.587817  1
  Lu  Lu8  1  0.000000  0.383902  0.912220  1
  Lu  Lu9  1  0.000000  0.617106  0.086163  1
  In  In10  1  0.500000  0.422872  0.352043  1
  In  In11  1  0.500000  0.573770  0.649888  1
  In  In12  1  0.500000  0.074847  0.850372  1
  In  In13  1  0.500000  0.927953  0.148939  1
  In  In14  1  0.500000  0.292595  0.065166  1
  In  In15  1  0.500000  0.706173  0.932929  1
  In  In16  1  0.500000  0.205826  0.566698  1
  In  In17  1  0.500000  0.793613  0.433141  1
  Pt  Pt18  1  0.500000  0.524715  0.195937  1
  Rh  Rh19  1  0.500000  0.024553  0.304795  1
  Rh  Rh20  1  0.500000  0.976730  0.695316  1
  Rh  Rh21  1  0.500000  0.476061  0.804981  1
