# generated using pymatgen
data_GaNi8Mo15C4
_symmetry_space_group_name_H-M   'P 1'
_cell_length_a   7.94965454
_cell_length_b   8.02502497
_cell_length_c   8.02508200
_cell_angle_alpha   59.99933543
_cell_angle_beta   59.68519621
_cell_angle_gamma   59.68533966
_symmetry_Int_Tables_number   1
_chemical_formula_structural   GaNi8Mo15C4
_chemical_formula_sum   'Ga1 Ni8 Mo15 C4'
_cell_volume   360.28359772
_cell_formula_units_Z   1
loop_
 _symmetry_equiv_pos_site_id
 _symmetry_equiv_pos_as_xyz
  1  'x, y, z'
loop_
 _atom_site_type_symbol
 _atom_site_label
 _atom_site_symmetry_multiplicity
 _atom_site_fract_x
 _atom_site_fract_y
 _atom_site_fract_z
 _atom_site_occupancy
  Ga  Ga0  1  0.625000  0.125000  0.125000  1
  Ni  Ni1  1  0.912088  0.919294  0.249366  1
  Ni  Ni2  1  0.337931  0.330703  0.330701  1
  Ni  Ni3  1  0.245078  0.918319  0.918317  1
  Ni  Ni4  1  0.337901  0.000625  0.330706  1
  Ni  Ni5  1  0.004922  0.331681  0.331683  1
  Ni  Ni6  1  0.337912  0.330706  0.000634  1
  Ni  Ni7  1  0.912069  0.919297  0.919299  1
  Ni  Ni8  1  0.912099  0.249375  0.919294  1
  Mo  Mo9  1  0.125000  0.125000  0.125000  1
  Mo  Mo10  1  0.687827  0.314684  0.314686  1
  Mo  Mo11  1  0.942640  0.940442  0.558458  1
  Mo  Mo12  1  0.687827  0.682801  0.314685  1
  Mo  Mo13  1  0.687822  0.314686  0.682801  1
  Mo  Mo14  1  0.307358  0.691540  0.309557  1
  Mo  Mo15  1  0.562178  0.935314  0.567199  1
  Mo  Mo16  1  0.562173  0.935316  0.935314  1
  Mo  Mo17  1  0.942643  0.558461  0.558453  1
  Mo  Mo18  1  0.942642  0.558460  0.940443  1
  Mo  Mo19  1  0.307360  0.309558  0.691542  1
  Mo  Mo20  1  0.562173  0.567199  0.935315  1
  Mo  Mo21  1  0.125000  0.125000  0.625000  1
  Mo  Mo22  1  0.125000  0.625000  0.125000  1
  Mo  Mo23  1  0.307357  0.691539  0.691547  1
  C  C24  1  0.625000  0.625000  0.625000  1
  C  C25  1  0.625000  0.625000  0.125000  1
  C  C26  1  0.125000  0.625000  0.625000  1
  C  C27  1  0.625000  0.125000  0.625000  1
