# generated using pymatgen
data_Y4ZnIn2Au3
_symmetry_space_group_name_H-M   'P 1'
_cell_length_a   7.93440311
_cell_length_b   7.93440311
_cell_length_c   3.77416200
_cell_angle_alpha   90.00000000
_cell_angle_beta   90.00000000
_cell_angle_gamma   90.52132791
_symmetry_Int_Tables_number   1
_chemical_formula_structural   Y4ZnIn2Au3
_chemical_formula_sum   'Y4 Zn1 In2 Au3'
_cell_volume   237.59160004
_cell_formula_units_Z   1
loop_
 _symmetry_equiv_pos_site_id
 _symmetry_equiv_pos_as_xyz
  1  'x, y, z'
loop_
 _atom_site_type_symbol
 _atom_site_label
 _atom_site_symmetry_multiplicity
 _atom_site_fract_x
 _atom_site_fract_y
 _atom_site_fract_z
 _atom_site_occupancy
  Y  Y0  1  0.671839  0.171839  0.500000  1
  Y  Y1  1  0.329778  0.829778  0.500000  1
  Y  Y2  1  0.169473  0.327584  0.500000  1
  Y  Y3  1  0.827584  0.669473  0.500000  1
  Zn  Zn4  1  0.125565  0.625565  0.000000  1
  In  In5  1  0.496549  0.500687  0.000000  1
  In  In6  1  0.000687  0.996549  0.000000  1
  Au  Au7  1  0.878882  0.378882  0.000000  1
  Au  Au8  1  0.628870  0.870771  0.000000  1
  Au  Au9  1  0.370771  0.128870  0.000000  1
