# generated using pymatgen
data_SrLu3(NiP)4
_symmetry_space_group_name_H-M   'P 1'
_cell_length_a   3.87484400
_cell_length_b   3.87484457
_cell_length_c   15.75881600
_cell_angle_alpha   90.00000000
_cell_angle_beta   90.00000000
_cell_angle_gamma   119.99999512
_symmetry_Int_Tables_number   1
_chemical_formula_structural   SrLu3(NiP)4
_chemical_formula_sum   'Sr1 Lu3 Ni4 P4'
_cell_volume   204.90980836
_cell_formula_units_Z   1
loop_
 _symmetry_equiv_pos_site_id
 _symmetry_equiv_pos_as_xyz
  1  'x, y, z'
loop_
 _atom_site_type_symbol
 _atom_site_label
 _atom_site_symmetry_multiplicity
 _atom_site_fract_x
 _atom_site_fract_y
 _atom_site_fract_z
 _atom_site_occupancy
  Sr  Sr0  1  0.000000  0.000000  0.500000  1
  Lu  Lu1  1  0.000000  0.000000  0.000000  1
  Lu  Lu2  1  0.000000  0.000000  0.239946  1
  Lu  Lu3  1  0.000000  0.000000  0.760054  1
  Ni  Ni4  1  0.333333  0.666667  0.350973  1
  Ni  Ni5  1  0.666667  0.333333  0.649027  1
  Ni  Ni6  1  0.666667  0.333333  0.878652  1
  Ni  Ni7  1  0.333333  0.666667  0.121348  1
  P  P8  1  0.333333  0.666667  0.884326  1
  P  P9  1  0.666667  0.333333  0.115674  1
  P  P10  1  0.666667  0.333333  0.358606  1
  P  P11  1  0.333333  0.666667  0.641394  1
