# generated using pymatgen
data_Tm2ScCo6(B2Ir)3
_symmetry_space_group_name_H-M   'P 1'
_cell_length_a   5.90024965
_cell_length_b   5.90024851
_cell_length_c   5.90024965
_cell_angle_alpha   95.50506648
_cell_angle_beta   95.50506514
_cell_angle_gamma   95.50504843
_symmetry_Int_Tables_number   1
_chemical_formula_structural   Tm2ScCo6(B2Ir)3
_chemical_formula_sum   'Tm2 Sc1 Co6 B6 Ir3'
_cell_volume   202.36559605
_cell_formula_units_Z   1
loop_
 _symmetry_equiv_pos_site_id
 _symmetry_equiv_pos_as_xyz
  1  'x, y, z'
loop_
 _atom_site_type_symbol
 _atom_site_label
 _atom_site_symmetry_multiplicity
 _atom_site_fract_x
 _atom_site_fract_y
 _atom_site_fract_z
 _atom_site_occupancy
  Tm  Tm0  1  0.997422  0.997422  0.997422  1
  Tm  Tm1  1  0.332536  0.332536  0.332536  1
  Sc  Sc2  1  0.667182  0.667182  0.667182  1
  Co  Co3  1  0.689364  0.209822  0.689364  1
  Co  Co4  1  0.689364  0.689364  0.209822  1
  Co  Co5  1  0.209822  0.689364  0.689364  1
  Co  Co6  1  0.309999  0.795600  0.309999  1
  Co  Co7  1  0.309999  0.309999  0.795600  1
  Co  Co8  1  0.795600  0.309999  0.309999  1
  B  B9  1  0.385606  0.997825  0.618273  1
  B  B10  1  0.618273  0.385606  0.997825  1
  B  B11  1  0.997825  0.618273  0.385606  1
  B  B12  1  0.618273  0.997825  0.385606  1
  B  B13  1  0.385606  0.618273  0.997825  1
  B  B14  1  0.997825  0.385606  0.618273  1
  Ir  Ir15  1  0.501831  0.996736  0.996736  1
  Ir  Ir16  1  0.996736  0.501831  0.996736  1
  Ir  Ir17  1  0.996736  0.996736  0.501831  1
