# generated using pymatgen
data_Zr20Zn2GaSb9
_symmetry_space_group_name_H-M   'P 1'
_cell_length_a   5.53449600
_cell_length_b   8.39306453
_cell_length_c   15.84615300
_cell_angle_alpha   90.00000000
_cell_angle_beta   90.00000000
_cell_angle_gamma   109.25541563
_symmetry_Int_Tables_number   1
_chemical_formula_structural   Zr20Zn2GaSb9
_chemical_formula_sum   'Zr20 Zn2 Ga1 Sb9'
_cell_volume   694.89805258
_cell_formula_units_Z   1
loop_
 _symmetry_equiv_pos_site_id
 _symmetry_equiv_pos_as_xyz
  1  'x, y, z'
loop_
 _atom_site_type_symbol
 _atom_site_label
 _atom_site_symmetry_multiplicity
 _atom_site_fract_x
 _atom_site_fract_y
 _atom_site_fract_z
 _atom_site_occupancy
  Zr  Zr0  1  0.430475  0.858779  0.355305  1
  Zr  Zr1  1  0.922123  0.858171  0.851782  1
  Zr  Zr2  1  0.063917  0.141826  0.148195  1
  Zr  Zr3  1  0.571726  0.141252  0.644712  1
  Zr  Zr4  1  0.653430  0.294860  0.072658  1
  Zr  Zr5  1  0.145318  0.291141  0.569205  1
  Zr  Zr6  1  0.854192  0.708899  0.430819  1
  Zr  Zr7  1  0.358564  0.705135  0.927321  1
  Zr  Zr8  1  0.846570  0.705140  0.072658  1
  Zr  Zr9  1  0.354682  0.708859  0.569205  1
  Zr  Zr10  1  0.645808  0.291101  0.430819  1
  Zr  Zr11  1  0.141436  0.294865  0.927321  1
  Zr  Zr12  1  0.069525  0.141221  0.355305  1
  Zr  Zr13  1  0.577877  0.141829  0.851782  1
  Zr  Zr14  1  0.436083  0.858174  0.148195  1
  Zr  Zr15  1  0.928274  0.858748  0.644712  1
  Zr  Zr16  1  0.500779  0.503252  0.249828  1
  Zr  Zr17  1  0.997529  0.496724  0.750165  1
  Zr  Zr18  1  0.999221  0.496748  0.249828  1
  Zr  Zr19  1  0.502471  0.503276  0.750165  1
  Zn  Zn20  1  0.750000  0.000000  0.999990  1
  Zn  Zn21  1  0.250000  0.000000  0.500010  1
  Ga  Ga22  1  0.750000  0.000000  0.500011  1
  Sb  Sb23  1  0.917347  0.828609  0.252064  1
  Sb  Sb24  1  0.411206  0.828594  0.747952  1
  Sb  Sb25  1  0.582653  0.171391  0.252064  1
  Sb  Sb26  1  0.088794  0.171406  0.747952  1
  Sb  Sb27  1  0.250000  0.500000  0.085563  1
  Sb  Sb28  1  0.750000  0.500000  0.585867  1
  Sb  Sb29  1  0.250000  0.500000  0.414116  1
  Sb  Sb30  1  0.750000  0.500000  0.914436  1
  Sb  Sb31  1  0.250000  0.000000  0.999996  1
