# generated using pymatgen
data_TbNdCu2Si2Sn
_symmetry_space_group_name_H-M   'P 1'
_cell_length_a   9.43285064
_cell_length_b   9.43285178
_cell_length_c   6.74396200
_cell_angle_alpha   90.00000000
_cell_angle_beta   90.00000000
_cell_angle_gamma   152.90204345
_symmetry_Int_Tables_number   1
_chemical_formula_structural   TbNdCu2Si2Sn
_chemical_formula_sum   'Tb2 Nd2 Cu4 Si4 Sn2'
_cell_volume   273.33925669
_cell_formula_units_Z   2
loop_
 _symmetry_equiv_pos_site_id
 _symmetry_equiv_pos_as_xyz
  1  'x, y, z'
loop_
 _atom_site_type_symbol
 _atom_site_label
 _atom_site_symmetry_multiplicity
 _atom_site_fract_x
 _atom_site_fract_y
 _atom_site_fract_z
 _atom_site_occupancy
  Tb  Tb0  1  0.347334  0.652666  0.250000  1
  Tb  Tb1  1  0.652666  0.347334  0.750000  1
  Nd  Nd2  1  0.548094  0.451906  0.250000  1
  Nd  Nd3  1  0.451906  0.548094  0.750000  1
  Cu  Cu4  1  0.178843  0.821157  0.060397  1
  Cu  Cu5  1  0.178843  0.821157  0.439603  1
  Cu  Cu6  1  0.821157  0.178843  0.939603  1
  Cu  Cu7  1  0.821157  0.178843  0.560397  1
  Si  Si8  1  0.059707  0.940293  0.927784  1
  Si  Si9  1  0.940293  0.059707  0.072216  1
  Si  Si10  1  0.940293  0.059707  0.427784  1
  Si  Si11  1  0.059707  0.940293  0.572216  1
  Sn  Sn12  1  0.723585  0.276415  0.250000  1
  Sn  Sn13  1  0.276415  0.723585  0.750000  1
