# generated using pymatgen
data_Th3AlIn2RuPt2
_symmetry_space_group_name_H-M   'P 1'
_cell_length_a   7.67611114
_cell_length_b   7.59825560
_cell_length_c   4.04651800
_cell_angle_alpha   90.00000000
_cell_angle_beta   90.00000000
_cell_angle_gamma   119.74469792
_symmetry_Int_Tables_number   1
_chemical_formula_structural   Th3AlIn2RuPt2
_chemical_formula_sum   'Th3 Al1 In2 Ru1 Pt2'
_cell_volume   204.91737580
_cell_formula_units_Z   1
loop_
 _symmetry_equiv_pos_site_id
 _symmetry_equiv_pos_as_xyz
  1  'x, y, z'
loop_
 _atom_site_type_symbol
 _atom_site_label
 _atom_site_symmetry_multiplicity
 _atom_site_fract_x
 _atom_site_fract_y
 _atom_site_fract_z
 _atom_site_occupancy
  Th  Th0  1  0.414584  0.411352  0.500000  1
  Th  Th1  1  0.595876  0.014446  0.500000  1
  Th  Th2  1  0.990551  0.570719  0.500000  1
  Al  Al3  1  0.993998  0.243787  0.000000  1
  In  In4  1  0.755895  0.752112  0.000000  1
  In  In5  1  0.248119  0.999131  0.000000  1
  Ru  Ru6  1  0.680654  0.329001  0.000000  1
  Pt  Pt7  1  0.318075  0.644440  0.000000  1
  Pt  Pt8  1  0.002247  0.035012  0.500000  1
