# generated using pymatgen
data_ErTm2Si3Os2
_symmetry_space_group_name_H-M   'P 1'
_cell_length_a   5.69221800
_cell_length_b   5.69221786
_cell_length_c   13.58311600
_cell_angle_alpha   90.00000000
_cell_angle_beta   90.00000000
_cell_angle_gamma   137.01436764
_symmetry_Int_Tables_number   1
_chemical_formula_structural   ErTm2Si3Os2
_chemical_formula_sum   'Er2 Tm4 Si6 Os4'
_cell_volume   300.07441118
_cell_formula_units_Z   2
loop_
 _symmetry_equiv_pos_site_id
 _symmetry_equiv_pos_as_xyz
  1  'x, y, z'
loop_
 _atom_site_type_symbol
 _atom_site_label
 _atom_site_symmetry_multiplicity
 _atom_site_fract_x
 _atom_site_fract_y
 _atom_site_fract_z
 _atom_site_occupancy
  Er  Er0  1  0.640912  0.359088  0.250000  1
  Er  Er1  1  0.359088  0.640912  0.750000  1
  Tm  Tm2  1  0.924249  0.075751  0.115487  1
  Tm  Tm3  1  0.075751  0.924249  0.884513  1
  Tm  Tm4  1  0.075751  0.924249  0.615487  1
  Tm  Tm5  1  0.924249  0.075751  0.384513  1
  Si  Si6  1  0.327622  0.672378  0.250000  1
  Si  Si7  1  0.672378  0.327622  0.750000  1
  Si  Si8  1  0.614946  0.385054  0.037774  1
  Si  Si9  1  0.385054  0.614946  0.962226  1
  Si  Si10  1  0.385054  0.614946  0.537774  1
  Si  Si11  1  0.614946  0.385054  0.462226  1
  Os  Os12  1  0.787930  0.212070  0.582521  1
  Os  Os13  1  0.212070  0.787930  0.417479  1
  Os  Os14  1  0.212070  0.787930  0.082521  1
  Os  Os15  1  0.787930  0.212070  0.917479  1
