# generated using pymatgen
data_TbPu4W2C7
_symmetry_space_group_name_H-M   'P 1'
_cell_length_a   8.50882753
_cell_length_b   8.50882669
_cell_length_c   3.41049000
_cell_angle_alpha   90.00000000
_cell_angle_beta   90.00000000
_cell_angle_gamma   124.84805803
_symmetry_Int_Tables_number   1
_chemical_formula_structural   TbPu4W2C7
_chemical_formula_sum   'Tb1 Pu4 W2 C7'
_cell_volume   202.63984979
_cell_formula_units_Z   1
loop_
 _symmetry_equiv_pos_site_id
 _symmetry_equiv_pos_as_xyz
  1  'x, y, z'
loop_
 _atom_site_type_symbol
 _atom_site_label
 _atom_site_symmetry_multiplicity
 _atom_site_fract_x
 _atom_site_fract_y
 _atom_site_fract_z
 _atom_site_occupancy
  Tb  Tb0  1  0.500000  0.500000  0.000000  1
  Pu  Pu1  1  0.059904  0.319450  0.500000  1
  Pu  Pu2  1  0.940096  0.680550  0.500000  1
  Pu  Pu3  1  0.680550  0.940096  0.500000  1
  Pu  Pu4  1  0.319450  0.059904  0.500000  1
  W  W5  1  0.711727  0.288273  0.000000  1
  W  W6  1  0.288273  0.711727  0.000000  1
  C  C7  1  0.626133  0.373867  0.500000  1
  C  C8  1  0.373867  0.626133  0.500000  1
  C  C9  1  0.000000  0.000000  0.000000  1
  C  C10  1  0.172830  0.172830  0.000000  1
  C  C11  1  0.827170  0.827170  0.000000  1
  C  C12  1  0.000000  0.500000  0.000000  1
  C  C13  1  0.500000  0.000000  0.000000  1
