# generated using pymatgen
data_Li3Nd3AgPb4
_symmetry_space_group_name_H-M   'P 1'
_cell_length_a   4.77837715
_cell_length_b   7.36602434
_cell_length_c   9.03035179
_cell_angle_alpha   114.22696330
_cell_angle_beta   105.34159075
_cell_angle_gamma   90.00000206
_symmetry_Int_Tables_number   1
_chemical_formula_structural   Li3Nd3AgPb4
_chemical_formula_sum   'Li3 Nd3 Ag1 Pb4'
_cell_volume   277.38639598
_cell_formula_units_Z   1
loop_
 _symmetry_equiv_pos_site_id
 _symmetry_equiv_pos_as_xyz
  1  'x, y, z'
loop_
 _atom_site_type_symbol
 _atom_site_label
 _atom_site_symmetry_multiplicity
 _atom_site_fract_x
 _atom_site_fract_y
 _atom_site_fract_z
 _atom_site_occupancy
  Li  Li0  1  0.327014  0.018148  0.654026  1
  Li  Li1  1  0.327320  0.639063  0.654638  1
  Li  Li2  1  0.670363  0.359453  0.340727  1
  Nd  Nd3  1  0.002688  0.002074  0.005375  1
  Nd  Nd4  1  0.129991  0.632559  0.259981  1
  Nd  Nd5  1  0.869387  0.363303  0.738774  1
  Ag  Ag6  1  0.672736  0.980122  0.345473  1
  Pb  Pb7  1  0.495387  0.697294  0.990773  1
  Pb  Pb8  1  0.499774  0.294842  0.999547  1
  Pb  Pb9  1  0.789258  0.783020  0.578517  1
  Pb  Pb10  1  0.216083  0.230123  0.432167  1
