# generated using pymatgen
data_SrCrIO6
_symmetry_space_group_name_H-M   'P 1'
_cell_length_a   5.23195900
_cell_length_b   5.23195840
_cell_length_c   5.43152100
_cell_angle_alpha   90.00000000
_cell_angle_beta   90.00000000
_cell_angle_gamma   119.99999748
_symmetry_Int_Tables_number   1
_chemical_formula_structural   SrCrIO6
_chemical_formula_sum   'Sr1 Cr1 I1 O6'
_cell_volume   128.75992642
_cell_formula_units_Z   1
loop_
 _symmetry_equiv_pos_site_id
 _symmetry_equiv_pos_as_xyz
  1  'x, y, z'
loop_
 _atom_site_type_symbol
 _atom_site_label
 _atom_site_symmetry_multiplicity
 _atom_site_fract_x
 _atom_site_fract_y
 _atom_site_fract_z
 _atom_site_occupancy
  Sr  Sr0  1  0.000000  0.000000  0.000000  1
  Cr  Cr1  1  0.333333  0.666667  0.500000  1
  I  I2  1  0.666667  0.333333  0.500000  1
  O  O3  1  0.384141  0.016173  0.699214  1
  O  O4  1  0.983827  0.367968  0.699214  1
  O  O5  1  0.632032  0.615859  0.699214  1
  O  O6  1  0.983827  0.615859  0.300786  1
  O  O7  1  0.632032  0.016173  0.300786  1
  O  O8  1  0.384141  0.367968  0.300786  1
