# generated using pymatgen
data_Er4VB12Ir
_symmetry_space_group_name_H-M   'P 1'
_cell_length_a   3.58792100
_cell_length_b   9.14750476
_cell_length_c   11.53660472
_cell_angle_alpha   90.23935064
_cell_angle_beta   90.00000000
_cell_angle_gamma   90.00000000
_symmetry_Int_Tables_number   1
_chemical_formula_structural   Er4VB12Ir
_chemical_formula_sum   'Er8 V2 B24 Ir2'
_cell_volume   378.63411323
_cell_formula_units_Z   2
loop_
 _symmetry_equiv_pos_site_id
 _symmetry_equiv_pos_as_xyz
  1  'x, y, z'
loop_
 _atom_site_type_symbol
 _atom_site_label
 _atom_site_symmetry_multiplicity
 _atom_site_fract_x
 _atom_site_fract_y
 _atom_site_fract_z
 _atom_site_occupancy
  Er  Er0  1  0.000000  0.317834  0.410877  1
  Er  Er1  1  0.000000  0.682166  0.589123  1
  Er  Er2  1  0.000000  0.825910  0.083827  1
  Er  Er3  1  0.000000  0.174090  0.916173  1
  Er  Er4  1  0.000000  0.946597  0.371901  1
  Er  Er5  1  0.000000  0.053403  0.628099  1
  Er  Er6  1  0.000000  0.441649  0.126377  1
  Er  Er7  1  0.000000  0.558351  0.873623  1
  V  V8  1  0.000000  0.139470  0.181204  1
  V  V9  1  0.000000  0.860530  0.818796  1
  B  B10  1  0.500000  0.553348  0.433760  1
  B  B11  1  0.500000  0.446652  0.566240  1
  B  B12  1  0.500000  0.052070  0.066535  1
  B  B13  1  0.500000  0.947930  0.933465  1
  B  B14  1  0.500000  0.749920  0.420698  1
  B  B15  1  0.500000  0.250080  0.579302  1
  B  B16  1  0.500000  0.247866  0.079325  1
  B  B17  1  0.500000  0.752134  0.920675  1
  B  B18  1  0.500000  0.792592  0.265394  1
  B  B19  1  0.500000  0.207408  0.734606  1
  B  B20  1  0.500000  0.294359  0.234835  1
  B  B21  1  0.500000  0.705641  0.765165  1
  B  B22  1  0.500000  0.632086  0.184733  1
  B  B23  1  0.500000  0.367914  0.815267  1
  B  B24  1  0.500000  0.132915  0.315758  1
  B  B25  1  0.500000  0.867085  0.684242  1
  B  B26  1  0.500000  0.980741  0.212586  1
  B  B27  1  0.500000  0.019259  0.787414  1
  B  B28  1  0.500000  0.481451  0.287278  1
  B  B29  1  0.500000  0.518549  0.712722  1
  B  B30  1  0.500000  0.607544  0.030494  1
  B  B31  1  0.500000  0.392456  0.969506  1
  B  B32  1  0.500000  0.108416  0.470981  1
  B  B33  1  0.500000  0.891584  0.529019  1
  Ir  Ir34  1  0.000000  0.637811  0.322123  1
  Ir  Ir35  1  0.000000  0.362189  0.677877  1
