# generated using pymatgen
data_Sc24Fe7Ni
_symmetry_space_group_name_H-M   'P 1'
_cell_length_a   5.78654516
_cell_length_b   8.44521100
_cell_length_c   13.22371357
_cell_angle_alpha   90.00000000
_cell_angle_beta   90.32599685
_cell_angle_gamma   90.00000000
_symmetry_Int_Tables_number   1
_chemical_formula_structural   Sc24Fe7Ni
_chemical_formula_sum   'Sc24 Fe7 Ni1'
_cell_volume   646.21384097
_cell_formula_units_Z   1
loop_
 _symmetry_equiv_pos_site_id
 _symmetry_equiv_pos_as_xyz
  1  'x, y, z'
loop_
 _atom_site_type_symbol
 _atom_site_label
 _atom_site_symmetry_multiplicity
 _atom_site_fract_x
 _atom_site_fract_y
 _atom_site_fract_z
 _atom_site_occupancy
  Sc  Sc0  1  0.545435  0.750000  0.353469  1
  Sc  Sc1  1  0.044721  0.250000  0.148063  1
  Sc  Sc2  1  0.456452  0.250000  0.647506  1
  Sc  Sc3  1  0.951789  0.750000  0.853563  1
  Sc  Sc4  1  0.782461  0.750000  0.107186  1
  Sc  Sc5  1  0.285000  0.250000  0.392373  1
  Sc  Sc6  1  0.213661  0.250000  0.892412  1
  Sc  Sc7  1  0.712858  0.750000  0.608837  1
  Sc  Sc8  1  0.418120  0.936768  0.789150  1
  Sc  Sc9  1  0.910823  0.069957  0.711272  1
  Sc  Sc10  1  0.582796  0.434225  0.212441  1
  Sc  Sc11  1  0.084836  0.566157  0.287580  1
  Sc  Sc12  1  0.582796  0.065775  0.212441  1
  Sc  Sc13  1  0.084836  0.933843  0.287580  1
  Sc  Sc14  1  0.418120  0.563232  0.789150  1
  Sc  Sc15  1  0.910823  0.430043  0.711272  1
  Sc  Sc16  1  0.245129  0.940638  0.534297  1
  Sc  Sc17  1  0.742094  0.063201  0.964387  1
  Sc  Sc18  1  0.758409  0.436373  0.463929  1
  Sc  Sc19  1  0.257583  0.563195  0.035723  1
  Sc  Sc20  1  0.758409  0.063627  0.463929  1
  Sc  Sc21  1  0.257583  0.936805  0.035723  1
  Sc  Sc22  1  0.245129  0.559362  0.534297  1
  Sc  Sc23  1  0.742094  0.436799  0.964387  1
  Fe  Fe24  1  0.939381  0.750000  0.444508  1
  Fe  Fe25  1  0.435037  0.250000  0.058745  1
  Fe  Fe26  1  0.065379  0.250000  0.559764  1
  Fe  Fe27  1  0.562499  0.750000  0.938919  1
  Fe  Fe28  1  0.373943  0.750000  0.182090  1
  Fe  Fe29  1  0.874116  0.250000  0.318085  1
  Fe  Fe30  1  0.625646  0.250000  0.818392  1
  Ni  Ni31  1  0.132042  0.750000  0.678530  1
