# generated using pymatgen
data_Sr3RuBr2O5
_symmetry_space_group_name_H-M   'P 1'
_cell_length_a   7.50155385
_cell_length_b   7.50155482
_cell_length_c   11.26771400
_cell_angle_alpha   90.00000000
_cell_angle_beta   90.00000000
_cell_angle_gamma   135.12475355
_symmetry_Int_Tables_number   1
_chemical_formula_structural   Sr3RuBr2O5
_chemical_formula_sum   'Sr6 Ru2 Br4 O10'
_cell_volume   447.37906546
_cell_formula_units_Z   2
loop_
 _symmetry_equiv_pos_site_id
 _symmetry_equiv_pos_as_xyz
  1  'x, y, z'
loop_
 _atom_site_type_symbol
 _atom_site_label
 _atom_site_symmetry_multiplicity
 _atom_site_fract_x
 _atom_site_fract_y
 _atom_site_fract_z
 _atom_site_occupancy
  Sr  Sr0  1  0.661255  0.338745  0.537446  1
  Sr  Sr1  1  0.338745  0.661255  0.037446  1
  Sr  Sr2  1  0.661255  0.338745  0.962554  1
  Sr  Sr3  1  0.885622  0.114378  0.750000  1
  Sr  Sr4  1  0.338745  0.661255  0.462554  1
  Sr  Sr5  1  0.114378  0.885622  0.250000  1
  Ru  Ru6  1  0.768177  0.231823  0.250000  1
  Ru  Ru7  1  0.231823  0.768177  0.750000  1
  Br  Br8  1  0.496816  0.503184  0.250000  1
  Br  Br9  1  0.000000  0.000000  0.500000  1
  Br  Br10  1  0.503184  0.496816  0.750000  1
  Br  Br11  1  0.000000  0.000000  0.000000  1
  O  O12  1  0.496782  0.050598  0.365270  1
  O  O13  1  0.050598  0.496782  0.634730  1
  O  O14  1  0.503218  0.949402  0.865270  1
  O  O15  1  0.503218  0.949402  0.634730  1
  O  O16  1  0.109950  0.890050  0.750000  1
  O  O17  1  0.050598  0.496782  0.865270  1
  O  O18  1  0.496782  0.050598  0.134730  1
  O  O19  1  0.949402  0.503218  0.365270  1
  O  O20  1  0.890050  0.109950  0.250000  1
  O  O21  1  0.949402  0.503218  0.134730  1
