# generated using pymatgen
data_Dy16Cd4Co3Ru
_symmetry_space_group_name_H-M   'P 1'
_cell_length_a   9.51826586
_cell_length_b   9.51826555
_cell_length_c   9.55913358
_cell_angle_alpha   60.14131841
_cell_angle_beta   60.14131835
_cell_angle_gamma   59.99999660
_symmetry_Int_Tables_number   1
_chemical_formula_structural   Dy16Cd4Co3Ru
_chemical_formula_sum   'Dy16 Cd4 Co3 Ru1'
_cell_volume   613.68221856
_cell_formula_units_Z   1
loop_
 _symmetry_equiv_pos_site_id
 _symmetry_equiv_pos_as_xyz
  1  'x, y, z'
loop_
 _atom_site_type_symbol
 _atom_site_label
 _atom_site_symmetry_multiplicity
 _atom_site_fract_x
 _atom_site_fract_y
 _atom_site_fract_z
 _atom_site_occupancy
  Dy  Dy0  1  0.151260  0.540581  0.156897  1
  Dy  Dy1  1  0.691553  0.311990  0.684467  1
  Dy  Dy2  1  0.687561  0.312238  0.312640  1
  Dy  Dy3  1  0.937293  0.562723  0.562692  1
  Dy  Dy4  1  0.540581  0.151260  0.156897  1
  Dy  Dy5  1  0.154229  0.154229  0.537313  1
  Dy  Dy6  1  0.937293  0.937293  0.562692  1
  Dy  Dy7  1  0.312238  0.687561  0.312640  1
  Dy  Dy8  1  0.562277  0.938655  0.936790  1
  Dy  Dy9  1  0.562723  0.937293  0.562692  1
  Dy  Dy10  1  0.687561  0.687561  0.312640  1
  Dy  Dy11  1  0.562277  0.562277  0.936790  1
  Dy  Dy12  1  0.938655  0.562277  0.936790  1
  Dy  Dy13  1  0.311990  0.691553  0.684467  1
  Dy  Dy14  1  0.151260  0.151260  0.156897  1
  Dy  Dy15  1  0.311990  0.311990  0.684467  1
  Cd  Cd16  1  0.919867  0.240330  0.919937  1
  Cd  Cd17  1  0.919867  0.919867  0.919937  1
  Cd  Cd18  1  0.920063  0.920063  0.239811  1
  Cd  Cd19  1  0.240330  0.919867  0.919937  1
  Co  Co20  1  0.358542  0.922882  0.360036  1
  Co  Co21  1  0.922882  0.358542  0.360036  1
  Co  Co22  1  0.358542  0.358542  0.360036  1
  Ru  Ru23  1  0.359167  0.359167  0.922501  1
