# generated using pymatgen
data_K8Sc6SiBr20
_symmetry_space_group_name_H-M   'P 1'
_cell_length_a   11.76621517
_cell_length_b   11.76621508
_cell_length_c   11.76621500
_cell_angle_alpha   59.99999741
_cell_angle_beta   59.99999766
_cell_angle_gamma   59.99999656
_symmetry_Int_Tables_number   1
_chemical_formula_structural   K8Sc6SiBr20
_chemical_formula_sum   'K8 Sc6 Si1 Br20'
_cell_volume   1151.84839952
_cell_formula_units_Z   1
loop_
 _symmetry_equiv_pos_site_id
 _symmetry_equiv_pos_as_xyz
  1  'x, y, z'
loop_
 _atom_site_type_symbol
 _atom_site_label
 _atom_site_symmetry_multiplicity
 _atom_site_fract_x
 _atom_site_fract_y
 _atom_site_fract_z
 _atom_site_occupancy
  K  K0  1  0.359113  0.359113  0.359113  1
  K  K1  1  0.640887  0.640887  0.640887  1
  K  K2  1  0.359113  0.359113  0.922659  1
  K  K3  1  0.359113  0.922659  0.359113  1
  K  K4  1  0.640887  0.640887  0.077341  1
  K  K5  1  0.640887  0.077341  0.640887  1
  K  K6  1  0.922659  0.359113  0.359113  1
  K  K7  1  0.077341  0.640887  0.640887  1
  Sc  Sc8  1  0.842715  0.157285  0.157285  1
  Sc  Sc9  1  0.157285  0.842715  0.842715  1
  Sc  Sc10  1  0.157285  0.842715  0.157285  1
  Sc  Sc11  1  0.842715  0.157285  0.842715  1
  Sc  Sc12  1  0.157285  0.157285  0.842715  1
  Sc  Sc13  1  0.842715  0.842715  0.157285  1
  Si  Si14  1  0.000000  0.000000  0.000000  1
  Br  Br15  1  0.328720  0.000000  0.000000  1
  Br  Br16  1  0.671280  0.000000  0.000000  1
  Br  Br17  1  0.000000  0.328720  0.671280  1
  Br  Br18  1  0.000000  0.671280  0.328720  1
  Br  Br19  1  0.000000  0.328720  0.000000  1
  Br  Br20  1  0.671280  0.000000  0.328720  1
  Br  Br21  1  0.000000  0.671280  0.000000  1
  Br  Br22  1  0.328720  0.000000  0.671280  1
  Br  Br23  1  0.000000  0.000000  0.328720  1
  Br  Br24  1  0.000000  0.000000  0.671280  1
  Br  Br25  1  0.671280  0.328720  0.000000  1
  Br  Br26  1  0.328720  0.671280  0.000000  1
  Br  Br27  1  0.679185  0.320815  0.320815  1
  Br  Br28  1  0.320815  0.679185  0.679185  1
  Br  Br29  1  0.320815  0.679185  0.320815  1
  Br  Br30  1  0.679185  0.320815  0.679185  1
  Br  Br31  1  0.320815  0.320815  0.679185  1
  Br  Br32  1  0.679185  0.679185  0.320815  1
  Br  Br33  1  0.250000  0.250000  0.250000  1
  Br  Br34  1  0.750000  0.750000  0.750000  1
