# generated using pymatgen
data_Yb5Pa3GePd24
_symmetry_space_group_name_H-M   'P 1'
_cell_length_a   8.33278830
_cell_length_b   8.33278830
_cell_length_c   8.31611963
_cell_angle_alpha   89.70569925
_cell_angle_beta   89.70569925
_cell_angle_gamma   89.26323667
_symmetry_Int_Tables_number   1
_chemical_formula_structural   Yb5Pa3GePd24
_chemical_formula_sum   'Yb5 Pa3 Ge1 Pd24'
_cell_volume   577.36998771
_cell_formula_units_Z   1
loop_
 _symmetry_equiv_pos_site_id
 _symmetry_equiv_pos_as_xyz
  1  'x, y, z'
loop_
 _atom_site_type_symbol
 _atom_site_label
 _atom_site_symmetry_multiplicity
 _atom_site_fract_x
 _atom_site_fract_y
 _atom_site_fract_z
 _atom_site_occupancy
  Yb  Yb0  1  0.747494  0.250602  0.747569  1
  Yb  Yb1  1  0.253144  0.253144  0.749086  1
  Yb  Yb2  1  0.250720  0.749246  0.252362  1
  Yb  Yb3  1  0.250602  0.747494  0.747569  1
  Yb  Yb4  1  0.749246  0.250720  0.252362  1
  Pa  Pa5  1  0.257875  0.257875  0.258811  1
  Pa  Pa6  1  0.741822  0.741822  0.744796  1
  Pa  Pa7  1  0.744052  0.744052  0.254450  1
  Ge  Ge8  1  0.003800  0.003800  0.996340  1
  Pd  Pd9  1  0.259074  0.498044  0.007282  1
  Pd  Pd10  1  0.741537  0.503865  0.001218  1
  Pd  Pd11  1  0.006141  0.259251  0.495850  1
  Pd  Pd12  1  0.498044  0.259074  0.007282  1
  Pd  Pd13  1  0.990886  0.740443  0.498237  1
  Pd  Pd14  1  0.503865  0.741537  0.001218  1
  Pd  Pd15  1  0.501860  0.998342  0.258892  1
  Pd  Pd16  1  0.259251  0.006141  0.495850  1
  Pd  Pd17  1  0.503788  0.992830  0.740664  1
  Pd  Pd18  1  0.740443  0.990886  0.498237  1
  Pd  Pd19  1  0.998342  0.501860  0.258892  1
  Pd  Pd20  1  0.992830  0.503788  0.740664  1
  Pd  Pd21  1  0.252298  0.498310  0.496541  1
  Pd  Pd22  1  0.746438  0.502382  0.498324  1
  Pd  Pd23  1  0.498310  0.252298  0.496541  1
  Pd  Pd24  1  0.502382  0.746438  0.498324  1
  Pd  Pd25  1  0.502256  0.502256  0.253289  1
  Pd  Pd26  1  0.503625  0.503625  0.748006  1
  Pd  Pd27  1  0.289689  0.003691  0.002774  1
  Pd  Pd28  1  0.713590  0.995897  0.999670  1
  Pd  Pd29  1  0.003691  0.289689  0.002774  1
  Pd  Pd30  1  0.995897  0.713590  0.999670  1
  Pd  Pd31  1  0.999975  0.999975  0.286905  1
  Pd  Pd32  1  0.997035  0.997035  0.709555  1
