# generated using pymatgen
data_Hf3Al3PtAu2
_symmetry_space_group_name_H-M   'P 1'
_cell_length_a   6.78576900
_cell_length_b   6.78576896
_cell_length_c   8.22943700
_cell_angle_alpha   90.00000000
_cell_angle_beta   90.00000000
_cell_angle_gamma   120.00000508
_symmetry_Int_Tables_number   1
_chemical_formula_structural   Hf3Al3PtAu2
_chemical_formula_sum   'Hf6 Al6 Pt2 Au4'
_cell_volume   328.16999794
_cell_formula_units_Z   2
loop_
 _symmetry_equiv_pos_site_id
 _symmetry_equiv_pos_as_xyz
  1  'x, y, z'
loop_
 _atom_site_type_symbol
 _atom_site_label
 _atom_site_symmetry_multiplicity
 _atom_site_fract_x
 _atom_site_fract_y
 _atom_site_fract_z
 _atom_site_occupancy
  Hf  Hf0  1  0.584493  0.994626  0.754202  1
  Hf  Hf1  1  0.005374  0.589867  0.754202  1
  Hf  Hf2  1  0.410133  0.415507  0.754202  1
  Hf  Hf3  1  0.003868  0.578133  0.244731  1
  Hf  Hf4  1  0.574265  0.996132  0.244731  1
  Hf  Hf5  1  0.421867  0.425735  0.244731  1
  Al  Al6  1  0.749366  0.754822  0.996158  1
  Al  Al7  1  0.245178  0.994544  0.996158  1
  Al  Al8  1  0.005456  0.250634  0.996158  1
  Al  Al9  1  0.753587  0.751630  0.505415  1
  Al  Al10  1  0.248370  0.001957  0.505415  1
  Al  Al11  1  0.998043  0.246413  0.505415  1
  Pt  Pt12  1  0.000000  0.000000  0.751033  1
  Pt  Pt13  1  0.333333  0.666667  0.000450  1
  Au  Au14  1  0.000000  0.000000  0.250967  1
  Au  Au15  1  0.666667  0.333333  0.997187  1
  Au  Au16  1  0.666667  0.333333  0.499594  1
  Au  Au17  1  0.333333  0.666667  0.499254  1
