# generated using pymatgen
data_Tm4Co3TcOs4
_symmetry_space_group_name_H-M   'P 1'
_cell_length_a   5.22406517
_cell_length_b   5.19958614
_cell_length_c   8.64460000
_cell_angle_alpha   90.00000000
_cell_angle_beta   90.00000000
_cell_angle_gamma   121.41268377
_symmetry_Int_Tables_number   1
_chemical_formula_structural   Tm4Co3TcOs4
_chemical_formula_sum   'Tm4 Co3 Tc1 Os4'
_cell_volume   200.39779518
_cell_formula_units_Z   1
loop_
 _symmetry_equiv_pos_site_id
 _symmetry_equiv_pos_as_xyz
  1  'x, y, z'
loop_
 _atom_site_type_symbol
 _atom_site_label
 _atom_site_symmetry_multiplicity
 _atom_site_fract_x
 _atom_site_fract_y
 _atom_site_fract_z
 _atom_site_occupancy
  Tm  Tm0  1  0.671468  0.339710  0.560861  1
  Tm  Tm1  1  0.336857  0.671054  0.433002  1
  Tm  Tm2  1  0.336857  0.671054  0.066998  1
  Tm  Tm3  1  0.671468  0.339710  0.939139  1
  Co  Co4  1  0.174182  0.825837  0.750000  1
  Co  Co5  1  0.814853  0.650830  0.250000  1
  Co  Co6  1  0.819346  0.161711  0.250000  1
  Tc  Tc7  1  0.169091  0.329463  0.750000  1
  Os  Os8  1  0.010157  0.012022  0.495686  1
  Os  Os9  1  0.010157  0.012022  0.004314  1
  Os  Os10  1  0.652641  0.819473  0.750000  1
  Os  Os11  1  0.332925  0.167113  0.250000  1
