# generated using pymatgen
data_BaPd4Pb
_symmetry_space_group_name_H-M   'P 1'
_cell_length_a   5.84499500
_cell_length_b   5.68926590
_cell_length_c   4.58054100
_cell_angle_alpha   90.00000000
_cell_angle_beta   90.00000000
_cell_angle_gamma   120.90967466
_symmetry_Int_Tables_number   1
_chemical_formula_structural   BaPd4Pb
_chemical_formula_sum   'Ba1 Pd4 Pb1'
_cell_volume   130.68730242
_cell_formula_units_Z   1
loop_
 _symmetry_equiv_pos_site_id
 _symmetry_equiv_pos_as_xyz
  1  'x, y, z'
loop_
 _atom_site_type_symbol
 _atom_site_label
 _atom_site_symmetry_multiplicity
 _atom_site_fract_x
 _atom_site_fract_y
 _atom_site_fract_z
 _atom_site_occupancy
  Ba  Ba0  1  0.000000  0.000000  0.000000  1
  Pd  Pd1  1  0.000000  0.500000  0.500000  1
  Pd  Pd2  1  0.329736  0.659474  0.000000  1
  Pd  Pd3  1  0.670264  0.340526  0.000000  1
  Pd  Pd4  1  0.500000  0.500000  0.500000  1
  Pb  Pb5  1  0.500000  0.000000  0.500000  1
