# generated using pymatgen
data_Sr3AcMn2O8
_symmetry_space_group_name_H-M   'P 1'
_cell_length_a   5.59052661
_cell_length_b   5.59049970
_cell_length_c   13.18478068
_cell_angle_alpha   77.74377214
_cell_angle_beta   77.74369870
_cell_angle_gamma   89.88774811
_symmetry_Int_Tables_number   1
_chemical_formula_structural   Sr3AcMn2O8
_chemical_formula_sum   'Sr6 Ac2 Mn4 O16'
_cell_volume   393.10384089
_cell_formula_units_Z   2
loop_
 _symmetry_equiv_pos_site_id
 _symmetry_equiv_pos_as_xyz
  1  'x, y, z'
loop_
 _atom_site_type_symbol
 _atom_site_label
 _atom_site_symmetry_multiplicity
 _atom_site_fract_x
 _atom_site_fract_y
 _atom_site_fract_z
 _atom_site_occupancy
  Sr  Sr0  1  0.179896  0.179903  0.640352  1
  Sr  Sr1  1  0.679888  0.679896  0.640360  1
  Sr  Sr2  1  0.316786  0.316795  0.366138  1
  Sr  Sr3  1  0.816784  0.816807  0.366135  1
  Sr  Sr4  1  0.073802  0.573785  0.851218  1
  Sr  Sr5  1  0.573800  0.073775  0.851215  1
  Ac  Ac6  1  0.428341  0.928320  0.143890  1
  Ac  Ac7  1  0.928334  0.428305  0.143914  1
  Mn  Mn8  1  0.503215  0.503218  0.993607  1
  Mn  Mn9  1  0.003270  0.003222  0.993590  1
  Mn  Mn10  1  0.248923  0.748979  0.502130  1
  Mn  Mn11  1  0.748954  0.248996  0.502046  1
  O  O12  1  0.331058  0.831079  0.337643  1
  O  O13  1  0.830820  0.330842  0.338112  1
  O  O14  1  0.080134  0.080097  0.840091  1
  O  O15  1  0.580101  0.580079  0.840112  1
  O  O16  1  0.419121  0.419086  0.161682  1
  O  O17  1  0.919112  0.919087  0.161677  1
  O  O18  1  0.171293  0.671324  0.657809  1
  O  O19  1  0.671458  0.171477  0.657497  1
  O  O20  1  0.248523  0.248544  0.003046  1
  O  O21  1  0.748566  0.748483  0.003038  1
  O  O22  1  0.748583  0.248564  0.003220  1
  O  O23  1  0.248529  0.748494  0.003223  1
  O  O24  1  0.499576  0.999601  0.499623  1
  O  O25  1  0.000769  0.500797  0.499633  1
  O  O26  1  0.000751  0.999657  0.499498  1
  O  O27  1  0.499620  0.500794  0.499500  1
