# generated using pymatgen
data_YbHo3(Ga3Ir)6
_symmetry_space_group_name_H-M   'P 1'
_cell_length_a   7.56882909
_cell_length_b   7.57480665
_cell_length_c   9.51452100
_cell_angle_alpha   90.00000000
_cell_angle_beta   90.00000000
_cell_angle_gamma   119.87569465
_symmetry_Int_Tables_number   1
_chemical_formula_structural   YbHo3(Ga3Ir)6
_chemical_formula_sum   'Yb1 Ho3 Ga18 Ir6'
_cell_volume   472.99923585
_cell_formula_units_Z   1
loop_
 _symmetry_equiv_pos_site_id
 _symmetry_equiv_pos_as_xyz
  1  'x, y, z'
loop_
 _atom_site_type_symbol
 _atom_site_label
 _atom_site_symmetry_multiplicity
 _atom_site_fract_x
 _atom_site_fract_y
 _atom_site_fract_z
 _atom_site_occupancy
  Yb  Yb0  1  0.996965  0.667758  0.250000  1
  Ho  Ho1  1  0.002525  0.332170  0.750000  1
  Ho  Ho2  1  0.667890  0.997363  0.250000  1
  Ho  Ho3  1  0.331959  0.002443  0.750000  1
  Ga  Ga4  1  0.126233  0.126513  0.250000  1
  Ga  Ga5  1  0.873334  0.873275  0.750000  1
  Ga  Ga6  1  0.999737  0.334835  0.079997  1
  Ga  Ga7  1  0.000382  0.665680  0.920710  1
  Ga  Ga8  1  0.000382  0.665680  0.579290  1
  Ga  Ga9  1  0.333405  0.999001  0.420262  1
  Ga  Ga10  1  0.999737  0.334835  0.420003  1
  Ga  Ga11  1  0.665822  0.000732  0.579859  1
  Ga  Ga12  1  0.665822  0.000732  0.920141  1
  Ga  Ga13  1  0.333405  0.999001  0.079738  1
  Ga  Ga14  1  0.332592  0.332569  0.564160  1
  Ga  Ga15  1  0.668022  0.667256  0.436591  1
  Ga  Ga16  1  0.668022  0.667256  0.063409  1
  Ga  Ga17  1  0.332592  0.332569  0.935840  1
  Ga  Ga18  1  0.338154  0.546481  0.250000  1
  Ga  Ga19  1  0.661786  0.453883  0.750000  1
  Ga  Ga20  1  0.546432  0.337928  0.250000  1
  Ga  Ga21  1  0.453702  0.661667  0.750000  1
  Ir  Ir22  1  0.671096  0.328327  0.999777  1
  Ir  Ir23  1  0.328845  0.671387  0.999500  1
  Ir  Ir24  1  0.328845  0.671387  0.500500  1
  Ir  Ir25  1  0.671096  0.328327  0.500223  1
  Ir  Ir26  1  0.000608  0.000472  0.999431  1
  Ir  Ir27  1  0.000608  0.000472  0.500569  1
