# generated using pymatgen
data_Tb4Sn3Sb3Rh7
_symmetry_space_group_name_H-M   'P 1'
_cell_length_a   7.62116907
_cell_length_b   7.63016293
_cell_length_c   7.63016166
_cell_angle_alpha   109.49508144
_cell_angle_beta   109.44735161
_cell_angle_gamma   109.44734933
_symmetry_Int_Tables_number   1
_chemical_formula_structural   Tb4Sn3Sb3Rh7
_chemical_formula_sum   'Tb4 Sn3 Sb3 Rh7'
_cell_volume   341.66076129
_cell_formula_units_Z   1
loop_
 _symmetry_equiv_pos_site_id
 _symmetry_equiv_pos_as_xyz
  1  'x, y, z'
loop_
 _atom_site_type_symbol
 _atom_site_label
 _atom_site_symmetry_multiplicity
 _atom_site_fract_x
 _atom_site_fract_y
 _atom_site_fract_z
 _atom_site_occupancy
  Tb  Tb0  1  0.487507  0.000000  0.000000  1
  Tb  Tb1  1  0.997700  0.502687  0.000000  1
  Tb  Tb2  1  0.997700  0.000000  0.502687  1
  Tb  Tb3  1  0.495013  0.497313  0.497313  1
  Sn  Sn4  1  0.993009  0.307574  0.307574  1
  Sn  Sn5  1  0.685436  0.000000  0.692426  1
  Sn  Sn6  1  0.685436  0.692426  0.000000  1
  Sb  Sb7  1  0.995123  0.674224  0.674224  1
  Sb  Sb8  1  0.320899  0.000000  0.325776  1
  Sb  Sb9  1  0.320899  0.325776  0.000000  1
  Rh  Rh10  1  0.017073  0.000000  0.000000  1
  Rh  Rh11  1  0.502842  0.753245  0.253177  1
  Rh  Rh12  1  0.749596  0.499932  0.246755  1
  Rh  Rh13  1  0.249664  0.746823  0.500068  1
  Rh  Rh14  1  0.249664  0.500068  0.746823  1
  Rh  Rh15  1  0.502842  0.253177  0.753245  1
  Rh  Rh16  1  0.749596  0.246755  0.499932  1
