# generated using pymatgen
data_Zr6Al2Ga3(SiNi8)2
_symmetry_space_group_name_H-M   'P 1'
_cell_length_a   8.24955126
_cell_length_b   8.25842412
_cell_length_c   8.29137329
_cell_angle_alpha   59.92804312
_cell_angle_beta   59.90900453
_cell_angle_gamma   60.29404510
_symmetry_Int_Tables_number   1
_chemical_formula_structural   Zr6Al2Ga3(SiNi8)2
_chemical_formula_sum   'Zr6 Al2 Ga3 Si2 Ni16'
_cell_volume   399.81256768
_cell_formula_units_Z   1
loop_
 _symmetry_equiv_pos_site_id
 _symmetry_equiv_pos_as_xyz
  1  'x, y, z'
loop_
 _atom_site_type_symbol
 _atom_site_label
 _atom_site_symmetry_multiplicity
 _atom_site_fract_x
 _atom_site_fract_y
 _atom_site_fract_z
 _atom_site_occupancy
  Zr  Zr0  1  0.792583  0.206754  0.793300  1
  Zr  Zr1  1  0.791106  0.791877  0.208129  1
  Zr  Zr2  1  0.207072  0.792945  0.792975  1
  Zr  Zr3  1  0.208894  0.208123  0.791871  1
  Zr  Zr4  1  0.792928  0.207055  0.207025  1
  Zr  Zr5  1  0.207417  0.793246  0.206700  1
  Al  Al6  1  0.500000  0.500000  0.500000  1
  Al  Al7  1  0.000000  0.500000  0.500000  1
  Ga  Ga8  1  0.000000  0.500000  0.000000  1
  Ga  Ga9  1  0.500000  0.000000  0.500000  1
  Ga  Ga10  1  0.500000  0.000000  0.000000  1
  Si  Si11  1  0.500000  0.500000  0.000000  1
  Si  Si12  1  0.000000  0.000000  0.500000  1
  Ni  Ni13  1  0.165593  0.166098  0.175827  1
  Ni  Ni14  1  0.617912  0.617335  0.140063  1
  Ni  Ni15  1  0.379777  0.382865  0.376521  1
  Ni  Ni16  1  0.174623  0.493323  0.166996  1
  Ni  Ni17  1  0.165173  0.166965  0.493463  1
  Ni  Ni18  1  0.139178  0.623477  0.617154  1
  Ni  Ni19  1  0.624639  0.140085  0.617378  1
  Ni  Ni20  1  0.834407  0.833902  0.824173  1
  Ni  Ni21  1  0.860822  0.376523  0.382846  1
  Ni  Ni22  1  0.382088  0.382665  0.859937  1
  Ni  Ni23  1  0.375361  0.859915  0.382622  1
  Ni  Ni24  1  0.507635  0.824051  0.833849  1
  Ni  Ni25  1  0.620223  0.617135  0.623479  1
  Ni  Ni26  1  0.834827  0.833035  0.506537  1
  Ni  Ni27  1  0.492365  0.175949  0.166151  1
  Ni  Ni28  1  0.825377  0.506677  0.833004  1
