# generated using pymatgen
data_NdPa5(Al3Os)8
_symmetry_space_group_name_H-M   'P 1'
_cell_length_a   8.88467598
_cell_length_b   8.88467614
_cell_length_c   9.44993500
_cell_angle_alpha   90.00000000
_cell_angle_beta   90.00000000
_cell_angle_gamma   119.90621677
_symmetry_Int_Tables_number   1
_chemical_formula_structural   NdPa5(Al3Os)8
_chemical_formula_sum   'Nd1 Pa5 Al24 Os8'
_cell_volume   646.62470173
_cell_formula_units_Z   1
loop_
 _symmetry_equiv_pos_site_id
 _symmetry_equiv_pos_as_xyz
  1  'x, y, z'
loop_
 _atom_site_type_symbol
 _atom_site_label
 _atom_site_symmetry_multiplicity
 _atom_site_fract_x
 _atom_site_fract_y
 _atom_site_fract_z
 _atom_site_occupancy
  Nd  Nd0  1  0.807096  0.192904  0.750000  1
  Pa  Pa1  1  0.195944  0.395549  0.250000  1
  Pa  Pa2  1  0.800403  0.606434  0.750000  1
  Pa  Pa3  1  0.604451  0.804056  0.250000  1
  Pa  Pa4  1  0.393566  0.199597  0.750000  1
  Pa  Pa5  1  0.198203  0.801797  0.250000  1
  Al  Al6  1  0.334317  0.665683  0.015915  1
  Al  Al7  1  0.668706  0.331294  0.980191  1
  Al  Al8  1  0.668706  0.331294  0.519809  1
  Al  Al9  1  0.334317  0.665683  0.484085  1
  Al  Al10  1  0.162207  0.324817  0.576953  1
  Al  Al11  1  0.837745  0.676121  0.421205  1
  Al  Al12  1  0.675183  0.837793  0.576953  1
  Al  Al13  1  0.837745  0.676121  0.078795  1
  Al  Al14  1  0.323879  0.162255  0.421205  1
  Al  Al15  1  0.162207  0.324817  0.923047  1
  Al  Al16  1  0.161523  0.838477  0.579472  1
  Al  Al17  1  0.323879  0.162255  0.078795  1
  Al  Al18  1  0.837833  0.162167  0.420459  1
  Al  Al19  1  0.675183  0.837793  0.923047  1
  Al  Al20  1  0.837833  0.162167  0.079541  1
  Al  Al21  1  0.161523  0.838477  0.920528  1
  Al  Al22  1  0.563351  0.127650  0.250000  1
  Al  Al23  1  0.438995  0.877802  0.750000  1
  Al  Al24  1  0.872350  0.436649  0.250000  1
  Al  Al25  1  0.122198  0.561005  0.750000  1
  Al  Al26  1  0.562224  0.437776  0.250000  1
  Al  Al27  1  0.436067  0.563933  0.750000  1
  Al  Al28  1  0.000132  0.999868  0.250000  1
  Al  Al29  1  0.002599  0.997401  0.750000  1
  Os  Os30  1  0.495130  0.995560  0.005417  1
  Os  Os31  1  0.004440  0.504870  0.005417  1
  Os  Os32  1  0.495130  0.995560  0.494583  1
  Os  Os33  1  0.500672  0.499328  0.999233  1
  Os  Os34  1  0.004440  0.504870  0.494583  1
  Os  Os35  1  0.500672  0.499328  0.500767  1
  Os  Os36  1  0.999575  0.000425  0.000337  1
  Os  Os37  1  0.999575  0.000425  0.499663  1
