# generated using pymatgen
data_Tm12Mn2CdIn2
_symmetry_space_group_name_H-M   'P 1'
_cell_length_a   8.34674113
_cell_length_b   8.34674077
_cell_length_c   8.34674121
_cell_angle_alpha   109.83420652
_cell_angle_beta   109.83420244
_cell_angle_gamma   108.74766612
_symmetry_Int_Tables_number   1
_chemical_formula_structural   Tm12Mn2CdIn2
_chemical_formula_sum   'Tm12 Mn2 Cd1 In2'
_cell_volume   447.58658578
_cell_formula_units_Z   1
loop_
 _symmetry_equiv_pos_site_id
 _symmetry_equiv_pos_as_xyz
  1  'x, y, z'
loop_
 _atom_site_type_symbol
 _atom_site_label
 _atom_site_symmetry_multiplicity
 _atom_site_fract_x
 _atom_site_fract_y
 _atom_site_fract_z
 _atom_site_occupancy
  Tm  Tm0  1  0.208622  0.454529  0.245906  1
  Tm  Tm1  1  0.791378  0.545471  0.754094  1
  Tm  Tm2  1  0.208622  0.962716  0.754094  1
  Tm  Tm3  1  0.962716  0.208622  0.754094  1
  Tm  Tm4  1  0.791378  0.037284  0.245906  1
  Tm  Tm5  1  0.037284  0.791378  0.245906  1
  Tm  Tm6  1  0.454529  0.208622  0.245906  1
  Tm  Tm7  1  0.545471  0.791378  0.754094  1
  Tm  Tm8  1  0.304309  0.304309  0.608617  1
  Tm  Tm9  1  0.695691  0.695691  0.391383  1
  Tm  Tm10  1  0.695691  0.304309  0.000000  1
  Tm  Tm11  1  0.304309  0.695691  0.000000  1
  Mn  Mn12  1  0.391632  0.391632  0.000000  1
  Mn  Mn13  1  0.608368  0.608368  0.000000  1
  Cd  Cd14  1  0.000000  0.000000  0.000000  1
  In  In15  1  0.000000  0.500000  0.500000  1
  In  In16  1  0.500000  0.000000  0.500000  1
