# generated using pymatgen
data_Li3Ho2Co16(TcP4)3
_symmetry_space_group_name_H-M   'P 1'
_cell_length_a   11.85530600
_cell_length_b   11.85530636
_cell_length_c   3.65849900
_cell_angle_alpha   90.00000000
_cell_angle_beta   90.00000000
_cell_angle_gamma   120.00000459
_symmetry_Int_Tables_number   1
_chemical_formula_structural   Li3Ho2Co16(TcP4)3
_chemical_formula_sum   'Li3 Ho2 Co16 Tc3 P12'
_cell_volume   445.30656888
_cell_formula_units_Z   1
loop_
 _symmetry_equiv_pos_site_id
 _symmetry_equiv_pos_as_xyz
  1  'x, y, z'
loop_
 _atom_site_type_symbol
 _atom_site_label
 _atom_site_symmetry_multiplicity
 _atom_site_fract_x
 _atom_site_fract_y
 _atom_site_fract_z
 _atom_site_occupancy
  Li  Li0  1  0.815226  0.815226  0.500000  1
  Li  Li1  1  0.184774  0.000000  0.500000  1
  Li  Li2  1  0.000000  0.184774  0.500000  1
  Ho  Ho3  1  0.666667  0.333333  0.000000  1
  Ho  Ho4  1  0.333333  0.666667  0.000000  1
  Co  Co5  1  0.874008  0.353486  0.500000  1
  Co  Co6  1  0.646514  0.520523  0.500000  1
  Co  Co7  1  0.479477  0.125992  0.500000  1
  Co  Co8  1  0.353486  0.874008  0.500000  1
  Co  Co9  1  0.520523  0.646514  0.500000  1
  Co  Co10  1  0.125992  0.479477  0.500000  1
  Co  Co11  1  0.805663  0.178200  0.000000  1
  Co  Co12  1  0.821800  0.627461  0.000000  1
  Co  Co13  1  0.372539  0.194337  0.000000  1
  Co  Co14  1  0.178200  0.805663  0.000000  1
  Co  Co15  1  0.627461  0.821800  0.000000  1
  Co  Co16  1  0.194337  0.372539  0.000000  1
  Co  Co17  1  0.276260  0.276260  0.500000  1
  Co  Co18  1  0.723740  0.000000  0.500000  1
  Co  Co19  1  0.000000  0.723740  0.500000  1
  Co  Co20  1  0.000000  0.000000  0.000000  1
  Tc  Tc21  1  0.450228  0.450228  0.000000  1
  Tc  Tc22  1  0.549772  0.000000  0.000000  1
  Tc  Tc23  1  0.000000  0.549772  0.000000  1
  P  P24  1  0.685266  0.162003  0.500000  1
  P  P25  1  0.837997  0.523263  0.500000  1
  P  P26  1  0.476737  0.314734  0.500000  1
  P  P27  1  0.162003  0.685266  0.500000  1
  P  P28  1  0.523263  0.837997  0.500000  1
  P  P29  1  0.314734  0.476737  0.500000  1
  P  P30  1  0.175540  0.175540  0.000000  1
  P  P31  1  0.824460  0.000000  0.000000  1
  P  P32  1  0.000000  0.824460  0.000000  1
  P  P33  1  0.645737  0.645737  0.000000  1
  P  P34  1  0.354263  0.000000  0.000000  1
  P  P35  1  0.000000  0.354263  0.000000  1
