# generated using pymatgen
data_Pr20Si11Au
_symmetry_space_group_name_H-M   'P 1'
_cell_length_a   7.81850800
_cell_length_b   7.81850800
_cell_length_c   14.42834500
_cell_angle_alpha   90.00000000
_cell_angle_beta   90.00000000
_cell_angle_gamma   90.00000000
_symmetry_Int_Tables_number   1
_chemical_formula_structural   Pr20Si11Au
_chemical_formula_sum   'Pr20 Si11 Au1'
_cell_volume   881.99127320
_cell_formula_units_Z   1
loop_
 _symmetry_equiv_pos_site_id
 _symmetry_equiv_pos_as_xyz
  1  'x, y, z'
loop_
 _atom_site_type_symbol
 _atom_site_label
 _atom_site_symmetry_multiplicity
 _atom_site_fract_x
 _atom_site_fract_y
 _atom_site_fract_z
 _atom_site_occupancy
  Pr  Pr0  1  0.318370  0.673338  0.107323  1
  Pr  Pr1  1  0.173338  0.181630  0.107323  1
  Pr  Pr2  1  0.500000  0.000000  0.727915  1
  Pr  Pr3  1  0.328208  0.686553  0.394833  1
  Pr  Pr4  1  0.659874  0.689699  0.891003  1
  Pr  Pr5  1  0.186553  0.171792  0.394833  1
  Pr  Pr6  1  0.671792  0.313447  0.394833  1
  Pr  Pr7  1  0.171665  0.814980  0.604885  1
  Pr  Pr8  1  0.340126  0.310301  0.891003  1
  Pr  Pr9  1  0.189699  0.840126  0.891003  1
  Pr  Pr10  1  0.500000  0.000000  0.231835  1
  Pr  Pr11  1  0.828335  0.185020  0.604885  1
  Pr  Pr12  1  0.314980  0.328335  0.604885  1
  Pr  Pr13  1  0.813447  0.828208  0.394833  1
  Pr  Pr14  1  0.810301  0.159874  0.891003  1
  Pr  Pr15  1  0.826662  0.818370  0.107323  1
  Pr  Pr16  1  0.000000  0.500000  0.271475  1
  Pr  Pr17  1  0.000000  0.500000  0.778668  1
  Pr  Pr18  1  0.681630  0.326662  0.107323  1
  Pr  Pr19  1  0.685020  0.671665  0.604885  1
  Si  Si20  1  0.113109  0.116084  0.746517  1
  Si  Si21  1  0.383916  0.613109  0.746517  1
  Si  Si22  1  0.614705  0.613181  0.251882  1
  Si  Si23  1  0.500000  0.000000  0.007665  1
  Si  Si24  1  0.113181  0.885295  0.251882  1
  Si  Si25  1  0.616084  0.386891  0.746517  1
  Si  Si26  1  0.886891  0.883916  0.746517  1
  Si  Si27  1  0.385295  0.386819  0.251882  1
  Si  Si28  1  0.886819  0.114705  0.251882  1
  Si  Si29  1  0.500000  0.000000  0.505989  1
  Si  Si30  1  0.000000  0.500000  0.492717  1
  Au  Au31  1  0.000000  0.500000  0.997966  1
