# generated using pymatgen
data_Tb3Fe2Sb3O14
_symmetry_space_group_name_H-M   'P 1'
_cell_length_a   7.21942811
_cell_length_b   7.19170731
_cell_length_c   7.21449448
_cell_angle_alpha   117.54269990
_cell_angle_beta   62.60274449
_cell_angle_gamma   117.51617333
_symmetry_Int_Tables_number   1
_chemical_formula_structural   Tb3Fe2Sb3O14
_chemical_formula_sum   'Tb3 Fe2 Sb3 O14'
_cell_volume   279.70593866
_cell_formula_units_Z   1
loop_
 _symmetry_equiv_pos_site_id
 _symmetry_equiv_pos_as_xyz
  1  'x, y, z'
loop_
 _atom_site_type_symbol
 _atom_site_label
 _atom_site_symmetry_multiplicity
 _atom_site_fract_x
 _atom_site_fract_y
 _atom_site_fract_z
 _atom_site_occupancy
  Tb  Tb0  1  0.000009  0.500002  0.999997  1
  Tb  Tb1  1  0.499999  0.000003  0.000003  1
  Tb  Tb2  1  0.499989  0.499989  0.500008  1
  Fe  Fe3  1  0.500087  0.499994  0.000079  1
  Fe  Fe4  1  0.999946  0.999968  0.499973  1
  Sb  Sb5  1  0.499991  0.000005  0.499999  1
  Sb  Sb6  1  0.999998  0.500006  0.499995  1
  Sb  Sb7  1  0.000007  0.000010  0.999990  1
  O  O8  1  0.617775  0.385324  0.117292  1
  O  O9  1  0.382262  0.614668  0.882740  1
  O  O10  1  0.076492  0.322952  0.178095  1
  O  O11  1  0.676487  0.915812  0.176209  1
  O  O12  1  0.677895  0.323411  0.578439  1
  O  O13  1  0.923501  0.677062  0.821892  1
  O  O14  1  0.323514  0.084200  0.823784  1
  O  O15  1  0.322101  0.676595  0.421545  1
  O  O16  1  0.645433  0.904521  0.597045  1
  O  O17  1  0.095410  0.352142  0.594913  1
  O  O18  1  0.097013  0.905034  0.146025  1
  O  O19  1  0.354526  0.095477  0.402954  1
  O  O20  1  0.904578  0.647854  0.405073  1
  O  O21  1  0.902983  0.094973  0.853951  1
