# generated using pymatgen
data_Tb8Hg4IrAu7
_symmetry_space_group_name_H-M   'P 1'
_cell_length_a   8.02319508
_cell_length_b   8.02319577
_cell_length_c   7.38715300
_cell_angle_alpha   90.06449279
_cell_angle_beta   90.06449280
_cell_angle_gamma   90.18240838
_symmetry_Int_Tables_number   1
_chemical_formula_structural   Tb8Hg4IrAu7
_chemical_formula_sum   'Tb8 Hg4 Ir1 Au7'
_cell_volume   475.52032314
_cell_formula_units_Z   1
loop_
 _symmetry_equiv_pos_site_id
 _symmetry_equiv_pos_as_xyz
  1  'x, y, z'
loop_
 _atom_site_type_symbol
 _atom_site_label
 _atom_site_symmetry_multiplicity
 _atom_site_fract_x
 _atom_site_fract_y
 _atom_site_fract_z
 _atom_site_occupancy
  Tb  Tb0  1  0.179583  0.179583  0.008305  1
  Tb  Tb1  1  0.831619  0.831619  0.998724  1
  Tb  Tb2  1  0.657555  0.325255  0.493389  1
  Tb  Tb3  1  0.325255  0.657555  0.493389  1
  Tb  Tb4  1  0.658136  0.325077  0.006685  1
  Tb  Tb5  1  0.325077  0.658136  0.006685  1
  Tb  Tb6  1  0.830935  0.830935  0.500999  1
  Tb  Tb7  1  0.179659  0.179659  0.492220  1
  Hg  Hg8  1  0.497445  0.004067  0.248777  1
  Hg  Hg9  1  0.500078  0.994415  0.750474  1
  Hg  Hg10  1  0.004067  0.497445  0.248777  1
  Hg  Hg11  1  0.994415  0.500078  0.750474  1
  Ir  Ir12  1  0.375631  0.375631  0.250108  1
  Au  Au13  1  0.627662  0.627662  0.750521  1
  Au  Au14  1  0.630149  0.630149  0.249174  1
  Au  Au15  1  0.875609  0.131328  0.749857  1
  Au  Au16  1  0.874353  0.128015  0.250541  1
  Au  Au17  1  0.373427  0.373427  0.750506  1
  Au  Au18  1  0.128015  0.874353  0.250541  1
  Au  Au19  1  0.131328  0.875609  0.749857  1
