# generated using pymatgen
data_Tm6MnAl24Fe4RuAu2
_symmetry_space_group_name_H-M   'P 1'
_cell_length_a   8.78717119
_cell_length_b   8.74164418
_cell_length_c   9.36538500
_cell_angle_alpha   90.05531215
_cell_angle_beta   89.95959314
_cell_angle_gamma   119.69892467
_symmetry_Int_Tables_number   1
_chemical_formula_structural   Tm6MnAl24Fe4RuAu2
_chemical_formula_sum   'Tm6 Mn1 Al24 Fe4 Ru1 Au2'
_cell_volume   624.89616756
_cell_formula_units_Z   1
loop_
 _symmetry_equiv_pos_site_id
 _symmetry_equiv_pos_as_xyz
  1  'x, y, z'
loop_
 _atom_site_type_symbol
 _atom_site_label
 _atom_site_symmetry_multiplicity
 _atom_site_fract_x
 _atom_site_fract_y
 _atom_site_fract_z
 _atom_site_occupancy
  Tm  Tm0  1  0.808718  0.195308  0.754365  1
  Tm  Tm1  1  0.191282  0.804692  0.245635  1
  Tm  Tm2  1  0.386237  0.195424  0.753564  1
  Tm  Tm3  1  0.613763  0.804576  0.246436  1
  Tm  Tm4  1  0.805861  0.611323  0.746713  1
  Tm  Tm5  1  0.194139  0.388677  0.253287  1
  Mn  Mn6  1  0.500000  0.500000  0.000000  1
  Al  Al7  1  0.677188  0.349130  0.978560  1
  Al  Al8  1  0.322812  0.650870  0.021440  1
  Al  Al9  1  0.331741  0.679536  0.477861  1
  Al  Al10  1  0.668259  0.320464  0.522139  1
  Al  Al11  1  0.838650  0.158649  0.422097  1
  Al  Al12  1  0.161350  0.841351  0.577903  1
  Al  Al13  1  0.316676  0.145168  0.424594  1
  Al  Al14  1  0.147168  0.828410  0.921739  1
  Al  Al15  1  0.683324  0.854832  0.575406  1
  Al  Al16  1  0.852832  0.171590  0.078261  1
  Al  Al17  1  0.850798  0.683287  0.420654  1
  Al  Al18  1  0.683109  0.830649  0.921603  1
  Al  Al19  1  0.149202  0.316713  0.579346  1
  Al  Al20  1  0.316891  0.169351  0.078397  1
  Al  Al21  1  0.158767  0.320712  0.924009  1
  Al  Al22  1  0.841233  0.679288  0.075991  1
  Al  Al23  1  0.436282  0.563756  0.761103  1
  Al  Al24  1  0.563718  0.436244  0.238897  1
  Al  Al25  1  0.116375  0.558370  0.754725  1
  Al  Al26  1  0.883625  0.441630  0.245275  1
  Al  Al27  1  0.438268  0.877384  0.737480  1
  Al  Al28  1  0.561732  0.122616  0.262520  1
  Al  Al29  1  0.002424  0.000349  0.749950  1
  Al  Al30  1  0.997576  0.999651  0.250050  1
  Fe  Fe31  1  0.000000  0.500000  0.000000  1
  Fe  Fe32  1  0.500000  0.000000  0.500000  1
  Fe  Fe33  1  0.000000  0.000000  0.000000  1
  Fe  Fe34  1  0.000000  0.000000  0.500000  1
  Ru  Ru35  1  0.000000  0.500000  0.500000  1
  Au  Au36  1  0.500000  0.500000  0.500000  1
  Au  Au37  1  0.500000  0.000000  0.000000  1
