# generated using pymatgen
data_Nd7Dy10Lu3Si16
_symmetry_space_group_name_H-M   'P 1'
_cell_length_a   7.73214097
_cell_length_b   7.73691664
_cell_length_c   14.30214822
_cell_angle_alpha   89.98220971
_cell_angle_beta   89.91192288
_cell_angle_gamma   90.08459895
_symmetry_Int_Tables_number   1
_chemical_formula_structural   Nd7Dy10Lu3Si16
_chemical_formula_sum   'Nd7 Dy10 Lu3 Si16'
_cell_volume   855.59442773
_cell_formula_units_Z   1
loop_
 _symmetry_equiv_pos_site_id
 _symmetry_equiv_pos_as_xyz
  1  'x, y, z'
loop_
 _atom_site_type_symbol
 _atom_site_label
 _atom_site_symmetry_multiplicity
 _atom_site_fract_x
 _atom_site_fract_y
 _atom_site_fract_z
 _atom_site_occupancy
  Nd  Nd0  1  0.358998  0.007167  0.958116  1
  Nd  Nd1  1  0.992350  0.642452  0.540541  1
  Nd  Nd2  1  0.490416  0.858853  0.209540  1
  Nd  Nd3  1  0.510000  0.138742  0.707562  1
  Nd  Nd4  1  0.860990  0.490447  0.791974  1
  Nd  Nd5  1  0.138594  0.509459  0.292444  1
  Nd  Nd6  1  0.007248  0.358714  0.042698  1
  Dy  Dy7  1  0.491362  0.361505  0.124705  1
  Dy  Dy8  1  0.991556  0.135882  0.624514  1
  Dy  Dy9  1  0.862714  0.008469  0.874991  1
  Dy  Dy10  1  0.136836  0.992890  0.374840  1
  Dy  Dy11  1  0.511870  0.639645  0.623064  1
  Dy  Dy12  1  0.361295  0.490975  0.875473  1
  Dy  Dy13  1  0.639458  0.510348  0.375790  1
  Dy  Dy14  1  0.006767  0.861931  0.126713  1
  Dy  Dy15  1  0.635854  0.996133  0.455946  1
  Dy  Dy16  1  0.316363  0.317158  0.499596  1
  Lu  Lu17  1  0.185247  0.815442  0.749253  1
  Lu  Lu18  1  0.813720  0.183300  0.250592  1
  Lu  Lu19  1  0.683348  0.682315  0.000430  1
  Si  Si20  1  0.293347  0.937083  0.561210  1
  Si  Si21  1  0.709054  0.063043  0.062830  1
  Si  Si22  1  0.932077  0.288061  0.437341  1
  Si  Si23  1  0.438006  0.208967  0.311918  1
  Si  Si24  1  0.565130  0.788457  0.812559  1
  Si  Si25  1  0.211089  0.436964  0.688084  1
  Si  Si26  1  0.788721  0.564782  0.187968  1
  Si  Si27  1  0.064645  0.710032  0.938064  1
  Si  Si28  1  0.800339  0.843135  0.691506  1
  Si  Si29  1  0.202729  0.154085  0.189967  1
  Si  Si30  1  0.842642  0.801807  0.313504  1
  Si  Si31  1  0.349519  0.707303  0.437884  1
  Si  Si32  1  0.654064  0.296714  0.940137  1
  Si  Si33  1  0.701822  0.341866  0.558618  1
  Si  Si34  1  0.296591  0.654393  0.060447  1
  Si  Si35  1  0.155236  0.201480  0.809179  1
