# generated using pymatgen
data_TbEr9(In2Bi)2
_symmetry_space_group_name_H-M   'P 1'
_cell_length_a   8.98251012
_cell_length_b   8.97944625
_cell_length_c   6.56137600
_cell_angle_alpha   90.00000000
_cell_angle_beta   90.00000000
_cell_angle_gamma   120.03932302
_symmetry_Int_Tables_number   1
_chemical_formula_structural   TbEr9(In2Bi)2
_chemical_formula_sum   'Tb1 Er9 In4 Bi2'
_cell_volume   458.14252424
_cell_formula_units_Z   1
loop_
 _symmetry_equiv_pos_site_id
 _symmetry_equiv_pos_as_xyz
  1  'x, y, z'
loop_
 _atom_site_type_symbol
 _atom_site_label
 _atom_site_symmetry_multiplicity
 _atom_site_fract_x
 _atom_site_fract_y
 _atom_site_fract_z
 _atom_site_occupancy
  Tb  Tb0  1  0.769895  0.761201  0.750000  1
  Er  Er1  1  0.670665  0.338001  0.006665  1
  Er  Er2  1  0.329101  0.667180  0.006347  1
  Er  Er3  1  0.329101  0.667180  0.493653  1
  Er  Er4  1  0.670665  0.338001  0.493335  1
  Er  Er5  1  0.230378  0.991322  0.750000  1
  Er  Er6  1  0.000154  0.241267  0.750000  1
  Er  Er7  1  0.236408  0.236996  0.250000  1
  Er  Er8  1  0.763198  0.000827  0.250000  1
  Er  Er9  1  0.000193  0.761722  0.250000  1
  In  In10  1  0.000877  0.597486  0.750000  1
  In  In11  1  0.604831  0.606946  0.250000  1
  In  In12  1  0.395378  0.002292  0.250000  1
  In  In13  1  0.000035  0.395875  0.250000  1
  Bi  Bi14  1  0.394610  0.393783  0.750000  1
  Bi  Bi15  1  0.604509  0.999920  0.750000  1
