# generated using pymatgen
data_Pr2Co3Si4Ir2Rh
_symmetry_space_group_name_H-M   'P 1'
_cell_length_a   6.60500519
_cell_length_b   6.54118953
_cell_length_c   6.61548433
_cell_angle_alpha   131.23857377
_cell_angle_beta   115.36762927
_cell_angle_gamma   85.15581311
_symmetry_Int_Tables_number   1
_chemical_formula_structural   Pr2Co3Si4Ir2Rh
_chemical_formula_sum   'Pr2 Co3 Si4 Ir2 Rh1'
_cell_volume   185.77811103
_cell_formula_units_Z   1
loop_
 _symmetry_equiv_pos_site_id
 _symmetry_equiv_pos_as_xyz
  1  'x, y, z'
loop_
 _atom_site_type_symbol
 _atom_site_label
 _atom_site_symmetry_multiplicity
 _atom_site_fract_x
 _atom_site_fract_y
 _atom_site_fract_z
 _atom_site_occupancy
  Pr  Pr0  1  0.255328  0.975206  0.726480  1
  Pr  Pr1  1  0.752090  0.024984  0.280603  1
  Co  Co2  1  0.276783  0.999880  0.277308  1
  Co  Co3  1  0.721556  0.000355  0.721340  1
  Co  Co4  1  0.219505  0.499752  0.719784  1
  Si  Si5  1  0.077860  0.270462  0.202998  1
  Si  Si6  1  0.931317  0.729233  0.806191  1
  Si  Si7  1  0.421723  0.639675  0.203246  1
  Si  Si8  1  0.563494  0.360803  0.781096  1
  Ir  Ir9  1  0.002547  0.493896  0.993835  1
  Ir  Ir10  1  0.778400  0.500182  0.279156  1
  Rh  Rh11  1  0.499398  0.505574  0.507963  1
