# generated using pymatgen
data_YHo6ErC10
_symmetry_space_group_name_H-M   'P 1'
_cell_length_a   3.65083600
_cell_length_b   6.54741606
_cell_length_c   11.88233400
_cell_angle_alpha   90.07120609
_cell_angle_beta   90.00000000
_cell_angle_gamma   90.00000000
_symmetry_Int_Tables_number   1
_chemical_formula_structural   YHo6ErC10
_chemical_formula_sum   'Y1 Ho6 Er1 C10'
_cell_volume   284.02965340
_cell_formula_units_Z   1
loop_
 _symmetry_equiv_pos_site_id
 _symmetry_equiv_pos_as_xyz
  1  'x, y, z'
loop_
 _atom_site_type_symbol
 _atom_site_label
 _atom_site_symmetry_multiplicity
 _atom_site_fract_x
 _atom_site_fract_y
 _atom_site_fract_z
 _atom_site_occupancy
  Y  Y0  1  0.500000  0.893250  0.197008  1
  Ho  Ho1  1  0.500000  0.391903  0.304111  1
  Ho  Ho2  1  0.500000  0.606264  0.696806  1
  Ho  Ho3  1  0.500000  0.108284  0.803654  1
  Ho  Ho4  1  0.000000  0.749984  0.956086  1
  Ho  Ho5  1  0.000000  0.262764  0.542177  1
  Ho  Ho6  1  0.000000  0.750159  0.456313  1
  Er  Er7  1  0.000000  0.236628  0.041667  1
  C  C8  1  0.500000  0.990370  0.999540  1
  C  C9  1  0.500000  0.511399  0.500882  1
  C  C10  1  0.000000  0.137825  0.234629  1
  C  C11  1  0.000000  0.856136  0.762192  1
  C  C12  1  0.000000  0.364637  0.735676  1
  C  C13  1  0.000000  0.641536  0.262426  1
  C  C14  1  0.000000  0.112880  0.346287  1
  C  C15  1  0.000000  0.924334  0.656595  1
  C  C16  1  0.000000  0.386855  0.847603  1
  C  C17  1  0.000000  0.574793  0.156346  1
