# generated using pymatgen
data_Y15Th(CdNi)4
_symmetry_space_group_name_H-M   'P 1'
_cell_length_a   9.65314736
_cell_length_b   9.65314713
_cell_length_c   9.65314701
_cell_angle_alpha   60.00413948
_cell_angle_beta   60.00413902
_cell_angle_gamma   60.00414078
_symmetry_Int_Tables_number   1
_chemical_formula_structural   Y15Th(CdNi)4
_chemical_formula_sum   'Y15 Th1 Cd4 Ni4'
_cell_volume   636.11046904
_cell_formula_units_Z   1
loop_
 _symmetry_equiv_pos_site_id
 _symmetry_equiv_pos_as_xyz
  1  'x, y, z'
loop_
 _atom_site_type_symbol
 _atom_site_label
 _atom_site_symmetry_multiplicity
 _atom_site_fract_x
 _atom_site_fract_y
 _atom_site_fract_z
 _atom_site_occupancy
  Y  Y0  1  0.598965  0.598965  0.200237  1
  Y  Y1  1  0.598965  0.200237  0.598965  1
  Y  Y2  1  0.200237  0.598965  0.598965  1
  Y  Y3  1  0.062278  0.439252  0.439252  1
  Y  Y4  1  0.439463  0.062133  0.062133  1
  Y  Y5  1  0.439252  0.062278  0.439252  1
  Y  Y6  1  0.062133  0.439463  0.062133  1
  Y  Y7  1  0.439252  0.439252  0.062278  1
  Y  Y8  1  0.062133  0.062133  0.439463  1
  Y  Y9  1  0.187945  0.814256  0.814256  1
  Y  Y10  1  0.812976  0.186258  0.186258  1
  Y  Y11  1  0.814256  0.187945  0.814256  1
  Y  Y12  1  0.186258  0.812976  0.186258  1
  Y  Y13  1  0.814256  0.814256  0.187945  1
  Y  Y14  1  0.186258  0.186258  0.812976  1
  Th  Th15  1  0.593947  0.593947  0.593947  1
  Cd  Cd16  1  0.830686  0.830686  0.830686  1
  Cd  Cd17  1  0.831962  0.831962  0.505505  1
  Cd  Cd18  1  0.831962  0.505505  0.831962  1
  Cd  Cd19  1  0.505505  0.831962  0.831962  1
  Ni  Ni20  1  0.392758  0.392758  0.392758  1
  Ni  Ni21  1  0.394268  0.394268  0.820017  1
  Ni  Ni22  1  0.394268  0.820017  0.394268  1
  Ni  Ni23  1  0.820017  0.394268  0.394268  1
