# generated using pymatgen
data_Dy4Tc2B16IrRu
_symmetry_space_group_name_H-M   'P 1'
_cell_length_a   3.58162100
_cell_length_b   5.97602729
_cell_length_c   11.56180912
_cell_angle_alpha   89.79780544
_cell_angle_beta   90.00000000
_cell_angle_gamma   90.00000000
_symmetry_Int_Tables_number   1
_chemical_formula_structural   Dy4Tc2B16IrRu
_chemical_formula_sum   'Dy4 Tc2 B16 Ir1 Ru1'
_cell_volume   247.46585849
_cell_formula_units_Z   1
loop_
 _symmetry_equiv_pos_site_id
 _symmetry_equiv_pos_as_xyz
  1  'x, y, z'
loop_
 _atom_site_type_symbol
 _atom_site_label
 _atom_site_symmetry_multiplicity
 _atom_site_fract_x
 _atom_site_fract_y
 _atom_site_fract_z
 _atom_site_occupancy
  Dy  Dy0  1  0.000000  0.128664  0.648526  1
  Dy  Dy1  1  0.000000  0.872062  0.349732  1
  Dy  Dy2  1  0.000000  0.628019  0.851666  1
  Dy  Dy3  1  0.000000  0.371247  0.150582  1
  Tc  Tc4  1  0.000000  0.133951  0.910556  1
  Tc  Tc5  1  0.000000  0.866533  0.088404  1
  B  B6  1  0.500000  0.472540  0.691547  1
  B  B7  1  0.500000  0.525128  0.308254  1
  B  B8  1  0.500000  0.976458  0.807780  1
  B  B9  1  0.500000  0.023377  0.191995  1
  B  B10  1  0.500000  0.288206  0.814528  1
  B  B11  1  0.500000  0.712300  0.185421  1
  B  B12  1  0.500000  0.791527  0.685619  1
  B  B13  1  0.500000  0.210738  0.314891  1
  B  B14  1  0.500000  0.364355  0.969180  1
  B  B15  1  0.500000  0.635689  0.030903  1
  B  B16  1  0.500000  0.864391  0.530605  1
  B  B17  1  0.500000  0.134957  0.468392  1
  B  B18  1  0.500000  0.385828  0.546171  1
  B  B19  1  0.500000  0.611813  0.452331  1
  B  B20  1  0.500000  0.887713  0.953380  1
  B  B21  1  0.500000  0.112615  0.046596  1
  Ir  Ir22  1  0.000000  0.641712  0.595376  1
  Ru  Ru23  1  0.000000  0.360178  0.407564  1
