# generated using pymatgen
data_P2RuNCl12
_symmetry_space_group_name_H-M   'P 1'
_cell_length_a   8.24556045
_cell_length_b   8.24555968
_cell_length_c   15.72800939
_cell_angle_alpha   78.54054093
_cell_angle_beta   78.54053970
_cell_angle_gamma   65.55568055
_symmetry_Int_Tables_number   1
_chemical_formula_structural   P2RuNCl12
_chemical_formula_sum   'P4 Ru2 N2 Cl24'
_cell_volume   945.91588882
_cell_formula_units_Z   2
loop_
 _symmetry_equiv_pos_site_id
 _symmetry_equiv_pos_as_xyz
  1  'x, y, z'
loop_
 _atom_site_type_symbol
 _atom_site_label
 _atom_site_symmetry_multiplicity
 _atom_site_fract_x
 _atom_site_fract_y
 _atom_site_fract_z
 _atom_site_occupancy
  P  P0  1  0.459400  0.319641  0.770931  1
  P  P1  1  0.680359  0.540600  0.729069  1
  P  P2  1  0.319641  0.459400  0.270931  1
  P  P3  1  0.540600  0.680359  0.229069  1
  Ru  Ru4  1  0.000000  0.000000  0.500000  1
  Ru  Ru5  1  0.000000  0.000000  0.000000  1
  N  N6  1  0.621944  0.378056  0.750000  1
  N  N7  1  0.378056  0.621944  0.250000  1
  Cl  Cl8  1  0.707653  0.215889  0.008655  1
  Cl  Cl9  1  0.790748  0.899673  0.472895  1
  Cl  Cl10  1  0.292347  0.784111  0.991345  1
  Cl  Cl11  1  0.905412  0.483371  0.647893  1
  Cl  Cl12  1  0.236047  0.499726  0.825209  1
  Cl  Cl13  1  0.516629  0.094588  0.852107  1
  Cl  Cl14  1  0.100327  0.209252  0.027105  1
  Cl  Cl15  1  0.483371  0.905412  0.147893  1
  Cl  Cl16  1  0.954724  0.911401  0.149289  1
  Cl  Cl17  1  0.784111  0.292347  0.491345  1
  Cl  Cl18  1  0.911401  0.954724  0.649289  1
  Cl  Cl19  1  0.209252  0.100327  0.527105  1
  Cl  Cl20  1  0.899673  0.790748  0.972895  1
  Cl  Cl21  1  0.272086  0.399449  0.164863  1
  Cl  Cl22  1  0.600551  0.727914  0.335137  1
  Cl  Cl23  1  0.088599  0.045276  0.350711  1
  Cl  Cl24  1  0.727914  0.600551  0.835137  1
  Cl  Cl25  1  0.215889  0.707653  0.508655  1
  Cl  Cl26  1  0.045276  0.088599  0.850711  1
  Cl  Cl27  1  0.094588  0.516629  0.352107  1
  Cl  Cl28  1  0.763953  0.500274  0.174791  1
  Cl  Cl29  1  0.500274  0.763953  0.674791  1
  Cl  Cl30  1  0.399449  0.272086  0.664863  1
  Cl  Cl31  1  0.499726  0.236047  0.325209  1
