# generated using pymatgen
data_Y6Ni14P13(PtW2)2
_symmetry_space_group_name_H-M   'P 1'
_cell_length_a   13.02718049
_cell_length_b   13.00646740
_cell_length_c   3.79414400
_cell_angle_alpha   90.00000000
_cell_angle_beta   90.00000000
_cell_angle_gamma   120.18376491
_symmetry_Int_Tables_number   1
_chemical_formula_structural   Y6Ni14P13(PtW2)2
_chemical_formula_sum   'Y6 Ni14 P13 Pt2 W4'
_cell_volume   555.70850966
_cell_formula_units_Z   1
loop_
 _symmetry_equiv_pos_site_id
 _symmetry_equiv_pos_as_xyz
  1  'x, y, z'
loop_
 _atom_site_type_symbol
 _atom_site_label
 _atom_site_symmetry_multiplicity
 _atom_site_fract_x
 _atom_site_fract_y
 _atom_site_fract_z
 _atom_site_occupancy
  Y  Y0  1  0.469295  0.182815  0.000000  1
  Y  Y1  1  0.729735  0.529799  0.000000  1
  Y  Y2  1  0.814032  0.280944  0.000000  1
  Y  Y3  1  0.531313  0.822560  0.500000  1
  Y  Y4  1  0.273024  0.463017  0.500000  1
  Y  Y5  1  0.181776  0.717362  0.500000  1
  Ni  Ni6  1  0.199665  0.093422  0.000000  1
  Ni  Ni7  1  0.895344  0.802363  0.000000  1
  Ni  Ni8  1  0.908134  0.105418  0.000000  1
  Ni  Ni9  1  0.434307  0.414044  0.000000  1
  Ni  Ni10  1  0.981084  0.563430  0.000000  1
  Ni  Ni11  1  0.583670  0.020390  0.000000  1
  Ni  Ni12  1  0.021039  0.432124  0.500000  1
  Ni  Ni13  1  0.408819  0.977494  0.500000  1
  Ni  Ni14  1  0.074307  0.314945  0.000000  1
  Ni  Ni15  1  0.238354  0.922866  0.000000  1
  Ni  Ni16  1  0.683792  0.764778  0.000000  1
  Ni  Ni17  1  0.929746  0.681644  0.500000  1
  Ni  Ni18  1  0.755647  0.075403  0.500000  1
  Ni  Ni19  1  0.322652  0.245284  0.500000  1
  P  P20  1  0.232553  0.282244  0.000000  1
  P  P21  1  0.048596  0.766115  0.000000  1
  P  P22  1  0.718419  0.953664  0.000000  1
  P  P23  1  0.775108  0.719670  0.500000  1
  P  P24  1  0.950323  0.231679  0.500000  1
  P  P25  1  0.282488  0.050638  0.500000  1
  P  P26  1  0.478197  0.618458  0.000000  1
  P  P27  1  0.126020  0.513559  0.000000  1
  P  P28  1  0.385622  0.873479  0.000000  1
  P  P29  1  0.518532  0.384305  0.500000  1
  P  P30  1  0.873648  0.482498  0.500000  1
  P  P31  1  0.610507  0.125402  0.500000  1
  P  P32  1  0.000629  0.000007  0.000000  1
  Pt  Pt33  1  0.329522  0.668182  0.000000  1
  Pt  Pt34  1  0.667361  0.329826  0.500000  1
  W  W35  1  0.846045  0.930647  0.500000  1
  W  W36  1  0.084567  0.154546  0.500000  1
  W  W37  1  0.070360  0.918439  0.500000  1
  W  W38  1  0.565768  0.586535  0.500000  1
