# generated using pymatgen
data_Ti8Mn7Co
_symmetry_space_group_name_H-M   'P 1'
_cell_length_a   5.92236600
_cell_length_b   4.19956400
_cell_length_c   8.39698800
_cell_angle_alpha   90.00000000
_cell_angle_beta   89.99924539
_cell_angle_gamma   90.00000000
_symmetry_Int_Tables_number   1
_chemical_formula_structural   Ti8Mn7Co
_chemical_formula_sum   'Ti8 Mn7 Co1'
_cell_volume   208.84446989
_cell_formula_units_Z   1
loop_
 _symmetry_equiv_pos_site_id
 _symmetry_equiv_pos_as_xyz
  1  'x, y, z'
loop_
 _atom_site_type_symbol
 _atom_site_label
 _atom_site_symmetry_multiplicity
 _atom_site_fract_x
 _atom_site_fract_y
 _atom_site_fract_z
 _atom_site_occupancy
  Ti  Ti0  1  0.499119  0.750003  0.124411  1
  Ti  Ti1  1  0.000997  0.749995  0.124408  1
  Ti  Ti2  1  0.500845  0.250003  0.375024  1
  Ti  Ti3  1  0.999263  0.249996  0.375020  1
  Ti  Ti4  1  0.000981  0.749996  0.625574  1
  Ti  Ti5  1  0.498903  0.750002  0.625580  1
  Ti  Ti6  1  0.002294  0.250011  0.874965  1
  Ti  Ti7  1  0.497591  0.249986  0.874965  1
  Mn  Mn8  1  0.750039  0.249999  0.125720  1
  Mn  Mn9  1  0.250036  0.749999  0.374957  1
  Mn  Mn10  1  0.749967  0.249999  0.624418  1
  Mn  Mn11  1  0.249967  0.749999  0.875033  1
  Mn  Mn12  1  0.250046  0.249999  0.124814  1
  Mn  Mn13  1  0.750030  0.750000  0.374966  1
  Mn  Mn14  1  0.249963  0.249999  0.625118  1
  Co  Co15  1  0.749961  0.749999  0.875028  1
