# generated using pymatgen
data_Zr8Mn3Fe4Si14Pt
_symmetry_space_group_name_H-M   'P 1'
_cell_length_a   9.61061925
_cell_length_b   9.61178329
_cell_length_c   9.64340087
_cell_angle_alpha   94.03159321
_cell_angle_beta   94.04702827
_cell_angle_gamma   148.97147591
_symmetry_Int_Tables_number   1
_chemical_formula_structural   Zr8Mn3Fe4Si14Pt
_chemical_formula_sum   'Zr8 Mn3 Fe4 Si14 Pt1'
_cell_volume   442.97246886
_cell_formula_units_Z   1
loop_
 _symmetry_equiv_pos_site_id
 _symmetry_equiv_pos_as_xyz
  1  'x, y, z'
loop_
 _atom_site_type_symbol
 _atom_site_label
 _atom_site_symmetry_multiplicity
 _atom_site_fract_x
 _atom_site_fract_y
 _atom_site_fract_z
 _atom_site_occupancy
  Zr  Zr0  1  0.699731  0.503364  0.195636  1
  Zr  Zr1  1  0.497264  0.694132  0.196364  1
  Zr  Zr2  1  0.495955  0.300677  0.804578  1
  Zr  Zr3  1  0.305557  0.501735  0.803475  1
  Zr  Zr4  1  0.864583  0.865171  0.724970  1
  Zr  Zr5  1  0.136869  0.860179  0.999896  1
  Zr  Zr6  1  0.862953  0.139496  0.999759  1
  Zr  Zr7  1  0.134761  0.135405  0.274425  1
  Mn  Mn8  1  0.903197  0.400066  0.801005  1
  Mn  Mn9  1  0.599949  0.096667  0.200428  1
  Mn  Mn10  1  0.100511  0.601955  0.206222  1
  Fe  Fe11  1  0.601221  0.400005  0.500335  1
  Fe  Fe12  1  0.396162  0.897813  0.791914  1
  Fe  Fe13  1  0.899671  0.099959  0.500201  1
  Fe  Fe14  1  0.393748  0.605775  0.499699  1
  Si  Si15  1  0.749303  0.749521  0.999685  1
  Si  Si16  1  0.250271  0.250491  0.000090  1
  Si  Si17  1  0.086346  0.496882  0.592778  1
  Si  Si18  1  0.544152  0.130233  0.594799  1
  Si  Si19  1  0.507653  0.918390  0.408959  1
  Si  Si20  1  0.870421  0.456317  0.407047  1
  Si  Si21  1  0.703966  0.002622  0.701518  1
  Si  Si22  1  0.984580  0.684665  0.705546  1
  Si  Si23  1  0.689605  0.694047  0.419462  1
  Si  Si24  1  0.295386  0.714097  0.999313  1
  Si  Si25  1  0.316926  0.017888  0.294450  1
  Si  Si26  1  0.703849  0.284520  0.999460  1
  Si  Si27  1  0.306179  0.310945  0.579882  1
  Si  Si28  1  0.993495  0.291008  0.298215  1
  Pt  Pt29  1  0.105735  0.895979  0.499890  1
