# generated using pymatgen
data_Ho3Mn5Fe3CoP6
_symmetry_space_group_name_H-M   'P 1'
_cell_length_a   3.68083400
_cell_length_b   10.88031500
_cell_length_c   12.22370000
_cell_angle_alpha   90.00000000
_cell_angle_beta   90.00000000
_cell_angle_gamma   90.00000000
_symmetry_Int_Tables_number   1
_chemical_formula_structural   Ho3Mn5Fe3CoP6
_chemical_formula_sum   'Ho6 Mn10 Fe6 Co2 P12'
_cell_volume   489.54247988
_cell_formula_units_Z   2
loop_
 _symmetry_equiv_pos_site_id
 _symmetry_equiv_pos_as_xyz
  1  'x, y, z'
loop_
 _atom_site_type_symbol
 _atom_site_label
 _atom_site_symmetry_multiplicity
 _atom_site_fract_x
 _atom_site_fract_y
 _atom_site_fract_z
 _atom_site_occupancy
  Ho  Ho0  1  0.000000  0.500000  0.533757  1
  Ho  Ho1  1  0.500000  0.000000  0.466243  1
  Ho  Ho2  1  0.500000  0.824971  0.199222  1
  Ho  Ho3  1  0.500000  0.175029  0.199222  1
  Ho  Ho4  1  0.000000  0.675029  0.800778  1
  Ho  Ho5  1  0.000000  0.324971  0.800778  1
  Mn  Mn6  1  0.500000  0.297263  0.430720  1
  Mn  Mn7  1  0.500000  0.702737  0.430720  1
  Mn  Mn8  1  0.000000  0.202737  0.569280  1
  Mn  Mn9  1  0.000000  0.797263  0.569280  1
  Mn  Mn10  1  0.500000  0.882093  0.706181  1
  Mn  Mn11  1  0.500000  0.117907  0.706181  1
  Mn  Mn12  1  0.000000  0.617907  0.293819  1
  Mn  Mn13  1  0.000000  0.382093  0.293819  1
  Mn  Mn14  1  0.500000  0.500000  0.156571  1
  Mn  Mn15  1  0.000000  0.000000  0.843429  1
  Fe  Fe16  1  0.000000  0.500000  0.993445  1
  Fe  Fe17  1  0.500000  0.000000  0.006555  1
  Fe  Fe18  1  0.500000  0.332497  0.998894  1
  Fe  Fe19  1  0.500000  0.667503  0.998894  1
  Fe  Fe20  1  0.000000  0.167503  0.001106  1
  Fe  Fe21  1  0.000000  0.832497  0.001106  1
  Co  Co22  1  0.500000  0.500000  0.709436  1
  Co  Co23  1  0.000000  0.000000  0.290564  1
  P  P24  1  0.500000  0.317213  0.621896  1
  P  P25  1  0.500000  0.682787  0.621896  1
  P  P26  1  0.000000  0.182787  0.378104  1
  P  P27  1  0.000000  0.817213  0.378104  1
  P  P28  1  0.500000  0.500000  0.891856  1
  P  P29  1  0.000000  0.000000  0.108144  1
  P  P30  1  0.500000  0.842602  0.895728  1
  P  P31  1  0.500000  0.157398  0.895728  1
  P  P32  1  0.000000  0.657398  0.104272  1
  P  P33  1  0.000000  0.342602  0.104272  1
  P  P34  1  0.500000  0.500000  0.355730  1
  P  P35  1  0.000000  0.000000  0.644270  1
