# generated using pymatgen
data_DyMnCdPt3
_symmetry_space_group_name_H-M   'P 1'
_cell_length_a   5.23187615
_cell_length_b   5.23187478
_cell_length_c   5.23187513
_cell_angle_alpha   63.34531055
_cell_angle_beta   63.34531823
_cell_angle_gamma   63.34530220
_symmetry_Int_Tables_number   1
_chemical_formula_structural   DyMnCdPt3
_chemical_formula_sum   'Dy1 Mn1 Cd1 Pt3'
_cell_volume   108.76485262
_cell_formula_units_Z   1
loop_
 _symmetry_equiv_pos_site_id
 _symmetry_equiv_pos_as_xyz
  1  'x, y, z'
loop_
 _atom_site_type_symbol
 _atom_site_label
 _atom_site_symmetry_multiplicity
 _atom_site_fract_x
 _atom_site_fract_y
 _atom_site_fract_z
 _atom_site_occupancy
  Dy  Dy0  1  0.001671  0.001671  0.001671  1
  Mn  Mn1  1  0.623961  0.623961  0.623961  1
  Cd  Cd2  1  0.252151  0.252151  0.252151  1
  Pt  Pt3  1  0.623320  0.623320  0.125578  1
  Pt  Pt4  1  0.623320  0.125578  0.623320  1
  Pt  Pt5  1  0.125578  0.623320  0.623320  1
