# generated using pymatgen
data_Pr2Nd8Si5Hg
_symmetry_space_group_name_H-M   'P 1'
_cell_length_a   7.83161587
_cell_length_b   7.83316358
_cell_length_c   9.05422666
_cell_angle_alpha   115.57935649
_cell_angle_beta   115.57390775
_cell_angle_gamma   90.10713551
_symmetry_Int_Tables_number   1
_chemical_formula_structural   Pr2Nd8Si5Hg
_chemical_formula_sum   'Pr2 Nd8 Si5 Hg1'
_cell_volume   439.65692563
_cell_formula_units_Z   1
loop_
 _symmetry_equiv_pos_site_id
 _symmetry_equiv_pos_as_xyz
  1  'x, y, z'
loop_
 _atom_site_type_symbol
 _atom_site_label
 _atom_site_symmetry_multiplicity
 _atom_site_fract_x
 _atom_site_fract_y
 _atom_site_fract_z
 _atom_site_occupancy
  Pr  Pr0  1  0.182987  0.674974  0.713546  1
  Pr  Pr1  1  0.530559  0.038573  0.713546  1
  Nd  Nd2  1  0.496824  0.496824  0.993648  1
  Nd  Nd3  1  0.003408  0.003408  0.006815  1
  Nd  Nd4  1  0.969378  0.824609  0.285823  1
  Nd  Nd5  1  0.316445  0.461213  0.285823  1
  Nd  Nd6  1  0.824489  0.316385  0.285784  1
  Nd  Nd7  1  0.461294  0.969399  0.285784  1
  Nd  Nd8  1  0.038460  0.183702  0.714106  1
  Nd  Nd9  1  0.675647  0.530404  0.714106  1
  Si  Si10  1  0.249781  0.249781  0.499562  1
  Si  Si11  1  0.615032  0.885616  0.000611  1
  Si  Si12  1  0.385579  0.114995  0.000611  1
  Si  Si13  1  0.885997  0.385950  0.000319  1
  Si  Si14  1  0.114322  0.614369  0.000319  1
  Hg  Hg15  1  0.749799  0.749799  0.499598  1
