# generated using pymatgen
data_Nd8Er7Tm5Ga16
_symmetry_space_group_name_H-M   'P 1'
_cell_length_a   7.91490372
_cell_length_b   7.91424646
_cell_length_c   14.55159400
_cell_angle_alpha   90.03405496
_cell_angle_beta   89.97552503
_cell_angle_gamma   89.99271706
_symmetry_Int_Tables_number   1
_chemical_formula_structural   Nd8Er7Tm5Ga16
_chemical_formula_sum   'Nd8 Er7 Tm5 Ga16'
_cell_volume   911.51885465
_cell_formula_units_Z   1
loop_
 _symmetry_equiv_pos_site_id
 _symmetry_equiv_pos_as_xyz
  1  'x, y, z'
loop_
 _atom_site_type_symbol
 _atom_site_label
 _atom_site_symmetry_multiplicity
 _atom_site_fract_x
 _atom_site_fract_y
 _atom_site_fract_z
 _atom_site_occupancy
  Nd  Nd0  1  0.642506  0.992366  0.459344  1
  Nd  Nd1  1  0.357475  0.007560  0.959524  1
  Nd  Nd2  1  0.992377  0.642469  0.540586  1
  Nd  Nd3  1  0.492256  0.857445  0.209334  1
  Nd  Nd4  1  0.507606  0.142468  0.709430  1
  Nd  Nd5  1  0.857506  0.492416  0.790685  1
  Nd  Nd6  1  0.142482  0.507661  0.290475  1
  Nd  Nd7  1  0.007562  0.357499  0.040621  1
  Er  Er8  1  0.493843  0.358437  0.124328  1
  Er  Er9  1  0.993741  0.141607  0.625674  1
  Er  Er10  1  0.858394  0.006147  0.874414  1
  Er  Er11  1  0.141592  0.993762  0.374259  1
  Er  Er12  1  0.506209  0.641687  0.624335  1
  Er  Er13  1  0.358372  0.493872  0.875796  1
  Er  Er14  1  0.641773  0.506194  0.375553  1
  Tm  Tm15  1  0.006211  0.858241  0.125677  1
  Tm  Tm16  1  0.318571  0.318574  0.499974  1
  Tm  Tm17  1  0.181433  0.818566  0.750049  1
  Tm  Tm18  1  0.818687  0.181180  0.249883  1
  Tm  Tm19  1  0.681601  0.681593  0.000084  1
  Ga  Ga20  1  0.289316  0.938089  0.561963  1
  Ga  Ga21  1  0.711001  0.061660  0.062084  1
  Ga  Ga22  1  0.938059  0.289299  0.438010  1
  Ga  Ga23  1  0.437959  0.210582  0.311853  1
  Ga  Ga24  1  0.561960  0.789383  0.811997  1
  Ga  Ga25  1  0.210639  0.438084  0.688120  1
  Ga  Ga26  1  0.789566  0.562257  0.187881  1
  Ga  Ga27  1  0.061833  0.710997  0.938320  1
  Ga  Ga28  1  0.796135  0.849099  0.687159  1
  Ga  Ga29  1  0.203537  0.150414  0.186781  1
  Ga  Ga30  1  0.849275  0.796332  0.312670  1
  Ga  Ga31  1  0.349170  0.703826  0.437014  1
  Ga  Ga32  1  0.650854  0.296160  0.937096  1
  Ga  Ga33  1  0.703827  0.349121  0.562898  1
  Ga  Ga34  1  0.295797  0.651131  0.063169  1
  Ga  Ga35  1  0.150874  0.203823  0.812960  1
