# generated using pymatgen
data_Cs2PAuSe4
_symmetry_space_group_name_H-M   'P 1'
_cell_length_a   7.39866800
_cell_length_b   7.56160700
_cell_length_c   21.51547900
_cell_angle_alpha   90.00000000
_cell_angle_beta   90.00000000
_cell_angle_gamma   90.00000000
_symmetry_Int_Tables_number   1
_chemical_formula_structural   Cs2PAuSe4
_chemical_formula_sum   'Cs8 P4 Au4 Se16'
_cell_volume   1203.70110974
_cell_formula_units_Z   4
loop_
 _symmetry_equiv_pos_site_id
 _symmetry_equiv_pos_as_xyz
  1  'x, y, z'
loop_
 _atom_site_type_symbol
 _atom_site_label
 _atom_site_symmetry_multiplicity
 _atom_site_fract_x
 _atom_site_fract_y
 _atom_site_fract_z
 _atom_site_occupancy
  Cs  Cs0  1  0.789448  0.250000  0.516272  1
  Cs  Cs1  1  0.210552  0.750000  0.483728  1
  Cs  Cs2  1  0.789448  0.750000  0.983728  1
  Cs  Cs3  1  0.210552  0.250000  0.016272  1
  Cs  Cs4  1  0.416211  0.250000  0.333052  1
  Cs  Cs5  1  0.583789  0.750000  0.666948  1
  Cs  Cs6  1  0.416211  0.750000  0.166948  1
  Cs  Cs7  1  0.583789  0.250000  0.833052  1
  P  P8  1  0.279033  0.250000  0.613454  1
  P  P9  1  0.720967  0.750000  0.386546  1
  P  P10  1  0.279033  0.750000  0.886546  1
  P  P11  1  0.720967  0.250000  0.113454  1
  Au  Au12  1  0.118734  0.000000  0.750000  1
  Au  Au13  1  0.881266  0.500000  0.250000  1
  Au  Au14  1  0.881266  0.000000  0.250000  1
  Au  Au15  1  0.118734  0.500000  0.750000  1
  Se  Se16  1  0.541765  0.250000  0.660548  1
  Se  Se17  1  0.458235  0.750000  0.339452  1
  Se  Se18  1  0.541765  0.750000  0.839452  1
  Se  Se19  1  0.458235  0.250000  0.160548  1
  Se  Se20  1  0.117945  0.001946  0.636593  1
  Se  Se21  1  0.882055  0.501946  0.363407  1
  Se  Se22  1  0.117945  0.998054  0.863407  1
  Se  Se23  1  0.882055  0.498054  0.136593  1
  Se  Se24  1  0.882055  0.998054  0.363407  1
  Se  Se25  1  0.117945  0.498054  0.636593  1
  Se  Se26  1  0.882055  0.001946  0.136593  1
  Se  Se27  1  0.117945  0.501946  0.863407  1
  Se  Se28  1  0.289871  0.250000  0.511147  1
  Se  Se29  1  0.710129  0.750000  0.488853  1
  Se  Se30  1  0.289871  0.750000  0.988853  1
  Se  Se31  1  0.710129  0.250000  0.011147  1
