# generated using pymatgen
data_Lu4Si2B4IrRh9
_symmetry_space_group_name_H-M   'P 1'
_cell_length_a   9.28371746
_cell_length_b   9.28371746
_cell_length_c   3.21350400
_cell_angle_alpha   90.00000000
_cell_angle_beta   90.00000000
_cell_angle_gamma   90.12429689
_symmetry_Int_Tables_number   1
_chemical_formula_structural   Lu4Si2B4IrRh9
_chemical_formula_sum   'Lu4 Si2 B4 Ir1 Rh9'
_cell_volume   276.96293475
_cell_formula_units_Z   1
loop_
 _symmetry_equiv_pos_site_id
 _symmetry_equiv_pos_as_xyz
  1  'x, y, z'
loop_
 _atom_site_type_symbol
 _atom_site_label
 _atom_site_symmetry_multiplicity
 _atom_site_fract_x
 _atom_site_fract_y
 _atom_site_fract_z
 _atom_site_occupancy
  Lu  Lu0  1  0.175056  0.675056  0.000000  1
  Lu  Lu1  1  0.676462  0.823538  0.000000  1
  Lu  Lu2  1  0.323538  0.176462  0.000000  1
  Lu  Lu3  1  0.824944  0.324944  0.000000  1
  Si  Si4  1  0.000000  0.000000  0.000000  1
  Si  Si5  1  0.500000  0.500000  0.000000  1
  B  B6  1  0.378722  0.878722  0.000000  1
  B  B7  1  0.877774  0.622226  0.000000  1
  B  B8  1  0.122226  0.377774  0.000000  1
  B  B9  1  0.621278  0.121278  0.000000  1
  Ir  Ir10  1  0.500000  0.000000  0.500000  1
  Rh  Rh11  1  0.000000  0.500000  0.500000  1
  Rh  Rh12  1  0.285936  0.430639  0.500000  1
  Rh  Rh13  1  0.714065  0.569361  0.500000  1
  Rh  Rh14  1  0.569942  0.287124  0.500000  1
  Rh  Rh15  1  0.430058  0.712877  0.500000  1
  Rh  Rh16  1  0.930639  0.785935  0.500000  1
  Rh  Rh17  1  0.787123  0.069942  0.500000  1
  Rh  Rh18  1  0.212876  0.930058  0.500000  1
  Rh  Rh19  1  0.069361  0.214064  0.500000  1
