# generated using pymatgen
data_KBa2MnCo5P6
_symmetry_space_group_name_H-M   'P 1'
_cell_length_a   5.32128564
_cell_length_b   6.89665473
_cell_length_c   8.39735160
_cell_angle_alpha   111.38073664
_cell_angle_beta   108.48195465
_cell_angle_gamma   90.04408055
_symmetry_Int_Tables_number   1
_chemical_formula_structural   KBa2MnCo5P6
_chemical_formula_sum   'K1 Ba2 Mn1 Co5 P6'
_cell_volume   269.79344775
_cell_formula_units_Z   1
loop_
 _symmetry_equiv_pos_site_id
 _symmetry_equiv_pos_as_xyz
  1  'x, y, z'
loop_
 _atom_site_type_symbol
 _atom_site_label
 _atom_site_symmetry_multiplicity
 _atom_site_fract_x
 _atom_site_fract_y
 _atom_site_fract_z
 _atom_site_occupancy
  K  K0  1  0.998627  0.998044  0.999289  1
  Ba  Ba1  1  0.663819  0.998588  0.322120  1
  Ba  Ba2  1  0.337736  0.002281  0.678597  1
  Mn  Mn3  1  0.416667  0.500811  0.333720  1
  Co  Co4  1  0.082220  0.498939  0.665535  1
  Co  Co5  1  0.750870  0.499313  0.000137  1
  Co  Co6  1  0.584758  0.499593  0.667874  1
  Co  Co7  1  0.248180  0.500470  0.998488  1
  Co  Co8  1  0.917209  0.501095  0.334108  1
  P  P9  1  0.220765  0.315296  0.436481  1
  P  P10  1  0.886062  0.317875  0.772405  1
  P  P11  1  0.551410  0.317726  0.108327  1
  P  P12  1  0.777490  0.686104  0.559128  1
  P  P13  1  0.446427  0.678157  0.892357  1
  P  P14  1  0.117761  0.685709  0.231433  1
