# generated using pymatgen
data_NpUCl6
_symmetry_space_group_name_H-M   'P 1'
_cell_length_a   7.51184808
_cell_length_b   7.53921005
_cell_length_c   4.26445200
_cell_angle_alpha   90.00000000
_cell_angle_beta   90.00000000
_cell_angle_gamma   120.08984629
_symmetry_Int_Tables_number   1
_chemical_formula_structural   NpUCl6
_chemical_formula_sum   'Np1 U1 Cl6'
_cell_volume   208.96454235
_cell_formula_units_Z   1
loop_
 _symmetry_equiv_pos_site_id
 _symmetry_equiv_pos_as_xyz
  1  'x, y, z'
loop_
 _atom_site_type_symbol
 _atom_site_label
 _atom_site_symmetry_multiplicity
 _atom_site_fract_x
 _atom_site_fract_y
 _atom_site_fract_z
 _atom_site_occupancy
  Np  Np0  1  0.667062  0.333961  0.750000  1
  U  U1  1  0.334640  0.669571  0.250000  1
  Cl  Cl2  1  0.607978  0.694619  0.750000  1
  Cl  Cl3  1  0.914157  0.607958  0.250000  1
  Cl  Cl4  1  0.392085  0.306074  0.250000  1
  Cl  Cl5  1  0.088553  0.392218  0.750000  1
  Cl  Cl6  1  0.301789  0.911593  0.750000  1
  Cl  Cl7  1  0.693738  0.084006  0.250000  1
