# generated using pymatgen
data_YbHoFeIr3
_symmetry_space_group_name_H-M   'P 1'
_cell_length_a   5.12313948
_cell_length_b   5.12314100
_cell_length_c   5.12313990
_cell_angle_alpha   64.29455587
_cell_angle_beta   64.29455023
_cell_angle_gamma   64.29454770
_symmetry_Int_Tables_number   1
_chemical_formula_structural   YbHoFeIr3
_chemical_formula_sum   'Yb1 Ho1 Fe1 Ir3'
_cell_volume   104.05190076
_cell_formula_units_Z   1
loop_
 _symmetry_equiv_pos_site_id
 _symmetry_equiv_pos_as_xyz
  1  'x, y, z'
loop_
 _atom_site_type_symbol
 _atom_site_label
 _atom_site_symmetry_multiplicity
 _atom_site_fract_x
 _atom_site_fract_y
 _atom_site_fract_z
 _atom_site_occupancy
  Yb  Yb0  1  0.250693  0.250693  0.250693  1
  Ho  Ho1  1  0.999744  0.999744  0.999744  1
  Fe  Fe2  1  0.625145  0.625145  0.625145  1
  Ir  Ir3  1  0.624355  0.624355  0.125705  1
  Ir  Ir4  1  0.624355  0.125705  0.624355  1
  Ir  Ir5  1  0.125705  0.624355  0.624355  1
