# generated using pymatgen
data_Ce3In3CuRh2
_symmetry_space_group_name_H-M   'P 1'
_cell_length_a   7.54166500
_cell_length_b   7.54166434
_cell_length_c   4.02821900
_cell_angle_alpha   90.00000000
_cell_angle_beta   90.00000000
_cell_angle_gamma   119.99999852
_symmetry_Int_Tables_number   1
_chemical_formula_structural   Ce3In3CuRh2
_chemical_formula_sum   'Ce3 In3 Cu1 Rh2'
_cell_volume   198.41666601
_cell_formula_units_Z   1
loop_
 _symmetry_equiv_pos_site_id
 _symmetry_equiv_pos_as_xyz
  1  'x, y, z'
loop_
 _atom_site_type_symbol
 _atom_site_label
 _atom_site_symmetry_multiplicity
 _atom_site_fract_x
 _atom_site_fract_y
 _atom_site_fract_z
 _atom_site_occupancy
  Ce  Ce0  1  0.000000  0.580378  0.500000  1
  Ce  Ce1  1  0.419622  0.419622  0.500000  1
  Ce  Ce2  1  0.580378  0.000000  0.500000  1
  In  In3  1  0.753914  0.753914  0.000000  1
  In  In4  1  0.000000  0.246086  0.000000  1
  In  In5  1  0.246086  0.000000  0.000000  1
  Cu  Cu6  1  0.000000  0.000000  0.500000  1
  Rh  Rh7  1  0.333333  0.666667  0.000000  1
  Rh  Rh8  1  0.666667  0.333333  0.000000  1
