# generated using pymatgen
data_RbNd3CI6
_symmetry_space_group_name_H-M   'P 1'
_cell_length_a   9.55225592
_cell_length_b   9.64024316
_cell_length_c   10.20177242
_cell_angle_alpha   71.21750240
_cell_angle_beta   84.64035686
_cell_angle_gamma   89.14901819
_symmetry_Int_Tables_number   1
_chemical_formula_structural   RbNd3CI6
_chemical_formula_sum   'Rb2 Nd6 C2 I12'
_cell_volume   885.40968752
_cell_formula_units_Z   2
loop_
 _symmetry_equiv_pos_site_id
 _symmetry_equiv_pos_as_xyz
  1  'x, y, z'
loop_
 _atom_site_type_symbol
 _atom_site_label
 _atom_site_symmetry_multiplicity
 _atom_site_fract_x
 _atom_site_fract_y
 _atom_site_fract_z
 _atom_site_occupancy
  Rb  Rb0  1  0.464802  0.360750  0.326982  1
  Rb  Rb1  1  0.535199  0.639250  0.673018  1
  Nd  Nd2  1  0.918704  0.749430  0.004326  1
  Nd  Nd3  1  0.081296  0.250570  0.995673  1
  Nd  Nd4  1  0.746613  0.083567  0.001392  1
  Nd  Nd5  1  0.253386  0.916433  0.998609  1
  Nd  Nd6  1  0.973813  0.894166  0.313647  1
  Nd  Nd7  1  0.026186  0.105834  0.686354  1
  C  C8  1  0.006095  0.024228  0.927159  1
  C  C9  1  0.993904  0.975772  0.072841  1
  I  I10  1  0.080277  0.203815  0.326430  1
  I  I11  1  0.919723  0.796185  0.673570  1
  I  I12  1  0.209416  0.589602  0.999927  1
  I  I13  1  0.790585  0.410398  0.000073  1
  I  I14  1  0.407063  0.204746  0.003034  1
  I  I15  1  0.592936  0.795255  0.996965  1
  I  I16  1  0.660078  0.005761  0.329542  1
  I  I17  1  0.339922  0.994239  0.670458  1
  I  I18  1  0.284555  0.773171  0.324879  1
  I  I19  1  0.715445  0.226829  0.675121  1
  I  I20  1  0.846827  0.587945  0.329548  1
  I  I21  1  0.153172  0.412055  0.670452  1
