# generated using pymatgen
data_Ca3Co(PO3)8
_symmetry_space_group_name_H-M   'P 1'
_cell_length_a   7.60890635
_cell_length_b   7.71804542
_cell_length_c   10.47306556
_cell_angle_alpha   67.08266489
_cell_angle_beta   66.66517690
_cell_angle_gamma   70.43625463
_symmetry_Int_Tables_number   1
_chemical_formula_structural   Ca3Co(PO3)8
_chemical_formula_sum   'Ca3 Co1 P8 O24'
_cell_volume   508.15786265
_cell_formula_units_Z   1
loop_
 _symmetry_equiv_pos_site_id
 _symmetry_equiv_pos_as_xyz
  1  'x, y, z'
loop_
 _atom_site_type_symbol
 _atom_site_label
 _atom_site_symmetry_multiplicity
 _atom_site_fract_x
 _atom_site_fract_y
 _atom_site_fract_z
 _atom_site_occupancy
  Ca  Ca0  1  0.000000  0.500000  0.500000  1
  Ca  Ca1  1  0.535992  0.452809  0.755977  1
  Ca  Ca2  1  0.464008  0.547191  0.244023  1
  Co  Co3  1  0.500000  0.000000  0.000000  1
  P  P4  1  0.799805  0.823445  0.695268  1
  P  P5  1  0.188163  0.188304  0.813737  1
  P  P6  1  0.200195  0.176555  0.304732  1
  P  P7  1  0.811837  0.811696  0.186263  1
  P  P8  1  0.766470  0.213564  0.475537  1
  P  P9  1  0.776891  0.228105  0.024028  1
  P  P10  1  0.233530  0.786436  0.524463  1
  P  P11  1  0.223109  0.771895  0.975972  1
  O  O12  1  0.030969  0.812563  0.655853  1
  O  O13  1  0.198448  0.964984  0.842195  1
  O  O14  1  0.969031  0.187437  0.344147  1
  O  O15  1  0.801552  0.035016  0.157805  1
  O  O16  1  0.740697  0.994839  0.559213  1
  O  O17  1  0.000345  0.249378  0.941816  1
  O  O18  1  0.259303  0.005161  0.440787  1
  O  O19  1  0.999655  0.750622  0.058184  1
  O  O20  1  0.694629  0.870939  0.834992  1
  O  O21  1  0.159933  0.299162  0.669108  1
  O  O22  1  0.305371  0.129061  0.165008  1
  O  O23  1  0.840067  0.700838  0.330892  1
  O  O24  1  0.777054  0.643133  0.682929  1
  O  O25  1  0.362853  0.203336  0.842296  1
  O  O26  1  0.222946  0.356867  0.317071  1
  O  O27  1  0.637147  0.796664  0.157704  1
  O  O28  1  0.791574  0.294738  0.576641  1
  O  O29  1  0.693130  0.193631  0.928038  1
  O  O30  1  0.208426  0.705262  0.423359  1
  O  O31  1  0.306870  0.806369  0.071962  1
  O  O32  1  0.394725  0.681304  0.589984  1
  O  O33  1  0.326292  0.605279  0.918029  1
  O  O34  1  0.605275  0.318696  0.410016  1
  O  O35  1  0.673708  0.394721  0.081971  1
