# generated using pymatgen
data_La4Yb3Sm3Sn8
_symmetry_space_group_name_H-M   'P 1'
_cell_length_a   8.32625200
_cell_length_b   8.45122708
_cell_length_c   16.20071900
_cell_angle_alpha   90.07418898
_cell_angle_beta   90.00000000
_cell_angle_gamma   90.00000000
_symmetry_Int_Tables_number   1
_chemical_formula_structural   La4Yb3Sm3Sn8
_chemical_formula_sum   'La8 Yb6 Sm6 Sn16'
_cell_volume   1139.99579019
_cell_formula_units_Z   2
loop_
 _symmetry_equiv_pos_site_id
 _symmetry_equiv_pos_as_xyz
  1  'x, y, z'
loop_
 _atom_site_type_symbol
 _atom_site_label
 _atom_site_symmetry_multiplicity
 _atom_site_fract_x
 _atom_site_fract_y
 _atom_site_fract_z
 _atom_site_occupancy
  La  La0  1  0.494190  0.320042  0.902514  1
  La  La1  1  0.994190  0.179958  0.597486  1
  La  La2  1  0.505295  0.679832  0.402983  1
  La  La3  1  0.005295  0.820168  0.097017  1
  La  La4  1  0.506065  0.679734  0.096782  1
  La  La5  1  0.006065  0.820266  0.403218  1
  La  La6  1  0.493871  0.319242  0.597769  1
  La  La7  1  0.993871  0.180758  0.902231  1
  Yb  Yb8  1  0.337030  0.829652  0.623048  1
  Yb  Yb9  1  0.837030  0.670348  0.876952  1
  Yb  Yb10  1  0.171590  0.499925  0.749699  1
  Yb  Yb11  1  0.671590  0.000075  0.750301  1
  Yb  Yb12  1  0.827890  0.503224  0.249806  1
  Yb  Yb13  1  0.327890  0.996776  0.250194  1
  Sm  Sm14  1  0.338889  0.826158  0.874962  1
  Sm  Sm15  1  0.838889  0.673842  0.625038  1
  Sm  Sm16  1  0.662273  0.170855  0.375464  1
  Sm  Sm17  1  0.162273  0.329145  0.124536  1
  Sm  Sm18  1  0.663674  0.172763  0.124409  1
  Sm  Sm19  1  0.163674  0.327237  0.375591  1
  Sn  Sn20  1  0.329787  0.037879  0.038046  1
  Sn  Sn21  1  0.829787  0.462121  0.461954  1
  Sn  Sn22  1  0.672378  0.961785  0.537740  1
  Sn  Sn23  1  0.172378  0.538215  0.962260  1
  Sn  Sn24  1  0.667713  0.964026  0.960952  1
  Sn  Sn25  1  0.167713  0.535974  0.539048  1
  Sn  Sn26  1  0.331814  0.038089  0.460844  1
  Sn  Sn27  1  0.831814  0.461911  0.039156  1
  Sn  Sn28  1  0.539613  0.613797  0.748966  1
  Sn  Sn29  1  0.039613  0.886203  0.751034  1
  Sn  Sn30  1  0.462339  0.384538  0.250523  1
  Sn  Sn31  1  0.962339  0.115462  0.249477  1
  Sn  Sn32  1  0.295950  0.134030  0.750633  1
  Sn  Sn33  1  0.795950  0.365970  0.749367  1
  Sn  Sn34  1  0.699639  0.865348  0.250005  1
  Sn  Sn35  1  0.199639  0.634652  0.249995  1
