# generated using pymatgen
data_Tm2LuZr(SiMo)4
_symmetry_space_group_name_H-M   'P 1'
_cell_length_a   3.62595800
_cell_length_b   7.15294454
_cell_length_c   8.35258044
_cell_angle_alpha   90.11699715
_cell_angle_beta   90.00000000
_cell_angle_gamma   90.00000000
_symmetry_Int_Tables_number   1
_chemical_formula_structural   Tm2LuZr(SiMo)4
_chemical_formula_sum   'Tm2 Lu1 Zr1 Si4 Mo4'
_cell_volume   216.63438411
_cell_formula_units_Z   1
loop_
 _symmetry_equiv_pos_site_id
 _symmetry_equiv_pos_as_xyz
  1  'x, y, z'
loop_
 _atom_site_type_symbol
 _atom_site_label
 _atom_site_symmetry_multiplicity
 _atom_site_fract_x
 _atom_site_fract_y
 _atom_site_fract_z
 _atom_site_occupancy
  Tm  Tm0  1  0.250000  0.043608  0.333483  1
  Tm  Tm1  1  0.750000  0.957380  0.667336  1
  Lu  Lu2  1  0.250000  0.541574  0.164158  1
  Zr  Zr3  1  0.750000  0.457853  0.832202  1
  Si  Si4  1  0.250000  0.264871  0.640378  1
  Si  Si5  1  0.250000  0.755857  0.864767  1
  Si  Si6  1  0.750000  0.736802  0.363850  1
  Si  Si7  1  0.750000  0.239680  0.132399  1
  Mo  Mo8  1  0.250000  0.128562  0.940531  1
  Mo  Mo9  1  0.250000  0.623960  0.558773  1
  Mo  Mo10  1  0.750000  0.873995  0.055882  1
  Mo  Mo11  1  0.750000  0.375856  0.446240  1
