# generated using pymatgen
data_Hf2(NbN2)3
_symmetry_space_group_name_H-M   'P 1'
_cell_length_a   5.32535900
_cell_length_b   5.32535823
_cell_length_c   10.58162900
_cell_angle_alpha   90.00000000
_cell_angle_beta   90.00000000
_cell_angle_gamma   120.00001100
_symmetry_Int_Tables_number   1
_chemical_formula_structural   Hf2(NbN2)3
_chemical_formula_sum   'Hf4 Nb6 N12'
_cell_volume   259.88477168
_cell_formula_units_Z   2
loop_
 _symmetry_equiv_pos_site_id
 _symmetry_equiv_pos_as_xyz
  1  'x, y, z'
loop_
 _atom_site_type_symbol
 _atom_site_label
 _atom_site_symmetry_multiplicity
 _atom_site_fract_x
 _atom_site_fract_y
 _atom_site_fract_z
 _atom_site_occupancy
  Hf  Hf0  1  0.333333  0.666667  0.500000  1
  Hf  Hf1  1  0.666667  0.333333  0.000000  1
  Hf  Hf2  1  0.666667  0.333333  0.500000  1
  Hf  Hf3  1  0.333333  0.666667  0.000000  1
  Nb  Nb4  1  0.680127  0.000000  0.750000  1
  Nb  Nb5  1  0.680127  0.680127  0.250000  1
  Nb  Nb6  1  0.000000  0.319873  0.250000  1
  Nb  Nb7  1  0.000000  0.680127  0.750000  1
  Nb  Nb8  1  0.319873  0.319873  0.750000  1
  Nb  Nb9  1  0.319873  0.000000  0.250000  1
  N  N10  1  0.346917  0.346917  0.374261  1
  N  N11  1  0.653083  0.000000  0.374261  1
  N  N12  1  0.000000  0.653083  0.374261  1
  N  N13  1  0.000000  0.346917  0.874261  1
  N  N14  1  0.653083  0.000000  0.125739  1
  N  N15  1  0.653083  0.653083  0.874261  1
  N  N16  1  0.346917  0.000000  0.874261  1
  N  N17  1  0.653083  0.653083  0.625739  1
  N  N18  1  0.000000  0.346917  0.625739  1
  N  N19  1  0.000000  0.653083  0.125739  1
  N  N20  1  0.346917  0.000000  0.625739  1
  N  N21  1  0.346917  0.346917  0.125739  1
