# generated using pymatgen
data_Nd2Tm3Ga3P9Ir19
_symmetry_space_group_name_H-M   'P 1'
_cell_length_a   12.89358676
_cell_length_b   12.87653115
_cell_length_c   3.96902400
_cell_angle_alpha   90.00000000
_cell_angle_beta   90.00000000
_cell_angle_gamma   119.95624325
_symmetry_Int_Tables_number   1
_chemical_formula_structural   Nd2Tm3Ga3P9Ir19
_chemical_formula_sum   'Nd2 Tm3 Ga3 P9 Ir19'
_cell_volume   570.92401021
_cell_formula_units_Z   1
loop_
 _symmetry_equiv_pos_site_id
 _symmetry_equiv_pos_as_xyz
  1  'x, y, z'
loop_
 _atom_site_type_symbol
 _atom_site_label
 _atom_site_symmetry_multiplicity
 _atom_site_fract_x
 _atom_site_fract_y
 _atom_site_fract_z
 _atom_site_occupancy
  Nd  Nd0  1  0.183114  0.182477  0.000000  1
  Nd  Nd1  1  0.816886  0.999363  0.000000  1
  Tm  Tm2  1  0.333578  0.666865  0.500000  1
  Tm  Tm3  1  0.666422  0.333286  0.500000  1
  Tm  Tm4  1  0.000000  0.817997  0.000000  1
  Ga  Ga5  1  0.360348  0.360398  0.500000  1
  Ga  Ga6  1  0.639652  0.000050  0.500000  1
  Ga  Ga7  1  0.000000  0.642676  0.500000  1
  P  P8  1  0.308593  0.824581  0.000000  1
  P  P9  1  0.175776  0.484588  0.000000  1
  P  P10  1  0.516499  0.691718  0.000000  1
  P  P11  1  0.824224  0.308812  0.000000  1
  P  P12  1  0.483501  0.175219  0.000000  1
  P  P13  1  0.691407  0.515988  0.000000  1
  P  P14  1  0.820249  0.817635  0.500000  1
  P  P15  1  0.179751  0.997385  0.500000  1
  P  P16  1  0.000000  0.180967  0.500000  1
  Ir  Ir17  1  0.204959  0.824983  0.500000  1
  Ir  Ir18  1  0.174506  0.382402  0.500000  1
  Ir  Ir19  1  0.617993  0.792105  0.500000  1
  Ir  Ir20  1  0.825494  0.207895  0.500000  1
  Ir  Ir21  1  0.382007  0.174113  0.500000  1
  Ir  Ir22  1  0.795041  0.620024  0.500000  1
  Ir  Ir23  1  0.134186  0.636822  0.000000  1
  Ir  Ir24  1  0.364207  0.498707  0.000000  1
  Ir  Ir25  1  0.501761  0.865453  0.000000  1
  Ir  Ir26  1  0.635793  0.134500  0.000000  1
  Ir  Ir27  1  0.498239  0.363693  0.000000  1
  Ir  Ir28  1  0.865814  0.502636  0.000000  1
  Ir  Ir29  1  0.551554  0.550694  0.500000  1
  Ir  Ir30  1  0.448446  0.999140  0.500000  1
  Ir  Ir31  1  0.000000  0.450963  0.500000  1
  Ir  Ir32  1  0.715393  0.714237  0.000000  1
  Ir  Ir33  1  0.284607  0.998843  0.000000  1
  Ir  Ir34  1  0.000000  0.286530  0.000000  1
  Ir  Ir35  1  0.000000  0.996256  0.500000  1
