# generated using pymatgen
data_Nd3GdCrMo5O24
_symmetry_space_group_name_H-M   'P 1'
_cell_length_a   7.57260703
_cell_length_b   7.57260719
_cell_length_c   10.89019221
_cell_angle_alpha   90.23742736
_cell_angle_beta   89.76257029
_cell_angle_gamma   89.69043692
_symmetry_Int_Tables_number   1
_chemical_formula_structural   Nd3GdCrMo5O24
_chemical_formula_sum   'Nd3 Gd1 Cr1 Mo5 O24'
_cell_volume   624.47140686
_cell_formula_units_Z   1
loop_
 _symmetry_equiv_pos_site_id
 _symmetry_equiv_pos_as_xyz
  1  'x, y, z'
loop_
 _atom_site_type_symbol
 _atom_site_label
 _atom_site_symmetry_multiplicity
 _atom_site_fract_x
 _atom_site_fract_y
 _atom_site_fract_z
 _atom_site_occupancy
  Nd  Nd0  1  0.687299  0.191036  0.263149  1
  Nd  Nd1  1  0.308964  0.812701  0.263149  1
  Nd  Nd2  1  0.186690  0.313310  0.735824  1
  Gd  Gd3  1  0.810156  0.689844  0.737792  1
  Cr  Cr4  1  0.209114  0.290886  0.354984  1
  Mo  Mo5  1  0.708968  0.207318  0.645528  1
  Mo  Mo6  1  0.292682  0.791032  0.645528  1
  Mo  Mo7  1  0.791222  0.708778  0.358749  1
  Mo  Mo8  1  0.501756  0.501613  0.997962  1
  Mo  Mo9  1  0.998387  0.998244  0.997962  1
  O  O10  1  0.698586  0.195004  0.482609  1
  O  O11  1  0.304996  0.801414  0.482609  1
  O  O12  1  0.197892  0.302108  0.507039  1
  O  O13  1  0.803440  0.696560  0.521907  1
  O  O14  1  0.124650  0.629606  0.690412  1
  O  O15  1  0.870394  0.375350  0.690412  1
  O  O16  1  0.626093  0.873907  0.313289  1
  O  O17  1  0.364112  0.135888  0.311295  1
  O  O18  1  0.268956  0.485751  0.300397  1
  O  O19  1  0.725427  0.500246  0.298651  1
  O  O20  1  0.999754  0.774573  0.298651  1
  O  O21  1  0.014249  0.231044  0.300397  1
  O  O22  1  0.502624  0.723624  0.703540  1
  O  O23  1  0.498421  0.272073  0.703955  1
  O  O24  1  0.227927  0.001579  0.703955  1
  O  O25  1  0.776376  0.997376  0.703540  1
  O  O26  1  0.312156  0.459763  0.904436  1
  O  O27  1  0.688352  0.545657  0.900878  1
  O  O28  1  0.954343  0.811648  0.900878  1
  O  O29  1  0.040237  0.187844  0.904436  1
  O  O30  1  0.460334  0.687972  0.096087  1
  O  O31  1  0.546971  0.313556  0.091955  1
  O  O32  1  0.186444  0.953029  0.091955  1
  O  O33  1  0.812028  0.039666  0.096087  1
