# generated using pymatgen
data_Ba2VClO4
_symmetry_space_group_name_H-M   'P 1'
_cell_length_a   6.99753800
_cell_length_b   8.00462900
_cell_length_c   12.26145200
_cell_angle_alpha   90.00000000
_cell_angle_beta   90.00000000
_cell_angle_gamma   90.00000000
_symmetry_Int_Tables_number   1
_chemical_formula_structural   Ba2VClO4
_chemical_formula_sum   'Ba8 V4 Cl4 O16'
_cell_volume   686.79697853
_cell_formula_units_Z   4
loop_
 _symmetry_equiv_pos_site_id
 _symmetry_equiv_pos_as_xyz
  1  'x, y, z'
loop_
 _atom_site_type_symbol
 _atom_site_label
 _atom_site_symmetry_multiplicity
 _atom_site_fract_x
 _atom_site_fract_y
 _atom_site_fract_z
 _atom_site_occupancy
  Ba  Ba0  1  0.368715  0.750000  0.500000  1
  Ba  Ba1  1  0.133479  0.034493  0.750000  1
  Ba  Ba2  1  0.631285  0.250000  0.500000  1
  Ba  Ba3  1  0.133479  0.465507  0.250000  1
  Ba  Ba4  1  0.631285  0.250000  0.000000  1
  Ba  Ba5  1  0.866521  0.534493  0.750000  1
  Ba  Ba6  1  0.368715  0.750000  0.000000  1
  Ba  Ba7  1  0.866521  0.965507  0.250000  1
  V  V8  1  0.865804  0.750000  0.000000  1
  V  V9  1  0.134196  0.250000  0.500000  1
  V  V10  1  0.134196  0.250000  0.000000  1
  V  V11  1  0.865804  0.750000  0.500000  1
  Cl  Cl12  1  0.517652  0.218933  0.250000  1
  Cl  Cl13  1  0.517652  0.281067  0.750000  1
  Cl  Cl14  1  0.482348  0.718933  0.250000  1
  Cl  Cl15  1  0.482348  0.781067  0.750000  1
  O  O16  1  0.986738  0.222829  0.114081  1
  O  O17  1  0.282451  0.419076  0.471704  1
  O  O18  1  0.013262  0.722829  0.385919  1
  O  O19  1  0.717549  0.919076  0.471704  1
  O  O20  1  0.013262  0.777171  0.614081  1
  O  O21  1  0.717549  0.580924  0.528296  1
  O  O22  1  0.986738  0.222829  0.385919  1
  O  O23  1  0.986738  0.277171  0.885919  1
  O  O24  1  0.717549  0.919076  0.028296  1
  O  O25  1  0.986738  0.277171  0.614081  1
  O  O26  1  0.717549  0.580924  0.971704  1
  O  O27  1  0.282451  0.419076  0.028296  1
  O  O28  1  0.013262  0.722829  0.114081  1
  O  O29  1  0.013262  0.777171  0.885919  1
  O  O30  1  0.282451  0.080924  0.528296  1
  O  O31  1  0.282451  0.080924  0.971704  1
