# generated using pymatgen
data_Dy5Hf2Cr(P3Ir4)4
_symmetry_space_group_name_H-M   'P 1'
_cell_length_a   12.72082300
_cell_length_b   12.83815920
_cell_length_c   3.96753600
_cell_angle_alpha   90.00000000
_cell_angle_beta   90.00000000
_cell_angle_gamma   119.69812335
_symmetry_Int_Tables_number   1
_chemical_formula_structural   Dy5Hf2Cr(P3Ir4)4
_chemical_formula_sum   'Dy5 Hf2 Cr1 P12 Ir16'
_cell_volume   562.83686816
_cell_formula_units_Z   1
loop_
 _symmetry_equiv_pos_site_id
 _symmetry_equiv_pos_as_xyz
  1  'x, y, z'
loop_
 _atom_site_type_symbol
 _atom_site_label
 _atom_site_symmetry_multiplicity
 _atom_site_fract_x
 _atom_site_fract_y
 _atom_site_fract_z
 _atom_site_occupancy
  Dy  Dy0  1  0.331574  0.665036  0.500000  1
  Dy  Dy1  1  0.666539  0.334964  0.500000  1
  Dy  Dy2  1  0.000953  0.815336  0.000000  1
  Dy  Dy3  1  0.185617  0.184664  0.000000  1
  Dy  Dy4  1  0.810928  0.000000  0.000000  1
  Hf  Hf5  1  0.997527  0.446298  0.500000  1
  Hf  Hf6  1  0.551229  0.553702  0.500000  1
  Cr  Cr7  1  0.459075  0.000000  0.500000  1
  P  P8  1  0.005468  0.652007  0.500000  1
  P  P9  1  0.353461  0.347993  0.500000  1
  P  P10  1  0.635652  0.000000  0.500000  1
  P  P11  1  0.516174  0.688435  0.000000  1
  P  P12  1  0.315826  0.831687  0.000000  1
  P  P13  1  0.166204  0.481900  0.000000  1
  P  P14  1  0.484140  0.168313  0.000000  1
  P  P15  1  0.684305  0.518100  0.000000  1
  P  P16  1  0.827739  0.311565  0.000000  1
  P  P17  1  0.998530  0.173669  0.500000  1
  P  P18  1  0.824860  0.826331  0.500000  1
  P  P19  1  0.180902  0.000000  0.500000  1
  Ir  Ir20  1  0.508239  0.868468  0.000000  1
  Ir  Ir21  1  0.129081  0.643574  0.000000  1
  Ir  Ir22  1  0.356944  0.496289  0.000000  1
  Ir  Ir23  1  0.485508  0.356426  0.000000  1
  Ir  Ir24  1  0.860657  0.503711  0.000000  1
  Ir  Ir25  1  0.639773  0.131532  0.000000  1
  Ir  Ir26  1  0.998526  0.279429  0.000000  1
  Ir  Ir27  1  0.719097  0.720571  0.000000  1
  Ir  Ir28  1  0.288204  0.000000  0.000000  1
  Ir  Ir29  1  0.626486  0.808219  0.500000  1
  Ir  Ir30  1  0.203416  0.825901  0.500000  1
  Ir  Ir31  1  0.178331  0.368801  0.500000  1
  Ir  Ir32  1  0.377515  0.174099  0.500000  1
  Ir  Ir33  1  0.809530  0.631199  0.500000  1
  Ir  Ir34  1  0.818267  0.191781  0.500000  1
  Ir  Ir35  1  0.003722  0.000000  0.500000  1
