# generated using pymatgen
data_Lu3Al12Ru3Au
_symmetry_space_group_name_H-M   'P 1'
_cell_length_a   8.77237900
_cell_length_b   8.82957798
_cell_length_c   9.50982588
_cell_angle_alpha   89.95497576
_cell_angle_beta   90.00000000
_cell_angle_gamma   119.78594742
_symmetry_Int_Tables_number   1
_chemical_formula_structural   Lu3Al12Ru3Au
_chemical_formula_sum   'Lu6 Al24 Ru6 Au2'
_cell_volume   639.28286211
_cell_formula_units_Z   2
loop_
 _symmetry_equiv_pos_site_id
 _symmetry_equiv_pos_as_xyz
  1  'x, y, z'
loop_
 _atom_site_type_symbol
 _atom_site_label
 _atom_site_symmetry_multiplicity
 _atom_site_fract_x
 _atom_site_fract_y
 _atom_site_fract_z
 _atom_site_occupancy
  Lu  Lu0  1  0.193932  0.387864  0.249607  1
  Lu  Lu1  1  0.806068  0.612136  0.750393  1
  Lu  Lu2  1  0.609896  0.807072  0.253632  1
  Lu  Lu3  1  0.390104  0.192928  0.746368  1
  Lu  Lu4  1  0.197175  0.807072  0.253632  1
  Lu  Lu5  1  0.802825  0.192928  0.746368  1
  Al  Al6  1  0.339050  0.678100  0.029831  1
  Al  Al7  1  0.660950  0.321900  0.970169  1
  Al  Al8  1  0.666636  0.333271  0.526104  1
  Al  Al9  1  0.333364  0.666729  0.473896  1
  Al  Al10  1  0.162204  0.324406  0.574837  1
  Al  Al11  1  0.837796  0.675594  0.425163  1
  Al  Al12  1  0.673975  0.836533  0.577169  1
  Al  Al13  1  0.841447  0.682894  0.086342  1
  Al  Al14  1  0.326025  0.163467  0.422831  1
  Al  Al15  1  0.158553  0.317106  0.913658  1
  Al  Al16  1  0.162558  0.836533  0.577169  1
  Al  Al17  1  0.322265  0.151753  0.082911  1
  Al  Al18  1  0.837442  0.163467  0.422831  1
  Al  Al19  1  0.677735  0.848247  0.917089  1
  Al  Al20  1  0.829487  0.151753  0.082911  1
  Al  Al21  1  0.170513  0.848247  0.917089  1
  Al  Al22  1  0.559980  0.119960  0.249459  1
  Al  Al23  1  0.440020  0.880040  0.750541  1
  Al  Al24  1  0.873183  0.436333  0.256349  1
  Al  Al25  1  0.126817  0.563667  0.743651  1
  Al  Al26  1  0.563149  0.436333  0.256349  1
  Al  Al27  1  0.436851  0.563667  0.743651  1
  Al  Al28  1  0.001431  0.002861  0.250922  1
  Al  Al29  1  0.998569  0.997139  0.749078  1
  Ru  Ru30  1  0.500000  0.000000  0.000000  1
  Ru  Ru31  1  0.500000  0.000000  0.500000  1
  Ru  Ru32  1  0.000000  0.500000  0.500000  1
  Ru  Ru33  1  0.500000  0.500000  0.500000  1
  Ru  Ru34  1  0.000000  0.000000  0.000000  1
  Ru  Ru35  1  0.000000  0.000000  0.500000  1
  Au  Au36  1  0.000000  0.500000  0.000000  1
  Au  Au37  1  0.500000  0.500000  0.000000  1
