# generated using pymatgen
data_Tb5Ho(Er7Pt8)2
_symmetry_space_group_name_H-M   'P 1'
_cell_length_a   7.43769221
_cell_length_b   7.51625755
_cell_length_c   14.70550865
_cell_angle_alpha   90.03097130
_cell_angle_beta   89.98019792
_cell_angle_gamma   90.00837452
_symmetry_Int_Tables_number   1
_chemical_formula_structural   Tb5Ho(Er7Pt8)2
_chemical_formula_sum   'Tb5 Ho1 Er14 Pt16'
_cell_volume   822.09084607
_cell_formula_units_Z   1
loop_
 _symmetry_equiv_pos_site_id
 _symmetry_equiv_pos_as_xyz
  1  'x, y, z'
loop_
 _atom_site_type_symbol
 _atom_site_label
 _atom_site_symmetry_multiplicity
 _atom_site_fract_x
 _atom_site_fract_y
 _atom_site_fract_z
 _atom_site_occupancy
  Tb  Tb0  1  0.500337  0.321404  0.093149  1
  Tb  Tb1  1  0.000753  0.177760  0.407090  1
  Tb  Tb2  1  0.500511  0.322516  0.407249  1
  Tb  Tb3  1  0.000480  0.177433  0.092625  1
  Tb  Tb4  1  0.499450  0.679373  0.906810  1
  Ho  Ho5  1  0.999835  0.820098  0.593274  1
  Er  Er6  1  0.654812  0.167774  0.622263  1
  Er  Er7  1  0.154030  0.332120  0.877015  1
  Er  Er8  1  0.345686  0.832288  0.122556  1
  Er  Er9  1  0.846450  0.667909  0.378033  1
  Er  Er10  1  0.346745  0.831500  0.378243  1
  Er  Er11  1  0.846799  0.668454  0.122064  1
  Er  Er12  1  0.654869  0.167769  0.877176  1
  Er  Er13  1  0.154658  0.332252  0.622186  1
  Er  Er14  1  0.500378  0.679871  0.593556  1
  Er  Er15  1  0.000174  0.820130  0.906434  1
  Er  Er16  1  0.817188  0.510887  0.749504  1
  Er  Er17  1  0.317123  0.989308  0.749553  1
  Er  Er18  1  0.182511  0.488882  0.250248  1
  Er  Er19  1  0.682429  0.010964  0.250354  1
  Pt  Pt20  1  0.684088  0.964804  0.459371  1
  Pt  Pt21  1  0.183914  0.534596  0.040976  1
  Pt  Pt22  1  0.314076  0.032011  0.957934  1
  Pt  Pt23  1  0.814696  0.469994  0.542797  1
  Pt  Pt24  1  0.315552  0.030248  0.542876  1
  Pt  Pt25  1  0.817575  0.468578  0.957459  1
  Pt  Pt26  1  0.683891  0.965314  0.040641  1
  Pt  Pt27  1  0.184087  0.535151  0.459522  1
  Pt  Pt28  1  0.450480  0.386363  0.749524  1
  Pt  Pt29  1  0.951128  0.113668  0.750069  1
  Pt  Pt30  1  0.548869  0.615725  0.249919  1
  Pt  Pt31  1  0.048648  0.884234  0.250081  1
  Pt  Pt32  1  0.679793  0.856684  0.749335  1
  Pt  Pt33  1  0.178548  0.644166  0.749983  1
  Pt  Pt34  1  0.319723  0.142421  0.250171  1
  Pt  Pt35  1  0.819715  0.357355  0.249958  1
