# generated using pymatgen
data_Yb3YTaOs7
_symmetry_space_group_name_H-M   'P 1'
_cell_length_a   5.43034200
_cell_length_b   5.43034003
_cell_length_c   8.56911100
_cell_angle_alpha   90.00000000
_cell_angle_beta   90.00000000
_cell_angle_gamma   119.99998765
_symmetry_Int_Tables_number   1
_chemical_formula_structural   Yb3YTaOs7
_chemical_formula_sum   'Yb3 Y1 Ta1 Os7'
_cell_volume   218.83695372
_cell_formula_units_Z   1
loop_
 _symmetry_equiv_pos_site_id
 _symmetry_equiv_pos_as_xyz
  1  'x, y, z'
loop_
 _atom_site_type_symbol
 _atom_site_label
 _atom_site_symmetry_multiplicity
 _atom_site_fract_x
 _atom_site_fract_y
 _atom_site_fract_z
 _atom_site_occupancy
  Yb  Yb0  1  0.666667  0.333333  0.575858  1
  Yb  Yb1  1  0.666667  0.333333  0.934687  1
  Yb  Yb2  1  0.333333  0.666667  0.059815  1
  Y  Y3  1  0.333333  0.666667  0.425569  1
  Ta  Ta4  1  0.000000  0.000000  0.499983  1
  Os  Os5  1  0.000000  0.000000  0.002094  1
  Os  Os6  1  0.826876  0.173124  0.249472  1
  Os  Os7  1  0.826876  0.653752  0.249472  1
  Os  Os8  1  0.346248  0.173124  0.249472  1
  Os  Os9  1  0.172642  0.827358  0.751193  1
  Os  Os10  1  0.172642  0.345285  0.751193  1
  Os  Os11  1  0.654715  0.827358  0.751193  1
