# generated using pymatgen
data_SmAl6ZnCu5
_symmetry_space_group_name_H-M   'P 1'
_cell_length_a   6.67673396
_cell_length_b   6.67673369
_cell_length_c   6.67673433
_cell_angle_alpha   134.66146906
_cell_angle_beta   99.04406393
_cell_angle_gamma   98.04144030
_symmetry_Int_Tables_number   1
_chemical_formula_structural   SmAl6ZnCu5
_chemical_formula_sum   'Sm1 Al6 Zn1 Cu5'
_cell_volume   195.33831670
_cell_formula_units_Z   1
loop_
 _symmetry_equiv_pos_site_id
 _symmetry_equiv_pos_as_xyz
  1  'x, y, z'
loop_
 _atom_site_type_symbol
 _atom_site_label
 _atom_site_symmetry_multiplicity
 _atom_site_fract_x
 _atom_site_fract_y
 _atom_site_fract_z
 _atom_site_occupancy
  Sm  Sm0  1  0.998922  0.000000  0.998922  1
  Al  Al1  1  0.354601  0.349116  0.005486  1
  Al  Al2  1  0.656370  0.650884  0.005486  1
  Al  Al3  1  0.653290  0.000000  0.653290  1
  Al  Al4  1  0.348726  0.000000  0.348726  1
  Al  Al5  1  0.784276  0.288692  0.495584  1
  Al  Al6  1  0.206892  0.711308  0.495584  1
  Zn  Zn7  1  0.227691  0.500000  0.727691  1
  Cu  Cu8  1  0.498945  0.998566  0.998315  1
  Cu  Cu9  1  0.498945  0.500630  0.500379  1
  Cu  Cu10  1  0.999748  0.001434  0.500379  1
  Cu  Cu11  1  0.999748  0.499370  0.998315  1
  Cu  Cu12  1  0.771846  0.500000  0.271846  1
