# generated using pymatgen
data_K4Zr2P6Se25
_symmetry_space_group_name_H-M   'P 1'
_cell_length_a   26.57081690
_cell_length_b   19.51167406
_cell_length_c   18.70935400
_cell_angle_alpha   88.05835199
_cell_angle_beta   47.21482043
_cell_angle_gamma   44.72682506
_symmetry_Int_Tables_number   1
_chemical_formula_structural   K4Zr2P6Se25
_chemical_formula_sum   'K8 Zr4 P12 Se50'
_cell_volume   2480.61087737
_cell_formula_units_Z   2
loop_
 _symmetry_equiv_pos_site_id
 _symmetry_equiv_pos_as_xyz
  1  'x, y, z'
loop_
 _atom_site_type_symbol
 _atom_site_label
 _atom_site_symmetry_multiplicity
 _atom_site_fract_x
 _atom_site_fract_y
 _atom_site_fract_z
 _atom_site_occupancy
  K  K0  1  0.201180  0.949109  0.950471  1
  K  K1  1  0.758251  0.963104  0.373815  1
  K  K2  1  0.300891  0.048820  0.350761  1
  K  K3  1  0.299529  0.350761  0.048820  1
  K  K4  1  0.876185  0.345171  0.491749  1
  K  K5  1  0.899239  0.950471  0.949109  1
  K  K6  1  0.904829  0.373815  0.963104  1
  K  K7  1  0.286896  0.491749  0.345171  1
  Zr  Zr8  1  0.344953  0.218128  0.408279  1
  Zr  Zr9  1  0.031872  0.905047  0.221359  1
  Zr  Zr10  1  0.841721  0.221359  0.905047  1
  Zr  Zr11  1  0.028641  0.408279  0.218128  1
  P  P12  1  0.240069  0.332811  0.328698  1
  P  P13  1  0.098422  0.328698  0.332811  1
  P  P14  1  0.730484  0.486297  0.933115  1
  P  P15  1  0.917189  0.009931  0.151578  1
  P  P16  1  0.763703  0.519516  0.399896  1
  P  P17  1  0.316885  0.399896  0.519516  1
  P  P18  1  0.850104  0.933115  0.486297  1
  P  P19  1  0.856052  0.062810  0.791662  1
  P  P20  1  0.921302  0.151578  0.009931  1
  P  P21  1  0.458338  0.960525  0.393948  1
  P  P22  1  0.289475  0.791662  0.062810  1
  P  P23  1  0.187190  0.393948  0.960525  1
  Se  Se24  1  0.575613  0.573053  0.165431  1
  Se  Se25  1  0.365138  0.134862  0.134862  1
  Se  Se26  1  0.740970  0.032578  0.704730  1
  Se  Se27  1  0.741352  0.432555  0.448434  1
  Se  Se28  1  0.106079  0.878817  0.614787  1
  Se  Se29  1  0.262267  0.119519  0.095539  1
  Se  Se30  1  0.942123  0.411299  0.554338  1
  Se  Se31  1  0.181969  0.281341  0.657789  1
  Se  Se32  1  0.130481  0.987733  0.727326  1
  Se  Se33  1  0.817445  0.508648  0.872343  1
  Se  Se34  1  0.154461  0.727326  0.987733  1
  Se  Se35  1  0.452900  0.597143  0.011651  1
  Se  Se36  1  0.238349  0.311694  0.797100  1
  Se  Se37  1  0.062160  0.277719  0.089199  1
  Se  Se38  1  0.115138  0.884862  0.884862  1
  Se  Se39  1  0.592211  0.371098  0.068031  1
  Se  Se40  1  0.217422  0.509030  0.728279  1
  Se  Se41  1  0.092240  0.554338  0.411299  1
  Se  Se42  1  0.676947  0.674387  0.564097  1
  Se  Se43  1  0.521721  0.704730  0.032578  1
  Se  Se44  1  0.670945  0.335846  0.186794  1
  Se  Se45  1  0.801566  0.872343  0.508648  1
  Se  Se46  1  0.451696  0.932788  0.587045  1
  Se  Se47  1  0.652857  0.797100  0.311694  1
  Se  Se48  1  0.685903  0.165431  0.573053  1
  Se  Se49  1  0.261205  0.431107  0.901735  1
  Se  Se50  1  0.348265  0.844047  0.988795  1
  Se  Se51  1  0.522674  0.095539  0.119519  1
  Se  Se52  1  0.317212  0.798304  0.221530  1
  Se  Se53  1  0.028470  0.587045  0.932788  1
  Se  Se54  1  0.695662  0.157760  0.307877  1
  Se  Se55  1  0.878902  0.657789  0.281341  1
  Se  Se56  1  0.084569  0.564097  0.674387  1
  Se  Se57  1  0.063206  0.443585  0.579055  1
  Se  Se58  1  0.662955  0.221530  0.798304  1
  Se  Se59  1  0.818893  0.988795  0.844047  1
  Se  Se60  1  0.938306  0.011651  0.597143  1
  Se  Se61  1  0.972281  0.187840  0.679079  1
  Se  Se62  1  0.371183  0.143921  0.849684  1
  Se  Se63  1  0.914154  0.579055  0.443585  1
  Se  Se64  1  0.806415  0.186794  0.335846  1
  Se  Se65  1  0.545270  0.728279  0.509030  1
  Se  Se66  1  0.635213  0.849684  0.143921  1
  Se  Se67  1  0.400316  0.614787  0.878817  1
  Se  Se68  1  0.570921  0.089199  0.277719  1
  Se  Se69  1  0.968659  0.068031  0.371098  1
  Se  Se70  1  0.377657  0.448434  0.432555  1
  Se  Se71  1  0.405953  0.901735  0.431107  1
  Se  Se72  1  0.160801  0.679079  0.187840  1
  Se  Se73  1  0.838701  0.307877  0.157760  1
