# generated using pymatgen
data_NaPr8Dy11Sn16
_symmetry_space_group_name_H-M   'P 1'
_cell_length_a   8.02407800
_cell_length_b   8.30467808
_cell_length_c   15.69668200
_cell_angle_alpha   90.00000000
_cell_angle_beta   90.00000000
_cell_angle_gamma   89.85367434
_symmetry_Int_Tables_number   1
_chemical_formula_structural   NaPr8Dy11Sn16
_chemical_formula_sum   'Na1 Pr8 Dy11 Sn16'
_cell_volume   1045.98242585
_cell_formula_units_Z   1
loop_
 _symmetry_equiv_pos_site_id
 _symmetry_equiv_pos_as_xyz
  1  'x, y, z'
loop_
 _atom_site_type_symbol
 _atom_site_label
 _atom_site_symmetry_multiplicity
 _atom_site_fract_x
 _atom_site_fract_y
 _atom_site_fract_z
 _atom_site_occupancy
  Na  Na0  1  0.333548  0.997408  0.250000  1
  Pr  Pr1  1  0.497652  0.322502  0.903547  1
  Pr  Pr2  1  0.997127  0.177677  0.596570  1
  Pr  Pr3  1  0.501963  0.683863  0.403067  1
  Pr  Pr4  1  0.006911  0.823115  0.095570  1
  Pr  Pr5  1  0.501963  0.683863  0.096933  1
  Pr  Pr6  1  0.006911  0.823115  0.404430  1
  Pr  Pr7  1  0.497652  0.322502  0.596453  1
  Pr  Pr8  1  0.997127  0.177677  0.903430  1
  Dy  Dy9  1  0.336692  0.829815  0.873832  1
  Dy  Dy10  1  0.835000  0.666668  0.624484  1
  Dy  Dy11  1  0.659014  0.167562  0.374814  1
  Dy  Dy12  1  0.164347  0.328264  0.124869  1
  Dy  Dy13  1  0.659014  0.167562  0.125186  1
  Dy  Dy14  1  0.164347  0.328264  0.375131  1
  Dy  Dy15  1  0.336692  0.829815  0.626168  1
  Dy  Dy16  1  0.835000  0.666668  0.875516  1
  Dy  Dy17  1  0.168001  0.499152  0.750000  1
  Dy  Dy18  1  0.667172  0.999479  0.750000  1
  Dy  Dy19  1  0.832735  0.501259  0.250000  1
  Sn  Sn20  1  0.323598  0.042059  0.036266  1
  Sn  Sn21  1  0.823764  0.461788  0.457580  1
  Sn  Sn22  1  0.674292  0.960339  0.540262  1
  Sn  Sn23  1  0.176218  0.538347  0.959424  1
  Sn  Sn24  1  0.674292  0.960339  0.959738  1
  Sn  Sn25  1  0.176218  0.538347  0.540576  1
  Sn  Sn26  1  0.323598  0.042059  0.463734  1
  Sn  Sn27  1  0.823764  0.461788  0.042420  1
  Sn  Sn28  1  0.533517  0.619129  0.750000  1
  Sn  Sn29  1  0.032108  0.877809  0.750000  1
  Sn  Sn30  1  0.465410  0.387959  0.250000  1
  Sn  Sn31  1  0.964284  0.118639  0.250000  1
  Sn  Sn32  1  0.301614  0.142747  0.750000  1
  Sn  Sn33  1  0.801938  0.356391  0.750000  1
  Sn  Sn34  1  0.708001  0.860483  0.250000  1
  Sn  Sn35  1  0.198510  0.635547  0.250000  1
