# generated using pymatgen
data_Ce5Y11Cd4Ir3Os
_symmetry_space_group_name_H-M   'P 1'
_cell_length_a   9.62833390
_cell_length_b   9.70332857
_cell_length_c   9.70458736
_cell_angle_alpha   59.63385286
_cell_angle_beta   60.07806180
_cell_angle_gamma   60.05116604
_symmetry_Int_Tables_number   1
_chemical_formula_structural   Ce5Y11Cd4Ir3Os
_chemical_formula_sum   'Ce5 Y11 Cd4 Ir3 Os1'
_cell_volume   639.93940887
_cell_formula_units_Z   1
loop_
 _symmetry_equiv_pos_site_id
 _symmetry_equiv_pos_as_xyz
  1  'x, y, z'
loop_
 _atom_site_type_symbol
 _atom_site_label
 _atom_site_symmetry_multiplicity
 _atom_site_fract_x
 _atom_site_fract_y
 _atom_site_fract_z
 _atom_site_occupancy
  Ce  Ce0  1  0.346305  0.351763  0.351935  1
  Ce  Ce1  1  0.348454  0.344530  0.956236  1
  Ce  Ce2  1  0.348542  0.955995  0.344615  1
  Ce  Ce3  1  0.950936  0.352169  0.352234  1
  Ce  Ce4  1  0.816202  0.187019  0.186893  1
  Y  Y5  1  0.187660  0.810752  0.810420  1
  Y  Y6  1  0.192242  0.810049  0.186977  1
  Y  Y7  1  0.811508  0.186719  0.808619  1
  Y  Y8  1  0.192230  0.186944  0.809828  1
  Y  Y9  1  0.811292  0.808739  0.186781  1
  Y  Y10  1  0.936861  0.563720  0.563688  1
  Y  Y11  1  0.564990  0.934275  0.934547  1
  Y  Y12  1  0.561999  0.938257  0.561043  1
  Y  Y13  1  0.940898  0.558082  0.937431  1
  Y  Y14  1  0.562066  0.561196  0.938255  1
  Y  Y15  1  0.941145  0.937497  0.557903  1
  Cd  Cd16  1  0.579577  0.581293  0.581108  1
  Cd  Cd17  1  0.579965  0.582856  0.255284  1
  Cd  Cd18  1  0.579990  0.255344  0.582738  1
  Cd  Cd19  1  0.255008  0.581264  0.581055  1
  Ir  Ir20  1  0.146675  0.143583  0.568290  1
  Ir  Ir21  1  0.146477  0.568606  0.143805  1
  Ir  Ir22  1  0.575058  0.148340  0.148844  1
  Os  Os23  1  0.123921  0.151010  0.151472  1
