# generated using pymatgen
data_La8Pr12Si15Au
_symmetry_space_group_name_H-M   'P 1'
_cell_length_a   7.99858349
_cell_length_b   7.98835461
_cell_length_c   15.43294615
_cell_angle_alpha   89.99897534
_cell_angle_beta   89.71543372
_cell_angle_gamma   89.95549344
_symmetry_Int_Tables_number   1
_chemical_formula_structural   La8Pr12Si15Au
_chemical_formula_sum   'La8 Pr12 Si15 Au1'
_cell_volume   986.08367919
_cell_formula_units_Z   1
loop_
 _symmetry_equiv_pos_site_id
 _symmetry_equiv_pos_as_xyz
  1  'x, y, z'
loop_
 _atom_site_type_symbol
 _atom_site_label
 _atom_site_symmetry_multiplicity
 _atom_site_fract_x
 _atom_site_fract_y
 _atom_site_fract_z
 _atom_site_occupancy
  La  La0  1  0.374387  0.011729  0.448189  1
  La  La1  1  0.490002  0.871758  0.699404  1
  La  La2  1  0.510755  0.123535  0.198318  1
  La  La3  1  0.876752  0.488609  0.300514  1
  La  La4  1  0.122112  0.516196  0.801840  1
  La  La5  1  0.626282  0.987439  0.949668  1
  La  La6  1  0.004947  0.378954  0.549363  1
  La  La7  1  0.988992  0.625971  0.051559  1
  Pr  Pr8  1  0.307543  0.307941  0.999730  1
  Pr  Pr9  1  0.190784  0.809223  0.250033  1
  Pr  Pr10  1  0.804935  0.185537  0.751689  1
  Pr  Pr11  1  0.692260  0.688679  0.498994  1
  Pr  Pr12  1  0.131494  0.984326  0.877671  1
  Pr  Pr13  1  0.516804  0.629704  0.126207  1
  Pr  Pr14  1  0.484284  0.371045  0.626727  1
  Pr  Pr15  1  0.629228  0.518828  0.875001  1
  Pr  Pr16  1  0.372554  0.483444  0.372994  1
  Pr  Pr17  1  0.871494  0.018616  0.375471  1
  Pr  Pr18  1  0.982677  0.128229  0.124461  1
  Pr  Pr19  1  0.014474  0.867735  0.622253  1
  Si  Si20  1  0.333070  0.696356  0.952121  1
  Si  Si21  1  0.664432  0.302572  0.451716  1
  Si  Si22  1  0.698720  0.335066  0.048519  1
  Si  Si23  1  0.304034  0.667783  0.547031  1
  Si  Si24  1  0.803961  0.832393  0.202736  1
  Si  Si25  1  0.167869  0.197518  0.297880  1
  Si  Si26  1  0.834483  0.803140  0.797655  1
  Si  Si27  1  0.287620  0.920886  0.060212  1
  Si  Si28  1  0.579612  0.786889  0.309739  1
  Si  Si29  1  0.432107  0.212254  0.814709  1
  Si  Si30  1  0.786747  0.579205  0.690683  1
  Si  Si31  1  0.212524  0.421636  0.190163  1
  Si  Si32  1  0.708670  0.077314  0.558525  1
  Si  Si33  1  0.921454  0.288752  0.941105  1
  Si  Si34  1  0.079488  0.713466  0.439928  1
  Au  Au35  1  0.192451  0.167270  0.697193  1
