# generated using pymatgen
data_SmSiOs2C
_symmetry_space_group_name_H-M   'P 1'
_cell_length_a   5.89802395
_cell_length_b   5.89802513
_cell_length_c   7.17133900
_cell_angle_alpha   90.00000000
_cell_angle_beta   90.00000000
_cell_angle_gamma   140.96740268
_symmetry_Int_Tables_number   1
_chemical_formula_structural   SmSiOs2C
_chemical_formula_sum   'Sm2 Si2 Os4 C2'
_cell_volume   157.10505268
_cell_formula_units_Z   2
loop_
 _symmetry_equiv_pos_site_id
 _symmetry_equiv_pos_as_xyz
  1  'x, y, z'
loop_
 _atom_site_type_symbol
 _atom_site_label
 _atom_site_symmetry_multiplicity
 _atom_site_fract_x
 _atom_site_fract_y
 _atom_site_fract_z
 _atom_site_occupancy
  Sm  Sm0  1  0.548865  0.451135  0.250000  1
  Sm  Sm1  1  0.451135  0.548865  0.750000  1
  Si  Si2  1  0.270322  0.729678  0.250000  1
  Si  Si3  1  0.729678  0.270322  0.750000  1
  Os  Os4  1  0.833918  0.166082  0.058938  1
  Os  Os5  1  0.166082  0.833918  0.941062  1
  Os  Os6  1  0.166082  0.833918  0.558938  1
  Os  Os7  1  0.833918  0.166082  0.441062  1
  C  C8  1  0.000000  0.000000  0.000000  1
  C  C9  1  0.000000  0.000000  0.500000  1
