# generated using pymatgen
data_SmAl4Cu9
_symmetry_space_group_name_H-M   'P 1'
_cell_length_a   8.27935754
_cell_length_b   8.27935732
_cell_length_c   8.27935807
_cell_angle_alpha   120.27741140
_cell_angle_beta   120.27741447
_cell_angle_gamma   89.52017863
_symmetry_Int_Tables_number   1
_chemical_formula_structural   SmAl4Cu9
_chemical_formula_sum   'Sm2 Al8 Cu18'
_cell_volume   399.60742066
_cell_formula_units_Z   2
loop_
 _symmetry_equiv_pos_site_id
 _symmetry_equiv_pos_as_xyz
  1  'x, y, z'
loop_
 _atom_site_type_symbol
 _atom_site_label
 _atom_site_symmetry_multiplicity
 _atom_site_fract_x
 _atom_site_fract_y
 _atom_site_fract_z
 _atom_site_occupancy
  Sm  Sm0  1  0.750000  0.750000  0.000000  1
  Sm  Sm1  1  0.250000  0.250000  0.000000  1
  Al  Al2  1  0.801879  0.301878  0.860091  1
  Al  Al3  1  0.441787  0.941788  0.139910  1
  Al  Al4  1  0.698123  0.558213  0.500000  1
  Al  Al5  1  0.058212  0.198122  0.500000  1
  Al  Al6  1  0.198123  0.698123  0.139910  1
  Al  Al7  1  0.558212  0.058212  0.860091  1
  Al  Al8  1  0.941788  0.801878  0.500000  1
  Al  Al9  1  0.301878  0.441788  0.500000  1
  Cu  Cu10  1  0.202354  0.060857  0.263209  1
  Cu  Cu11  1  0.797644  0.939144  0.736792  1
  Cu  Cu12  1  0.297645  0.560856  0.858501  1
  Cu  Cu13  1  0.702353  0.439143  0.141498  1
  Cu  Cu14  1  0.439145  0.297645  0.736792  1
  Cu  Cu15  1  0.560856  0.702353  0.263209  1
  Cu  Cu16  1  0.939144  0.202354  0.141500  1
  Cu  Cu17  1  0.060857  0.797645  0.858502  1
  Cu  Cu18  1  0.499999  0.000000  0.499999  1
  Cu  Cu19  1  0.000000  0.499999  0.499999  1
  Cu  Cu20  1  0.296294  0.796293  0.734830  1
  Cu  Cu21  1  0.061462  0.561463  0.265171  1
  Cu  Cu22  1  0.203707  0.938538  0.499999  1
  Cu  Cu23  1  0.438539  0.703708  0.500002  1
  Cu  Cu24  1  0.703708  0.203707  0.265171  1
  Cu  Cu25  1  0.938538  0.438539  0.734830  1
  Cu  Cu26  1  0.561463  0.296294  0.500002  1
  Cu  Cu27  1  0.796293  0.061462  0.499999  1
