# generated using pymatgen
data_Yb2Si2PdPt3
_symmetry_space_group_name_H-M   'P 1'
_cell_length_a   5.55218012
_cell_length_b   6.91849400
_cell_length_c   7.33499216
_cell_angle_alpha   90.00000000
_cell_angle_beta   90.02377185
_cell_angle_gamma   90.00000000
_symmetry_Int_Tables_number   1
_chemical_formula_structural   Yb2Si2PdPt3
_chemical_formula_sum   'Yb4 Si4 Pd2 Pt6'
_cell_volume   281.75701124
_cell_formula_units_Z   2
loop_
 _symmetry_equiv_pos_site_id
 _symmetry_equiv_pos_as_xyz
  1  'x, y, z'
loop_
 _atom_site_type_symbol
 _atom_site_label
 _atom_site_symmetry_multiplicity
 _atom_site_fract_x
 _atom_site_fract_y
 _atom_site_fract_z
 _atom_site_occupancy
  Yb  Yb0  1  0.128246  0.750000  0.479611  1
  Yb  Yb1  1  0.366980  0.750000  0.978293  1
  Yb  Yb2  1  0.629494  0.250000  0.018925  1
  Yb  Yb3  1  0.871307  0.250000  0.523199  1
  Si  Si4  1  0.128977  0.250000  0.876341  1
  Si  Si5  1  0.377580  0.250000  0.376509  1
  Si  Si6  1  0.626717  0.750000  0.624348  1
  Si  Si7  1  0.862610  0.750000  0.121668  1
  Pd  Pd8  1  0.105038  0.051799  0.173922  1
  Pd  Pd9  1  0.105038  0.448201  0.173922  1
  Pt  Pt10  1  0.395510  0.050991  0.671883  1
  Pt  Pt11  1  0.395510  0.449009  0.671883  1
  Pt  Pt12  1  0.602793  0.551362  0.326782  1
  Pt  Pt13  1  0.602793  0.948638  0.326782  1
  Pt  Pt14  1  0.900703  0.551533  0.827967  1
  Pt  Pt15  1  0.900703  0.948467  0.827967  1
