# generated using pymatgen
data_Cs2CaTa4(NbBr9)2
_symmetry_space_group_name_H-M   'P 1'
_cell_length_a   10.95930687
_cell_length_b   10.95871925
_cell_length_c   10.95757464
_cell_angle_alpha   55.09789001
_cell_angle_beta   55.09087282
_cell_angle_gamma   55.08709647
_symmetry_Int_Tables_number   1
_chemical_formula_structural   Cs2CaTa4(NbBr9)2
_chemical_formula_sum   'Cs2 Ca1 Ta4 Nb2 Br18'
_cell_volume   824.33051269
_cell_formula_units_Z   1
loop_
 _symmetry_equiv_pos_site_id
 _symmetry_equiv_pos_as_xyz
  1  'x, y, z'
loop_
 _atom_site_type_symbol
 _atom_site_label
 _atom_site_symmetry_multiplicity
 _atom_site_fract_x
 _atom_site_fract_y
 _atom_site_fract_z
 _atom_site_occupancy
  Cs  Cs0  1  0.723128  0.722621  0.723039  1
  Cs  Cs1  1  0.277187  0.277344  0.277248  1
  Ca  Ca2  1  0.000628  0.000331  0.999838  1
  Ta  Ta3  1  0.578233  0.360613  0.690313  1
  Ta  Ta4  1  0.360087  0.690921  0.578502  1
  Ta  Ta5  1  0.690298  0.578284  0.360515  1
  Ta  Ta6  1  0.639841  0.309095  0.421433  1
  Nb  Nb7  1  0.420939  0.640690  0.307880  1
  Nb  Nb8  1  0.307850  0.420991  0.640683  1
  Br  Br9  1  0.906990  0.362219  0.229316  1
  Br  Br10  1  0.833385  0.423519  0.563762  1
  Br  Br11  1  0.770523  0.093062  0.637901  1
  Br  Br12  1  0.092651  0.639631  0.770549  1
  Br  Br13  1  0.685460  0.170457  0.958143  1
  Br  Br14  1  0.228677  0.907887  0.363607  1
  Br  Br15  1  0.438151  0.165744  0.575331  1
  Br  Br16  1  0.639848  0.770818  0.092207  1
  Br  Br17  1  0.577721  0.434398  0.167076  1
  Br  Br18  1  0.039666  0.313512  0.831356  1
  Br  Br19  1  0.563721  0.833061  0.423503  1
  Br  Br20  1  0.363499  0.228395  0.908363  1
  Br  Br21  1  0.958237  0.685160  0.170611  1
  Br  Br22  1  0.165360  0.576637  0.436144  1
  Br  Br23  1  0.829888  0.041462  0.314873  1
  Br  Br24  1  0.423543  0.563659  0.833110  1
  Br  Br25  1  0.170540  0.958398  0.685251  1
  Br  Br26  1  0.313950  0.831092  0.039447  1
