# generated using pymatgen
data_DyNp3F15
_symmetry_space_group_name_H-M   'P 1'
_cell_length_a   8.60059520
_cell_length_b   8.60059498
_cell_length_c   8.61983401
_cell_angle_alpha   79.52597782
_cell_angle_beta   79.52596944
_cell_angle_gamma   100.10322955
_symmetry_Int_Tables_number   1
_chemical_formula_structural   DyNp3F15
_chemical_formula_sum   'Dy2 Np6 F30'
_cell_volume   602.04049682
_cell_formula_units_Z   2
loop_
 _symmetry_equiv_pos_site_id
 _symmetry_equiv_pos_as_xyz
  1  'x, y, z'
loop_
 _atom_site_type_symbol
 _atom_site_label
 _atom_site_symmetry_multiplicity
 _atom_site_fract_x
 _atom_site_fract_y
 _atom_site_fract_z
 _atom_site_occupancy
  Dy  Dy0  1  0.177327  0.822673  0.250000  1
  Dy  Dy1  1  0.822673  0.177327  0.750000  1
  Np  Np2  1  0.748675  0.251325  0.250000  1
  Np  Np3  1  0.251325  0.748675  0.750000  1
  Np  Np4  1  0.756277  0.677467  0.674579  1
  Np  Np5  1  0.322533  0.243723  0.825421  1
  Np  Np6  1  0.243723  0.322533  0.325421  1
  Np  Np7  1  0.677467  0.756277  0.174579  1
  F  F8  1  0.322569  0.346957  0.050446  1
  F  F9  1  0.944382  0.813910  0.158080  1
  F  F10  1  0.843603  0.448603  0.681582  1
  F  F11  1  0.448603  0.843603  0.181582  1
  F  F12  1  0.813910  0.944382  0.658080  1
  F  F13  1  0.346957  0.322569  0.550445  1
  F  F14  1  0.677431  0.653043  0.949554  1
  F  F15  1  0.055618  0.186090  0.841920  1
  F  F16  1  0.156397  0.551397  0.318418  1
  F  F17  1  0.551397  0.156397  0.818418  1
  F  F18  1  0.186090  0.055618  0.341920  1
  F  F19  1  0.653043  0.677431  0.449554  1
  F  F20  1  0.777542  0.277633  0.991102  1
  F  F21  1  0.012712  0.278847  0.215609  1
  F  F22  1  0.780606  0.511551  0.221722  1
  F  F23  1  0.511551  0.780606  0.721722  1
  F  F24  1  0.278847  0.012712  0.715609  1
  F  F25  1  0.277633  0.777542  0.491102  1
  F  F26  1  0.222458  0.722367  0.008898  1
  F  F27  1  0.987288  0.721153  0.784391  1
  F  F28  1  0.219394  0.488449  0.778278  1
  F  F29  1  0.488449  0.219394  0.278278  1
  F  F30  1  0.721153  0.987288  0.284391  1
  F  F31  1  0.722367  0.222458  0.508898  1
  F  F32  1  0.466923  0.533077  0.250000  1
  F  F33  1  0.751571  0.965501  0.966075  1
  F  F34  1  0.034499  0.248429  0.533925  1
  F  F35  1  0.248429  0.034499  0.033925  1
  F  F36  1  0.965501  0.751571  0.466075  1
  F  F37  1  0.533077  0.466923  0.750000  1
