# generated using pymatgen
data_Ta3Ti2MnRu6
_symmetry_space_group_name_H-M   'P 1'
_cell_length_a   4.41166200
_cell_length_b   6.26102500
_cell_length_c   13.26266500
_cell_angle_alpha   90.00000000
_cell_angle_beta   90.00025948
_cell_angle_gamma   90.00000000
_symmetry_Int_Tables_number   1
_chemical_formula_structural   Ta3Ti2MnRu6
_chemical_formula_sum   'Ta6 Ti4 Mn2 Ru12'
_cell_volume   366.33504710
_cell_formula_units_Z   2
loop_
 _symmetry_equiv_pos_site_id
 _symmetry_equiv_pos_as_xyz
  1  'x, y, z'
loop_
 _atom_site_type_symbol
 _atom_site_label
 _atom_site_symmetry_multiplicity
 _atom_site_fract_x
 _atom_site_fract_y
 _atom_site_fract_z
 _atom_site_occupancy
  Ta  Ta0  1  0.999984  0.500000  0.994625  1
  Ta  Ta1  1  0.499905  0.000000  0.166409  1
  Ta  Ta2  1  0.999906  0.500000  0.333578  1
  Ta  Ta3  1  0.499986  0.000000  0.505380  1
  Ta  Ta4  1  0.000098  0.500000  0.672314  1
  Ta  Ta5  1  0.500103  0.000000  0.827694  1
  Ti  Ti6  1  0.999989  0.000000  0.997943  1
  Ti  Ti7  1  0.499904  0.500000  0.165857  1
  Ti  Ti8  1  0.999904  0.000000  0.334142  1
  Ti  Ti9  1  0.499988  0.500000  0.502054  1
  Mn  Mn10  1  0.000119  0.000000  0.666981  1
  Mn  Mn11  1  0.500120  0.500000  0.833024  1
  Ru  Ru12  1  0.499985  0.247147  0.001661  1
  Ru  Ru13  1  0.499985  0.752853  0.001661  1
  Ru  Ru14  1  0.999901  0.250002  0.166173  1
  Ru  Ru15  1  0.999901  0.749999  0.166173  1
  Ru  Ru16  1  0.499905  0.249987  0.333822  1
  Ru  Ru17  1  0.499905  0.750013  0.333822  1
  Ru  Ru18  1  0.999985  0.252861  0.498336  1
  Ru  Ru19  1  0.999985  0.747139  0.498336  1
  Ru  Ru20  1  0.500107  0.253863  0.664220  1
  Ru  Ru21  1  0.500107  0.746137  0.664220  1
  Ru  Ru22  1  0.000114  0.246143  0.835789  1
  Ru  Ru23  1  0.000114  0.753858  0.835789  1
