# generated using pymatgen
data_Sc5Cr4P12Ir11Ru4
_symmetry_space_group_name_H-M   'P 1'
_cell_length_a   12.59865457
_cell_length_b   12.56512149
_cell_length_c   3.86245000
_cell_angle_alpha   90.00000000
_cell_angle_beta   90.00000000
_cell_angle_gamma   120.31802080
_symmetry_Int_Tables_number   1
_chemical_formula_structural   Sc5Cr4P12Ir11Ru4
_chemical_formula_sum   'Sc5 Cr4 P12 Ir11 Ru4'
_cell_volume   527.81738236
_cell_formula_units_Z   1
loop_
 _symmetry_equiv_pos_site_id
 _symmetry_equiv_pos_as_xyz
  1  'x, y, z'
loop_
 _atom_site_type_symbol
 _atom_site_label
 _atom_site_symmetry_multiplicity
 _atom_site_fract_x
 _atom_site_fract_y
 _atom_site_fract_z
 _atom_site_occupancy
  Sc  Sc0  1  0.331378  0.668452  0.000000  1
  Sc  Sc1  1  0.668458  0.333715  0.000000  1
  Sc  Sc2  1  0.809971  0.000820  0.500000  1
  Sc  Sc3  1  0.000021  0.808530  0.500000  1
  Sc  Sc4  1  0.186898  0.186360  0.500000  1
  Cr  Cr5  1  0.447963  0.001513  0.000000  1
  Cr  Cr6  1  0.009377  0.452721  0.000000  1
  Cr  Cr7  1  0.552216  0.548538  0.000000  1
  Cr  Cr8  1  0.180211  0.378028  0.000000  1
  P  P9  1  0.173683  0.996561  0.000000  1
  P  P10  1  0.000173  0.178329  0.000000  1
  P  P11  1  0.818981  0.820307  0.000000  1
  P  P12  1  0.172059  0.484203  0.500000  1
  P  P13  1  0.516618  0.687416  0.500000  1
  P  P14  1  0.310218  0.831338  0.500000  1
  P  P15  1  0.693928  0.518951  0.500000  1
  P  P16  1  0.830330  0.309168  0.500000  1
  P  P17  1  0.484534  0.171703  0.500000  1
  P  P18  1  0.637581  0.999576  0.000000  1
  P  P19  1  0.000578  0.638633  0.000000  1
  P  P20  1  0.355541  0.362052  0.000000  1
  Ir  Ir21  1  0.359640  0.486662  0.500000  1
  Ir  Ir22  1  0.504155  0.867973  0.500000  1
  Ir  Ir23  1  0.131673  0.639553  0.500000  1
  Ir  Ir24  1  0.872523  0.506059  0.500000  1
  Ir  Ir25  1  0.637162  0.129034  0.500000  1
  Ir  Ir26  1  0.498842  0.363386  0.500000  1
  Ir  Ir27  1  0.371421  0.183560  0.000000  1
  Ir  Ir28  1  0.283038  0.003426  0.500000  1
  Ir  Ir29  1  0.003842  0.282574  0.500000  1
  Ir  Ir30  1  0.717353  0.716958  0.500000  1
  Ir  Ir31  1  0.997602  0.998869  0.000000  1
  Ru  Ru32  1  0.622329  0.804282  0.000000  1
  Ru  Ru33  1  0.193576  0.821211  0.000000  1
  Ru  Ru34  1  0.806466  0.623967  0.000000  1
  Ru  Ru35  1  0.819661  0.195574  0.000000  1
