# generated using pymatgen
data_Y5Ge2Se3
_symmetry_space_group_name_H-M   'P 1'
_cell_length_a   7.14740449
_cell_length_b   7.14740535
_cell_length_c   7.15248200
_cell_angle_alpha   99.18502029
_cell_angle_beta   99.78773964
_cell_angle_gamma   132.07818976
_symmetry_Int_Tables_number   1
_chemical_formula_structural   Y5Ge2Se3
_chemical_formula_sum   'Y5 Ge2 Se3'
_cell_volume   247.86036475
_cell_formula_units_Z   1
loop_
 _symmetry_equiv_pos_site_id
 _symmetry_equiv_pos_as_xyz
  1  'x, y, z'
loop_
 _atom_site_type_symbol
 _atom_site_label
 _atom_site_symmetry_multiplicity
 _atom_site_fract_x
 _atom_site_fract_y
 _atom_site_fract_z
 _atom_site_occupancy
  Y  Y0  1  0.394496  0.789156  0.183652  1
  Y  Y1  1  0.002482  0.994715  0.997197  1
  Y  Y2  1  0.597636  0.205589  0.803225  1
  Y  Y3  1  0.205560  0.410475  0.616034  1
  Y  Y4  1  0.799580  0.600125  0.399705  1
  Ge  Ge5  1  0.502599  0.501351  0.003952  1
  Ge  Ge6  1  0.096956  0.698393  0.795348  1
  Se  Se7  1  0.696115  0.899765  0.595880  1
  Se  Se8  1  0.300249  0.099306  0.399555  1
  Se  Se9  1  0.904325  0.301125  0.205452  1
