# generated using pymatgen
data_Ba8Sr(SbO3)6
_symmetry_space_group_name_H-M   'P 1'
_cell_length_a   6.23387267
_cell_length_b   9.86208246
_cell_length_c   12.28004399
_cell_angle_alpha   74.67882016
_cell_angle_beta   89.45589183
_cell_angle_gamma   71.62930958
_symmetry_Int_Tables_number   1
_chemical_formula_structural   Ba8Sr(SbO3)6
_chemical_formula_sum   'Ba8 Sr1 Sb6 O18'
_cell_volume   688.77669942
_cell_formula_units_Z   1
loop_
 _symmetry_equiv_pos_site_id
 _symmetry_equiv_pos_as_xyz
  1  'x, y, z'
loop_
 _atom_site_type_symbol
 _atom_site_label
 _atom_site_symmetry_multiplicity
 _atom_site_fract_x
 _atom_site_fract_y
 _atom_site_fract_z
 _atom_site_occupancy
  Ba  Ba0  1  0.601133  0.789946  0.059232  1
  Ba  Ba1  1  0.125385  0.725482  0.291163  1
  Ba  Ba2  1  0.820728  0.395634  0.298545  1
  Ba  Ba3  1  0.480040  0.033090  0.303363  1
  Ba  Ba4  1  0.519960  0.966910  0.696637  1
  Ba  Ba5  1  0.179273  0.604366  0.701456  1
  Ba  Ba6  1  0.874616  0.274519  0.708836  1
  Ba  Ba7  1  0.398867  0.210055  0.940767  1
  Sr  Sr8  1  0.000000  0.000000  0.500000  1
  Sb  Sb9  1  0.257354  0.505714  0.083738  1
  Sb  Sb10  1  0.948573  0.098468  0.129375  1
  Sb  Sb11  1  0.351336  0.327608  0.489340  1
  Sb  Sb12  1  0.648664  0.672393  0.510660  1
  Sb  Sb13  1  0.051427  0.901532  0.870625  1
  Sb  Sb14  1  0.742646  0.494286  0.916262  1
  O  O15  1  0.774446  0.960023  0.140853  1
  O  O16  1  0.332595  0.290603  0.153923  1
  O  O17  1  0.256448  0.950895  0.156563  1
  O  O18  1  0.982391  0.581351  0.159715  1
  O  O19  1  0.446234  0.566604  0.178934  1
  O  O20  1  0.919209  0.103341  0.289851  1
  O  O21  1  0.720874  0.671608  0.355970  1
  O  O22  1  0.256967  0.157140  0.480126  1
  O  O23  1  0.316071  0.770702  0.484918  1
  O  O24  1  0.683929  0.229298  0.515082  1
  O  O25  1  0.743032  0.842861  0.519873  1
  O  O26  1  0.279126  0.328392  0.644030  1
  O  O27  1  0.080792  0.896658  0.710149  1
  O  O28  1  0.553766  0.433396  0.821066  1
  O  O29  1  0.017609  0.418650  0.840285  1
  O  O30  1  0.743552  0.049106  0.843436  1
  O  O31  1  0.667407  0.709397  0.846077  1
  O  O32  1  0.225554  0.039978  0.859147  1
