# generated using pymatgen
data_Zr15Si16W5
_symmetry_space_group_name_H-M   'P 1'
_cell_length_a   6.96931519
_cell_length_b   6.97739092
_cell_length_c   12.86731879
_cell_angle_alpha   90.24228692
_cell_angle_beta   90.18316963
_cell_angle_gamma   90.02650767
_symmetry_Int_Tables_number   1
_chemical_formula_structural   Zr15Si16W5
_chemical_formula_sum   'Zr15 Si16 W5'
_cell_volume   625.69843864
_cell_formula_units_Z   1
loop_
 _symmetry_equiv_pos_site_id
 _symmetry_equiv_pos_as_xyz
  1  'x, y, z'
loop_
 _atom_site_type_symbol
 _atom_site_label
 _atom_site_symmetry_multiplicity
 _atom_site_fract_x
 _atom_site_fract_y
 _atom_site_fract_z
 _atom_site_occupancy
  Zr  Zr0  1  0.854034  0.998176  0.374466  1
  Zr  Zr1  1  0.006130  0.149611  0.127889  1
  Zr  Zr2  1  0.998619  0.850403  0.623488  1
  Zr  Zr3  1  0.646634  0.497488  0.875682  1
  Zr  Zr4  1  0.499917  0.353020  0.623375  1
  Zr  Zr5  1  0.499280  0.645653  0.124843  1
  Zr  Zr6  1  0.146240  0.002162  0.874668  1
  Zr  Zr7  1  0.001606  0.651018  0.034808  1
  Zr  Zr8  1  0.999793  0.346306  0.531306  1
  Zr  Zr9  1  0.650430  0.000739  0.967315  1
  Zr  Zr10  1  0.151866  0.500023  0.783057  1
  Zr  Zr11  1  0.845147  0.498983  0.283226  1
  Zr  Zr12  1  0.501979  0.151956  0.219804  1
  Zr  Zr13  1  0.498556  0.848433  0.715461  1
  Zr  Zr14  1  0.346649  0.999927  0.467465  1
  Si  Si15  1  0.056345  0.698808  0.431855  1
  Si  Si16  1  0.952872  0.299567  0.935101  1
  Si  Si17  1  0.701198  0.048045  0.564961  1
  Si  Si18  1  0.204049  0.454894  0.189818  1
  Si  Si19  1  0.799521  0.546080  0.683677  1
  Si  Si20  1  0.451961  0.200298  0.814688  1
  Si  Si21  1  0.542476  0.792563  0.316653  1
  Si  Si22  1  0.300656  0.951519  0.066266  1
  Si  Si23  1  0.852892  0.797628  0.820068  1
  Si  Si24  1  0.146211  0.214917  0.325789  1
  Si  Si25  1  0.799642  0.854723  0.179171  1
  Si  Si26  1  0.299727  0.643930  0.565619  1
  Si  Si27  1  0.702472  0.352174  0.071150  1
  Si  Si28  1  0.635298  0.301301  0.425441  1
  Si  Si29  1  0.353453  0.701914  0.929361  1
  Si  Si30  1  0.199909  0.146263  0.678923  1
  W  W31  1  0.353547  0.504407  0.375830  1
  W  W32  1  0.673049  0.671893  0.497924  1
  W  W33  1  0.825217  0.172204  0.749334  1
  W  W34  1  0.174650  0.827675  0.250080  1
  W  W35  1  0.327974  0.325300  0.001435  1
