# generated using pymatgen
data_Ho4MgSc2AlPt4
_symmetry_space_group_name_H-M   'P 1'
_cell_length_a   4.44751800
_cell_length_b   7.05044097
_cell_length_c   8.23109781
_cell_angle_alpha   88.93226258
_cell_angle_beta   90.00000000
_cell_angle_gamma   90.00000000
_symmetry_Int_Tables_number   1
_chemical_formula_structural   Ho4MgSc2AlPt4
_chemical_formula_sum   'Ho4 Mg1 Sc2 Al1 Pt4'
_cell_volume   258.05741434
_cell_formula_units_Z   1
loop_
 _symmetry_equiv_pos_site_id
 _symmetry_equiv_pos_as_xyz
  1  'x, y, z'
loop_
 _atom_site_type_symbol
 _atom_site_label
 _atom_site_symmetry_multiplicity
 _atom_site_fract_x
 _atom_site_fract_y
 _atom_site_fract_z
 _atom_site_occupancy
  Ho  Ho0  1  0.250000  0.048564  0.676435  1
  Ho  Ho1  1  0.250000  0.518126  0.818454  1
  Ho  Ho2  1  0.750000  0.987591  0.339009  1
  Ho  Ho3  1  0.750000  0.457815  0.177165  1
  Mg  Mg4  1  0.250000  0.138180  0.069547  1
  Sc  Sc5  1  0.250000  0.637955  0.435712  1
  Sc  Sc6  1  0.750000  0.865341  0.935218  1
  Al  Al7  1  0.750000  0.365602  0.562074  1
  Pt  Pt8  1  0.250000  0.262243  0.388401  1
  Pt  Pt9  1  0.250000  0.738960  0.107281  1
  Pt  Pt10  1  0.750000  0.734994  0.617655  1
  Pt  Pt11  1  0.750000  0.244631  0.873050  1
