# generated using pymatgen
data_ErAl10OsRh
_symmetry_space_group_name_H-M   'P 1'
_cell_length_a   6.82562927
_cell_length_b   6.85409482
_cell_length_c   9.15151800
_cell_angle_alpha   90.00000000
_cell_angle_beta   90.00000000
_cell_angle_gamma   96.98232003
_symmetry_Int_Tables_number   1
_chemical_formula_structural   ErAl10OsRh
_chemical_formula_sum   'Er2 Al20 Os2 Rh2'
_cell_volume   424.96492460
_cell_formula_units_Z   2
loop_
 _symmetry_equiv_pos_site_id
 _symmetry_equiv_pos_as_xyz
  1  'x, y, z'
loop_
 _atom_site_type_symbol
 _atom_site_label
 _atom_site_symmetry_multiplicity
 _atom_site_fract_x
 _atom_site_fract_y
 _atom_site_fract_z
 _atom_site_occupancy
  Er  Er0  1  0.866454  0.126137  0.750000  1
  Er  Er1  1  0.133546  0.873863  0.250000  1
  Al  Al2  1  0.620918  0.375647  0.550096  1
  Al  Al3  1  0.379082  0.624353  0.449904  1
  Al  Al4  1  0.379082  0.624353  0.050096  1
  Al  Al5  1  0.620918  0.375647  0.949904  1
  Al  Al6  1  0.222610  0.222339  0.498960  1
  Al  Al7  1  0.777390  0.777661  0.501040  1
  Al  Al8  1  0.777390  0.777661  0.998960  1
  Al  Al9  1  0.222610  0.222339  0.001040  1
  Al  Al10  1  0.845242  0.154169  0.101625  1
  Al  Al11  1  0.154758  0.845831  0.898375  1
  Al  Al12  1  0.154758  0.845831  0.601625  1
  Al  Al13  1  0.845242  0.154169  0.398375  1
  Al  Al14  1  0.855156  0.586258  0.750000  1
  Al  Al15  1  0.144844  0.413742  0.250000  1
  Al  Al16  1  0.411794  0.143355  0.750000  1
  Al  Al17  1  0.588206  0.856645  0.250000  1
  Al  Al18  1  0.224251  0.480470  0.750000  1
  Al  Al19  1  0.775749  0.519530  0.250000  1
  Al  Al20  1  0.518347  0.779454  0.750000  1
  Al  Al21  1  0.481653  0.220546  0.250000  1
  Os  Os22  1  0.500000  0.000000  0.000000  1
  Os  Os23  1  0.500000  0.000000  0.500000  1
  Rh  Rh24  1  0.000000  0.500000  0.500000  1
  Rh  Rh25  1  0.000000  0.500000  0.000000  1
