# generated using pymatgen
data_Y3LuReB12Ru
_symmetry_space_group_name_H-M   'P 1'
_cell_length_a   3.65764700
_cell_length_b   9.13671249
_cell_length_c   11.53124085
_cell_angle_alpha   90.24382437
_cell_angle_beta   90.00000000
_cell_angle_gamma   90.00000000
_symmetry_Int_Tables_number   1
_chemical_formula_structural   Y3LuReB12Ru
_chemical_formula_sum   'Y6 Lu2 Re2 B24 Ru2'
_cell_volume   385.35753826
_cell_formula_units_Z   2
loop_
 _symmetry_equiv_pos_site_id
 _symmetry_equiv_pos_as_xyz
  1  'x, y, z'
loop_
 _atom_site_type_symbol
 _atom_site_label
 _atom_site_symmetry_multiplicity
 _atom_site_fract_x
 _atom_site_fract_y
 _atom_site_fract_z
 _atom_site_occupancy
  Y  Y0  1  0.000000  0.321735  0.412232  1
  Y  Y1  1  0.000000  0.678265  0.587768  1
  Y  Y2  1  0.000000  0.823661  0.084425  1
  Y  Y3  1  0.000000  0.176339  0.915575  1
  Y  Y4  1  0.000000  0.942946  0.370245  1
  Y  Y5  1  0.000000  0.057054  0.629755  1
  Lu  Lu6  1  0.000000  0.443059  0.128789  1
  Lu  Lu7  1  0.000000  0.556941  0.871211  1
  Re  Re8  1  0.000000  0.140251  0.179006  1
  Re  Re9  1  0.000000  0.859749  0.820994  1
  B  B10  1  0.500000  0.553458  0.432274  1
  B  B11  1  0.500000  0.446542  0.567726  1
  B  B12  1  0.500000  0.054162  0.066736  1
  B  B13  1  0.500000  0.945838  0.933264  1
  B  B14  1  0.500000  0.747539  0.418160  1
  B  B15  1  0.500000  0.252461  0.581840  1
  B  B16  1  0.500000  0.251151  0.080913  1
  B  B17  1  0.500000  0.748849  0.919087  1
  B  B18  1  0.500000  0.789534  0.264915  1
  B  B19  1  0.500000  0.210466  0.735085  1
  B  B20  1  0.500000  0.293449  0.233921  1
  B  B21  1  0.500000  0.706551  0.766079  1
  B  B22  1  0.500000  0.628992  0.184825  1
  B  B23  1  0.500000  0.371008  0.815175  1
  B  B24  1  0.500000  0.132318  0.314249  1
  B  B25  1  0.500000  0.867682  0.685751  1
  B  B26  1  0.500000  0.983431  0.211786  1
  B  B27  1  0.500000  0.016569  0.788214  1
  B  B28  1  0.500000  0.482468  0.286728  1
  B  B29  1  0.500000  0.517532  0.713272  1
  B  B30  1  0.500000  0.599567  0.027861  1
  B  B31  1  0.500000  0.400433  0.972139  1
  B  B32  1  0.500000  0.105254  0.471287  1
  B  B33  1  0.500000  0.894746  0.528713  1
  Ru  Ru34  1  0.000000  0.636408  0.319891  1
  Ru  Ru35  1  0.000000  0.363592  0.680109  1
