# generated using pymatgen
data_Eu4MgTa(MoO7)2
_symmetry_space_group_name_H-M   'P 1'
_cell_length_a   7.33579455
_cell_length_b   7.52165157
_cell_length_c   7.47267000
_cell_angle_alpha   60.21518496
_cell_angle_beta   59.38083587
_cell_angle_gamma   59.53483421
_symmetry_Int_Tables_number   1
_chemical_formula_structural   Eu4MgTa(MoO7)2
_chemical_formula_sum   'Eu4 Mg1 Ta1 Mo2 O14'
_cell_volume   289.60164926
_cell_formula_units_Z   1
loop_
 _symmetry_equiv_pos_site_id
 _symmetry_equiv_pos_as_xyz
  1  'x, y, z'
loop_
 _atom_site_type_symbol
 _atom_site_label
 _atom_site_symmetry_multiplicity
 _atom_site_fract_x
 _atom_site_fract_y
 _atom_site_fract_z
 _atom_site_occupancy
  Eu  Eu0  1  0.625000  0.125000  0.125000  1
  Eu  Eu1  1  0.125000  0.625000  0.125000  1
  Eu  Eu2  1  0.125000  0.125000  0.625000  1
  Eu  Eu3  1  0.125000  0.125000  0.125000  1
  Mg  Mg4  1  0.125000  0.625000  0.625000  1
  Ta  Ta5  1  0.625000  0.125000  0.625000  1
  Mo  Mo6  1  0.625000  0.625000  0.125000  1
  Mo  Mo7  1  0.625000  0.625000  0.625000  1
  O  O8  1  0.246288  0.252842  0.250435  1
  O  O9  1  0.003712  0.997158  0.999565  1
  O  O10  1  0.691976  0.716139  0.295943  1
  O  O11  1  0.298269  0.287569  0.707082  1
  O  O12  1  0.692841  0.300027  0.703741  1
  O  O13  1  0.308503  0.702914  0.283354  1
  O  O14  1  0.308503  0.702914  0.705229  1
  O  O15  1  0.692841  0.300027  0.303392  1
  O  O16  1  0.558024  0.533861  0.954057  1
  O  O17  1  0.951731  0.962431  0.542918  1
  O  O18  1  0.557159  0.949973  0.546259  1
  O  O19  1  0.941497  0.547086  0.966646  1
  O  O20  1  0.941497  0.547086  0.544771  1
  O  O21  1  0.557159  0.949973  0.946608  1
