# generated using pymatgen
data_Ho3Er5(Sc3Pt4)4
_symmetry_space_group_name_H-M   'P 1'
_cell_length_a   7.23508117
_cell_length_b   7.23858801
_cell_length_c   14.21517635
_cell_angle_alpha   89.99341467
_cell_angle_beta   89.97522150
_cell_angle_gamma   90.00147981
_symmetry_Int_Tables_number   1
_chemical_formula_structural   Ho3Er5(Sc3Pt4)4
_chemical_formula_sum   'Ho3 Er5 Sc12 Pt16'
_cell_volume   744.47389778
_cell_formula_units_Z   1
loop_
 _symmetry_equiv_pos_site_id
 _symmetry_equiv_pos_as_xyz
  1  'x, y, z'
loop_
 _atom_site_type_symbol
 _atom_site_label
 _atom_site_symmetry_multiplicity
 _atom_site_fract_x
 _atom_site_fract_y
 _atom_site_fract_z
 _atom_site_occupancy
  Ho  Ho0  1  0.004021  0.177034  0.092496  1
  Ho  Ho1  1  0.496072  0.676940  0.907682  1
  Ho  Ho2  1  0.996274  0.822910  0.592263  1
  Er  Er3  1  0.496331  0.677288  0.592601  1
  Er  Er4  1  0.996092  0.822540  0.907187  1
  Er  Er5  1  0.503882  0.322316  0.092619  1
  Er  Er6  1  0.003804  0.177656  0.407268  1
  Er  Er7  1  0.503739  0.322684  0.407659  1
  Sc  Sc8  1  0.653270  0.165338  0.624042  1
  Sc  Sc9  1  0.153636  0.334648  0.875625  1
  Sc  Sc10  1  0.346572  0.834965  0.124447  1
  Sc  Sc11  1  0.845749  0.664749  0.375838  1
  Sc  Sc12  1  0.346545  0.834686  0.376148  1
  Sc  Sc13  1  0.846656  0.665577  0.124184  1
  Sc  Sc14  1  0.653504  0.165812  0.875975  1
  Sc  Sc15  1  0.153389  0.334582  0.623860  1
  Sc  Sc16  1  0.821136  0.500692  0.749973  1
  Sc  Sc17  1  0.321141  0.999385  0.750039  1
  Sc  Sc18  1  0.178997  0.499445  0.250317  1
  Sc  Sc19  1  0.679210  0.000552  0.250266  1
  Pt  Pt20  1  0.682430  0.957009  0.459271  1
  Pt  Pt21  1  0.182671  0.543780  0.040325  1
  Pt  Pt22  1  0.317176  0.043739  0.959794  1
  Pt  Pt23  1  0.817329  0.455815  0.539887  1
  Pt  Pt24  1  0.318276  0.043882  0.540177  1
  Pt  Pt25  1  0.817954  0.456576  0.959882  1
  Pt  Pt26  1  0.681897  0.956643  0.040290  1
  Pt  Pt27  1  0.182396  0.542785  0.459458  1
  Pt  Pt28  1  0.457256  0.379826  0.749903  1
  Pt  Pt29  1  0.957202  0.120245  0.750356  1
  Pt  Pt30  1  0.542389  0.619601  0.249770  1
  Pt  Pt31  1  0.042959  0.880079  0.250127  1
  Pt  Pt32  1  0.683626  0.853086  0.750045  1
  Pt  Pt33  1  0.183791  0.646876  0.750190  1
  Pt  Pt34  1  0.316893  0.147215  0.250072  1
  Pt  Pt35  1  0.815736  0.353047  0.249962  1
