# generated using pymatgen
data_Nd16NiAg4Ir3
_symmetry_space_group_name_H-M   'P 1'
_cell_length_a   9.81496632
_cell_length_b   9.81496581
_cell_length_c   9.81496538
_cell_angle_alpha   60.62221870
_cell_angle_beta   60.62222181
_cell_angle_gamma   60.62222421
_symmetry_Int_Tables_number   1
_chemical_formula_structural   Nd16NiAg4Ir3
_chemical_formula_sum   'Nd16 Ni1 Ag4 Ir3'
_cell_volume   677.97100492
_cell_formula_units_Z   1
loop_
 _symmetry_equiv_pos_site_id
 _symmetry_equiv_pos_as_xyz
  1  'x, y, z'
loop_
 _atom_site_type_symbol
 _atom_site_label
 _atom_site_symmetry_multiplicity
 _atom_site_fract_x
 _atom_site_fract_y
 _atom_site_fract_z
 _atom_site_occupancy
  Nd  Nd0  1  0.350674  0.350674  0.350674  1
  Nd  Nd1  1  0.350234  0.350234  0.946098  1
  Nd  Nd2  1  0.350234  0.946098  0.350234  1
  Nd  Nd3  1  0.946098  0.350234  0.350234  1
  Nd  Nd4  1  0.811453  0.190027  0.190027  1
  Nd  Nd5  1  0.189253  0.809659  0.809659  1
  Nd  Nd6  1  0.190027  0.811453  0.190027  1
  Nd  Nd7  1  0.809659  0.189253  0.809659  1
  Nd  Nd8  1  0.190027  0.190027  0.811453  1
  Nd  Nd9  1  0.809659  0.809659  0.189253  1
  Nd  Nd10  1  0.938361  0.562346  0.562346  1
  Nd  Nd11  1  0.564557  0.937044  0.937044  1
  Nd  Nd12  1  0.562346  0.938361  0.562346  1
  Nd  Nd13  1  0.937044  0.564557  0.937044  1
  Nd  Nd14  1  0.562346  0.562346  0.938361  1
  Nd  Nd15  1  0.937044  0.937044  0.564557  1
  Ni  Ni16  1  0.142026  0.142026  0.142026  1
  Ag  Ag17  1  0.580863  0.580863  0.580863  1
  Ag  Ag18  1  0.580930  0.580930  0.258046  1
  Ag  Ag19  1  0.580930  0.258046  0.580930  1
  Ag  Ag20  1  0.258046  0.580930  0.580930  1
  Ir  Ir21  1  0.142762  0.142762  0.572662  1
  Ir  Ir22  1  0.142762  0.572662  0.142762  1
  Ir  Ir23  1  0.572662  0.142762  0.142762  1
