# generated using pymatgen
data_Nd7Ho(MoO6)4
_symmetry_space_group_name_H-M   'P 1'
_cell_length_a   10.19641708
_cell_length_b   10.19641651
_cell_length_c   5.57123578
_cell_angle_alpha   75.33835825
_cell_angle_beta   75.33835279
_cell_angle_gamma   68.44847900
_symmetry_Int_Tables_number   1
_chemical_formula_structural   Nd7Ho(MoO6)4
_chemical_formula_sum   'Nd7 Ho1 Mo4 O24'
_cell_volume   512.86702085
_cell_formula_units_Z   1
loop_
 _symmetry_equiv_pos_site_id
 _symmetry_equiv_pos_as_xyz
  1  'x, y, z'
loop_
 _atom_site_type_symbol
 _atom_site_label
 _atom_site_symmetry_multiplicity
 _atom_site_fract_x
 _atom_site_fract_y
 _atom_site_fract_z
 _atom_site_occupancy
  Nd  Nd0  1  0.788237  0.553153  0.618317  1
  Nd  Nd1  1  0.211695  0.444456  0.382375  1
  Nd  Nd2  1  0.612307  0.387693  0.250000  1
  Nd  Nd3  1  0.390290  0.609710  0.750000  1
  Nd  Nd4  1  0.555544  0.788305  0.117625  1
  Nd  Nd5  1  0.131040  0.868960  0.250000  1
  Nd  Nd6  1  0.446847  0.211763  0.881683  1
  Ho  Ho7  1  0.866474  0.133526  0.750000  1
  Mo  Mo8  1  0.294407  0.009516  0.560122  1
  Mo  Mo9  1  0.706178  0.991332  0.441292  1
  Mo  Mo10  1  0.990484  0.705593  0.939878  1
  Mo  Mo11  1  0.008668  0.293822  0.058708  1
  O  O12  1  0.392939  0.422680  0.577754  1
  O  O13  1  0.571382  0.975819  0.732102  1
  O  O14  1  0.823050  0.713440  0.862559  1
  O  O15  1  0.677279  0.115392  0.139552  1
  O  O16  1  0.114158  0.673095  0.638757  1
  O  O17  1  0.326905  0.885842  0.861243  1
  O  O18  1  0.286560  0.176950  0.637441  1
  O  O19  1  0.972686  0.572568  0.234467  1
  O  O20  1  0.577320  0.607061  0.922246  1
  O  O21  1  0.427432  0.027314  0.265533  1
  O  O22  1  0.109903  0.048746  0.524134  1
  O  O23  1  0.184620  0.665094  0.083565  1
  O  O24  1  0.813972  0.329367  0.906233  1
  O  O25  1  0.334906  0.815380  0.416435  1
  O  O26  1  0.884608  0.322721  0.360448  1
  O  O27  1  0.951254  0.890097  0.975866  1
  O  O28  1  0.887316  0.955418  0.487190  1
  O  O29  1  0.670633  0.186028  0.593767  1
  O  O30  1  0.715089  0.824242  0.362907  1
  O  O31  1  0.044582  0.112684  0.012810  1
  O  O32  1  0.175758  0.284911  0.137093  1
  O  O33  1  0.608026  0.576725  0.420383  1
  O  O34  1  0.423275  0.391974  0.079617  1
  O  O35  1  0.024181  0.428618  0.767898  1
