# generated using pymatgen
data_GaCo4Si7(Mo6C)2
_symmetry_space_group_name_H-M   'P 1'
_cell_length_a   7.77705873
_cell_length_b   7.77705903
_cell_length_c   7.77705900
_cell_angle_alpha   60.18273701
_cell_angle_beta   60.18273577
_cell_angle_gamma   60.18273702
_symmetry_Int_Tables_number   1
_chemical_formula_structural   GaCo4Si7(Mo6C)2
_chemical_formula_sum   'Ga1 Co4 Si7 Mo12 C2'
_cell_volume   333.98326101
_cell_formula_units_Z   1
loop_
 _symmetry_equiv_pos_site_id
 _symmetry_equiv_pos_as_xyz
  1  'x, y, z'
loop_
 _atom_site_type_symbol
 _atom_site_label
 _atom_site_symmetry_multiplicity
 _atom_site_fract_x
 _atom_site_fract_y
 _atom_site_fract_z
 _atom_site_occupancy
  Ga  Ga0  1  0.835491  0.835491  0.835491  1
  Co  Co1  1  0.619564  0.619564  0.133385  1
  Co  Co2  1  0.619564  0.133385  0.619564  1
  Co  Co3  1  0.133385  0.619564  0.619564  1
  Co  Co4  1  0.626321  0.626321  0.626321  1
  Si  Si5  1  0.414333  0.414333  0.757661  1
  Si  Si6  1  0.414333  0.757661  0.414333  1
  Si  Si7  1  0.757661  0.414333  0.414333  1
  Si  Si8  1  0.413885  0.413885  0.413885  1
  Si  Si9  1  0.836955  0.836955  0.492718  1
  Si  Si10  1  0.836955  0.492718  0.836955  1
  Si  Si11  1  0.492718  0.836955  0.836955  1
  Mo  Mo12  1  0.057955  0.057955  0.441240  1
  Mo  Mo13  1  0.441247  0.058989  0.441247  1
  Mo  Mo14  1  0.058989  0.441247  0.441247  1
  Mo  Mo15  1  0.441247  0.441247  0.058989  1
  Mo  Mo16  1  0.057955  0.441240  0.057955  1
  Mo  Mo17  1  0.441240  0.057955  0.057955  1
  Mo  Mo18  1  0.190921  0.190921  0.808697  1
  Mo  Mo19  1  0.807017  0.197315  0.807017  1
  Mo  Mo20  1  0.197315  0.807017  0.807017  1
  Mo  Mo21  1  0.807017  0.807017  0.197315  1
  Mo  Mo22  1  0.190921  0.808697  0.190921  1
  Mo  Mo23  1  0.808697  0.190921  0.190921  1
  C  C24  1  0.249783  0.249783  0.249783  1
  C  C25  1  0.998532  0.998532  0.998532  1
