# generated using pymatgen
data_CeDy(CoSi)4
_symmetry_space_group_name_H-M   'P 1'
_cell_length_a   3.91192800
_cell_length_b   3.91204500
_cell_length_c   9.75589000
_cell_angle_alpha   90.00000000
_cell_angle_beta   90.00000000
_cell_angle_gamma   90.00000000
_symmetry_Int_Tables_number   1
_chemical_formula_structural   CeDy(CoSi)4
_chemical_formula_sum   'Ce1 Dy1 Co4 Si4'
_cell_volume   149.30061256
_cell_formula_units_Z   1
loop_
 _symmetry_equiv_pos_site_id
 _symmetry_equiv_pos_as_xyz
  1  'x, y, z'
loop_
 _atom_site_type_symbol
 _atom_site_label
 _atom_site_symmetry_multiplicity
 _atom_site_fract_x
 _atom_site_fract_y
 _atom_site_fract_z
 _atom_site_occupancy
  Ce  Ce0  1  0.000000  0.000000  0.000000  1
  Dy  Dy1  1  0.499999  0.499999  0.500000  1
  Co  Co2  1  0.499999  0.000000  0.749310  1
  Co  Co3  1  0.000000  0.499999  0.749309  1
  Co  Co4  1  0.499999  0.000000  0.250691  1
  Co  Co5  1  0.000000  0.499999  0.250691  1
  Si  Si6  1  0.000000  0.000000  0.626396  1
  Si  Si7  1  0.000000  0.000000  0.373603  1
  Si  Si8  1  0.499999  0.499999  0.132873  1
  Si  Si9  1  0.499999  0.499999  0.867127  1
