# generated using pymatgen
data_MgTa3Zn2(Co5B2)2
_symmetry_space_group_name_H-M   'P 1'
_cell_length_a   8.56998486
_cell_length_b   8.56998593
_cell_length_c   2.99545900
_cell_angle_alpha   90.00000000
_cell_angle_beta   90.00000000
_cell_angle_gamma   90.04316345
_symmetry_Int_Tables_number   1
_chemical_formula_structural   MgTa3Zn2(Co5B2)2
_chemical_formula_sum   'Mg1 Ta3 Zn2 Co10 B4'
_cell_volume   220.00037441
_cell_formula_units_Z   1
loop_
 _symmetry_equiv_pos_site_id
 _symmetry_equiv_pos_as_xyz
  1  'x, y, z'
loop_
 _atom_site_type_symbol
 _atom_site_label
 _atom_site_symmetry_multiplicity
 _atom_site_fract_x
 _atom_site_fract_y
 _atom_site_fract_z
 _atom_site_occupancy
  Mg  Mg0  1  0.822113  0.322113  0.000000  1
  Ta  Ta1  1  0.174692  0.674692  0.000000  1
  Ta  Ta2  1  0.324436  0.178384  0.000000  1
  Ta  Ta3  1  0.678384  0.824436  0.000000  1
  Zn  Zn4  1  0.500867  0.500024  0.000000  1
  Zn  Zn5  1  0.000024  0.000867  0.000000  1
  Co  Co6  1  0.498618  0.998618  0.500000  1
  Co  Co7  1  0.000327  0.500327  0.500000  1
  Co  Co8  1  0.719856  0.578642  0.500000  1
  Co  Co9  1  0.279195  0.433675  0.500000  1
  Co  Co10  1  0.221405  0.930120  0.500000  1
  Co  Co11  1  0.775027  0.060829  0.500000  1
  Co  Co12  1  0.430120  0.721405  0.500000  1
  Co  Co13  1  0.560829  0.275027  0.500000  1
  Co  Co14  1  0.078642  0.219856  0.500000  1
  Co  Co15  1  0.933675  0.779195  0.500000  1
  B  B16  1  0.621358  0.121358  0.000000  1
  B  B17  1  0.378389  0.878389  0.000000  1
  B  B18  1  0.122193  0.379852  0.000000  1
  B  B19  1  0.879852  0.622193  0.000000  1
