# generated using pymatgen
data_TbNd6CoCl12
_symmetry_space_group_name_H-M   'P 1'
_cell_length_a   9.21167650
_cell_length_b   9.21167527
_cell_length_c   9.21167643
_cell_angle_alpha   106.95935276
_cell_angle_beta   106.95936200
_cell_angle_gamma   106.95935184
_symmetry_Int_Tables_number   1
_chemical_formula_structural   TbNd6CoCl12
_chemical_formula_sum   'Tb1 Nd6 Co1 Cl12'
_cell_volume   651.69146424
_cell_formula_units_Z   1
loop_
 _symmetry_equiv_pos_site_id
 _symmetry_equiv_pos_as_xyz
  1  'x, y, z'
loop_
 _atom_site_type_symbol
 _atom_site_label
 _atom_site_symmetry_multiplicity
 _atom_site_fract_x
 _atom_site_fract_y
 _atom_site_fract_z
 _atom_site_occupancy
  Tb  Tb0  1  0.500000  0.500000  0.500000  1
  Nd  Nd1  1  0.894308  0.979343  0.686120  1
  Nd  Nd2  1  0.979343  0.686120  0.894308  1
  Nd  Nd3  1  0.686120  0.894308  0.979343  1
  Nd  Nd4  1  0.105692  0.020657  0.313880  1
  Nd  Nd5  1  0.020657  0.313880  0.105692  1
  Nd  Nd6  1  0.313880  0.105692  0.020657  1
  Co  Co7  1  0.000000  0.000000  0.000000  1
  Cl  Cl8  1  0.539676  0.817337  0.616497  1
  Cl  Cl9  1  0.817337  0.616497  0.539676  1
  Cl  Cl10  1  0.616497  0.539676  0.817337  1
  Cl  Cl11  1  0.460324  0.182663  0.383503  1
  Cl  Cl12  1  0.182663  0.383503  0.460324  1
  Cl  Cl13  1  0.383503  0.460324  0.182663  1
  Cl  Cl14  1  0.683750  0.214476  0.068757  1
  Cl  Cl15  1  0.214476  0.068757  0.683750  1
  Cl  Cl16  1  0.068757  0.683750  0.214476  1
  Cl  Cl17  1  0.316250  0.785524  0.931243  1
  Cl  Cl18  1  0.785524  0.931243  0.316250  1
  Cl  Cl19  1  0.931243  0.316250  0.785524  1
