# generated using pymatgen
data_Lu2IrPdO7
_symmetry_space_group_name_H-M   'P 1'
_cell_length_a   7.16112873
_cell_length_b   7.19420845
_cell_length_c   7.16112823
_cell_angle_alpha   59.84706986
_cell_angle_beta   59.65814225
_cell_angle_gamma   59.84706793
_symmetry_Int_Tables_number   1
_chemical_formula_structural   Lu2IrPdO7
_chemical_formula_sum   'Lu4 Ir2 Pd2 O14'
_cell_volume   259.59346120
_cell_formula_units_Z   2
loop_
 _symmetry_equiv_pos_site_id
 _symmetry_equiv_pos_as_xyz
  1  'x, y, z'
loop_
 _atom_site_type_symbol
 _atom_site_label
 _atom_site_symmetry_multiplicity
 _atom_site_fract_x
 _atom_site_fract_y
 _atom_site_fract_z
 _atom_site_occupancy
  Lu  Lu0  1  0.625000  0.125000  0.125000  1
  Lu  Lu1  1  0.125000  0.625000  0.125000  1
  Lu  Lu2  1  0.125000  0.125000  0.625000  1
  Lu  Lu3  1  0.125000  0.125000  0.125000  1
  Ir  Ir4  1  0.625000  0.125000  0.625000  1
  Ir  Ir5  1  0.625000  0.625000  0.625000  1
  Pd  Pd6  1  0.125000  0.625000  0.625000  1
  Pd  Pd7  1  0.625000  0.625000  0.125000  1
  O  O8  1  0.714399  0.721069  0.285275  1
  O  O9  1  0.285275  0.279257  0.714399  1
  O  O10  1  0.712826  0.287174  0.712826  1
  O  O11  1  0.278147  0.721853  0.278147  1
  O  O12  1  0.285275  0.721069  0.714399  1
  O  O13  1  0.714399  0.279257  0.285275  1
  O  O14  1  0.535601  0.528931  0.964725  1
  O  O15  1  0.964725  0.970743  0.535601  1
  O  O16  1  0.537174  0.962826  0.537174  1
  O  O17  1  0.971853  0.528147  0.971853  1
  O  O18  1  0.964725  0.528931  0.535601  1
  O  O19  1  0.535601  0.970743  0.964725  1
  O  O20  1  0.250572  0.249428  0.250572  1
  O  O21  1  0.999428  0.000572  0.999428  1
