# generated using pymatgen
data_Tb5Y11Cd4Os3Pd
_symmetry_space_group_name_H-M   'P 1'
_cell_length_a   9.67583695
_cell_length_b   9.78118269
_cell_length_c   9.78119077
_cell_angle_alpha   59.68421386
_cell_angle_beta   59.36859595
_cell_angle_gamma   59.36848096
_symmetry_Int_Tables_number   1
_chemical_formula_structural   Tb5Y11Cd4Os3Pd
_chemical_formula_sum   'Tb5 Y11 Cd4 Os3 Pd1'
_cell_volume   646.72232799
_cell_formula_units_Z   1
loop_
 _symmetry_equiv_pos_site_id
 _symmetry_equiv_pos_as_xyz
  1  'x, y, z'
loop_
 _atom_site_type_symbol
 _atom_site_label
 _atom_site_symmetry_multiplicity
 _atom_site_fract_x
 _atom_site_fract_y
 _atom_site_fract_z
 _atom_site_occupancy
  Tb  Tb0  1  0.347777  0.351380  0.351379  1
  Tb  Tb1  1  0.345958  0.351594  0.953461  1
  Tb  Tb2  1  0.345956  0.953463  0.351593  1
  Tb  Tb3  1  0.967507  0.344291  0.344295  1
  Tb  Tb4  1  0.815214  0.189930  0.189932  1
  Y  Y5  1  0.183352  0.811028  0.811029  1
  Y  Y6  1  0.186513  0.810691  0.191073  1
  Y  Y7  1  0.815013  0.189894  0.802618  1
  Y  Y8  1  0.186513  0.191075  0.810690  1
  Y  Y9  1  0.815011  0.802619  0.189894  1
  Y  Y10  1  0.937147  0.560412  0.560410  1
  Y  Y11  1  0.554826  0.939489  0.939487  1
  Y  Y12  1  0.553268  0.939581  0.567376  1
  Y  Y13  1  0.935780  0.560772  0.939482  1
  Y  Y14  1  0.553273  0.567375  0.939579  1
  Y  Y15  1  0.935778  0.939478  0.560777  1
  Cd  Cd16  1  0.580461  0.579421  0.579422  1
  Cd  Cd17  1  0.580592  0.579942  0.259284  1
  Cd  Cd18  1  0.580594  0.259283  0.579942  1
  Cd  Cd19  1  0.255968  0.581419  0.581419  1
  Os  Os20  1  0.146673  0.138284  0.138279  1
  Os  Os21  1  0.150235  0.139472  0.576618  1
  Os  Os22  1  0.150231  0.576617  0.139475  1
  Pd  Pd23  1  0.576360  0.142487  0.142486  1
