# generated using pymatgen
data_Tb8Ti9Nb2Si16W
_symmetry_space_group_name_H-M   'P 1'
_cell_length_a   7.05461550
_cell_length_b   7.04685622
_cell_length_c   12.97802492
_cell_angle_alpha   89.91120875
_cell_angle_beta   90.18485916
_cell_angle_gamma   89.94324088
_symmetry_Int_Tables_number   1
_chemical_formula_structural   Tb8Ti9Nb2Si16W
_chemical_formula_sum   'Tb8 Ti9 Nb2 Si16 W1'
_cell_volume   645.17029795
_cell_formula_units_Z   1
loop_
 _symmetry_equiv_pos_site_id
 _symmetry_equiv_pos_as_xyz
  1  'x, y, z'
loop_
 _atom_site_type_symbol
 _atom_site_label
 _atom_site_symmetry_multiplicity
 _atom_site_fract_x
 _atom_site_fract_y
 _atom_site_fract_z
 _atom_site_occupancy
  Tb  Tb0  1  0.340909  0.001786  0.466544  1
  Tb  Tb1  1  0.496948  0.840232  0.718455  1
  Tb  Tb2  1  0.501606  0.158962  0.216003  1
  Tb  Tb3  1  0.839361  0.497105  0.283017  1
  Tb  Tb4  1  0.159928  0.503382  0.783054  1
  Tb  Tb5  1  0.658680  0.997021  0.966720  1
  Tb  Tb6  1  0.003078  0.339010  0.533830  1
  Tb  Tb7  1  0.998013  0.660877  0.031866  1
  Ti  Ti8  1  0.831512  0.170120  0.751497  1
  Ti  Ti9  1  0.673082  0.673159  0.500124  1
  Ti  Ti10  1  0.489912  0.655073  0.124003  1
  Ti  Ti11  1  0.507319  0.345344  0.627395  1
  Ti  Ti12  1  0.652606  0.491305  0.874570  1
  Ti  Ti13  1  0.345873  0.508963  0.374169  1
  Ti  Ti14  1  0.847284  0.991476  0.375203  1
  Ti  Ti15  1  0.007281  0.152711  0.124862  1
  Ti  Ti16  1  0.992797  0.845662  0.624670  1
  Nb  Nb17  1  0.324548  0.325640  0.998948  1
  Nb  Nb18  1  0.171914  0.827743  0.249466  1
  Si  Si19  1  0.201766  0.128957  0.686373  1
  Si  Si20  1  0.370420  0.705924  0.932625  1
  Si  Si21  1  0.629806  0.298225  0.435699  1
  Si  Si22  1  0.702813  0.370523  0.065121  1
  Si  Si23  1  0.298853  0.628939  0.565674  1
  Si  Si24  1  0.797319  0.869980  0.184741  1
  Si  Si25  1  0.129685  0.202780  0.315442  1
  Si  Si26  1  0.872729  0.800585  0.815943  1
  Si  Si27  1  0.291047  0.954123  0.062767  1
  Si  Si28  1  0.546981  0.790562  0.314729  1
  Si  Si29  1  0.453085  0.208761  0.813667  1
  Si  Si30  1  0.791601  0.546382  0.685081  1
  Si  Si31  1  0.207696  0.452889  0.185876  1
  Si  Si32  1  0.709839  0.046279  0.565375  1
  Si  Si33  1  0.953324  0.290595  0.934850  1
  Si  Si34  1  0.045592  0.708255  0.436084  1
  W  W35  1  0.154790  0.010671  0.875557  1
