# generated using pymatgen
data_TmLu3CrOs7
_symmetry_space_group_name_H-M   'P 1'
_cell_length_a   5.31964000
_cell_length_b   5.31964004
_cell_length_c   8.59997400
_cell_angle_alpha   90.00000000
_cell_angle_beta   90.00000000
_cell_angle_gamma   119.99998733
_symmetry_Int_Tables_number   1
_chemical_formula_structural   TmLu3CrOs7
_chemical_formula_sum   'Tm1 Lu3 Cr1 Os7'
_cell_volume   210.76200160
_cell_formula_units_Z   1
loop_
 _symmetry_equiv_pos_site_id
 _symmetry_equiv_pos_as_xyz
  1  'x, y, z'
loop_
 _atom_site_type_symbol
 _atom_site_label
 _atom_site_symmetry_multiplicity
 _atom_site_fract_x
 _atom_site_fract_y
 _atom_site_fract_z
 _atom_site_occupancy
  Tm  Tm0  1  0.333333  0.666667  0.436334  1
  Lu  Lu1  1  0.666667  0.333333  0.563868  1
  Lu  Lu2  1  0.666667  0.333333  0.931612  1
  Lu  Lu3  1  0.333333  0.666667  0.068189  1
  Cr  Cr4  1  0.000000  0.000000  0.000056  1
  Os  Os5  1  0.172056  0.344113  0.753740  1
  Os  Os6  1  0.172056  0.827944  0.753740  1
  Os  Os7  1  0.344211  0.172105  0.246186  1
  Os  Os8  1  0.827895  0.655789  0.246186  1
  Os  Os9  1  0.655887  0.827944  0.753740  1
  Os  Os10  1  0.827895  0.172105  0.246186  1
  Os  Os11  1  0.000000  0.000000  0.500162  1
