# generated using pymatgen
data_Ca2Pr17NdIr12
_symmetry_space_group_name_H-M   'P 1'
_cell_length_a   11.37279800
_cell_length_b   11.37279800
_cell_length_c   6.55919200
_cell_angle_alpha   90.00000000
_cell_angle_beta   90.00000000
_cell_angle_gamma   90.00000000
_symmetry_Int_Tables_number   1
_chemical_formula_structural   Ca2Pr17NdIr12
_chemical_formula_sum   'Ca2 Pr17 Nd1 Ir12'
_cell_volume   848.36939818
_cell_formula_units_Z   1
loop_
 _symmetry_equiv_pos_site_id
 _symmetry_equiv_pos_as_xyz
  1  'x, y, z'
loop_
 _atom_site_type_symbol
 _atom_site_label
 _atom_site_symmetry_multiplicity
 _atom_site_fract_x
 _atom_site_fract_y
 _atom_site_fract_z
 _atom_site_occupancy
  Ca  Ca0  1  0.000000  0.000000  0.500000  1
  Ca  Ca1  1  0.000000  0.000000  0.000000  1
  Pr  Pr2  1  0.288016  0.088239  0.384338  1
  Pr  Pr3  1  0.288038  0.911703  0.884329  1
  Pr  Pr4  1  0.711962  0.088297  0.884329  1
  Pr  Pr5  1  0.711984  0.911761  0.384338  1
  Pr  Pr6  1  0.589494  0.791282  0.883012  1
  Pr  Pr7  1  0.589482  0.208610  0.382858  1
  Pr  Pr8  1  0.410518  0.791390  0.382858  1
  Pr  Pr9  1  0.410506  0.208718  0.883012  1
  Pr  Pr10  1  0.208610  0.410518  0.617142  1
  Pr  Pr11  1  0.208718  0.589494  0.116988  1
  Pr  Pr12  1  0.791282  0.410506  0.116988  1
  Pr  Pr13  1  0.791390  0.589482  0.617142  1
  Pr  Pr14  1  0.911703  0.711962  0.115671  1
  Pr  Pr15  1  0.911761  0.288016  0.615662  1
  Pr  Pr16  1  0.088239  0.711984  0.615662  1
  Pr  Pr17  1  0.088297  0.288038  0.115671  1
  Pr  Pr18  1  0.500000  0.500000  0.500000  1
  Nd  Nd19  1  0.500000  0.500000  0.000000  1
  Ir  Ir20  1  0.842594  0.157411  0.249997  1
  Ir  Ir21  1  0.842589  0.842594  0.750003  1
  Ir  Ir22  1  0.157411  0.157406  0.750003  1
  Ir  Ir23  1  0.157406  0.842589  0.249997  1
  Ir  Ir24  1  0.654028  0.345988  0.750462  1
  Ir  Ir25  1  0.654012  0.654028  0.249538  1
  Ir  Ir26  1  0.345988  0.345972  0.249538  1
  Ir  Ir27  1  0.345972  0.654012  0.750462  1
  Ir  Ir28  1  0.500000  0.000000  0.115101  1
  Ir  Ir29  1  0.500000  0.000000  0.615069  1
  Ir  Ir30  1  0.000000  0.500000  0.884899  1
  Ir  Ir31  1  0.000000  0.500000  0.384931  1
