# generated using pymatgen
data_Dy4YTmNiI10
_symmetry_space_group_name_H-M   'P 1'
_cell_length_a   7.68701484
_cell_length_b   9.66707504
_cell_length_c   9.69836838
_cell_angle_alpha   107.06883804
_cell_angle_beta   96.90005902
_cell_angle_gamma   104.49019114
_symmetry_Int_Tables_number   1
_chemical_formula_structural   Dy4YTmNiI10
_chemical_formula_sum   'Dy4 Y1 Tm1 Ni1 I10'
_cell_volume   652.28225203
_cell_formula_units_Z   1
loop_
 _symmetry_equiv_pos_site_id
 _symmetry_equiv_pos_as_xyz
  1  'x, y, z'
loop_
 _atom_site_type_symbol
 _atom_site_label
 _atom_site_symmetry_multiplicity
 _atom_site_fract_x
 _atom_site_fract_y
 _atom_site_fract_z
 _atom_site_occupancy
  Dy  Dy0  1  0.886463  0.958868  0.234871  1
  Dy  Dy1  1  0.111045  0.039836  0.763804  1
  Dy  Dy2  1  0.030831  0.720708  0.916201  1
  Dy  Dy3  1  0.967690  0.278848  0.082705  1
  Y  Y4  1  0.341608  0.120930  0.162092  1
  Tm  Tm5  1  0.665163  0.881023  0.840707  1
  Ni  Ni6  1  0.999836  0.000013  0.999973  1
  I  I7  1  0.647489  0.551707  0.727547  1
  I  I8  1  0.349716  0.451267  0.272184  1
  I  I9  1  0.739553  0.911362  0.538413  1
  I  I10  1  0.256537  0.087185  0.462816  1
  I  I11  1  0.084647  0.372556  0.818694  1
  I  I12  1  0.913813  0.626922  0.180330  1
  I  I13  1  0.454752  0.813469  0.091169  1
  I  I14  1  0.545557  0.183377  0.905451  1
  I  I15  1  0.230230  0.745064  0.657270  1
  I  I16  1  0.775069  0.256862  0.345772  1
