# generated using pymatgen
data_Li2Nd3InHg6
_symmetry_space_group_name_H-M   'P 1'
_cell_length_a   5.15785602
_cell_length_b   7.24437600
_cell_length_c   15.60592200
_cell_angle_alpha   90.00000000
_cell_angle_beta   90.00524319
_cell_angle_gamma   90.00000000
_symmetry_Int_Tables_number   1
_chemical_formula_structural   Li2Nd3InHg6
_chemical_formula_sum   'Li4 Nd6 In2 Hg12'
_cell_volume   583.12227038
_cell_formula_units_Z   2
loop_
 _symmetry_equiv_pos_site_id
 _symmetry_equiv_pos_as_xyz
  1  'x, y, z'
loop_
 _atom_site_type_symbol
 _atom_site_label
 _atom_site_symmetry_multiplicity
 _atom_site_fract_x
 _atom_site_fract_y
 _atom_site_fract_z
 _atom_site_occupancy
  Li  Li0  1  0.999370  0.500000  0.332592  1
  Li  Li1  1  0.499867  0.000000  0.498013  1
  Li  Li2  1  0.000514  0.500000  0.668589  1
  Li  Li3  1  0.500172  0.000000  0.833935  1
  Nd  Nd4  1  0.999820  0.000000  0.009104  1
  Nd  Nd5  1  0.499709  0.500000  0.157564  1
  Nd  Nd6  1  0.999387  0.000000  0.331654  1
  Nd  Nd7  1  0.500177  0.500000  0.504025  1
  Nd  Nd8  1  0.000327  0.000000  0.662605  1
  Nd  Nd9  1  0.500252  0.500000  0.835220  1
  In  In10  1  0.000611  0.500000  0.998150  1
  In  In11  1  0.500233  0.000000  0.168556  1
  Hg  Hg12  1  0.499666  0.236756  0.990953  1
  Hg  Hg13  1  0.499666  0.763243  0.990953  1
  Hg  Hg14  1  0.000548  0.263027  0.175800  1
  Hg  Hg15  1  0.000548  0.736973  0.175800  1
  Hg  Hg16  1  0.498914  0.262481  0.338910  1
  Hg  Hg17  1  0.498914  0.737520  0.338910  1
  Hg  Hg18  1  0.000135  0.255802  0.497217  1
  Hg  Hg19  1  0.000135  0.744197  0.497217  1
  Hg  Hg20  1  0.500344  0.244223  0.669400  1
  Hg  Hg21  1  0.500344  0.755778  0.669400  1
  Hg  Hg22  1  0.000169  0.237792  0.827714  1
  Hg  Hg23  1  0.000169  0.762208  0.827714  1
