# generated using pymatgen
data_Pr2CrGeO8
_symmetry_space_group_name_H-M   'P 1'
_cell_length_a   6.19658864
_cell_length_b   6.19658835
_cell_length_c   6.19658803
_cell_angle_alpha   105.98483181
_cell_angle_beta   105.98482940
_cell_angle_gamma   116.69457608
_symmetry_Int_Tables_number   1
_chemical_formula_structural   Pr2CrGeO8
_chemical_formula_sum   'Pr2 Cr1 Ge1 O8'
_cell_volume   180.95264627
_cell_formula_units_Z   1
loop_
 _symmetry_equiv_pos_site_id
 _symmetry_equiv_pos_as_xyz
  1  'x, y, z'
loop_
 _atom_site_type_symbol
 _atom_site_label
 _atom_site_symmetry_multiplicity
 _atom_site_fract_x
 _atom_site_fract_y
 _atom_site_fract_z
 _atom_site_occupancy
  Pr  Pr0  1  0.000000  0.000000  0.000000  1
  Pr  Pr1  1  0.250000  0.750000  0.500000  1
  Cr  Cr2  1  0.500000  0.500000  0.000000  1
  Ge  Ge3  1  0.750000  0.250000  0.500000  1
  O  O4  1  0.342641  0.517871  0.175230  1
  O  O5  1  0.388105  0.070126  0.317980  1
  O  O6  1  0.752146  0.070126  0.682020  1
  O  O7  1  0.342641  0.167410  0.824770  1
  O  O8  1  0.832590  0.657359  0.175230  1
  O  O9  1  0.929874  0.247854  0.317980  1
  O  O10  1  0.929874  0.611895  0.682020  1
  O  O11  1  0.482129  0.657359  0.824770  1
