# generated using pymatgen
data_Tb3Y7Si5Sn
_symmetry_space_group_name_H-M   'P 1'
_cell_length_a   8.52972803
_cell_length_b   8.56046519
_cell_length_c   6.42933805
_cell_angle_alpha   89.98670603
_cell_angle_beta   90.00258136
_cell_angle_gamma   119.87261759
_symmetry_Int_Tables_number   1
_chemical_formula_structural   Tb3Y7Si5Sn
_chemical_formula_sum   'Tb3 Y7 Si5 Sn1'
_cell_volume   407.08533294
_cell_formula_units_Z   1
loop_
 _symmetry_equiv_pos_site_id
 _symmetry_equiv_pos_as_xyz
  1  'x, y, z'
loop_
 _atom_site_type_symbol
 _atom_site_label
 _atom_site_symmetry_multiplicity
 _atom_site_fract_x
 _atom_site_fract_y
 _atom_site_fract_z
 _atom_site_occupancy
  Tb  Tb0  1  0.331528  0.658132  0.496974  1
  Tb  Tb1  1  0.673416  0.341891  0.003112  1
  Tb  Tb2  1  0.673376  0.341891  0.496902  1
  Y  Y3  1  0.989879  0.748688  0.750090  1
  Y  Y4  1  0.998813  0.242970  0.249874  1
  Y  Y5  1  0.755741  0.757146  0.249888  1
  Y  Y6  1  0.764508  0.999877  0.750125  1
  Y  Y7  1  0.241035  0.251338  0.750097  1
  Y  Y8  1  0.241724  0.999892  0.249867  1
  Y  Y9  1  0.331586  0.658290  0.002986  1
  Si  Si10  1  0.392942  0.391977  0.249723  1
  Si  Si11  1  0.001627  0.608295  0.249765  1
  Si  Si12  1  0.998923  0.394065  0.750241  1
  Si  Si13  1  0.604517  0.606201  0.750266  1
  Si  Si14  1  0.605895  0.999709  0.249779  1
  Sn  Sn15  1  0.394490  0.999638  0.750311  1
