# generated using pymatgen
data_Tb13Dy4Th3Sn16
_symmetry_space_group_name_H-M   'P 1'
_cell_length_a   8.10038221
_cell_length_b   8.22360029
_cell_length_c   15.54790600
_cell_angle_alpha   90.05376618
_cell_angle_beta   90.15905569
_cell_angle_gamma   89.91667615
_symmetry_Int_Tables_number   1
_chemical_formula_structural   Tb13Dy4Th3Sn16
_chemical_formula_sum   'Tb13 Dy4 Th3 Sn16'
_cell_volume   1035.70742168
_cell_formula_units_Z   1
loop_
 _symmetry_equiv_pos_site_id
 _symmetry_equiv_pos_as_xyz
  1  'x, y, z'
loop_
 _atom_site_type_symbol
 _atom_site_label
 _atom_site_symmetry_multiplicity
 _atom_site_fract_x
 _atom_site_fract_y
 _atom_site_fract_z
 _atom_site_occupancy
  Tb  Tb0  1  0.366669  0.834983  0.878341  1
  Tb  Tb1  1  0.865875  0.665069  0.622623  1
  Tb  Tb2  1  0.634204  0.163727  0.376808  1
  Tb  Tb3  1  0.133090  0.336474  0.122392  1
  Tb  Tb4  1  0.633029  0.162004  0.122630  1
  Tb  Tb5  1  0.134402  0.338099  0.377230  1
  Tb  Tb6  1  0.366245  0.838017  0.622856  1
  Tb  Tb7  1  0.867925  0.661848  0.877746  1
  Tb  Tb8  1  0.526918  0.322647  0.900389  1
  Tb  Tb9  1  0.025817  0.177071  0.599791  1
  Tb  Tb10  1  0.476120  0.677710  0.401047  1
  Tb  Tb11  1  0.975333  0.821688  0.100299  1
  Tb  Tb12  1  0.478555  0.677189  0.097285  1
  Dy  Dy13  1  0.196711  0.500799  0.750389  1
  Dy  Dy14  1  0.696165  0.999095  0.750006  1
  Dy  Dy15  1  0.802767  0.500098  0.249321  1
  Dy  Dy16  1  0.302882  0.002115  0.248896  1
  Th  Th17  1  0.981809  0.819589  0.402289  1
  Th  Th18  1  0.517422  0.320944  0.596333  1
  Th  Th19  1  0.018390  0.179110  0.904423  1
  Sn  Sn20  1  0.291549  0.032525  0.042968  1
  Sn  Sn21  1  0.792200  0.466490  0.457000  1
  Sn  Sn22  1  0.709078  0.967712  0.542537  1
  Sn  Sn23  1  0.211176  0.532276  0.957283  1
  Sn  Sn24  1  0.704939  0.960411  0.958791  1
  Sn  Sn25  1  0.203487  0.541222  0.540775  1
  Sn  Sn26  1  0.295768  0.039851  0.459038  1
  Sn  Sn27  1  0.792605  0.462268  0.041525  1
  Sn  Sn28  1  0.563122  0.621189  0.749165  1
  Sn  Sn29  1  0.063633  0.879791  0.751411  1
  Sn  Sn30  1  0.436643  0.380348  0.249684  1
  Sn  Sn31  1  0.935957  0.120639  0.251033  1
  Sn  Sn32  1  0.328516  0.145732  0.752061  1
  Sn  Sn33  1  0.829155  0.354511  0.747983  1
  Sn  Sn34  1  0.668164  0.851765  0.249753  1
  Sn  Sn35  1  0.173678  0.644995  0.247897  1
