# generated using pymatgen
data_Dy2ZrSc(Al3Rh)6
_symmetry_space_group_name_H-M   'P 1'
_cell_length_a   7.51667206
_cell_length_b   7.51274005
_cell_length_c   9.38078300
_cell_angle_alpha   90.00000000
_cell_angle_beta   90.00000000
_cell_angle_gamma   119.54005704
_symmetry_Int_Tables_number   1
_chemical_formula_structural   Dy2ZrSc(Al3Rh)6
_chemical_formula_sum   'Dy2 Zr1 Sc1 Al18 Rh6'
_cell_volume   460.88004716
_cell_formula_units_Z   1
loop_
 _symmetry_equiv_pos_site_id
 _symmetry_equiv_pos_as_xyz
  1  'x, y, z'
loop_
 _atom_site_type_symbol
 _atom_site_label
 _atom_site_symmetry_multiplicity
 _atom_site_fract_x
 _atom_site_fract_y
 _atom_site_fract_z
 _atom_site_occupancy
  Dy  Dy0  1  0.006099  0.327349  0.250000  1
  Dy  Dy1  1  0.328972  0.006921  0.250000  1
  Zr  Zr2  1  0.996069  0.672033  0.750000  1
  Sc  Sc3  1  0.672459  0.996113  0.750000  1
  Al  Al4  1  0.120113  0.119155  0.750000  1
  Al  Al5  1  0.870084  0.869746  0.250000  1
  Al  Al6  1  0.996515  0.335109  0.583076  1
  Al  Al7  1  0.999142  0.664790  0.429048  1
  Al  Al8  1  0.999142  0.664790  0.070952  1
  Al  Al9  1  0.335654  0.997321  0.916873  1
  Al  Al10  1  0.996515  0.335109  0.916924  1
  Al  Al11  1  0.664620  0.998474  0.071242  1
  Al  Al12  1  0.664620  0.998474  0.428758  1
  Al  Al13  1  0.335654  0.997321  0.583127  1
  Al  Al14  1  0.333848  0.333973  0.046119  1
  Al  Al15  1  0.669897  0.670205  0.939796  1
  Al  Al16  1  0.669897  0.670205  0.560204  1
  Al  Al17  1  0.333848  0.333973  0.453881  1
  Al  Al18  1  0.338796  0.556565  0.750000  1
  Al  Al19  1  0.660375  0.451046  0.250000  1
  Al  Al20  1  0.558400  0.342454  0.750000  1
  Al  Al21  1  0.450226  0.659565  0.250000  1
  Rh  Rh22  1  0.672924  0.328105  0.501830  1
  Rh  Rh23  1  0.327641  0.672823  0.502420  1
  Rh  Rh24  1  0.327641  0.672823  0.997580  1
  Rh  Rh25  1  0.672924  0.328105  0.998170  1
  Rh  Rh26  1  0.998964  0.998726  0.501835  1
  Rh  Rh27  1  0.998964  0.998726  0.998165  1
