# generated using pymatgen
data_Nd6TaCo16P12Ru
_symmetry_space_group_name_H-M   'P 1'
_cell_length_a   3.76429300
_cell_length_b   10.68636500
_cell_length_c   12.45531000
_cell_angle_alpha   90.00000000
_cell_angle_beta   90.00000000
_cell_angle_gamma   90.00000000
_symmetry_Int_Tables_number   1
_chemical_formula_structural   Nd6TaCo16P12Ru
_chemical_formula_sum   'Nd6 Ta1 Co16 P12 Ru1'
_cell_volume   501.03488491
_cell_formula_units_Z   1
loop_
 _symmetry_equiv_pos_site_id
 _symmetry_equiv_pos_as_xyz
  1  'x, y, z'
loop_
 _atom_site_type_symbol
 _atom_site_label
 _atom_site_symmetry_multiplicity
 _atom_site_fract_x
 _atom_site_fract_y
 _atom_site_fract_z
 _atom_site_occupancy
  Nd  Nd0  1  0.000000  0.500000  0.525332  1
  Nd  Nd1  1  0.500000  0.000000  0.476326  1
  Nd  Nd2  1  0.500000  0.819460  0.207010  1
  Nd  Nd3  1  0.500000  0.180540  0.207010  1
  Nd  Nd4  1  0.000000  0.682780  0.795208  1
  Nd  Nd5  1  0.000000  0.317220  0.795208  1
  Ta  Ta6  1  0.500000  0.500000  0.152647  1
  Co  Co7  1  0.500000  0.500000  0.704136  1
  Co  Co8  1  0.000000  0.000000  0.295074  1
  Co  Co9  1  0.000000  0.500000  0.986712  1
  Co  Co10  1  0.500000  0.000000  0.012738  1
  Co  Co11  1  0.500000  0.330890  0.991125  1
  Co  Co12  1  0.500000  0.669110  0.991125  1
  Co  Co13  1  0.000000  0.165473  0.006930  1
  Co  Co14  1  0.000000  0.834527  0.006930  1
  Co  Co15  1  0.500000  0.295591  0.432154  1
  Co  Co16  1  0.500000  0.704409  0.432154  1
  Co  Co17  1  0.000000  0.202602  0.569975  1
  Co  Co18  1  0.000000  0.797398  0.569975  1
  Co  Co19  1  0.500000  0.881679  0.708568  1
  Co  Co20  1  0.500000  0.118321  0.708568  1
  Co  Co21  1  0.000000  0.620226  0.292319  1
  Co  Co22  1  0.000000  0.379774  0.292319  1
  P  P23  1  0.500000  0.500000  0.884997  1
  P  P24  1  0.000000  0.000000  0.113570  1
  P  P25  1  0.500000  0.500000  0.350484  1
  P  P26  1  0.000000  0.000000  0.654778  1
  P  P27  1  0.500000  0.306374  0.615023  1
  P  P28  1  0.500000  0.693626  0.615023  1
  P  P29  1  0.000000  0.193075  0.386833  1
  P  P30  1  0.000000  0.806925  0.386833  1
  P  P31  1  0.500000  0.849864  0.894025  1
  P  P32  1  0.500000  0.150136  0.894025  1
  P  P33  1  0.000000  0.657783  0.101951  1
  P  P34  1  0.000000  0.342217  0.101951  1
  Ru  Ru35  1  0.000000  0.000000  0.840964  1
