# generated using pymatgen
data_Ga3Fe(SbCl6)4
_symmetry_space_group_name_H-M   'P 1'
_cell_length_a   7.93799376
_cell_length_b   10.71107760
_cell_length_c   13.65662998
_cell_angle_alpha   78.08825166
_cell_angle_beta   89.72679491
_cell_angle_gamma   89.91779600
_symmetry_Int_Tables_number   1
_chemical_formula_structural   Ga3Fe(SbCl6)4
_chemical_formula_sum   'Ga3 Fe1 Sb4 Cl24'
_cell_volume   1136.13128883
_cell_formula_units_Z   1
loop_
 _symmetry_equiv_pos_site_id
 _symmetry_equiv_pos_as_xyz
  1  'x, y, z'
loop_
 _atom_site_type_symbol
 _atom_site_label
 _atom_site_symmetry_multiplicity
 _atom_site_fract_x
 _atom_site_fract_y
 _atom_site_fract_z
 _atom_site_occupancy
  Ga  Ga0  1  0.263311  0.341367  0.578427  1
  Ga  Ga1  1  0.236715  0.340928  0.078851  1
  Ga  Ga2  1  0.736650  0.658641  0.421534  1
  Fe  Fe3  1  0.763177  0.660629  0.920239  1
  Sb  Sb4  1  0.232963  0.755340  0.374033  1
  Sb  Sb5  1  0.732795  0.244615  0.126172  1
  Sb  Sb6  1  0.767348  0.244732  0.625976  1
  Sb  Sb7  1  0.266782  0.756878  0.873295  1
  Cl  Cl8  1  0.663952  0.043255  0.094322  1
  Cl  Cl9  1  0.163467  0.956893  0.405758  1
  Cl  Cl10  1  0.338083  0.957800  0.905348  1
  Cl  Cl11  1  0.836495  0.043161  0.594187  1
  Cl  Cl12  1  0.813702  0.180442  0.294616  1
  Cl  Cl13  1  0.314310  0.819685  0.205235  1
  Cl  Cl14  1  0.184274  0.820270  0.704986  1
  Cl  Cl15  1  0.685744  0.180537  0.794751  1
  Cl  Cl16  1  0.415668  0.257693  0.205266  1
  Cl  Cl17  1  0.916405  0.742153  0.294984  1
  Cl  Cl18  1  0.580992  0.741146  0.795234  1
  Cl  Cl19  1  0.083531  0.257879  0.704992  1
  Cl  Cl20  1  0.381952  0.379946  0.941268  1
  Cl  Cl21  1  0.881204  0.620026  0.558746  1
  Cl  Cl22  1  0.618937  0.617992  0.058583  1
  Cl  Cl23  1  0.118823  0.380020  0.441220  1
  Cl  Cl24  1  0.896147  0.503122  0.877212  1
  Cl  Cl25  1  0.396644  0.495928  0.623977  1
  Cl  Cl26  1  0.102638  0.495787  0.124205  1
  Cl  Cl27  1  0.603371  0.504100  0.375989  1
  Cl  Cl28  1  0.054389  0.181737  0.069856  1
  Cl  Cl29  1  0.553690  0.818123  0.430230  1
  Cl  Cl30  1  0.949500  0.817214  0.930791  1
  Cl  Cl31  1  0.446342  0.181962  0.569717  1
