# generated using pymatgen
data_Y2Ho6Cu3Si12Rh
_symmetry_space_group_name_H-M   'P 1'
_cell_length_a   8.02158032
_cell_length_b   8.02030004
_cell_length_c   8.06446950
_cell_angle_alpha   90.03697062
_cell_angle_beta   89.96827901
_cell_angle_gamma   120.00006353
_symmetry_Int_Tables_number   1
_chemical_formula_structural   Y2Ho6Cu3Si12Rh
_chemical_formula_sum   'Y2 Ho6 Cu3 Si12 Rh1'
_cell_volume   449.32088226
_cell_formula_units_Z   1
loop_
 _symmetry_equiv_pos_site_id
 _symmetry_equiv_pos_as_xyz
  1  'x, y, z'
loop_
 _atom_site_type_symbol
 _atom_site_label
 _atom_site_symmetry_multiplicity
 _atom_site_fract_x
 _atom_site_fract_y
 _atom_site_fract_z
 _atom_site_occupancy
  Y  Y0  1  0.999946  0.999921  0.249802  1
  Y  Y1  1  0.999951  0.999913  0.749865  1
  Ho  Ho2  1  0.499068  0.500689  0.248239  1
  Ho  Ho3  1  0.499161  0.998378  0.248240  1
  Ho  Ho4  1  0.001604  0.500712  0.248264  1
  Ho  Ho5  1  0.499229  0.500526  0.751698  1
  Ho  Ho6  1  0.499324  0.998716  0.751692  1
  Ho  Ho7  1  0.001275  0.500545  0.751655  1
  Cu  Cu8  1  0.334135  0.667437  0.500021  1
  Cu  Cu9  1  0.666895  0.333870  0.500503  1
  Cu  Cu10  1  0.666255  0.333137  0.001497  1
  Si  Si11  1  0.169377  0.830923  0.499901  1
  Si  Si12  1  0.169491  0.338504  0.499894  1
  Si  Si13  1  0.662064  0.830939  0.499896  1
  Si  Si14  1  0.830893  0.169291  0.499906  1
  Si  Si15  1  0.831090  0.661712  0.499905  1
  Si  Si16  1  0.338819  0.169272  0.499905  1
  Si  Si17  1  0.831230  0.168335  0.999929  1
  Si  Si18  1  0.831603  0.663480  0.999929  1
  Si  Si19  1  0.336127  0.167991  0.999932  1
  Si  Si20  1  0.167807  0.831841  0.999853  1
  Si  Si21  1  0.167372  0.335409  0.999851  1
  Si  Si22  1  0.664058  0.832174  0.999852  1
  Rh  Rh23  1  0.333225  0.666284  0.999772  1
