# generated using pymatgen
data_Ho16Mg2Cd2IrPt3
_symmetry_space_group_name_H-M   'P 1'
_cell_length_a   9.69305201
_cell_length_b   9.65774660
_cell_length_c   9.66531260
_cell_angle_alpha   59.75587460
_cell_angle_beta   60.02197647
_cell_angle_gamma   59.94528888
_symmetry_Int_Tables_number   1
_chemical_formula_structural   Ho16Mg2Cd2IrPt3
_chemical_formula_sum   'Ho16 Mg2 Cd2 Ir1 Pt3'
_cell_volume   638.44295520
_cell_formula_units_Z   1
loop_
 _symmetry_equiv_pos_site_id
 _symmetry_equiv_pos_as_xyz
  1  'x, y, z'
loop_
 _atom_site_type_symbol
 _atom_site_label
 _atom_site_symmetry_multiplicity
 _atom_site_fract_x
 _atom_site_fract_y
 _atom_site_fract_z
 _atom_site_occupancy
  Ho  Ho0  1  0.600659  0.597022  0.596287  1
  Ho  Ho1  1  0.604748  0.600388  0.198164  1
  Ho  Ho2  1  0.603053  0.201033  0.599659  1
  Ho  Ho3  1  0.193418  0.603075  0.604238  1
  Ho  Ho4  1  0.057956  0.439680  0.439654  1
  Ho  Ho5  1  0.439726  0.060623  0.060282  1
  Ho  Ho6  1  0.441944  0.059845  0.438955  1
  Ho  Ho7  1  0.059195  0.437790  0.064156  1
  Ho  Ho8  1  0.443953  0.441765  0.057018  1
  Ho  Ho9  1  0.059879  0.064903  0.436801  1
  Ho  Ho10  1  0.186775  0.816270  0.815416  1
  Ho  Ho11  1  0.814988  0.188859  0.185850  1
  Ho  Ho12  1  0.818080  0.186230  0.813506  1
  Ho  Ho13  1  0.188238  0.813405  0.185202  1
  Ho  Ho14  1  0.819388  0.815763  0.182930  1
  Ho  Ho15  1  0.186906  0.186606  0.812822  1
  Mg  Mg16  1  0.825790  0.825047  0.830869  1
  Mg  Mg17  1  0.824154  0.825233  0.516618  1
  Cd  Cd18  1  0.831733  0.502549  0.831734  1
  Cd  Cd19  1  0.503889  0.831768  0.830787  1
  Ir  Ir20  1  0.823917  0.391554  0.390863  1
  Pt  Pt21  1  0.391826  0.395294  0.393291  1
  Pt  Pt22  1  0.390197  0.392992  0.822529  1
  Pt  Pt23  1  0.389592  0.822310  0.392369  1
