# generated using pymatgen
data_La2Tb3Co2
_symmetry_space_group_name_H-M   'P 1'
_cell_length_a   8.89121255
_cell_length_b   8.89121395
_cell_length_c   6.94258165
_cell_angle_alpha   84.62154066
_cell_angle_beta   84.62154849
_cell_angle_gamma   42.54060883
_symmetry_Int_Tables_number   1
_chemical_formula_structural   La2Tb3Co2
_chemical_formula_sum   'La4 Tb6 Co4'
_cell_volume   369.19336561
_cell_formula_units_Z   2
loop_
 _symmetry_equiv_pos_site_id
 _symmetry_equiv_pos_as_xyz
  1  'x, y, z'
loop_
 _atom_site_type_symbol
 _atom_site_label
 _atom_site_symmetry_multiplicity
 _atom_site_fract_x
 _atom_site_fract_y
 _atom_site_fract_z
 _atom_site_occupancy
  La  La0  1  0.016705  0.788663  0.902473  1
  La  La1  1  0.211337  0.983295  0.597527  1
  La  La2  1  0.983295  0.211337  0.097527  1
  La  La3  1  0.788663  0.016705  0.402473  1
  Tb  Tb4  1  0.358804  0.214687  0.823136  1
  Tb  Tb5  1  0.785313  0.641196  0.676864  1
  Tb  Tb6  1  0.641196  0.785313  0.176864  1
  Tb  Tb7  1  0.214687  0.358804  0.323136  1
  Tb  Tb8  1  0.571884  0.428116  0.750000  1
  Tb  Tb9  1  0.428116  0.571884  0.250000  1
  Co  Co10  1  0.175103  0.599837  0.582821  1
  Co  Co11  1  0.400163  0.824897  0.917179  1
  Co  Co12  1  0.824897  0.400163  0.417179  1
  Co  Co13  1  0.599837  0.175103  0.082821  1
