# generated using pymatgen
data_Li2BPd2Pt
_symmetry_space_group_name_H-M   'P 1'
_cell_length_a   6.92680677
_cell_length_b   6.78206167
_cell_length_c   6.80256324
_cell_angle_alpha   88.98292754
_cell_angle_beta   90.09976884
_cell_angle_gamma   89.60891605
_symmetry_Int_Tables_number   1
_chemical_formula_structural   Li2BPd2Pt
_chemical_formula_sum   'Li8 B4 Pd8 Pt4'
_cell_volume   319.51267921
_cell_formula_units_Z   4
loop_
 _symmetry_equiv_pos_site_id
 _symmetry_equiv_pos_as_xyz
  1  'x, y, z'
loop_
 _atom_site_type_symbol
 _atom_site_label
 _atom_site_symmetry_multiplicity
 _atom_site_fract_x
 _atom_site_fract_y
 _atom_site_fract_z
 _atom_site_occupancy
  Li  Li0  1  0.307355  0.312857  0.309119  1
  Li  Li1  1  0.055315  0.452928  0.557373  1
  Li  Li2  1  0.561392  0.052907  0.444094  1
  Li  Li3  1  0.441427  0.558376  0.053917  1
  Li  Li4  1  0.191125  0.693483  0.798703  1
  Li  Li5  1  0.942563  0.939731  0.940653  1
  Li  Li6  1  0.812530  0.196685  0.694099  1
  Li  Li7  1  0.694017  0.801537  0.195090  1
  B  B8  1  0.874333  0.374984  0.118580  1
  B  B9  1  0.367915  0.124870  0.878577  1
  B  B10  1  0.626650  0.632275  0.619122  1
  B  B11  1  0.121175  0.847881  0.397706  1
  Pd  Pd12  1  0.199405  0.058239  0.620622  1
  Pd  Pd13  1  0.451729  0.370931  0.695644  1
  Pd  Pd14  1  0.057269  0.623951  0.189607  1
  Pd  Pd15  1  0.951971  0.118947  0.294551  1
  Pd  Pd16  1  0.296624  0.957033  0.137908  1
  Pd  Pd17  1  0.700249  0.438540  0.372380  1
  Pd  Pd18  1  0.547326  0.879986  0.810611  1
  Pd  Pd19  1  0.621123  0.198834  0.052782  1
  Pt  Pt20  1  0.382560  0.687954  0.435245  1
  Pt  Pt21  1  0.869646  0.820730  0.564509  1
  Pt  Pt22  1  0.124591  0.300211  0.946824  1
  Pt  Pt23  1  0.801709  0.556128  0.872283  1
