# generated using pymatgen
data_Sm5Dy(ZnAu5)2
_symmetry_space_group_name_H-M   'P 1'
_cell_length_a   8.54183187
_cell_length_b   8.54183296
_cell_length_c   13.51611719
_cell_angle_alpha   90.04289844
_cell_angle_beta   89.95710032
_cell_angle_gamma   127.02457725
_symmetry_Int_Tables_number   1
_chemical_formula_structural   Sm5Dy(ZnAu5)2
_chemical_formula_sum   'Sm10 Dy2 Zn4 Au20'
_cell_volume   787.33954019
_cell_formula_units_Z   2
loop_
 _symmetry_equiv_pos_site_id
 _symmetry_equiv_pos_as_xyz
  1  'x, y, z'
loop_
 _atom_site_type_symbol
 _atom_site_label
 _atom_site_symmetry_multiplicity
 _atom_site_fract_x
 _atom_site_fract_y
 _atom_site_fract_z
 _atom_site_occupancy
  Sm  Sm0  1  0.928574  0.071426  0.251287  1
  Sm  Sm1  1  0.071426  0.928574  0.748713  1
  Sm  Sm2  1  0.320030  0.679970  0.251126  1
  Sm  Sm3  1  0.679970  0.320030  0.748874  1
  Sm  Sm4  1  0.630217  0.369783  0.037986  1
  Sm  Sm5  1  0.369783  0.630217  0.962014  1
  Sm  Sm6  1  0.882541  0.117459  0.951175  1
  Sm  Sm7  1  0.117459  0.882541  0.048825  1
  Sm  Sm8  1  0.882344  0.117656  0.548684  1
  Sm  Sm9  1  0.117656  0.882344  0.451316  1
  Dy  Dy10  1  0.629928  0.370072  0.462869  1
  Dy  Dy11  1  0.370072  0.629928  0.537131  1
  Zn  Zn12  1  0.720606  0.279394  0.251516  1
  Zn  Zn13  1  0.279394  0.720606  0.748484  1
  Zn  Zn14  1  0.532542  0.467458  0.250869  1
  Zn  Zn15  1  0.467458  0.532542  0.749131  1
  Au  Au16  1  0.321381  0.067488  0.250244  1
  Au  Au17  1  0.067488  0.321381  0.749756  1
  Au  Au18  1  0.678619  0.932512  0.749756  1
  Au  Au19  1  0.932512  0.678619  0.250244  1
  Au  Au20  1  0.568297  0.003900  0.397316  1
  Au  Au21  1  0.003900  0.568297  0.602684  1
  Au  Au22  1  0.568656  0.002505  0.104686  1
  Au  Au23  1  0.002505  0.568656  0.895314  1
  Au  Au24  1  0.431703  0.996100  0.602684  1
  Au  Au25  1  0.996100  0.431703  0.397316  1
  Au  Au26  1  0.431344  0.997495  0.895314  1
  Au  Au27  1  0.997495  0.431344  0.104686  1
  Au  Au28  1  0.683412  0.739104  0.395195  1
  Au  Au29  1  0.739104  0.683412  0.604805  1
  Au  Au30  1  0.687249  0.742595  0.106669  1
  Au  Au31  1  0.742595  0.687249  0.893331  1
  Au  Au32  1  0.316588  0.260896  0.604805  1
  Au  Au33  1  0.260896  0.316588  0.395195  1
  Au  Au34  1  0.312751  0.257405  0.893331  1
  Au  Au35  1  0.257405  0.312751  0.106669  1
