# generated using pymatgen
data_Ag3HgAsO4
_symmetry_space_group_name_H-M   'P 1'
_cell_length_a   4.71164646
_cell_length_b   5.98824586
_cell_length_c   6.12045864
_cell_angle_alpha   81.93035137
_cell_angle_beta   112.57276448
_cell_angle_gamma   112.84490240
_symmetry_Int_Tables_number   1
_chemical_formula_structural   Ag3HgAsO4
_chemical_formula_sum   'Ag3 Hg1 As1 O4'
_cell_volume   146.94118854
_cell_formula_units_Z   1
loop_
 _symmetry_equiv_pos_site_id
 _symmetry_equiv_pos_as_xyz
  1  'x, y, z'
loop_
 _atom_site_type_symbol
 _atom_site_label
 _atom_site_symmetry_multiplicity
 _atom_site_fract_x
 _atom_site_fract_y
 _atom_site_fract_z
 _atom_site_occupancy
  Ag  Ag0  1  0.871295  0.407769  0.263171  1
  Ag  Ag1  1  0.393229  0.257078  0.584493  1
  Ag  Ag2  1  0.547538  0.737596  0.404231  1
  Hg  Hg3  1  0.204395  0.590953  0.719363  1
  As  As4  1  0.998682  0.002405  0.006347  1
  O  O5  1  0.699329  0.753317  0.076229  1
  O  O6  1  0.873417  0.249604  0.932890  1
  O  O7  1  0.047589  0.925499  0.762912  1
  O  O8  1  0.364524  0.075778  0.250364  1
