# generated using pymatgen
data_DyEr2B7W
_symmetry_space_group_name_H-M   'P 1'
_cell_length_a   8.11841600
_cell_length_b   8.11841627
_cell_length_c   9.47840500
_cell_angle_alpha   90.00000000
_cell_angle_beta   90.00000000
_cell_angle_gamma   155.52485072
_symmetry_Int_Tables_number   1
_chemical_formula_structural   DyEr2B7W
_chemical_formula_sum   'Dy2 Er4 B14 W2'
_cell_volume   258.81608909
_cell_formula_units_Z   2
loop_
 _symmetry_equiv_pos_site_id
 _symmetry_equiv_pos_as_xyz
  1  'x, y, z'
loop_
 _atom_site_type_symbol
 _atom_site_label
 _atom_site_symmetry_multiplicity
 _atom_site_fract_x
 _atom_site_fract_y
 _atom_site_fract_z
 _atom_site_occupancy
  Dy  Dy0  1  0.245799  0.754201  0.250000  1
  Dy  Dy1  1  0.754201  0.245799  0.750000  1
  Er  Er2  1  0.892843  0.107157  0.440226  1
  Er  Er3  1  0.107157  0.892843  0.559774  1
  Er  Er4  1  0.892843  0.107157  0.059774  1
  Er  Er5  1  0.107157  0.892843  0.940226  1
  B  B6  1  0.727615  0.272385  0.467606  1
  B  B7  1  0.272385  0.727615  0.532394  1
  B  B8  1  0.727615  0.272385  0.032394  1
  B  B9  1  0.272385  0.727615  0.967606  1
  B  B10  1  0.635128  0.364872  0.146468  1
  B  B11  1  0.364872  0.635128  0.853532  1
  B  B12  1  0.635128  0.364872  0.353532  1
  B  B13  1  0.364872  0.635128  0.646468  1
  B  B14  1  0.519334  0.480666  0.091347  1
  B  B15  1  0.480666  0.519334  0.908653  1
  B  B16  1  0.519334  0.480666  0.408653  1
  B  B17  1  0.480666  0.519334  0.591347  1
  B  B18  1  0.453811  0.546189  0.250000  1
  B  B19  1  0.546189  0.453811  0.750000  1
  W  W20  1  0.052892  0.947108  0.250000  1
  W  W21  1  0.947108  0.052892  0.750000  1
