# generated using pymatgen
data_Ac3PrBr2(NCl2)2
_symmetry_space_group_name_H-M   'P 1'
_cell_length_a   8.83978963
_cell_length_b   8.61337792
_cell_length_c   8.61337844
_cell_angle_alpha   136.66415282
_cell_angle_beta   131.58287128
_cell_angle_gamma   66.54493706
_symmetry_Int_Tables_number   1
_chemical_formula_structural   Ac3PrBr2(NCl2)2
_chemical_formula_sum   'Ac3 Pr1 Br2 N2 Cl4'
_cell_volume   332.04006211
_cell_formula_units_Z   1
loop_
 _symmetry_equiv_pos_site_id
 _symmetry_equiv_pos_as_xyz
  1  'x, y, z'
loop_
 _atom_site_type_symbol
 _atom_site_label
 _atom_site_symmetry_multiplicity
 _atom_site_fract_x
 _atom_site_fract_y
 _atom_site_fract_z
 _atom_site_occupancy
  Ac  Ac0  1  0.088157  0.904293  0.183864  1
  Ac  Ac1  1  0.905462  0.092386  0.813076  1
  Ac  Ac2  1  0.271549  0.592307  0.679241  1
  Pr  Pr3  1  0.754253  0.415799  0.338453  1
  Br  Br4  1  0.383761  0.202665  0.181097  1
  Br  Br5  1  0.614332  0.804493  0.809839  1
  N  N6  1  0.000601  0.748249  0.749090  1
  N  N7  1  0.000601  0.251511  0.252351  1
  Cl  Cl8  1  0.500429  0.247314  0.756989  1
  Cl  Cl9  1  0.500429  0.743440  0.253115  1
  Cl  Cl10  1  0.008781  0.696186  0.312595  1
  Cl  Cl11  1  0.971646  0.301356  0.670290  1
