# generated using pymatgen
data_Sr6FeIrRhO12
_symmetry_space_group_name_H-M   'P 1'
_cell_length_a   8.85739226
_cell_length_b   8.85739323
_cell_length_c   6.93817804
_cell_angle_alpha   67.49743583
_cell_angle_beta   67.49743546
_cell_angle_gamma   36.85161437
_symmetry_Int_Tables_number   1
_chemical_formula_structural   Sr6FeIrRhO12
_chemical_formula_sum   'Sr6 Fe1 Ir1 Rh1 O12'
_cell_volume   298.71345212
_cell_formula_units_Z   1
loop_
 _symmetry_equiv_pos_site_id
 _symmetry_equiv_pos_as_xyz
  1  'x, y, z'
loop_
 _atom_site_type_symbol
 _atom_site_label
 _atom_site_symmetry_multiplicity
 _atom_site_fract_x
 _atom_site_fract_y
 _atom_site_fract_z
 _atom_site_occupancy
  Sr  Sr0  1  0.883576  0.883576  0.706304  1
  Sr  Sr1  1  0.210261  0.210261  0.710820  1
  Sr  Sr2  1  0.551528  0.551528  0.711025  1
  Sr  Sr3  1  0.455771  0.455771  0.287613  1
  Sr  Sr4  1  0.786797  0.786797  0.292452  1
  Sr  Sr5  1  0.113334  0.113334  0.291275  1
  Fe  Fe6  1  0.001290  0.001290  0.999204  1
  Ir  Ir7  1  0.332903  0.332903  0.000291  1
  Rh  Rh8  1  0.667334  0.667334  0.000242  1
  O  O9  1  0.945215  0.945215  0.321673  1
  O  O10  1  0.281045  0.281045  0.321020  1
  O  O11  1  0.610316  0.610316  0.327640  1
  O  O12  1  0.387518  0.387518  0.680286  1
  O  O13  1  0.720535  0.720535  0.671327  1
  O  O14  1  0.052138  0.052138  0.678393  1
  O  O15  1  0.498541  0.004204  0.000234  1
  O  O16  1  0.831939  0.335901  0.999354  1
  O  O17  1  0.169394  0.660459  0.000629  1
  O  O18  1  0.004204  0.498541  0.000234  1
  O  O19  1  0.335901  0.831939  0.999354  1
  O  O20  1  0.660459  0.169394  0.000629  1
