# generated using pymatgen
data_KIn3Te5
_symmetry_space_group_name_H-M   'P 1'
_cell_length_a   11.25444579
_cell_length_b   11.25444649
_cell_length_c   11.25444679
_cell_angle_alpha   90.38738648
_cell_angle_beta   90.38739016
_cell_angle_gamma   90.38738485
_symmetry_Int_Tables_number   1
_chemical_formula_structural   KIn3Te5
_chemical_formula_sum   'K4 In12 Te20'
_cell_volume   1425.41882842
_cell_formula_units_Z   4
loop_
 _symmetry_equiv_pos_site_id
 _symmetry_equiv_pos_as_xyz
  1  'x, y, z'
loop_
 _atom_site_type_symbol
 _atom_site_label
 _atom_site_symmetry_multiplicity
 _atom_site_fract_x
 _atom_site_fract_y
 _atom_site_fract_z
 _atom_site_occupancy
  K  K0  1  0.255302  0.000000  0.744698  1
  K  K1  1  0.744698  0.255302  0.000000  1
  K  K2  1  0.000000  0.744698  0.255302  1
  K  K3  1  0.500000  0.500000  0.500000  1
  In  In4  1  0.838867  0.877722  0.573387  1
  In  In5  1  0.573387  0.838867  0.877722  1
  In  In6  1  0.877722  0.573387  0.838867  1
  In  In7  1  0.161133  0.426613  0.122278  1
  In  In8  1  0.122278  0.161133  0.426613  1
  In  In9  1  0.426613  0.122278  0.161133  1
  In  In10  1  0.745934  0.165251  0.342793  1
  In  In11  1  0.342793  0.745934  0.165251  1
  In  In12  1  0.165251  0.342793  0.745934  1
  In  In13  1  0.254066  0.657207  0.834749  1
  In  In14  1  0.834749  0.254066  0.657207  1
  In  In15  1  0.657207  0.834749  0.254066  1
  Te  Te16  1  0.174318  0.825682  0.000000  1
  Te  Te17  1  0.825682  0.000000  0.174318  1
  Te  Te18  1  0.172298  0.172298  0.172298  1
  Te  Te19  1  0.827702  0.827702  0.827702  1
  Te  Te20  1  0.000000  0.174318  0.825682  1
  Te  Te21  1  0.924136  0.500000  0.075864  1
  Te  Te22  1  0.075864  0.924136  0.500000  1
  Te  Te23  1  0.500000  0.075864  0.924136  1
  Te  Te24  1  0.749083  0.688412  0.432889  1
  Te  Te25  1  0.432889  0.749083  0.688412  1
  Te  Te26  1  0.688412  0.432889  0.749083  1
  Te  Te27  1  0.250917  0.567111  0.311588  1
  Te  Te28  1  0.311588  0.250917  0.567111  1
  Te  Te29  1  0.567111  0.311588  0.250917  1
  Te  Te30  1  0.673334  0.070765  0.569325  1
  Te  Te31  1  0.569325  0.673334  0.070765  1
  Te  Te32  1  0.070765  0.569325  0.673334  1
  Te  Te33  1  0.326666  0.430675  0.929235  1
  Te  Te34  1  0.929235  0.326666  0.430675  1
  Te  Te35  1  0.430675  0.929235  0.326666  1
