# generated using pymatgen
data_Zr6Mn7Co16
_symmetry_space_group_name_H-M   'P 1'
_cell_length_a   8.15017783
_cell_length_b   8.15017769
_cell_length_c   8.15017800
_cell_angle_alpha   59.99999875
_cell_angle_beta   59.99999932
_cell_angle_gamma   59.99999664
_symmetry_Int_Tables_number   1
_chemical_formula_structural   Zr6Mn7Co16
_chemical_formula_sum   'Zr6 Mn7 Co16'
_cell_volume   382.81261519
_cell_formula_units_Z   1
loop_
 _symmetry_equiv_pos_site_id
 _symmetry_equiv_pos_as_xyz
  1  'x, y, z'
loop_
 _atom_site_type_symbol
 _atom_site_label
 _atom_site_symmetry_multiplicity
 _atom_site_fract_x
 _atom_site_fract_y
 _atom_site_fract_z
 _atom_site_occupancy
  Zr  Zr0  1  0.709701  0.290299  0.290299  1
  Zr  Zr1  1  0.290299  0.290299  0.709701  1
  Zr  Zr2  1  0.290299  0.709701  0.709701  1
  Zr  Zr3  1  0.709701  0.709701  0.290299  1
  Zr  Zr4  1  0.290299  0.709701  0.290299  1
  Zr  Zr5  1  0.709701  0.290299  0.709701  1
  Mn  Mn6  1  0.000000  0.500000  0.000000  1
  Mn  Mn7  1  0.000000  0.000000  0.500000  1
  Mn  Mn8  1  0.000000  0.000000  0.000000  1
  Mn  Mn9  1  0.500000  0.500000  0.000000  1
  Mn  Mn10  1  0.500000  0.000000  0.500000  1
  Mn  Mn11  1  0.500000  0.000000  0.000000  1
  Mn  Mn12  1  0.000000  0.500000  0.500000  1
  Co  Co13  1  0.120848  0.120848  0.637457  1
  Co  Co14  1  0.674652  0.976044  0.674652  1
  Co  Co15  1  0.362543  0.879152  0.879152  1
  Co  Co16  1  0.023956  0.325348  0.325348  1
  Co  Co17  1  0.976044  0.674652  0.674652  1
  Co  Co18  1  0.325348  0.325348  0.023956  1
  Co  Co19  1  0.674652  0.674652  0.976044  1
  Co  Co20  1  0.637457  0.120848  0.120848  1
  Co  Co21  1  0.674652  0.674652  0.674652  1
  Co  Co22  1  0.879152  0.879152  0.362543  1
  Co  Co23  1  0.120848  0.120848  0.120848  1
  Co  Co24  1  0.879152  0.362543  0.879152  1
  Co  Co25  1  0.879152  0.879152  0.879152  1
  Co  Co26  1  0.325348  0.325348  0.325348  1
  Co  Co27  1  0.120848  0.637457  0.120848  1
  Co  Co28  1  0.325348  0.023956  0.325348  1
