# generated using pymatgen
data_HfSc(GaPd)2
_symmetry_space_group_name_H-M   'P 1'
_cell_length_a   7.34744733
_cell_length_b   7.34426393
_cell_length_c   6.71492400
_cell_angle_alpha   90.00000000
_cell_angle_beta   90.00000000
_cell_angle_gamma   119.90501864
_symmetry_Int_Tables_number   1
_chemical_formula_structural   HfSc(GaPd)2
_chemical_formula_sum   'Hf3 Sc3 Ga6 Pd6'
_cell_volume   314.10247374
_cell_formula_units_Z   3
loop_
 _symmetry_equiv_pos_site_id
 _symmetry_equiv_pos_as_xyz
  1  'x, y, z'
loop_
 _atom_site_type_symbol
 _atom_site_label
 _atom_site_symmetry_multiplicity
 _atom_site_fract_x
 _atom_site_fract_y
 _atom_site_fract_z
 _atom_site_occupancy
  Hf  Hf0  1  0.991640  0.391413  0.250000  1
  Hf  Hf1  1  0.388934  0.991832  0.750000  1
  Hf  Hf2  1  0.603236  0.610651  0.750000  1
  Sc  Sc3  1  0.609722  0.602900  0.250000  1
  Sc  Sc4  1  0.006681  0.395576  0.750000  1
  Sc  Sc5  1  0.396993  0.007040  0.250000  1
  Ga  Ga6  1  0.275697  0.274671  0.503256  1
  Ga  Ga7  1  0.724946  0.999850  0.502068  1
  Ga  Ga8  1  0.000007  0.725193  0.493627  1
  Ga  Ga9  1  0.724946  0.999850  0.997932  1
  Ga  Ga10  1  0.275697  0.274671  0.996744  1
  Ga  Ga11  1  0.000007  0.725193  0.006373  1
  Pd  Pd12  1  0.333685  0.667076  0.491750  1
  Pd  Pd13  1  0.999246  0.992932  0.750000  1
  Pd  Pd14  1  0.000343  0.007514  0.250000  1
  Pd  Pd15  1  0.333685  0.667076  0.008250  1
  Pd  Pd16  1  0.667267  0.333281  0.513202  1
  Pd  Pd17  1  0.667267  0.333281  0.986798  1
