# generated using pymatgen
data_La3Yb(USe5)2
_symmetry_space_group_name_H-M   'P 1'
_cell_length_a   7.91501645
_cell_length_b   8.51028056
_cell_length_c   12.47133700
_cell_angle_alpha   90.00000000
_cell_angle_beta   90.00000000
_cell_angle_gamma   89.93063659
_symmetry_Int_Tables_number   1
_chemical_formula_structural   La3Yb(USe5)2
_chemical_formula_sum   'La6 Yb2 U4 Se20'
_cell_volume   840.05630583
_cell_formula_units_Z   2
loop_
 _symmetry_equiv_pos_site_id
 _symmetry_equiv_pos_as_xyz
  1  'x, y, z'
loop_
 _atom_site_type_symbol
 _atom_site_label
 _atom_site_symmetry_multiplicity
 _atom_site_fract_x
 _atom_site_fract_y
 _atom_site_fract_z
 _atom_site_occupancy
  La  La0  1  0.470730  0.000945  0.677244  1
  La  La1  1  0.029270  0.499055  0.177244  1
  La  La2  1  0.468656  0.499045  0.675012  1
  La  La3  1  0.031344  0.000955  0.175012  1
  La  La4  1  0.531423  0.998684  0.323912  1
  La  La5  1  0.968577  0.501316  0.823912  1
  Yb  Yb6  1  0.527824  0.499569  0.322008  1
  Yb  Yb7  1  0.972176  0.000431  0.822008  1
  U  U8  1  0.072013  0.749767  0.491790  1
  U  U9  1  0.427987  0.750233  0.991790  1
  U  U10  1  0.929112  0.249761  0.508789  1
  U  U11  1  0.570888  0.250239  0.008789  1
  Se  Se12  1  0.836197  0.957762  0.589993  1
  Se  Se13  1  0.663803  0.542238  0.089993  1
  Se  Se14  1  0.165112  0.456074  0.410191  1
  Se  Se15  1  0.334888  0.043926  0.910191  1
  Se  Se16  1  0.165930  0.044727  0.409975  1
  Se  Se17  1  0.334070  0.455273  0.909975  1
  Se  Se18  1  0.835401  0.543488  0.591199  1
  Se  Se19  1  0.664599  0.956512  0.091199  1
  Se  Se20  1  0.838800  0.749704  0.314403  1
  Se  Se21  1  0.661200  0.750296  0.814403  1
  Se  Se22  1  0.162284  0.250534  0.685735  1
  Se  Se23  1  0.337716  0.249466  0.185735  1
  Se  Se24  1  0.453234  0.749327  0.497636  1
  Se  Se25  1  0.046766  0.750673  0.997636  1
  Se  Se26  1  0.547980  0.252060  0.501015  1
  Se  Se27  1  0.952020  0.247940  0.001015  1
  Se  Se28  1  0.187394  0.751766  0.713828  1
  Se  Se29  1  0.312606  0.748234  0.213828  1
  Se  Se30  1  0.809413  0.250081  0.287271  1
  Se  Se31  1  0.690587  0.249919  0.787271  1
