# generated using pymatgen
data_Tm16MgHg3Ir3Rh
_symmetry_space_group_name_H-M   'P 1'
_cell_length_a   9.49630252
_cell_length_b   9.47461929
_cell_length_c   9.47461800
_cell_angle_alpha   59.99999751
_cell_angle_beta   60.07550092
_cell_angle_gamma   60.07550018
_symmetry_Int_Tables_number   1
_chemical_formula_structural   Tm16MgHg3Ir3Rh
_chemical_formula_sum   'Tm16 Mg1 Hg3 Ir3 Rh1'
_cell_volume   603.47277712
_cell_formula_units_Z   1
loop_
 _symmetry_equiv_pos_site_id
 _symmetry_equiv_pos_as_xyz
  1  'x, y, z'
loop_
 _atom_site_type_symbol
 _atom_site_label
 _atom_site_symmetry_multiplicity
 _atom_site_fract_x
 _atom_site_fract_y
 _atom_site_fract_z
 _atom_site_occupancy
  Tm  Tm0  1  0.601312  0.598861  0.598861  1
  Tm  Tm1  1  0.601312  0.598861  0.200968  1
  Tm  Tm2  1  0.601312  0.200968  0.598861  1
  Tm  Tm3  1  0.188566  0.603811  0.603811  1
  Tm  Tm4  1  0.061383  0.439181  0.439181  1
  Tm  Tm5  1  0.436086  0.063262  0.063262  1
  Tm  Tm6  1  0.436086  0.063262  0.437390  1
  Tm  Tm7  1  0.061383  0.439181  0.060255  1
  Tm  Tm8  1  0.436086  0.437390  0.063262  1
  Tm  Tm9  1  0.061383  0.060255  0.439181  1
  Tm  Tm10  1  0.185205  0.812922  0.812922  1
  Tm  Tm11  1  0.811849  0.186713  0.186713  1
  Tm  Tm12  1  0.811849  0.186713  0.814724  1
  Tm  Tm13  1  0.185205  0.812922  0.188949  1
  Tm  Tm14  1  0.811849  0.814724  0.186713  1
  Tm  Tm15  1  0.185205  0.188949  0.812922  1
  Mg  Mg16  1  0.533430  0.822190  0.822190  1
  Hg  Hg17  1  0.831997  0.836611  0.836611  1
  Hg  Hg18  1  0.831997  0.836611  0.494781  1
  Hg  Hg19  1  0.831997  0.494781  0.836611  1
  Ir  Ir20  1  0.390140  0.394345  0.394345  1
  Ir  Ir21  1  0.390140  0.394345  0.821168  1
  Ir  Ir22  1  0.390140  0.821168  0.394345  1
  Rh  Rh23  1  0.824082  0.391973  0.391973  1
