# generated using pymatgen
data_Cs4Zr6PI18
_symmetry_space_group_name_H-M   'P 1'
_cell_length_a   11.99623942
_cell_length_b   11.99622942
_cell_length_c   11.61018901
_cell_angle_alpha   77.06180670
_cell_angle_beta   77.06182455
_cell_angle_gamma   117.45496604
_symmetry_Int_Tables_number   1
_chemical_formula_structural   Cs4Zr6PI18
_chemical_formula_sum   'Cs4 Zr6 P1 I18'
_cell_volume   1337.63947949
_cell_formula_units_Z   1
loop_
 _symmetry_equiv_pos_site_id
 _symmetry_equiv_pos_as_xyz
  1  'x, y, z'
loop_
 _atom_site_type_symbol
 _atom_site_label
 _atom_site_symmetry_multiplicity
 _atom_site_fract_x
 _atom_site_fract_y
 _atom_site_fract_z
 _atom_site_occupancy
  Cs  Cs0  1  0.766651  0.444672  0.683358  1
  Cs  Cs1  1  0.555327  0.233348  0.316643  1
  Cs  Cs2  1  0.233349  0.555328  0.316641  1
  Cs  Cs3  1  0.444670  0.766651  0.683359  1
  Zr  Zr4  1  0.115382  0.115383  0.134122  1
  Zr  Zr5  1  0.884616  0.884616  0.865883  1
  Zr  Zr6  1  0.951529  0.777572  0.141712  1
  Zr  Zr7  1  0.222428  0.048469  0.858287  1
  Zr  Zr8  1  0.048467  0.222426  0.858289  1
  Zr  Zr9  1  0.777571  0.951530  0.141713  1
  P  P10  1  0.000001  0.000003  0.000000  1
  I  I11  1  0.812849  0.610569  0.008767  1
  I  I12  1  0.389434  0.187152  0.991233  1
  I  I13  1  0.187152  0.389432  0.991233  1
  I  I14  1  0.610569  0.812851  0.008769  1
  I  I15  1  0.200419  0.799580  0.000000  1
  I  I16  1  0.799579  0.200417  0.000002  1
  I  I17  1  0.313603  0.313603  0.675169  1
  I  I18  1  0.686401  0.686401  0.324826  1
  I  I19  1  0.891511  0.503521  0.317852  1
  I  I20  1  0.496482  0.108491  0.682145  1
  I  I21  1  0.108492  0.496481  0.682146  1
  I  I22  1  0.503520  0.891510  0.317853  1
  I  I23  1  0.254082  0.254081  0.296493  1
  I  I24  1  0.745921  0.745921  0.703510  1
  I  I25  1  0.076840  0.876256  0.315104  1
  I  I26  1  0.123742  0.923158  0.684893  1
  I  I27  1  0.923158  0.123741  0.684894  1
  I  I28  1  0.876256  0.076840  0.315103  1
