# generated using pymatgen
data_Nd2Sm2C2Cl5
_symmetry_space_group_name_H-M   'P 1'
_cell_length_a   3.83335973
_cell_length_b   8.06538458
_cell_length_c   9.67169900
_cell_angle_alpha   104.70481488
_cell_angle_beta   78.56978848
_cell_angle_gamma   90.00000590
_symmetry_Int_Tables_number   1
_chemical_formula_structural   Nd2Sm2C2Cl5
_chemical_formula_sum   'Nd2 Sm2 C2 Cl5'
_cell_volume   283.09509496
_cell_formula_units_Z   1
loop_
 _symmetry_equiv_pos_site_id
 _symmetry_equiv_pos_as_xyz
  1  'x, y, z'
loop_
 _atom_site_type_symbol
 _atom_site_label
 _atom_site_symmetry_multiplicity
 _atom_site_fract_x
 _atom_site_fract_y
 _atom_site_fract_z
 _atom_site_occupancy
  Nd  Nd0  1  0.003311  0.206198  0.993377  1
  Nd  Nd1  1  0.003577  0.789438  0.992845  1
  Sm  Sm2  1  0.662462  0.890658  0.675074  1
  Sm  Sm3  1  0.344487  0.104644  0.311026  1
  C  C4  1  0.465024  0.022705  0.069953  1
  C  C5  1  0.541949  0.973001  0.916102  1
  Cl  Cl6  1  0.164518  0.639906  0.670965  1
  Cl  Cl7  1  0.842297  0.355328  0.315402  1
  Cl  Cl8  1  0.502991  0.498072  0.994016  1
  Cl  Cl9  1  0.173096  0.144203  0.653808  1
  Cl  Cl10  1  0.833884  0.851142  0.332231  1
