# generated using pymatgen
data_Ca3VTcC6
_symmetry_space_group_name_H-M   'P 1'
_cell_length_a   8.35949200
_cell_length_b   8.35949112
_cell_length_c   5.02191300
_cell_angle_alpha   90.00000000
_cell_angle_beta   90.00000000
_cell_angle_gamma   119.99999555
_symmetry_Int_Tables_number   1
_chemical_formula_structural   Ca3VTcC6
_chemical_formula_sum   'Ca6 V2 Tc2 C12'
_cell_volume   303.92019787
_cell_formula_units_Z   2
loop_
 _symmetry_equiv_pos_site_id
 _symmetry_equiv_pos_as_xyz
  1  'x, y, z'
loop_
 _atom_site_type_symbol
 _atom_site_label
 _atom_site_symmetry_multiplicity
 _atom_site_fract_x
 _atom_site_fract_y
 _atom_site_fract_z
 _atom_site_occupancy
  Ca  Ca0  1  0.609235  0.690086  0.750000  1
  Ca  Ca1  1  0.919149  0.609235  0.250000  1
  Ca  Ca2  1  0.690086  0.080851  0.250000  1
  Ca  Ca3  1  0.309914  0.919149  0.750000  1
  Ca  Ca4  1  0.080851  0.390765  0.750000  1
  Ca  Ca5  1  0.390765  0.309914  0.250000  1
  V  V6  1  0.000000  0.000000  0.500000  1
  V  V7  1  0.000000  0.000000  0.000000  1
  Tc  Tc8  1  0.666667  0.333333  0.750000  1
  Tc  Tc9  1  0.333333  0.666667  0.250000  1
  C  C10  1  0.951101  0.774067  0.750000  1
  C  C11  1  0.177035  0.951101  0.250000  1
  C  C12  1  0.774067  0.822965  0.250000  1
  C  C13  1  0.225933  0.177035  0.750000  1
  C  C14  1  0.822965  0.048899  0.750000  1
  C  C15  1  0.048899  0.225933  0.250000  1
  C  C16  1  0.859638  0.588641  0.750000  1
  C  C17  1  0.270997  0.859638  0.250000  1
  C  C18  1  0.588641  0.729003  0.250000  1
  C  C19  1  0.411359  0.270997  0.750000  1
  C  C20  1  0.140362  0.411359  0.250000  1
  C  C21  1  0.729003  0.140362  0.750000  1
