# generated using pymatgen
data_Tb4Ga3ReOs4
_symmetry_space_group_name_H-M   'P 1'
_cell_length_a   5.34122789
_cell_length_b   5.34122790
_cell_length_c   8.92278400
_cell_angle_alpha   90.00000000
_cell_angle_beta   90.00000000
_cell_angle_gamma   118.64092299
_symmetry_Int_Tables_number   1
_chemical_formula_structural   Tb4Ga3ReOs4
_chemical_formula_sum   'Tb4 Ga3 Re1 Os4'
_cell_volume   223.40836285
_cell_formula_units_Z   1
loop_
 _symmetry_equiv_pos_site_id
 _symmetry_equiv_pos_as_xyz
  1  'x, y, z'
loop_
 _atom_site_type_symbol
 _atom_site_label
 _atom_site_symmetry_multiplicity
 _atom_site_fract_x
 _atom_site_fract_y
 _atom_site_fract_z
 _atom_site_occupancy
  Tb  Tb0  1  0.331239  0.668761  0.437592  1
  Tb  Tb1  1  0.665323  0.334677  0.557811  1
  Tb  Tb2  1  0.665323  0.334677  0.942189  1
  Tb  Tb3  1  0.331239  0.668761  0.062408  1
  Ga  Ga4  1  0.166757  0.833243  0.750000  1
  Ga  Ga5  1  0.166740  0.329689  0.750000  1
  Ga  Ga6  1  0.670311  0.833260  0.750000  1
  Re  Re7  1  0.836481  0.163519  0.250000  1
  Os  Os8  1  0.993910  0.006090  0.497500  1
  Os  Os9  1  0.993910  0.006090  0.002500  1
  Os  Os10  1  0.829409  0.650639  0.250000  1
  Os  Os11  1  0.349361  0.170591  0.250000  1
