# generated using pymatgen
data_DyErBi2(Ir2O7)2
_symmetry_space_group_name_H-M   'P 1'
_cell_length_a   7.26842412
_cell_length_b   7.29975332
_cell_length_c   7.29975218
_cell_angle_alpha   60.27927186
_cell_angle_beta   60.10099283
_cell_angle_gamma   60.10100031
_symmetry_Int_Tables_number   1
_chemical_formula_structural   DyErBi2(Ir2O7)2
_chemical_formula_sum   'Dy1 Er1 Bi2 Ir4 O14'
_cell_volume   274.86149500
_cell_formula_units_Z   1
loop_
 _symmetry_equiv_pos_site_id
 _symmetry_equiv_pos_as_xyz
  1  'x, y, z'
loop_
 _atom_site_type_symbol
 _atom_site_label
 _atom_site_symmetry_multiplicity
 _atom_site_fract_x
 _atom_site_fract_y
 _atom_site_fract_z
 _atom_site_occupancy
  Dy  Dy0  1  0.125000  0.125000  0.125000  1
  Er  Er1  1  0.625000  0.125000  0.125000  1
  Bi  Bi2  1  0.125000  0.625000  0.125000  1
  Bi  Bi3  1  0.125000  0.125000  0.625000  1
  Ir  Ir4  1  0.125000  0.625000  0.625000  1
  Ir  Ir5  1  0.625000  0.125000  0.625000  1
  Ir  Ir6  1  0.625000  0.625000  0.125000  1
  Ir  Ir7  1  0.625000  0.625000  0.625000  1
  O  O8  1  0.703431  0.718305  0.288947  1
  O  O9  1  0.289728  0.289174  0.716977  1
  O  O10  1  0.703431  0.288947  0.718305  1
  O  O11  1  0.289728  0.716977  0.289174  1
  O  O12  1  0.293324  0.706746  0.706746  1
  O  O13  1  0.710327  0.288580  0.288580  1
  O  O14  1  0.546569  0.531695  0.961053  1
  O  O15  1  0.960272  0.960826  0.533023  1
  O  O16  1  0.546569  0.961053  0.531695  1
  O  O17  1  0.960272  0.533023  0.960826  1
  O  O18  1  0.956676  0.543254  0.543254  1
  O  O19  1  0.539673  0.961420  0.961420  1
  O  O20  1  0.258566  0.243416  0.243416  1
  O  O21  1  0.991434  0.006584  0.006584  1
