# generated using pymatgen
data_La2SiIrI2
_symmetry_space_group_name_H-M   'P 1'
_cell_length_a   4.31613800
_cell_length_b   4.31613737
_cell_length_c   11.99478400
_cell_angle_alpha   90.00000000
_cell_angle_beta   90.00000000
_cell_angle_gamma   119.99998953
_symmetry_Int_Tables_number   1
_chemical_formula_structural   La2SiIrI2
_chemical_formula_sum   'La2 Si1 Ir1 I2'
_cell_volume   193.51457894
_cell_formula_units_Z   1
loop_
 _symmetry_equiv_pos_site_id
 _symmetry_equiv_pos_as_xyz
  1  'x, y, z'
loop_
 _atom_site_type_symbol
 _atom_site_label
 _atom_site_symmetry_multiplicity
 _atom_site_fract_x
 _atom_site_fract_y
 _atom_site_fract_z
 _atom_site_occupancy
  La  La0  1  0.000000  0.000000  0.162160  1
  La  La1  1  0.000000  0.000000  0.836687  1
  Si  Si2  1  0.666667  0.333333  0.996679  1
  Ir  Ir3  1  0.333333  0.666667  0.003530  1
  I  I4  1  0.333333  0.666667  0.653413  1
  I  I5  1  0.666667  0.333333  0.347531  1
