# generated using pymatgen
data_Tb2Co3P6Ir5Rh2
_symmetry_space_group_name_H-M   'P 1'
_cell_length_a   3.88915500
_cell_length_b   10.64399000
_cell_length_c   12.36306500
_cell_angle_alpha   90.00000000
_cell_angle_beta   90.00000000
_cell_angle_gamma   90.00000000
_symmetry_Int_Tables_number   1
_chemical_formula_structural   Tb2Co3P6Ir5Rh2
_chemical_formula_sum   'Tb4 Co6 P12 Ir10 Rh4'
_cell_volume   511.78300796
_cell_formula_units_Z   2
loop_
 _symmetry_equiv_pos_site_id
 _symmetry_equiv_pos_as_xyz
  1  'x, y, z'
loop_
 _atom_site_type_symbol
 _atom_site_label
 _atom_site_symmetry_multiplicity
 _atom_site_fract_x
 _atom_site_fract_y
 _atom_site_fract_z
 _atom_site_occupancy
  Tb  Tb0  1  0.250000  0.581214  0.710849  1
  Tb  Tb1  1  0.250000  0.918786  0.210849  1
  Tb  Tb2  1  0.750000  0.413397  0.290569  1
  Tb  Tb3  1  0.750000  0.086603  0.790569  1
  Co  Co4  1  0.750000  0.118552  0.304271  1
  Co  Co5  1  0.750000  0.381448  0.804271  1
  Co  Co6  1  0.250000  0.462531  0.932259  1
  Co  Co7  1  0.250000  0.037469  0.432259  1
  Co  Co8  1  0.750000  0.537598  0.064202  1
  Co  Co9  1  0.750000  0.962402  0.564202  1
  P  P10  1  0.250000  0.423272  0.104748  1
  P  P11  1  0.250000  0.076728  0.604748  1
  P  P12  1  0.750000  0.565528  0.888910  1
  P  P13  1  0.750000  0.934472  0.388910  1
  P  P14  1  0.250000  0.274286  0.869551  1
  P  P15  1  0.250000  0.225714  0.369551  1
  P  P16  1  0.750000  0.729432  0.128499  1
  P  P17  1  0.750000  0.770568  0.628499  1
  P  P18  1  0.250000  0.597159  0.386235  1
  P  P19  1  0.250000  0.902841  0.886235  1
  P  P20  1  0.750000  0.400169  0.622548  1
  P  P21  1  0.750000  0.099831  0.122548  1
  Ir  Ir22  1  0.250000  0.406696  0.476506  1
  Ir  Ir23  1  0.250000  0.093304  0.976506  1
  Ir  Ir24  1  0.750000  0.589249  0.523146  1
  Ir  Ir25  1  0.750000  0.910751  0.023146  1
  Ir  Ir26  1  0.250000  0.223491  0.179663  1
  Ir  Ir27  1  0.250000  0.276509  0.679663  1
  Ir  Ir28  1  0.750000  0.768318  0.821890  1
  Ir  Ir29  1  0.750000  0.731682  0.321890  1
  Ir  Ir30  1  0.250000  0.886318  0.698143  1
  Ir  Ir31  1  0.250000  0.613682  0.198143  1
  Rh  Rh32  1  0.250000  0.719556  0.984452  1
  Rh  Rh33  1  0.250000  0.780444  0.484452  1
  Rh  Rh34  1  0.750000  0.280249  0.013559  1
  Rh  Rh35  1  0.750000  0.219751  0.513559  1
