# generated using pymatgen
data_Ba2NaTcH6
_symmetry_space_group_name_H-M   'P 1'
_cell_length_a   5.82256594
_cell_length_b   5.82256580
_cell_length_c   5.82256700
_cell_angle_alpha   120.00000111
_cell_angle_beta   120.00000035
_cell_angle_gamma   59.99999901
_symmetry_Int_Tables_number   1
_chemical_formula_structural   Ba2NaTcH6
_chemical_formula_sum   'Ba2 Na1 Tc1 H6'
_cell_volume   139.58164416
_cell_formula_units_Z   1
loop_
 _symmetry_equiv_pos_site_id
 _symmetry_equiv_pos_as_xyz
  1  'x, y, z'
loop_
 _atom_site_type_symbol
 _atom_site_label
 _atom_site_symmetry_multiplicity
 _atom_site_fract_x
 _atom_site_fract_y
 _atom_site_fract_z
 _atom_site_occupancy
  Ba  Ba0  1  0.249999  0.250003  0.250000  1
  Ba  Ba1  1  0.749998  0.750001  0.750000  1
  Na  Na2  1  0.499999  0.499999  0.000000  1
  Tc  Tc3  1  0.000000  0.000000  0.500000  1
  H  H4  1  0.777692  0.777692  0.277692  1
  H  H5  1  0.777692  0.222307  0.277692  1
  H  H6  1  0.222306  0.777694  0.277694  1
  H  H7  1  0.222306  0.777694  0.722307  1
  H  H8  1  0.777692  0.222307  0.722307  1
  H  H9  1  0.222308  0.222308  0.722309  1
