# generated using pymatgen
data_NdDy9(Si3Pt)2
_symmetry_space_group_name_H-M   'P 1'
_cell_length_a   7.26899300
_cell_length_b   7.88554640
_cell_length_c   14.53478000
_cell_angle_alpha   89.87964715
_cell_angle_beta   90.00000000
_cell_angle_gamma   90.00000000
_symmetry_Int_Tables_number   1
_chemical_formula_structural   NdDy9(Si3Pt)2
_chemical_formula_sum   'Nd2 Dy18 Si12 Pt4'
_cell_volume   833.13148354
_cell_formula_units_Z   2
loop_
 _symmetry_equiv_pos_site_id
 _symmetry_equiv_pos_as_xyz
  1  'x, y, z'
loop_
 _atom_site_type_symbol
 _atom_site_label
 _atom_site_symmetry_multiplicity
 _atom_site_fract_x
 _atom_site_fract_y
 _atom_site_fract_z
 _atom_site_occupancy
  Nd  Nd0  1  0.513606  0.572130  0.337777  1
  Nd  Nd1  1  0.013606  0.427870  0.662223  1
  Dy  Dy2  1  0.811767  0.577976  0.877072  1
  Dy  Dy3  1  0.311767  0.422024  0.122928  1
  Dy  Dy4  1  0.186197  0.924530  0.376244  1
  Dy  Dy5  1  0.686197  0.075470  0.623756  1
  Dy  Dy6  1  0.186593  0.924089  0.625320  1
  Dy  Dy7  1  0.686593  0.075911  0.374680  1
  Dy  Dy8  1  0.814442  0.575519  0.123780  1
  Dy  Dy9  1  0.314442  0.424481  0.876220  1
  Dy  Dy10  1  0.660821  0.233623  0.999482  1
  Dy  Dy11  1  0.160821  0.766377  0.000518  1
  Dy  Dy12  1  0.340424  0.267270  0.499550  1
  Dy  Dy13  1  0.840424  0.732730  0.500450  1
  Dy  Dy14  1  0.483538  0.933703  0.843047  1
  Dy  Dy15  1  0.983538  0.066297  0.156953  1
  Dy  Dy16  1  0.480839  0.936564  0.155022  1
  Dy  Dy17  1  0.980839  0.063436  0.844978  1
  Dy  Dy18  1  0.517294  0.566588  0.658140  1
  Dy  Dy19  1  0.017294  0.433412  0.341860  1
  Si  Si20  1  0.651539  0.276441  0.790372  1
  Si  Si21  1  0.151539  0.723559  0.209628  1
  Si  Si22  1  0.348035  0.217972  0.286889  1
  Si  Si23  1  0.848035  0.782028  0.713111  1
  Si  Si24  1  0.355829  0.220171  0.711800  1
  Si  Si25  1  0.855829  0.779829  0.288200  1
  Si  Si26  1  0.649694  0.274265  0.208490  1
  Si  Si27  1  0.149694  0.725735  0.791510  1
  Si  Si28  1  0.767789  0.882649  0.000618  1
  Si  Si29  1  0.267789  0.117351  0.999382  1
  Si  Si30  1  0.231124  0.618982  0.501905  1
  Si  Si31  1  0.731124  0.381018  0.498095  1
  Pt  Pt32  1  0.517575  0.655016  0.001108  1
  Pt  Pt33  1  0.017575  0.344984  0.998892  1
  Pt  Pt34  1  0.482895  0.846550  0.501839  1
  Pt  Pt35  1  0.982895  0.153450  0.498161  1
