# generated using pymatgen
data_Er4Pa2Co17TcP12
_symmetry_space_group_name_H-M   'P 1'
_cell_length_a   3.69696500
_cell_length_b   10.50276500
_cell_length_c   12.11907400
_cell_angle_alpha   90.00000000
_cell_angle_beta   90.00000000
_cell_angle_gamma   90.00000000
_symmetry_Int_Tables_number   1
_chemical_formula_structural   Er4Pa2Co17TcP12
_chemical_formula_sum   'Er4 Pa2 Co17 Tc1 P12'
_cell_volume   470.56370280
_cell_formula_units_Z   1
loop_
 _symmetry_equiv_pos_site_id
 _symmetry_equiv_pos_as_xyz
  1  'x, y, z'
loop_
 _atom_site_type_symbol
 _atom_site_label
 _atom_site_symmetry_multiplicity
 _atom_site_fract_x
 _atom_site_fract_y
 _atom_site_fract_z
 _atom_site_occupancy
  Er  Er0  1  0.250000  0.933532  0.794257  1
  Er  Er1  1  0.250000  0.566468  0.794257  1
  Er  Er2  1  0.750000  0.065857  0.204434  1
  Er  Er3  1  0.750000  0.434143  0.204434  1
  Pa  Pa4  1  0.750000  0.250000  0.468696  1
  Pa  Pa5  1  0.250000  0.750000  0.529108  1
  Co  Co6  1  0.750000  0.750000  0.158513  1
  Co  Co7  1  0.250000  0.250000  0.302850  1
  Co  Co8  1  0.750000  0.750000  0.697647  1
  Co  Co9  1  0.750000  0.250000  0.013894  1
  Co  Co10  1  0.250000  0.750000  0.984447  1
  Co  Co11  1  0.250000  0.417745  0.010003  1
  Co  Co12  1  0.250000  0.082255  0.010003  1
  Co  Co13  1  0.750000  0.584207  0.992505  1
  Co  Co14  1  0.750000  0.915793  0.992505  1
  Co  Co15  1  0.250000  0.448760  0.568144  1
  Co  Co16  1  0.250000  0.051240  0.568144  1
  Co  Co17  1  0.750000  0.550357  0.432669  1
  Co  Co18  1  0.750000  0.949643  0.432669  1
  Co  Co19  1  0.250000  0.870292  0.289391  1
  Co  Co20  1  0.250000  0.629708  0.289391  1
  Co  Co21  1  0.750000  0.129746  0.709263  1
  Co  Co22  1  0.750000  0.370254  0.709263  1
  Tc  Tc23  1  0.250000  0.250000  0.844821  1
  P  P24  1  0.250000  0.250000  0.122180  1
  P  P25  1  0.750000  0.750000  0.878700  1
  P  P26  1  0.250000  0.250000  0.652234  1
  P  P27  1  0.750000  0.750000  0.343660  1
  P  P28  1  0.250000  0.442888  0.381565  1
  P  P29  1  0.250000  0.057112  0.381565  1
  P  P30  1  0.750000  0.558137  0.617870  1
  P  P31  1  0.750000  0.941863  0.617870  1
  P  P32  1  0.250000  0.901110  0.106770  1
  P  P33  1  0.250000  0.598890  0.106770  1
  P  P34  1  0.750000  0.094078  0.894753  1
  P  P35  1  0.750000  0.405922  0.894753  1
