# generated using pymatgen
data_TmU(PPt)2
_symmetry_space_group_name_H-M   'P 1'
_cell_length_a   4.13696300
_cell_length_b   4.13696234
_cell_length_c   15.26969200
_cell_angle_alpha   90.00000000
_cell_angle_beta   90.00000000
_cell_angle_gamma   120.00001329
_symmetry_Int_Tables_number   1
_chemical_formula_structural   TmU(PPt)2
_chemical_formula_sum   'Tm2 U2 P4 Pt4'
_cell_volume   226.32058374
_cell_formula_units_Z   2
loop_
 _symmetry_equiv_pos_site_id
 _symmetry_equiv_pos_as_xyz
  1  'x, y, z'
loop_
 _atom_site_type_symbol
 _atom_site_label
 _atom_site_symmetry_multiplicity
 _atom_site_fract_x
 _atom_site_fract_y
 _atom_site_fract_z
 _atom_site_occupancy
  Tm  Tm0  1  0.000000  0.000000  0.250000  1
  Tm  Tm1  1  0.000000  0.000000  0.750000  1
  U  U2  1  0.000000  0.000000  0.500000  1
  U  U3  1  0.000000  0.000000  0.000000  1
  P  P4  1  0.333333  0.666667  0.886416  1
  P  P5  1  0.666667  0.333333  0.113584  1
  P  P6  1  0.666667  0.333333  0.386416  1
  P  P7  1  0.333333  0.666667  0.613584  1
  Pt  Pt8  1  0.333333  0.666667  0.361338  1
  Pt  Pt9  1  0.666667  0.333333  0.638662  1
  Pt  Pt10  1  0.666667  0.333333  0.861338  1
  Pt  Pt11  1  0.333333  0.666667  0.138662  1
