# generated using pymatgen
data_Dy2Lu2MoOsC4
_symmetry_space_group_name_H-M   'P 1'
_cell_length_a   5.03708900
_cell_length_b   6.56591724
_cell_length_c   9.78553819
_cell_angle_alpha   89.23073409
_cell_angle_beta   90.00000000
_cell_angle_gamma   90.00000000
_symmetry_Int_Tables_number   1
_chemical_formula_structural   Dy2Lu2MoOsC4
_chemical_formula_sum   'Dy4 Lu4 Mo2 Os2 C8'
_cell_volume   323.60900639
_cell_formula_units_Z   2
loop_
 _symmetry_equiv_pos_site_id
 _symmetry_equiv_pos_as_xyz
  1  'x, y, z'
loop_
 _atom_site_type_symbol
 _atom_site_label
 _atom_site_symmetry_multiplicity
 _atom_site_fract_x
 _atom_site_fract_y
 _atom_site_fract_z
 _atom_site_occupancy
  Dy  Dy0  1  0.250000  0.539628  0.217545  1
  Dy  Dy1  1  0.750000  0.460372  0.782455  1
  Dy  Dy2  1  0.750000  0.967644  0.714898  1
  Dy  Dy3  1  0.250000  0.032356  0.285102  1
  Lu  Lu4  1  0.250000  0.673354  0.559511  1
  Lu  Lu5  1  0.750000  0.326646  0.440489  1
  Lu  Lu6  1  0.750000  0.829080  0.059533  1
  Lu  Lu7  1  0.250000  0.170920  0.940467  1
  Mo  Mo8  1  0.250000  0.716563  0.868700  1
  Mo  Mo9  1  0.750000  0.283437  0.131300  1
  Os  Os10  1  0.750000  0.780241  0.368029  1
  Os  Os11  1  0.250000  0.219759  0.631971  1
  C  C12  1  0.250000  0.447314  0.758402  1
  C  C13  1  0.750000  0.552686  0.241598  1
  C  C14  1  0.750000  0.048576  0.261643  1
  C  C15  1  0.250000  0.951424  0.738357  1
  C  C16  1  0.250000  0.830201  0.053307  1
  C  C17  1  0.750000  0.169799  0.946693  1
  C  C18  1  0.750000  0.671183  0.550636  1
  C  C19  1  0.250000  0.328817  0.449364  1
