# generated using pymatgen
data_DyYMoOs3
_symmetry_space_group_name_H-M   'P 1'
_cell_length_a   5.48111900
_cell_length_b   5.48111763
_cell_length_c   8.56453600
_cell_angle_alpha   90.00000000
_cell_angle_beta   90.00000000
_cell_angle_gamma   120.00000224
_symmetry_Int_Tables_number   1
_chemical_formula_structural   DyYMoOs3
_chemical_formula_sum   'Dy2 Y2 Mo2 Os6'
_cell_volume   222.82956610
_cell_formula_units_Z   2
loop_
 _symmetry_equiv_pos_site_id
 _symmetry_equiv_pos_as_xyz
  1  'x, y, z'
loop_
 _atom_site_type_symbol
 _atom_site_label
 _atom_site_symmetry_multiplicity
 _atom_site_fract_x
 _atom_site_fract_y
 _atom_site_fract_z
 _atom_site_occupancy
  Dy  Dy0  1  0.333333  0.666667  0.435059  1
  Dy  Dy1  1  0.666667  0.333333  0.564941  1
  Y  Y2  1  0.666667  0.333333  0.934732  1
  Y  Y3  1  0.333333  0.666667  0.065268  1
  Mo  Mo4  1  0.000000  0.000000  0.500000  1
  Mo  Mo5  1  0.000000  0.000000  0.000000  1
  Os  Os6  1  0.827490  0.172510  0.250223  1
  Os  Os7  1  0.827490  0.654979  0.250223  1
  Os  Os8  1  0.345021  0.172510  0.250223  1
  Os  Os9  1  0.172510  0.827490  0.749777  1
  Os  Os10  1  0.172510  0.345021  0.749777  1
  Os  Os11  1  0.654979  0.827490  0.749777  1
