# generated using pymatgen
data_CaCeAl19SiRu4
_symmetry_space_group_name_H-M   'P 1'
_cell_length_a   6.86015304
_cell_length_b   6.87686532
_cell_length_c   9.09551900
_cell_angle_alpha   90.00000000
_cell_angle_beta   90.00000000
_cell_angle_gamma   96.49117697
_symmetry_Int_Tables_number   1
_chemical_formula_structural   CaCeAl19SiRu4
_chemical_formula_sum   'Ca1 Ce1 Al19 Si1 Ru4'
_cell_volume   426.34257554
_cell_formula_units_Z   1
loop_
 _symmetry_equiv_pos_site_id
 _symmetry_equiv_pos_as_xyz
  1  'x, y, z'
loop_
 _atom_site_type_symbol
 _atom_site_label
 _atom_site_symmetry_multiplicity
 _atom_site_fract_x
 _atom_site_fract_y
 _atom_site_fract_z
 _atom_site_occupancy
  Ca  Ca0  1  0.871293  0.126131  0.750000  1
  Ce  Ce1  1  0.122831  0.874857  0.250000  1
  Al  Al2  1  0.588395  0.861818  0.250000  1
  Al  Al3  1  0.777582  0.518912  0.250000  1
  Al  Al4  1  0.158341  0.839852  0.897622  1
  Al  Al5  1  0.622707  0.377219  0.948661  1
  Al  Al6  1  0.841020  0.156571  0.400787  1
  Al  Al7  1  0.772688  0.774792  0.998968  1
  Al  Al8  1  0.862312  0.587479  0.750000  1
  Al  Al9  1  0.841020  0.156571  0.099213  1
  Al  Al10  1  0.225452  0.477589  0.750000  1
  Al  Al11  1  0.158341  0.839852  0.602378  1
  Al  Al12  1  0.772688  0.774792  0.501032  1
  Al  Al13  1  0.480684  0.221571  0.250000  1
  Al  Al14  1  0.622707  0.377219  0.551339  1
  Al  Al15  1  0.224388  0.224668  0.502907  1
  Al  Al16  1  0.377349  0.621860  0.447475  1
  Al  Al17  1  0.138017  0.409151  0.250000  1
  Al  Al18  1  0.518729  0.782802  0.750000  1
  Al  Al19  1  0.377349  0.621860  0.052525  1
  Al  Al20  1  0.224388  0.224668  0.997093  1
  Si  Si21  1  0.430222  0.150348  0.750000  1
  Ru  Ru22  1  0.495871  0.001108  0.996080  1
  Ru  Ru23  1  0.495871  0.001108  0.503920  1
  Ru  Ru24  1  0.999879  0.498599  0.998813  1
  Ru  Ru25  1  0.999879  0.498599  0.501187  1
