# generated using pymatgen
data_Ho12Tc2Ni2SnPb
_symmetry_space_group_name_H-M   'P 1'
_cell_length_a   8.45000646
_cell_length_b   8.45000760
_cell_length_c   8.45000743
_cell_angle_alpha   113.52282436
_cell_angle_beta   110.55056483
_cell_angle_gamma   104.46874298
_symmetry_Int_Tables_number   1
_chemical_formula_structural   Ho12Tc2Ni2SnPb
_chemical_formula_sum   'Ho12 Tc2 Ni2 Sn1 Pb1'
_cell_volume   461.49466981
_cell_formula_units_Z   1
loop_
 _symmetry_equiv_pos_site_id
 _symmetry_equiv_pos_as_xyz
  1  'x, y, z'
loop_
 _atom_site_type_symbol
 _atom_site_label
 _atom_site_symmetry_multiplicity
 _atom_site_fract_x
 _atom_site_fract_y
 _atom_site_fract_z
 _atom_site_occupancy
  Ho  Ho0  1  0.440957  0.239752  0.201205  1
  Ho  Ho1  1  0.559043  0.760248  0.798795  1
  Ho  Ho2  1  0.038546  0.239752  0.798795  1
  Ho  Ho3  1  0.961454  0.760248  0.201205  1
  Ho  Ho4  1  0.182609  0.284498  0.467109  1
  Ho  Ho5  1  0.817391  0.715502  0.532891  1
  Ho  Ho6  1  0.182609  0.715502  0.898112  1
  Ho  Ho7  1  0.817391  0.284498  0.101888  1
  Ho  Ho8  1  0.330973  0.647393  0.316420  1
  Ho  Ho9  1  0.669027  0.352607  0.683580  1
  Ho  Ho10  1  0.330973  0.014553  0.683580  1
  Ho  Ho11  1  0.669027  0.985447  0.316420  1
  Tc  Tc12  1  0.325612  0.000000  0.325612  1
  Tc  Tc13  1  0.674388  0.000000  0.674388  1
  Ni  Ni14  1  0.117282  0.617282  0.500000  1
  Ni  Ni15  1  0.882718  0.382718  0.500000  1
  Sn  Sn16  1  0.000000  0.000000  0.000000  1
  Pb  Pb17  1  0.500000  0.500000  0.000000  1
