# generated using pymatgen
data_NaSm(TcH9)2
_symmetry_space_group_name_H-M   'P 1'
_cell_length_a   5.08209129
_cell_length_b   5.08202182
_cell_length_c   8.54974049
_cell_angle_alpha   91.05255271
_cell_angle_beta   88.94804756
_cell_angle_gamma   123.08752229
_symmetry_Int_Tables_number   1
_chemical_formula_structural   NaSm(TcH9)2
_chemical_formula_sum   'Na1 Sm1 Tc2 H18'
_cell_volume   184.96817714
_cell_formula_units_Z   1
loop_
 _symmetry_equiv_pos_site_id
 _symmetry_equiv_pos_as_xyz
  1  'x, y, z'
loop_
 _atom_site_type_symbol
 _atom_site_label
 _atom_site_symmetry_multiplicity
 _atom_site_fract_x
 _atom_site_fract_y
 _atom_site_fract_z
 _atom_site_occupancy
  Na  Na0  1  0.000000  0.000000  0.000000  1
  Sm  Sm1  1  0.000000  0.000000  0.500000  1
  Tc  Tc2  1  0.332584  0.667462  0.729692  1
  Tc  Tc3  1  0.667416  0.332538  0.270308  1
  H  H4  1  0.404360  0.595671  0.544722  1
  H  H5  1  0.595640  0.404329  0.455278  1
  H  H6  1  0.411630  0.588390  0.901267  1
  H  H7  1  0.588370  0.411610  0.098733  1
  H  H8  1  0.488396  0.965521  0.857551  1
  H  H9  1  0.965479  0.488327  0.142453  1
  H  H10  1  0.549144  0.014644  0.638205  1
  H  H11  1  0.014601  0.549062  0.361804  1
  H  H12  1  0.511604  0.034479  0.142449  1
  H  H13  1  0.034521  0.511673  0.857547  1
  H  H14  1  0.450856  0.985356  0.361795  1
  H  H15  1  0.985399  0.450938  0.638196  1
  H  H16  1  0.707350  0.754854  0.735000  1
  H  H17  1  0.754865  0.707334  0.265002  1
  H  H18  1  0.292650  0.245146  0.265000  1
  H  H19  1  0.245135  0.292666  0.734998  1
  H  H20  1  0.145967  0.854149  0.737027  1
  H  H21  1  0.854033  0.145851  0.262973  1
