# generated using pymatgen
data_Tb3YOs7W
_symmetry_space_group_name_H-M   'P 1'
_cell_length_a   5.30897525
_cell_length_b   5.30897508
_cell_length_c   8.91823143
_cell_angle_alpha   89.96953125
_cell_angle_beta   90.03046845
_cell_angle_gamma   117.86094245
_symmetry_Int_Tables_number   1
_chemical_formula_structural   Tb3YOs7W
_chemical_formula_sum   'Tb3 Y1 Os7 W1'
_cell_volume   222.22543859
_cell_formula_units_Z   1
loop_
 _symmetry_equiv_pos_site_id
 _symmetry_equiv_pos_as_xyz
  1  'x, y, z'
loop_
 _atom_site_type_symbol
 _atom_site_label
 _atom_site_symmetry_multiplicity
 _atom_site_fract_x
 _atom_site_fract_y
 _atom_site_fract_z
 _atom_site_occupancy
  Tb  Tb0  1  0.328499  0.671501  0.438094  1
  Tb  Tb1  1  0.665787  0.334213  0.566464  1
  Tb  Tb2  1  0.665863  0.334137  0.933433  1
  Y  Y3  1  0.328513  0.671487  0.062430  1
  Os  Os4  1  0.991891  0.008109  0.502320  1
  Os  Os5  1  0.992096  0.007904  0.997459  1
  Os  Os6  1  0.824613  0.648752  0.249607  1
  Os  Os7  1  0.351248  0.175387  0.249607  1
  Os  Os8  1  0.178577  0.821423  0.750276  1
  Os  Os9  1  0.171932  0.337017  0.750180  1
  Os  Os10  1  0.662983  0.828068  0.750180  1
  W  W11  1  0.837999  0.162001  0.249949  1
