# generated using pymatgen
data_Ho8Tm4InCo4Ni
_symmetry_space_group_name_H-M   'P 1'
_cell_length_a   8.20380907
_cell_length_b   8.20380288
_cell_length_c   8.20380922
_cell_angle_alpha   110.82285223
_cell_angle_beta   110.76621911
_cell_angle_gamma   106.85585179
_symmetry_Int_Tables_number   1
_chemical_formula_structural   Ho8Tm4InCo4Ni
_chemical_formula_sum   'Ho8 Tm4 In1 Co4 Ni1'
_cell_volume   424.37410697
_cell_formula_units_Z   1
loop_
 _symmetry_equiv_pos_site_id
 _symmetry_equiv_pos_as_xyz
  1  'x, y, z'
loop_
 _atom_site_type_symbol
 _atom_site_label
 _atom_site_symmetry_multiplicity
 _atom_site_fract_x
 _atom_site_fract_y
 _atom_site_fract_z
 _atom_site_occupancy
  Ho  Ho0  1  0.185880  0.290708  0.476587  1
  Ho  Ho1  1  0.814120  0.709292  0.523413  1
  Ho  Ho2  1  0.185879  0.709292  0.895173  1
  Ho  Ho3  1  0.814121  0.290708  0.104827  1
  Ho  Ho4  1  0.408926  0.213507  0.195417  1
  Ho  Ho5  1  0.591074  0.786493  0.804583  1
  Ho  Ho6  1  0.018090  0.213507  0.804580  1
  Ho  Ho7  1  0.981910  0.786493  0.195420  1
  Tm  Tm8  1  0.315623  0.620696  0.305073  1
  Tm  Tm9  1  0.684377  0.379304  0.694927  1
  Tm  Tm10  1  0.315622  0.010548  0.694928  1
  Tm  Tm11  1  0.684378  0.989452  0.305072  1
  In  In12  1  0.500000  0.500000  0.000000  1
  Co  Co13  1  0.113028  0.613028  0.500000  1
  Co  Co14  1  0.886972  0.386972  0.500000  1
  Co  Co15  1  0.377394  0.000000  0.377394  1
  Co  Co16  1  0.622606  0.000000  0.622606  1
  Ni  Ni17  1  0.000000  0.000000  0.000000  1
