# generated using pymatgen
data_Y6GaCoRh
_symmetry_space_group_name_H-M   'P 1'
_cell_length_a   8.37875333
_cell_length_b   8.37875372
_cell_length_c   8.37875309
_cell_angle_alpha   106.95654157
_cell_angle_beta   109.57351873
_cell_angle_gamma   111.92160841
_symmetry_Int_Tables_number   1
_chemical_formula_structural   Y6GaCoRh
_chemical_formula_sum   'Y12 Ga2 Co2 Rh2'
_cell_volume   451.96068788
_cell_formula_units_Z   2
loop_
 _symmetry_equiv_pos_site_id
 _symmetry_equiv_pos_as_xyz
  1  'x, y, z'
loop_
 _atom_site_type_symbol
 _atom_site_label
 _atom_site_symmetry_multiplicity
 _atom_site_fract_x
 _atom_site_fract_y
 _atom_site_fract_z
 _atom_site_occupancy
  Y  Y0  1  0.693610  0.256477  0.950087  1
  Y  Y1  1  0.306390  0.743523  0.049913  1
  Y  Y2  1  0.693610  0.743523  0.437134  1
  Y  Y3  1  0.306390  0.256477  0.562866  1
  Y  Y4  1  0.810808  0.130740  0.319932  1
  Y  Y5  1  0.810808  0.490876  0.680068  1
  Y  Y6  1  0.189192  0.869260  0.680068  1
  Y  Y7  1  0.189192  0.509124  0.319932  1
  Y  Y8  1  0.601961  0.780929  0.821031  1
  Y  Y9  1  0.959898  0.780929  0.178969  1
  Y  Y10  1  0.040102  0.219071  0.821031  1
  Y  Y11  1  0.398039  0.219071  0.178969  1
  Ga  Ga12  1  0.500000  0.500000  0.000000  1
  Ga  Ga13  1  0.500000  0.000000  0.500000  1
  Co  Co14  1  0.000000  0.111905  0.111905  1
  Co  Co15  1  0.000000  0.888095  0.888095  1
  Rh  Rh16  1  0.838016  0.500000  0.338016  1
  Rh  Rh17  1  0.161984  0.500000  0.661984  1
