# generated using pymatgen
data_Ta9V3S2
_symmetry_space_group_name_H-M   'P 1'
_cell_length_a   5.08388983
_cell_length_b   7.52052545
_cell_length_c   7.56668776
_cell_angle_alpha   59.49443081
_cell_angle_beta   68.67795904
_cell_angle_gamma   77.18914684
_symmetry_Int_Tables_number   1
_chemical_formula_structural   Ta9V3S2
_chemical_formula_sum   'Ta9 V3 S2'
_cell_volume   231.94583547
_cell_formula_units_Z   1
loop_
 _symmetry_equiv_pos_site_id
 _symmetry_equiv_pos_as_xyz
  1  'x, y, z'
loop_
 _atom_site_type_symbol
 _atom_site_label
 _atom_site_symmetry_multiplicity
 _atom_site_fract_x
 _atom_site_fract_y
 _atom_site_fract_z
 _atom_site_occupancy
  Ta  Ta0  1  0.777686  0.593762  0.183831  1
  Ta  Ta1  1  0.047402  0.137381  0.280737  1
  Ta  Ta2  1  0.163195  0.696859  0.365635  1
  Ta  Ta3  1  0.577000  0.853668  0.420835  1
  Ta  Ta4  1  0.427565  0.148063  0.577207  1
  Ta  Ta5  1  0.837073  0.302524  0.633671  1
  Ta  Ta6  1  0.948771  0.867859  0.712054  1
  Ta  Ta7  1  0.217281  0.403934  0.821722  1
  Ta  Ta8  1  0.365516  0.716206  0.925254  1
  V  V9  1  0.993851  0.004985  0.000853  1
  V  V10  1  0.499516  0.003319  0.000527  1
  V  V11  1  0.632407  0.283191  0.073202  1
  S  S12  1  0.248304  0.411674  0.276495  1
  S  S13  1  0.764434  0.576576  0.727976  1
