# generated using pymatgen
data_Pr16Ho3ErPb16
_symmetry_space_group_name_H-M   'P 1'
_cell_length_a   8.40179133
_cell_length_b   16.25266000
_cell_length_c   8.52520363
_cell_angle_alpha   90.00000000
_cell_angle_beta   90.03805717
_cell_angle_gamma   90.00000000
_symmetry_Int_Tables_number   1
_chemical_formula_structural   Pr16Ho3ErPb16
_chemical_formula_sum   'Pr16 Ho3 Er1 Pb16'
_cell_volume   1164.12872731
_cell_formula_units_Z   1
loop_
 _symmetry_equiv_pos_site_id
 _symmetry_equiv_pos_as_xyz
  1  'x, y, z'
loop_
 _atom_site_type_symbol
 _atom_site_label
 _atom_site_symmetry_multiplicity
 _atom_site_fract_x
 _atom_site_fract_y
 _atom_site_fract_z
 _atom_site_occupancy
  Pr  Pr0  1  0.625249  0.619187  0.157212  1
  Pr  Pr1  1  0.124696  0.880614  0.343001  1
  Pr  Pr2  1  0.374907  0.119169  0.842702  1
  Pr  Pr3  1  0.875134  0.380707  0.657073  1
  Pr  Pr4  1  0.374907  0.380831  0.842702  1
  Pr  Pr5  1  0.875134  0.119293  0.657073  1
  Pr  Pr6  1  0.625249  0.880813  0.157212  1
  Pr  Pr7  1  0.124696  0.619386  0.343001  1
  Pr  Pr8  1  0.468069  0.600175  0.678551  1
  Pr  Pr9  1  0.968307  0.899912  0.821580  1
  Pr  Pr10  1  0.531808  0.100056  0.321451  1
  Pr  Pr11  1  0.031761  0.399856  0.178331  1
  Pr  Pr12  1  0.531808  0.399944  0.321451  1
  Pr  Pr13  1  0.031761  0.100144  0.178331  1
  Pr  Pr14  1  0.468069  0.899825  0.678551  1
  Pr  Pr15  1  0.968307  0.600088  0.821580  1
  Ho  Ho16  1  0.293093  0.750000  0.003754  1
  Ho  Ho17  1  0.207106  0.250000  0.503722  1
  Ho  Ho18  1  0.707018  0.250000  0.996300  1
  Er  Er19  1  0.792411  0.750000  0.495902  1
  Pb  Pb20  1  0.718189  0.453332  0.968196  1
  Pb  Pb21  1  0.217659  0.046138  0.530992  1
  Pb  Pb22  1  0.282174  0.953793  0.031782  1
  Pb  Pb23  1  0.781712  0.546225  0.468866  1
  Pb  Pb24  1  0.282174  0.546207  0.031782  1
  Pb  Pb25  1  0.781712  0.953775  0.468866  1
  Pb  Pb26  1  0.718189  0.046668  0.968196  1
  Pb  Pb27  1  0.217659  0.453862  0.530992  1
  Pb  Pb28  1  0.430941  0.750000  0.375821  1
  Pb  Pb29  1  0.931332  0.750000  0.124762  1
  Pb  Pb30  1  0.569566  0.250000  0.624560  1
  Pb  Pb31  1  0.069259  0.250000  0.875670  1
  Pb  Pb32  1  0.658842  0.750000  0.846721  1
  Pb  Pb33  1  0.158228  0.750000  0.653420  1
  Pb  Pb34  1  0.341078  0.250000  0.153175  1
  Pb  Pb35  1  0.841803  0.250000  0.346716  1
