# generated using pymatgen
data_Zr2Fe7Co2Ni3P7
_symmetry_space_group_name_H-M   'P 1'
_cell_length_a   8.92027416
_cell_length_b   8.98221305
_cell_length_c   3.59423500
_cell_angle_alpha   90.00000000
_cell_angle_beta   90.00000000
_cell_angle_gamma   120.44678066
_symmetry_Int_Tables_number   1
_chemical_formula_structural   Zr2Fe7Co2Ni3P7
_chemical_formula_sum   'Zr2 Fe7 Co2 Ni3 P7'
_cell_volume   248.27087643
_cell_formula_units_Z   1
loop_
 _symmetry_equiv_pos_site_id
 _symmetry_equiv_pos_as_xyz
  1  'x, y, z'
loop_
 _atom_site_type_symbol
 _atom_site_label
 _atom_site_symmetry_multiplicity
 _atom_site_fract_x
 _atom_site_fract_y
 _atom_site_fract_z
 _atom_site_occupancy
  Zr  Zr0  1  0.996228  0.001532  0.000000  1
  Zr  Zr1  1  0.336916  0.664334  0.500000  1
  Fe  Fe2  1  0.783847  0.175063  0.000000  1
  Fe  Fe3  1  0.389061  0.214178  0.000000  1
  Fe  Fe4  1  0.713473  0.943133  0.500000  1
  Fe  Fe5  1  0.227595  0.284705  0.500000  1
  Fe  Fe6  1  0.889627  0.429232  0.500000  1
  Fe  Fe7  1  0.544517  0.116366  0.500000  1
  Fe  Fe8  1  0.571788  0.457686  0.500000  1
  Co  Co9  1  0.603601  0.700998  0.000000  1
  Co  Co10  1  0.827620  0.611776  0.000000  1
  Ni  Ni11  1  0.100701  0.397296  0.000000  1
  Ni  Ni12  1  0.297135  0.897814  0.000000  1
  Ni  Ni13  1  0.055704  0.775861  0.500000  1
  P  P14  1  0.078077  0.627276  0.000000  1
  P  P15  1  0.555196  0.919104  0.000000  1
  P  P16  1  0.370886  0.446071  0.000000  1
  P  P17  1  0.778761  0.738218  0.500000  1
  P  P18  1  0.949351  0.210480  0.500000  1
  P  P19  1  0.262650  0.055337  0.500000  1
  P  P20  1  0.667266  0.333539  0.000000  1
