# generated using pymatgen
data_Yb2Th(ZnPt)4
_symmetry_space_group_name_H-M   'P 1'
_cell_length_a   8.27973948
_cell_length_b   8.27973993
_cell_length_c   8.27974000
_cell_angle_alpha   151.62052983
_cell_angle_beta   126.78983463
_cell_angle_gamma   61.39944279
_symmetry_Int_Tables_number   1
_chemical_formula_structural   Yb2Th(ZnPt)4
_chemical_formula_sum   'Yb2 Th1 Zn4 Pt4'
_cell_volume   214.31842563
_cell_formula_units_Z   1
loop_
 _symmetry_equiv_pos_site_id
 _symmetry_equiv_pos_as_xyz
  1  'x, y, z'
loop_
 _atom_site_type_symbol
 _atom_site_label
 _atom_site_symmetry_multiplicity
 _atom_site_fract_x
 _atom_site_fract_y
 _atom_site_fract_z
 _atom_site_occupancy
  Yb  Yb0  1  0.874989  0.874989  0.000000  1
  Yb  Yb1  1  0.125011  0.125011  0.000000  1
  Th  Th2  1  0.500000  0.000000  0.500000  1
  Zn  Zn3  1  0.474761  0.677362  0.797400  1
  Zn  Zn4  1  0.879962  0.677362  0.202600  1
  Zn  Zn5  1  0.120038  0.322638  0.797400  1
  Zn  Zn6  1  0.525239  0.322638  0.202600  1
  Pt  Pt7  1  0.283288  0.783288  0.500000  1
  Pt  Pt8  1  0.716712  0.216712  0.500000  1
  Pt  Pt9  1  0.794638  0.500000  0.294638  1
  Pt  Pt10  1  0.205362  0.500000  0.705362  1
