# generated using pymatgen
data_NbReSe4
_symmetry_space_group_name_H-M   'P 1'
_cell_length_a   3.35448800
_cell_length_b   5.80729451
_cell_length_c   7.68434573
_cell_angle_alpha   74.68163962
_cell_angle_beta   90.00000000
_cell_angle_gamma   90.00000000
_symmetry_Int_Tables_number   1
_chemical_formula_structural   NbReSe4
_chemical_formula_sum   'Nb1 Re1 Se4'
_cell_volume   144.37665613
_cell_formula_units_Z   1
loop_
 _symmetry_equiv_pos_site_id
 _symmetry_equiv_pos_as_xyz
  1  'x, y, z'
loop_
 _atom_site_type_symbol
 _atom_site_label
 _atom_site_symmetry_multiplicity
 _atom_site_fract_x
 _atom_site_fract_y
 _atom_site_fract_z
 _atom_site_occupancy
  Nb  Nb0  1  0.500000  0.497956  0.000846  1
  Re  Re1  1  0.000000  0.003265  0.000577  1
  Se  Se2  1  0.000000  0.406001  0.769295  1
  Se  Se3  1  0.500000  0.918347  0.776930  1
  Se  Se4  1  0.500000  0.762556  0.224252  1
  Se  Se5  1  0.000000  0.243874  0.232100  1
