# generated using pymatgen
data_Sr6ZnCo2IrO12
_symmetry_space_group_name_H-M   'P 1'
_cell_length_a   6.60122867
_cell_length_b   6.82324976
_cell_length_c   6.71931297
_cell_angle_alpha   91.34760418
_cell_angle_beta   92.83926226
_cell_angle_gamma   92.36826746
_symmetry_Int_Tables_number   1
_chemical_formula_structural   Sr6ZnCo2IrO12
_chemical_formula_sum   'Sr6 Zn1 Co2 Ir1 O12'
_cell_volume   301.92133229
_cell_formula_units_Z   1
loop_
 _symmetry_equiv_pos_site_id
 _symmetry_equiv_pos_as_xyz
  1  'x, y, z'
loop_
 _atom_site_type_symbol
 _atom_site_label
 _atom_site_symmetry_multiplicity
 _atom_site_fract_x
 _atom_site_fract_y
 _atom_site_fract_z
 _atom_site_occupancy
  Sr  Sr0  1  0.882432  0.257968  0.611063  1
  Sr  Sr1  1  0.261934  0.606057  0.881228  1
  Sr  Sr2  1  0.611892  0.884708  0.261858  1
  Sr  Sr3  1  0.736615  0.394659  0.119533  1
  Sr  Sr4  1  0.389431  0.114857  0.739082  1
  Sr  Sr5  1  0.118192  0.740104  0.388785  1
  Zn  Zn6  1  0.753227  0.718979  0.733419  1
  Co  Co7  1  0.499917  0.499151  0.499143  1
  Co  Co8  1  0.242810  0.272434  0.266868  1
  Ir  Ir9  1  0.001080  0.002438  0.000499  1
  O  O10  1  0.218481  0.413893  0.542814  1
  O  O11  1  0.406453  0.549735  0.224521  1
  O  O12  1  0.531225  0.223136  0.402626  1
  O  O13  1  0.899497  0.720109  0.029596  1
  O  O14  1  0.721524  0.063211  0.929136  1
  O  O15  1  0.028377  0.911749  0.713181  1
  O  O16  1  0.782817  0.583471  0.452701  1
  O  O17  1  0.591464  0.446224  0.775308  1
  O  O18  1  0.467368  0.777037  0.596214  1
  O  O19  1  0.099053  0.285596  0.972241  1
  O  O20  1  0.281464  0.940050  0.072180  1
  O  O21  1  0.974749  0.094432  0.288006  1
