# generated using pymatgen
data_Tm4CrFe19P12
_symmetry_space_group_name_H-M   'P 1'
_cell_length_a   3.64219700
_cell_length_b   10.25501142
_cell_length_c   11.80128647
_cell_angle_alpha   89.96749502
_cell_angle_beta   90.00000000
_cell_angle_gamma   90.00000000
_symmetry_Int_Tables_number   1
_chemical_formula_structural   Tm4CrFe19P12
_chemical_formula_sum   'Tm4 Cr1 Fe19 P12'
_cell_volume   440.78708716
_cell_formula_units_Z   1
loop_
 _symmetry_equiv_pos_site_id
 _symmetry_equiv_pos_as_xyz
  1  'x, y, z'
loop_
 _atom_site_type_symbol
 _atom_site_label
 _atom_site_symmetry_multiplicity
 _atom_site_fract_x
 _atom_site_fract_y
 _atom_site_fract_z
 _atom_site_occupancy
  Tm  Tm0  1  0.250000  0.580882  0.704300  1
  Tm  Tm1  1  0.250000  0.919450  0.204754  1
  Tm  Tm2  1  0.750000  0.419788  0.296033  1
  Tm  Tm3  1  0.750000  0.080659  0.794784  1
  Cr  Cr4  1  0.250000  0.703565  0.989546  1
  Fe  Fe5  1  0.250000  0.791787  0.488641  1
  Fe  Fe6  1  0.750000  0.292686  0.011718  1
  Fe  Fe7  1  0.750000  0.208093  0.511247  1
  Fe  Fe8  1  0.250000  0.405376  0.489629  1
  Fe  Fe9  1  0.250000  0.095086  0.989814  1
  Fe  Fe10  1  0.750000  0.594117  0.510501  1
  Fe  Fe11  1  0.750000  0.905894  0.009856  1
  Fe  Fe12  1  0.250000  0.219902  0.176434  1
  Fe  Fe13  1  0.250000  0.280833  0.676401  1
  Fe  Fe14  1  0.750000  0.782167  0.822891  1
  Fe  Fe15  1  0.750000  0.719324  0.324841  1
  Fe  Fe16  1  0.250000  0.876499  0.700625  1
  Fe  Fe17  1  0.250000  0.624345  0.202242  1
  Fe  Fe18  1  0.750000  0.123944  0.298982  1
  Fe  Fe19  1  0.750000  0.375739  0.798938  1
  Fe  Fe20  1  0.250000  0.462045  0.932456  1
  Fe  Fe21  1  0.250000  0.037010  0.432284  1
  Fe  Fe22  1  0.750000  0.534225  0.066887  1
  Fe  Fe23  1  0.750000  0.963501  0.567130  1
  P  P24  1  0.250000  0.422371  0.114079  1
  P  P25  1  0.250000  0.078070  0.612878  1
  P  P26  1  0.750000  0.578329  0.886080  1
  P  P27  1  0.750000  0.921836  0.386724  1
  P  P28  1  0.250000  0.263941  0.870993  1
  P  P29  1  0.250000  0.234850  0.370957  1
  P  P30  1  0.750000  0.734004  0.131552  1
  P  P31  1  0.750000  0.765112  0.628127  1
  P  P32  1  0.250000  0.600702  0.395399  1
  P  P33  1  0.250000  0.903259  0.893688  1
  P  P34  1  0.750000  0.399541  0.603853  1
  P  P35  1  0.750000  0.101069  0.104737  1
