# generated using pymatgen
data_Na4InGa11S20
_symmetry_space_group_name_H-M   'P 1'
_cell_length_a   9.30770953
_cell_length_b   9.30654651
_cell_length_c   9.37801400
_cell_angle_alpha   91.07653401
_cell_angle_beta   90.94259612
_cell_angle_gamma   90.58011527
_symmetry_Int_Tables_number   1
_chemical_formula_structural   Na4InGa11S20
_chemical_formula_sum   'Na4 In1 Ga11 S20'
_cell_volume   812.05072368
_cell_formula_units_Z   1
loop_
 _symmetry_equiv_pos_site_id
 _symmetry_equiv_pos_as_xyz
  1  'x, y, z'
loop_
 _atom_site_type_symbol
 _atom_site_label
 _atom_site_symmetry_multiplicity
 _atom_site_fract_x
 _atom_site_fract_y
 _atom_site_fract_z
 _atom_site_occupancy
  Na  Na0  1  0.259361  0.001789  0.742330  1
  Na  Na1  1  0.743344  0.255809  0.999463  1
  Na  Na2  1  0.999767  0.742080  0.253049  1
  Na  Na3  1  0.498566  0.499747  0.499127  1
  In  In4  1  0.844474  0.875053  0.575800  1
  Ga  Ga5  1  0.570704  0.837382  0.882689  1
  Ga  Ga6  1  0.878893  0.572895  0.845295  1
  Ga  Ga7  1  0.162571  0.426741  0.120571  1
  Ga  Ga8  1  0.125638  0.163093  0.424848  1
  Ga  Ga9  1  0.427465  0.121482  0.160316  1
  Ga  Ga10  1  0.741916  0.165943  0.345582  1
  Ga  Ga11  1  0.342410  0.745409  0.164388  1
  Ga  Ga12  1  0.162897  0.345065  0.744293  1
  Ga  Ga13  1  0.255565  0.655816  0.836947  1
  Ga  Ga14  1  0.833918  0.259009  0.653807  1
  Ga  Ga15  1  0.653953  0.832257  0.252937  1
  S  S16  1  0.180391  0.819384  0.999901  1
  S  S17  1  0.817849  0.998216  0.186548  1
  S  S18  1  0.181542  0.181729  0.179923  1
  S  S19  1  0.818775  0.818577  0.837292  1
  S  S20  1  0.999023  0.180348  0.814032  1
  S  S21  1  0.929854  0.496387  0.072394  1
  S  S22  1  0.090132  0.929344  0.490659  1
  S  S23  1  0.499851  0.070200  0.930545  1
  S  S24  1  0.743186  0.682914  0.417508  1
  S  S25  1  0.430181  0.746195  0.699017  1
  S  S26  1  0.697282  0.433802  0.748408  1
  S  S27  1  0.252911  0.570699  0.301836  1
  S  S28  1  0.304015  0.258458  0.570397  1
  S  S29  1  0.569550  0.305023  0.250065  1
  S  S30  1  0.672682  0.082705  0.570189  1
  S  S31  1  0.566121  0.679139  0.070905  1
  S  S32  1  0.069288  0.572708  0.685852  1
  S  S33  1  0.317157  0.428851  0.927251  1
  S  S34  1  0.928739  0.316806  0.429552  1
  S  S35  1  0.430025  0.928945  0.316280  1
