# generated using pymatgen
data_Ho4Sc4Mn(B8Mo)3
_symmetry_space_group_name_H-M   'P 1'
_cell_length_a   3.49566000
_cell_length_b   9.09919472
_cell_length_c   11.47606740
_cell_angle_alpha   89.93642710
_cell_angle_beta   90.00000000
_cell_angle_gamma   90.00000000
_symmetry_Int_Tables_number   1
_chemical_formula_structural   Ho4Sc4Mn(B8Mo)3
_chemical_formula_sum   'Ho4 Sc4 Mn1 B24 Mo3'
_cell_volume   365.02698140
_cell_formula_units_Z   1
loop_
 _symmetry_equiv_pos_site_id
 _symmetry_equiv_pos_as_xyz
  1  'x, y, z'
loop_
 _atom_site_type_symbol
 _atom_site_label
 _atom_site_symmetry_multiplicity
 _atom_site_fract_x
 _atom_site_fract_y
 _atom_site_fract_z
 _atom_site_occupancy
  Ho  Ho0  1  0.500000  0.318741  0.411741  1
  Ho  Ho1  1  0.500000  0.679796  0.585289  1
  Ho  Ho2  1  0.500000  0.179047  0.917917  1
  Ho  Ho3  1  0.500000  0.824317  0.086875  1
  Sc  Sc4  1  0.500000  0.439852  0.129260  1
  Sc  Sc5  1  0.500000  0.554272  0.873232  1
  Sc  Sc6  1  0.500000  0.054965  0.627273  1
  Sc  Sc7  1  0.500000  0.948022  0.368353  1
  Mn  Mn8  1  0.500000  0.141916  0.182236  1
  B  B9  1  0.000000  0.096106  0.471524  1
  B  B10  1  0.000000  0.905156  0.525027  1
  B  B11  1  0.000000  0.402162  0.975550  1
  B  B12  1  0.000000  0.593812  0.026774  1
  B  B13  1  0.000000  0.129676  0.314382  1
  B  B14  1  0.000000  0.871424  0.680577  1
  B  B15  1  0.000000  0.370016  0.820450  1
  B  B16  1  0.000000  0.628805  0.179522  1
  B  B17  1  0.000000  0.057339  0.070317  1
  B  B18  1  0.000000  0.949135  0.936745  1
  B  B19  1  0.000000  0.447584  0.565040  1
  B  B20  1  0.000000  0.552399  0.433717  1
  B  B21  1  0.000000  0.476636  0.284733  1
  B  B22  1  0.000000  0.521556  0.715024  1
  B  B23  1  0.000000  0.021881  0.786222  1
  B  B24  1  0.000000  0.986314  0.212670  1
  B  B25  1  0.000000  0.250977  0.084117  1
  B  B26  1  0.000000  0.742637  0.922135  1
  B  B27  1  0.000000  0.243141  0.578201  1
  B  B28  1  0.000000  0.757649  0.419746  1
  B  B29  1  0.000000  0.291294  0.234145  1
  B  B30  1  0.000000  0.702471  0.764015  1
  B  B31  1  0.000000  0.201908  0.736470  1
  B  B32  1  0.000000  0.799947  0.262229  1
  Mo  Mo33  1  0.500000  0.859093  0.819826  1
  Mo  Mo34  1  0.500000  0.358162  0.681423  1
  Mo  Mo35  1  0.500000  0.641789  0.317242  1
