# generated using pymatgen
data_DyTm3ZnCo
_symmetry_space_group_name_H-M   'P 1'
_cell_length_a   9.23865308
_cell_length_b   9.23865294
_cell_length_c   9.23865300
_cell_angle_alpha   59.99999622
_cell_angle_beta   59.99999671
_cell_angle_gamma   59.99999318
_symmetry_Int_Tables_number   1
_chemical_formula_structural   DyTm3ZnCo
_chemical_formula_sum   'Dy4 Tm12 Zn4 Co4'
_cell_volume   557.58479755
_cell_formula_units_Z   4
loop_
 _symmetry_equiv_pos_site_id
 _symmetry_equiv_pos_as_xyz
  1  'x, y, z'
loop_
 _atom_site_type_symbol
 _atom_site_label
 _atom_site_symmetry_multiplicity
 _atom_site_fract_x
 _atom_site_fract_y
 _atom_site_fract_z
 _atom_site_occupancy
  Dy  Dy0  1  0.350836  0.350836  0.350836  1
  Dy  Dy1  1  0.350836  0.350836  0.947492  1
  Dy  Dy2  1  0.350836  0.947492  0.350836  1
  Dy  Dy3  1  0.947492  0.350836  0.350836  1
  Tm  Tm4  1  0.810094  0.189906  0.189906  1
  Tm  Tm5  1  0.189906  0.810094  0.810094  1
  Tm  Tm6  1  0.189906  0.810094  0.189906  1
  Tm  Tm7  1  0.810094  0.189906  0.810094  1
  Tm  Tm8  1  0.189906  0.189906  0.810094  1
  Tm  Tm9  1  0.810094  0.810094  0.189906  1
  Tm  Tm10  1  0.937295  0.562705  0.562705  1
  Tm  Tm11  1  0.562705  0.937295  0.937295  1
  Tm  Tm12  1  0.562705  0.937295  0.562705  1
  Tm  Tm13  1  0.937295  0.562705  0.937295  1
  Tm  Tm14  1  0.562705  0.562705  0.937295  1
  Tm  Tm15  1  0.937295  0.937295  0.562705  1
  Zn  Zn16  1  0.577646  0.577646  0.577646  1
  Zn  Zn17  1  0.577646  0.577646  0.267063  1
  Zn  Zn18  1  0.577646  0.267063  0.577646  1
  Zn  Zn19  1  0.267063  0.577646  0.577646  1
  Co  Co20  1  0.141669  0.141669  0.141669  1
  Co  Co21  1  0.141669  0.141669  0.574996  1
  Co  Co22  1  0.141669  0.574996  0.141669  1
  Co  Co23  1  0.574996  0.141669  0.141669  1
