# generated using pymatgen
data_YbHoHf2(Al8Pt3)3
_symmetry_space_group_name_H-M   'P 1'
_cell_length_a   7.49521046
_cell_length_b   7.49481495
_cell_length_c   13.04818824
_cell_angle_alpha   84.54925059
_cell_angle_beta   100.95692157
_cell_angle_gamma   119.96070249
_symmetry_Int_Tables_number   1
_chemical_formula_structural   YbHoHf2(Al8Pt3)3
_chemical_formula_sum   'Yb1 Ho1 Hf2 Al24 Pt9'
_cell_volume   623.45821120
_cell_formula_units_Z   1
loop_
 _symmetry_equiv_pos_site_id
 _symmetry_equiv_pos_as_xyz
  1  'x, y, z'
loop_
 _atom_site_type_symbol
 _atom_site_label
 _atom_site_symmetry_multiplicity
 _atom_site_fract_x
 _atom_site_fract_y
 _atom_site_fract_z
 _atom_site_occupancy
  Yb  Yb0  1  0.232127  0.498274  0.191923  1
  Ho  Ho1  1  0.768205  0.501746  0.808372  1
  Hf  Hf2  1  0.437559  0.831389  0.808124  1
  Hf  Hf3  1  0.562463  0.168436  0.192219  1
  Al  Al4  1  0.482847  0.163810  0.943200  1
  Al  Al5  1  0.516807  0.835871  0.056949  1
  Al  Al6  1  0.020490  0.167463  0.562229  1
  Al  Al7  1  0.979500  0.832733  0.437750  1
  Al  Al8  1  0.353670  0.833356  0.560000  1
  Al  Al9  1  0.646437  0.166444  0.439789  1
  Al  Al10  1  0.614703  0.835263  0.326148  1
  Al  Al11  1  0.384148  0.164222  0.673700  1
  Al  Al12  1  0.058753  0.495209  0.674010  1
  Al  Al13  1  0.941903  0.504431  0.325809  1
  Al  Al14  1  0.729637  0.839832  0.673052  1
  Al  Al15  1  0.270537  0.161277  0.326714  1
  Al  Al16  1  0.149856  0.502941  0.943392  1
  Al  Al17  1  0.850744  0.496612  0.057824  1
  Al  Al18  1  0.812999  0.832093  0.950576  1
  Al  Al19  1  0.187306  0.168235  0.049830  1
  Al  Al20  1  0.313905  0.500809  0.440102  1
  Al  Al21  1  0.685616  0.499046  0.559189  1
  Al  Al22  1  0.109047  0.843686  0.183100  1
  Al  Al23  1  0.891793  0.157789  0.816735  1
  Al  Al24  1  0.307082  0.374136  0.815544  1
  Al  Al25  1  0.693376  0.625055  0.184241  1
  Al  Al26  1  0.109778  0.960149  0.816149  1
  Al  Al27  1  0.889128  0.039777  0.183707  1
  Pt  Pt28  1  0.388910  0.510159  0.639579  1
  Pt  Pt29  1  0.612447  0.490534  0.361049  1
  Pt  Pt30  1  0.170574  0.827967  0.998825  1
  Pt  Pt31  1  0.828429  0.171774  0.999642  1
  Pt  Pt32  1  0.296480  0.834387  0.361141  1
  Pt  Pt33  1  0.703033  0.165868  0.639649  1
  Pt  Pt34  1  0.046634  0.824139  0.638170  1
  Pt  Pt35  1  0.952841  0.174761  0.362431  1
  Pt  Pt36  1  0.500239  0.500324  0.999137  1
