# generated using pymatgen
data_La5(Hg2Pd)2
_symmetry_space_group_name_H-M   'P 1'
_cell_length_a   3.87947400
_cell_length_b   8.33582600
_cell_length_c   18.73199500
_cell_angle_alpha   90.00000000
_cell_angle_beta   90.00000000
_cell_angle_gamma   90.00000000
_symmetry_Int_Tables_number   1
_chemical_formula_structural   La5(Hg2Pd)2
_chemical_formula_sum   'La10 Hg8 Pd4'
_cell_volume   605.76687256
_cell_formula_units_Z   2
loop_
 _symmetry_equiv_pos_site_id
 _symmetry_equiv_pos_as_xyz
  1  'x, y, z'
loop_
 _atom_site_type_symbol
 _atom_site_label
 _atom_site_symmetry_multiplicity
 _atom_site_fract_x
 _atom_site_fract_y
 _atom_site_fract_z
 _atom_site_occupancy
  La  La0  1  0.000000  0.500000  0.500000  1
  La  La1  1  0.000000  0.000000  0.000000  1
  La  La2  1  0.000000  0.732754  0.285416  1
  La  La3  1  0.000000  0.267246  0.714585  1
  La  La4  1  0.000000  0.767246  0.785415  1
  La  La5  1  0.000000  0.232754  0.214584  1
  La  La6  1  0.000000  0.616636  0.084150  1
  La  La7  1  0.000000  0.383364  0.915850  1
  La  La8  1  0.000000  0.883364  0.584150  1
  La  La9  1  0.000000  0.116636  0.415850  1
  Hg  Hg10  1  0.500000  0.711140  0.934427  1
  Hg  Hg11  1  0.500000  0.288860  0.065573  1
  Hg  Hg12  1  0.500000  0.788860  0.434427  1
  Hg  Hg13  1  0.500000  0.211140  0.565573  1
  Hg  Hg14  1  0.500000  0.583394  0.649489  1
  Hg  Hg15  1  0.500000  0.416606  0.350511  1
  Hg  Hg16  1  0.500000  0.916606  0.149489  1
  Hg  Hg17  1  0.500000  0.083394  0.850511  1
  Pd  Pd18  1  0.500000  0.521549  0.197058  1
  Pd  Pd19  1  0.500000  0.478451  0.802942  1
  Pd  Pd20  1  0.500000  0.978451  0.697058  1
  Pd  Pd21  1  0.500000  0.021549  0.302942  1
