# generated using pymatgen
data_CePu7As6
_symmetry_space_group_name_H-M   'P 1'
_cell_length_a   7.63164946
_cell_length_b   7.63164904
_cell_length_c   7.63164907
_cell_angle_alpha   109.52260500
_cell_angle_beta   109.52260395
_cell_angle_gamma   109.52258702
_symmetry_Int_Tables_number   1
_chemical_formula_structural   CePu7As6
_chemical_formula_sum   'Ce1 Pu7 As6'
_cell_volume   341.51078467
_cell_formula_units_Z   1
loop_
 _symmetry_equiv_pos_site_id
 _symmetry_equiv_pos_as_xyz
  1  'x, y, z'
loop_
 _atom_site_type_symbol
 _atom_site_label
 _atom_site_symmetry_multiplicity
 _atom_site_fract_x
 _atom_site_fract_y
 _atom_site_fract_z
 _atom_site_occupancy
  Ce  Ce0  1  0.645824  0.645824  0.645824  1
  Pu  Pu1  1  0.145735  0.145735  0.145735  1
  Pu  Pu2  1  0.500818  0.001975  0.854143  1
  Pu  Pu3  1  0.854143  0.500818  0.001975  1
  Pu  Pu4  1  0.001975  0.854143  0.500818  1
  Pu  Pu5  1  0.353246  0.500419  0.000687  1
  Pu  Pu6  1  0.000687  0.353246  0.500419  1
  Pu  Pu7  1  0.500419  0.000687  0.353246  1
  As  As8  1  0.624424  0.372946  0.247739  1
  As  As9  1  0.247739  0.624424  0.372946  1
  As  As10  1  0.750608  0.875359  0.126078  1
  As  As11  1  0.126078  0.750608  0.875359  1
  As  As12  1  0.372946  0.247739  0.624424  1
  As  As13  1  0.875359  0.126078  0.750608  1
