# generated using pymatgen
data_Tb7(HoTl4)5
_symmetry_space_group_name_H-M   'P 1'
_cell_length_a   6.66940346
_cell_length_b   10.55459439
_cell_length_c   12.41507941
_cell_angle_alpha   90.02366963
_cell_angle_beta   90.01508420
_cell_angle_gamma   90.00776290
_symmetry_Int_Tables_number   1
_chemical_formula_structural   Tb7(HoTl4)5
_chemical_formula_sum   'Tb7 Ho5 Tl20'
_cell_volume   873.93268886
_cell_formula_units_Z   1
loop_
 _symmetry_equiv_pos_site_id
 _symmetry_equiv_pos_as_xyz
  1  'x, y, z'
loop_
 _atom_site_type_symbol
 _atom_site_label
 _atom_site_symmetry_multiplicity
 _atom_site_fract_x
 _atom_site_fract_y
 _atom_site_fract_z
 _atom_site_occupancy
  Tb  Tb0  1  0.612354  0.992019  0.856708  1
  Tb  Tb1  1  0.112136  0.008276  0.643193  1
  Tb  Tb2  1  0.388078  0.491880  0.143494  1
  Tb  Tb3  1  0.112051  0.491793  0.642972  1
  Tb  Tb4  1  0.387953  0.008002  0.143593  1
  Tb  Tb5  1  0.887633  0.991863  0.356540  1
  Tb  Tb6  1  0.612301  0.508135  0.856629  1
  Ho  Ho7  1  0.856240  0.750104  0.056430  1
  Ho  Ho8  1  0.643672  0.749741  0.556019  1
  Ho  Ho9  1  0.143694  0.250179  0.943855  1
  Ho  Ho10  1  0.355809  0.249668  0.443542  1
  Ho  Ho11  1  0.887803  0.508236  0.356893  1
  Tl  Tl12  1  0.865472  0.039603  0.099223  1
  Tl  Tl13  1  0.634289  0.460484  0.598959  1
  Tl  Tl14  1  0.134574  0.539556  0.900853  1
  Tl  Tl15  1  0.365462  0.960192  0.400822  1
  Tl  Tl16  1  0.134444  0.960474  0.900874  1
  Tl  Tl17  1  0.364243  0.539100  0.400633  1
  Tl  Tl18  1  0.865814  0.460913  0.099905  1
  Tl  Tl19  1  0.634613  0.039565  0.598944  1
  Tl  Tl20  1  0.152112  0.749811  0.243010  1
  Tl  Tl21  1  0.348090  0.749945  0.742781  1
  Tl  Tl22  1  0.848044  0.250080  0.757107  1
  Tl  Tl23  1  0.652440  0.250604  0.257328  1
  Tl  Tl24  1  0.400505  0.750098  0.011513  1
  Tl  Tl25  1  0.099170  0.749880  0.511517  1
  Tl  Tl26  1  0.599667  0.250098  0.988625  1
  Tl  Tl27  1  0.900170  0.250699  0.487715  1
  Tl  Tl28  1  0.630761  0.748979  0.286894  1
  Tl  Tl29  1  0.870088  0.750132  0.786475  1
  Tl  Tl30  1  0.370291  0.250046  0.713547  1
  Tl  Tl31  1  0.130029  0.249847  0.213407  1
