# generated using pymatgen
data_VNiB3W2
_symmetry_space_group_name_H-M   'P 1'
_cell_length_a   4.45782612
_cell_length_b   4.45782526
_cell_length_c   10.70626400
_cell_angle_alpha   90.00000000
_cell_angle_beta   90.00000000
_cell_angle_gamma   138.38902267
_symmetry_Int_Tables_number   1
_chemical_formula_structural   VNiB3W2
_chemical_formula_sum   'V2 Ni2 B6 W4'
_cell_volume   141.28551186
_cell_formula_units_Z   2
loop_
 _symmetry_equiv_pos_site_id
 _symmetry_equiv_pos_as_xyz
  1  'x, y, z'
loop_
 _atom_site_type_symbol
 _atom_site_label
 _atom_site_symmetry_multiplicity
 _atom_site_fract_x
 _atom_site_fract_y
 _atom_site_fract_z
 _atom_site_occupancy
  V  V0  1  0.500723  0.499277  0.250000  1
  V  V1  1  0.499277  0.500723  0.750000  1
  Ni  Ni2  1  0.500000  0.500000  0.500000  1
  Ni  Ni3  1  0.500000  0.500000  0.000000  1
  B  B4  1  0.085092  0.914908  0.391799  1
  B  B5  1  0.914908  0.085092  0.608201  1
  B  B6  1  0.085092  0.914908  0.108201  1
  B  B7  1  0.914908  0.085092  0.891799  1
  B  B8  1  0.206682  0.793318  0.250000  1
  B  B9  1  0.793318  0.206682  0.750000  1
  W  W10  1  0.789890  0.210110  0.391219  1
  W  W11  1  0.210110  0.789890  0.608781  1
  W  W12  1  0.789890  0.210110  0.108781  1
  W  W13  1  0.210110  0.789890  0.891219  1
