# generated using pymatgen
data_Na6Si6SnPb(O9F)2
_symmetry_space_group_name_H-M   'P 1'
_cell_length_a   8.87128071
_cell_length_b   8.87128139
_cell_length_c   6.60520800
_cell_angle_alpha   77.16019210
_cell_angle_beta   77.16019109
_cell_angle_gamma   105.93828643
_symmetry_Int_Tables_number   1
_chemical_formula_structural   Na6Si6SnPb(O9F)2
_chemical_formula_sum   'Na6 Si6 Sn1 Pb1 O18 F2'
_cell_volume   464.57071865
_cell_formula_units_Z   1
loop_
 _symmetry_equiv_pos_site_id
 _symmetry_equiv_pos_as_xyz
  1  'x, y, z'
loop_
 _atom_site_type_symbol
 _atom_site_label
 _atom_site_symmetry_multiplicity
 _atom_site_fract_x
 _atom_site_fract_y
 _atom_site_fract_z
 _atom_site_occupancy
  Na  Na0  1  0.510182  0.511789  0.737846  1
  Na  Na1  1  0.124485  0.395061  0.071978  1
  Na  Na2  1  0.390085  0.122011  0.083369  1
  Na  Na3  1  0.488211  0.489818  0.262154  1
  Na  Na4  1  0.877989  0.609915  0.916631  1
  Na  Na5  1  0.604939  0.875515  0.928022  1
  Si  Si6  1  0.687529  0.904778  0.399035  1
  Si  Si7  1  0.095222  0.312471  0.600965  1
  Si  Si8  1  0.309499  0.089398  0.604229  1
  Si  Si9  1  0.786565  0.213435  0.000000  1
  Si  Si10  1  0.214355  0.785645  0.000000  1
  Si  Si11  1  0.910602  0.690501  0.395771  1
  Sn  Sn12  1  0.276484  0.723516  0.500000  1
  Pb  Pb13  1  0.725045  0.274955  0.500000  1
  O  O14  1  0.327411  0.773033  0.161537  1
  O  O15  1  0.274595  0.982215  0.861127  1
  O  O16  1  0.980847  0.272080  0.855029  1
  O  O17  1  0.727920  0.019153  0.144971  1
  O  O18  1  0.668317  0.011966  0.567271  1
  O  O19  1  0.226967  0.672589  0.838463  1
  O  O20  1  0.470550  0.254259  0.536288  1
  O  O21  1  0.253770  0.477735  0.544342  1
  O  O22  1  0.745741  0.529450  0.463712  1
  O  O23  1  0.781456  0.337189  0.147003  1
  O  O24  1  0.324175  0.973665  0.446477  1
  O  O25  1  0.153914  0.153390  0.596554  1
  O  O26  1  0.988034  0.331683  0.432729  1
  O  O27  1  0.522265  0.746230  0.455658  1
  O  O28  1  0.026335  0.675825  0.553523  1
  O  O29  1  0.662811  0.218544  0.852997  1
  O  O30  1  0.017785  0.725405  0.138873  1
  O  O31  1  0.846610  0.846086  0.403446  1
  F  F32  1  0.350708  0.351405  0.067775  1
  F  F33  1  0.648595  0.649292  0.932225  1
