# generated using pymatgen
data_Tm2Al6Si4Pd
_symmetry_space_group_name_H-M   'P 1'
_cell_length_a   4.15853956
_cell_length_b   4.15683419
_cell_length_c   16.91098000
_cell_angle_alpha   97.05968118
_cell_angle_beta   89.95034458
_cell_angle_gamma   119.98642288
_symmetry_Int_Tables_number   1
_chemical_formula_structural   Tm2Al6Si4Pd
_chemical_formula_sum   'Tm2 Al6 Si4 Pd1'
_cell_volume   250.65522127
_cell_formula_units_Z   1
loop_
 _symmetry_equiv_pos_site_id
 _symmetry_equiv_pos_as_xyz
  1  'x, y, z'
loop_
 _atom_site_type_symbol
 _atom_site_label
 _atom_site_symmetry_multiplicity
 _atom_site_fract_x
 _atom_site_fract_y
 _atom_site_fract_z
 _atom_site_occupancy
  Tm  Tm0  1  0.434307  0.868777  0.303246  1
  Tm  Tm1  1  0.565694  0.131224  0.696754  1
  Al  Al2  1  0.682522  0.365633  0.048747  1
  Al  Al3  1  0.051802  0.102217  0.152633  1
  Al  Al4  1  0.813682  0.628944  0.444206  1
  Al  Al5  1  0.186318  0.371057  0.555794  1
  Al  Al6  1  0.948198  0.897784  0.847367  1
  Al  Al7  1  0.317479  0.634367  0.951253  1
  Si  Si8  1  0.734874  0.469827  0.204781  1
  Si  Si9  1  0.134791  0.269399  0.404006  1
  Si  Si10  1  0.865209  0.730602  0.595995  1
  Si  Si11  1  0.265126  0.530174  0.795219  1
  Pd  Pd12  1  0.000000  0.000000  0.000000  1
