# generated using pymatgen
data_EuTm3Co16(TcP3)4
_symmetry_space_group_name_H-M   'P 1'
_cell_length_a   3.69999400
_cell_length_b   10.34706671
_cell_length_c   11.81102894
_cell_angle_alpha   90.06573852
_cell_angle_beta   90.00000000
_cell_angle_gamma   90.00000000
_symmetry_Int_Tables_number   1
_chemical_formula_structural   EuTm3Co16(TcP3)4
_chemical_formula_sum   'Eu1 Tm3 Co16 Tc4 P12'
_cell_volume   452.17413505
_cell_formula_units_Z   1
loop_
 _symmetry_equiv_pos_site_id
 _symmetry_equiv_pos_as_xyz
  1  'x, y, z'
loop_
 _atom_site_type_symbol
 _atom_site_label
 _atom_site_symmetry_multiplicity
 _atom_site_fract_x
 _atom_site_fract_y
 _atom_site_fract_z
 _atom_site_occupancy
  Eu  Eu0  1  0.250000  0.584726  0.705080  1
  Tm  Tm1  1  0.250000  0.916364  0.204443  1
  Tm  Tm2  1  0.750000  0.415708  0.295609  1
  Tm  Tm3  1  0.750000  0.083628  0.795574  1
  Co  Co4  1  0.250000  0.404925  0.486652  1
  Co  Co5  1  0.250000  0.092973  0.988088  1
  Co  Co6  1  0.750000  0.591847  0.506234  1
  Co  Co7  1  0.750000  0.907298  0.012910  1
  Co  Co8  1  0.250000  0.221453  0.177004  1
  Co  Co9  1  0.250000  0.276935  0.676126  1
  Co  Co10  1  0.750000  0.782671  0.825339  1
  Co  Co11  1  0.750000  0.723276  0.321974  1
  Co  Co12  1  0.250000  0.888932  0.701982  1
  Co  Co13  1  0.250000  0.613384  0.203141  1
  Co  Co14  1  0.750000  0.113476  0.296952  1
  Co  Co15  1  0.750000  0.381543  0.799898  1
  Co  Co16  1  0.250000  0.463008  0.934760  1
  Co  Co17  1  0.250000  0.035988  0.430564  1
  Co  Co18  1  0.750000  0.535793  0.069930  1
  Co  Co19  1  0.750000  0.965396  0.567436  1
  Tc  Tc20  1  0.250000  0.711262  0.990400  1
  Tc  Tc21  1  0.250000  0.789988  0.488322  1
  Tc  Tc22  1  0.750000  0.288202  0.011781  1
  Tc  Tc23  1  0.750000  0.210515  0.509069  1
  P  P24  1  0.250000  0.419889  0.115167  1
  P  P25  1  0.250000  0.079746  0.613105  1
  P  P26  1  0.750000  0.579879  0.888282  1
  P  P27  1  0.750000  0.920930  0.385672  1
  P  P28  1  0.250000  0.268852  0.865088  1
  P  P29  1  0.250000  0.231031  0.364889  1
  P  P30  1  0.750000  0.731891  0.134625  1
  P  P31  1  0.750000  0.771649  0.634329  1
  P  P32  1  0.250000  0.595488  0.391013  1
  P  P33  1  0.250000  0.903873  0.890658  1
  P  P34  1  0.750000  0.402120  0.608569  1
  P  P35  1  0.750000  0.095361  0.109337  1
