# generated using pymatgen
data_H2PbF4
_symmetry_space_group_name_H-M   'P 1'
_cell_length_a   8.07096214
_cell_length_b   6.61487121
_cell_length_c   6.20143015
_cell_angle_alpha   77.98853374
_cell_angle_beta   53.28746046
_cell_angle_gamma   48.72401280
_symmetry_Int_Tables_number   1
_chemical_formula_structural   H2PbF4
_chemical_formula_sum   'H4 Pb2 F8'
_cell_volume   189.69658306
_cell_formula_units_Z   2
loop_
 _symmetry_equiv_pos_site_id
 _symmetry_equiv_pos_as_xyz
  1  'x, y, z'
loop_
 _atom_site_type_symbol
 _atom_site_label
 _atom_site_symmetry_multiplicity
 _atom_site_fract_x
 _atom_site_fract_y
 _atom_site_fract_z
 _atom_site_occupancy
  H  H0  1  0.371125  0.371125  0.128875  1
  H  H1  1  0.128875  0.128875  0.371125  1
  H  H2  1  0.878875  0.878875  0.121125  1
  H  H3  1  0.121125  0.121125  0.878875  1
  Pb  Pb4  1  0.500000  0.500000  0.500000  1
  Pb  Pb5  1  0.750000  0.750000  0.750000  1
  F  F6  1  0.281269  0.458649  0.350112  1
  F  F7  1  0.909971  0.350112  0.458649  1
  F  F8  1  0.350112  0.909971  0.281269  1
  F  F9  1  0.458649  0.281269  0.909971  1
  F  F10  1  0.968731  0.791351  0.899888  1
  F  F11  1  0.340029  0.899888  0.791351  1
  F  F12  1  0.899888  0.340029  0.968731  1
  F  F13  1  0.791351  0.968731  0.340029  1
