# generated using pymatgen
data_TbPu3(NiGe)4
_symmetry_space_group_name_H-M   'P 1'
_cell_length_a   4.29432200
_cell_length_b   6.99652298
_cell_length_c   7.14425022
_cell_angle_alpha   90.36101746
_cell_angle_beta   90.00000000
_cell_angle_gamma   90.00000000
_symmetry_Int_Tables_number   1
_chemical_formula_structural   TbPu3(NiGe)4
_chemical_formula_sum   'Tb1 Pu3 Ni4 Ge4'
_cell_volume   214.64704129
_cell_formula_units_Z   1
loop_
 _symmetry_equiv_pos_site_id
 _symmetry_equiv_pos_as_xyz
  1  'x, y, z'
loop_
 _atom_site_type_symbol
 _atom_site_label
 _atom_site_symmetry_multiplicity
 _atom_site_fract_x
 _atom_site_fract_y
 _atom_site_fract_z
 _atom_site_occupancy
  Tb  Tb0  1  0.750000  0.514036  0.801264  1
  Pu  Pu1  1  0.250000  0.484597  0.200792  1
  Pu  Pu2  1  0.250000  0.985998  0.304396  1
  Pu  Pu3  1  0.750000  0.013636  0.695944  1
  Ni  Ni4  1  0.750000  0.810341  0.083843  1
  Ni  Ni5  1  0.250000  0.194130  0.913090  1
  Ni  Ni6  1  0.750000  0.311093  0.417125  1
  Ni  Ni7  1  0.250000  0.688299  0.582569  1
  Ge  Ge8  1  0.750000  0.188678  0.089107  1
  Ge  Ge9  1  0.250000  0.310593  0.589123  1
  Ge  Ge10  1  0.250000  0.809206  0.910816  1
  Ge  Ge11  1  0.750000  0.689393  0.411931  1
