# generated using pymatgen
data_PmTcBF
_symmetry_space_group_name_H-M   'P 1'
_cell_length_a   4.12920000
_cell_length_b   4.12920000
_cell_length_c   7.56839400
_cell_angle_alpha   90.00000000
_cell_angle_beta   90.00000000
_cell_angle_gamma   90.00000000
_symmetry_Int_Tables_number   1
_chemical_formula_structural   PmTcBF
_chemical_formula_sum   'Pm2 Tc2 B2 F2'
_cell_volume   129.04333251
_cell_formula_units_Z   2
loop_
 _symmetry_equiv_pos_site_id
 _symmetry_equiv_pos_as_xyz
  1  'x, y, z'
loop_
 _atom_site_type_symbol
 _atom_site_label
 _atom_site_symmetry_multiplicity
 _atom_site_fract_x
 _atom_site_fract_y
 _atom_site_fract_z
 _atom_site_occupancy
  Pm  Pm0  1  0.499999  0.000000  0.200304  1
  Pm  Pm1  1  0.000000  0.499999  0.799696  1
  Tc  Tc2  1  0.000000  0.000000  0.500000  1
  Tc  Tc3  1  0.499999  0.499999  0.500000  1
  B  B4  1  0.000000  0.499999  0.421514  1
  B  B5  1  0.499999  0.000000  0.578486  1
  F  F6  1  0.000000  0.000000  0.000000  1
  F  F7  1  0.499999  0.499999  0.000000  1
