# generated using pymatgen
data_Tb8BeCu2Si12Pd
_symmetry_space_group_name_H-M   'P 1'
_cell_length_a   8.01900200
_cell_length_b   8.01900211
_cell_length_c   8.14644300
_cell_angle_alpha   90.00000000
_cell_angle_beta   90.00000000
_cell_angle_gamma   120.00000778
_symmetry_Int_Tables_number   1
_chemical_formula_structural   Tb8BeCu2Si12Pd
_chemical_formula_sum   'Tb8 Be1 Cu2 Si12 Pd1'
_cell_volume   453.66917384
_cell_formula_units_Z   1
loop_
 _symmetry_equiv_pos_site_id
 _symmetry_equiv_pos_as_xyz
  1  'x, y, z'
loop_
 _atom_site_type_symbol
 _atom_site_label
 _atom_site_symmetry_multiplicity
 _atom_site_fract_x
 _atom_site_fract_y
 _atom_site_fract_z
 _atom_site_occupancy
  Tb  Tb0  1  0.499925  0.999847  0.247940  1
  Tb  Tb1  1  0.499523  0.999047  0.752100  1
  Tb  Tb2  1  0.000153  0.500075  0.247940  1
  Tb  Tb3  1  0.000953  0.500477  0.752100  1
  Tb  Tb4  1  0.499925  0.500075  0.247940  1
  Tb  Tb5  1  0.499523  0.500477  0.752100  1
  Tb  Tb6  1  0.000000  0.000000  0.248528  1
  Tb  Tb7  1  0.000000  0.000000  0.752115  1
  Be  Be8  1  0.333333  0.666667  0.998711  1
  Cu  Cu9  1  0.666667  0.333333  0.997446  1
  Cu  Cu10  1  0.666667  0.333333  0.500394  1
  Si  Si11  1  0.172563  0.345126  0.999746  1
  Si  Si12  1  0.830930  0.661860  0.001168  1
  Si  Si13  1  0.654874  0.827437  0.999746  1
  Si  Si14  1  0.831167  0.662334  0.501326  1
  Si  Si15  1  0.338140  0.169070  0.001168  1
  Si  Si16  1  0.165744  0.331489  0.498399  1
  Si  Si17  1  0.172563  0.827437  0.999746  1
  Si  Si18  1  0.337666  0.168833  0.501326  1
  Si  Si19  1  0.830930  0.169070  0.001168  1
  Si  Si20  1  0.668511  0.834256  0.498399  1
  Si  Si21  1  0.831167  0.168833  0.501326  1
  Si  Si22  1  0.165744  0.834256  0.498399  1
  Pd  Pd23  1  0.333333  0.666667  0.500774  1
