# generated using pymatgen
data_SrYbPt2O7
_symmetry_space_group_name_H-M   'P 1'
_cell_length_a   7.33695452
_cell_length_b   7.33695435
_cell_length_c   7.33695496
_cell_angle_alpha   119.94736899
_cell_angle_beta   118.34625446
_cell_angle_gamma   91.48968007
_symmetry_Int_Tables_number   1
_chemical_formula_structural   SrYbPt2O7
_chemical_formula_sum   'Sr2 Yb2 Pt4 O14'
_cell_volume   282.70650727
_cell_formula_units_Z   2
loop_
 _symmetry_equiv_pos_site_id
 _symmetry_equiv_pos_as_xyz
  1  'x, y, z'
loop_
 _atom_site_type_symbol
 _atom_site_label
 _atom_site_symmetry_multiplicity
 _atom_site_fract_x
 _atom_site_fract_y
 _atom_site_fract_z
 _atom_site_occupancy
  Sr  Sr0  1  0.500000  0.500000  0.500000  1
  Sr  Sr1  1  0.500000  0.000000  0.000000  1
  Yb  Yb2  1  0.500000  0.500000  0.000000  1
  Yb  Yb3  1  0.000000  0.000000  0.000000  1
  Pt  Pt4  1  0.000000  0.500000  0.000000  1
  Pt  Pt5  1  0.000000  0.000000  0.500000  1
  Pt  Pt6  1  0.000000  0.500000  0.500000  1
  Pt  Pt7  1  0.500000  0.000000  0.500000  1
  O  O8  1  0.947129  0.600718  0.776189  1
  O  O9  1  0.052871  0.829059  0.653589  1
  O  O10  1  0.675470  0.899282  0.346411  1
  O  O11  1  0.324530  0.670941  0.223811  1
  O  O12  1  0.052871  0.399282  0.223811  1
  O  O13  1  0.947129  0.170941  0.346411  1
  O  O14  1  0.324530  0.100718  0.653589  1
  O  O15  1  0.675470  0.329059  0.776189  1
  O  O16  1  0.116932  0.250000  0.866932  1
  O  O17  1  0.883068  0.750000  0.133068  1
  O  O18  1  0.679655  0.411511  0.268146  1
  O  O19  1  0.320345  0.588489  0.731854  1
  O  O20  1  0.356635  0.088489  0.268146  1
  O  O21  1  0.643365  0.911511  0.731854  1
