# generated using pymatgen
data_TbSnF7
_symmetry_space_group_name_H-M   'P 1'
_cell_length_a   5.65789000
_cell_length_b   9.03436039
_cell_length_c   12.15980477
_cell_angle_alpha   62.41651529
_cell_angle_beta   90.00000000
_cell_angle_gamma   90.00000000
_symmetry_Int_Tables_number   1
_chemical_formula_structural   TbSnF7
_chemical_formula_sum   'Tb4 Sn4 F28'
_cell_volume   550.90591342
_cell_formula_units_Z   4
loop_
 _symmetry_equiv_pos_site_id
 _symmetry_equiv_pos_as_xyz
  1  'x, y, z'
loop_
 _atom_site_type_symbol
 _atom_site_label
 _atom_site_symmetry_multiplicity
 _atom_site_fract_x
 _atom_site_fract_y
 _atom_site_fract_z
 _atom_site_occupancy
  Tb  Tb0  1  0.258584  0.813301  0.265130  1
  Tb  Tb1  1  0.741416  0.186699  0.734870  1
  Tb  Tb2  1  0.758584  0.186699  0.234870  1
  Tb  Tb3  1  0.241416  0.813301  0.765130  1
  Sn  Sn4  1  0.757029  0.727284  0.042626  1
  Sn  Sn5  1  0.242971  0.272716  0.957374  1
  Sn  Sn6  1  0.257029  0.272716  0.457374  1
  Sn  Sn7  1  0.742971  0.727284  0.542626  1
  F  F8  1  0.952719  0.705841  0.418787  1
  F  F9  1  0.047281  0.294159  0.581213  1
  F  F10  1  0.452719  0.294159  0.081213  1
  F  F11  1  0.547281  0.705841  0.918787  1
  F  F12  1  0.477792  0.730077  0.142526  1
  F  F13  1  0.522208  0.269923  0.857474  1
  F  F14  1  0.977792  0.269923  0.357474  1
  F  F15  1  0.022208  0.730077  0.642526  1
  F  F16  1  0.958564  0.745355  0.172240  1
  F  F17  1  0.041436  0.254645  0.827760  1
  F  F18  1  0.458564  0.254645  0.327760  1
  F  F19  1  0.541436  0.745355  0.672240  1
  F  F20  1  0.775593  0.479263  0.139788  1
  F  F21  1  0.224407  0.520737  0.860212  1
  F  F22  1  0.275593  0.520737  0.360212  1
  F  F23  1  0.724407  0.479263  0.639788  1
  F  F24  1  0.946776  0.278985  0.046526  1
  F  F25  1  0.053224  0.721015  0.953474  1
  F  F26  1  0.446776  0.721015  0.453474  1
  F  F27  1  0.553224  0.278985  0.546526  1
  F  F28  1  0.740818  0.975310  0.445577  1
  F  F29  1  0.259182  0.024690  0.554423  1
  F  F30  1  0.240818  0.024690  0.054423  1
  F  F31  1  0.759182  0.975310  0.945577  1
  F  F32  1  0.578300  0.972512  0.232763  1
  F  F33  1  0.421700  0.027488  0.767237  1
  F  F34  1  0.078300  0.027488  0.267237  1
  F  F35  1  0.921700  0.972512  0.732763  1
