# generated using pymatgen
data_Dy4Tc3B16Ir
_symmetry_space_group_name_H-M   'P 1'
_cell_length_a   3.58826700
_cell_length_b   5.97769165
_cell_length_c   11.56657111
_cell_angle_alpha   90.14960109
_cell_angle_beta   90.00000000
_cell_angle_gamma   90.00000000
_symmetry_Int_Tables_number   1
_chemical_formula_structural   Dy4Tc3B16Ir
_chemical_formula_sum   'Dy4 Tc3 B16 Ir1'
_cell_volume   248.09694233
_cell_formula_units_Z   1
loop_
 _symmetry_equiv_pos_site_id
 _symmetry_equiv_pos_as_xyz
  1  'x, y, z'
loop_
 _atom_site_type_symbol
 _atom_site_label
 _atom_site_symmetry_multiplicity
 _atom_site_fract_x
 _atom_site_fract_y
 _atom_site_fract_z
 _atom_site_occupancy
  Dy  Dy0  1  0.500000  0.372374  0.147953  1
  Dy  Dy1  1  0.500000  0.627247  0.848579  1
  Dy  Dy2  1  0.500000  0.127069  0.651662  1
  Dy  Dy3  1  0.500000  0.873812  0.350958  1
  Tc  Tc4  1  0.500000  0.366939  0.411083  1
  Tc  Tc5  1  0.500000  0.631727  0.586572  1
  Tc  Tc6  1  0.500000  0.139334  0.909757  1
  B  B7  1  0.000000  0.114619  0.046761  1
  B  B8  1  0.000000  0.887124  0.952708  1
  B  B9  1  0.000000  0.386394  0.546456  1
  B  B10  1  0.000000  0.613115  0.452810  1
  B  B11  1  0.000000  0.136039  0.468593  1
  B  B12  1  0.000000  0.863774  0.531293  1
  B  B13  1  0.000000  0.365422  0.969473  1
  B  B14  1  0.000000  0.636436  0.030738  1
  B  B15  1  0.000000  0.027809  0.192054  1
  B  B16  1  0.000000  0.973856  0.808059  1
  B  B17  1  0.000000  0.477214  0.692199  1
  B  B18  1  0.000000  0.524633  0.307514  1
  B  B19  1  0.000000  0.211925  0.314575  1
  B  B20  1  0.000000  0.786108  0.685283  1
  B  B21  1  0.000000  0.287980  0.814411  1
  B  B22  1  0.000000  0.709544  0.185576  1
  Ir  Ir23  1  0.500000  0.859506  0.094933  1
