# generated using pymatgen
data_Tb8HoTm3InCo4Rh
_symmetry_space_group_name_H-M   'P 1'
_cell_length_a   8.31367839
_cell_length_b   8.30486613
_cell_length_c   8.31054163
_cell_angle_alpha   110.85006383
_cell_angle_beta   110.47117917
_cell_angle_gamma   107.13069984
_symmetry_Int_Tables_number   1
_chemical_formula_structural   Tb8HoTm3InCo4Rh
_chemical_formula_sum   'Tb8 Ho1 Tm3 In1 Co4 Rh1'
_cell_volume   441.07862859
_cell_formula_units_Z   1
loop_
 _symmetry_equiv_pos_site_id
 _symmetry_equiv_pos_as_xyz
  1  'x, y, z'
loop_
 _atom_site_type_symbol
 _atom_site_label
 _atom_site_symmetry_multiplicity
 _atom_site_fract_x
 _atom_site_fract_y
 _atom_site_fract_z
 _atom_site_occupancy
  Tb  Tb0  1  0.685817  0.990355  0.305339  1
  Tb  Tb1  1  0.187482  0.292055  0.478390  1
  Tb  Tb2  1  0.813481  0.707157  0.521317  1
  Tb  Tb3  1  0.184867  0.707548  0.893965  1
  Tb  Tb4  1  0.813588  0.293269  0.104890  1
  Tb  Tb5  1  0.406885  0.213365  0.194882  1
  Tb  Tb6  1  0.592415  0.786499  0.804476  1
  Tb  Tb7  1  0.019055  0.213525  0.806917  1
  Ho  Ho8  1  0.983310  0.786774  0.195072  1
  Tm  Tm9  1  0.314500  0.622827  0.307318  1
  Tm  Tm10  1  0.684337  0.377677  0.694124  1
  Tm  Tm11  1  0.315144  0.008246  0.692018  1
  In  In12  1  0.501379  0.499158  0.999440  1
  Co  Co13  1  0.112455  0.613006  0.498824  1
  Co  Co14  1  0.888201  0.388886  0.500702  1
  Co  Co15  1  0.378594  0.999959  0.380555  1
  Co  Co16  1  0.618510  0.000285  0.620126  1
  Rh  Rh17  1  0.999981  0.999413  0.001643  1
