# generated using pymatgen
data_Ni2Mo3AsH
_symmetry_space_group_name_H-M   'P 1'
_cell_length_a   7.80866986
_cell_length_b   7.80866843
_cell_length_c   7.80867000
_cell_angle_alpha   60.00000183
_cell_angle_beta   60.00000786
_cell_angle_gamma   59.99999921
_symmetry_Int_Tables_number   1
_chemical_formula_structural   Ni2Mo3AsH
_chemical_formula_sum   'Ni8 Mo12 As4 H4'
_cell_volume   336.67909024
_cell_formula_units_Z   4
loop_
 _symmetry_equiv_pos_site_id
 _symmetry_equiv_pos_as_xyz
  1  'x, y, z'
loop_
 _atom_site_type_symbol
 _atom_site_label
 _atom_site_symmetry_multiplicity
 _atom_site_fract_x
 _atom_site_fract_y
 _atom_site_fract_z
 _atom_site_occupancy
  Ni  Ni0  1  0.918595  0.918595  0.244214  1
  Ni  Ni1  1  0.331405  0.331405  0.331405  1
  Ni  Ni2  1  0.244214  0.918595  0.918595  1
  Ni  Ni3  1  0.331405  0.005786  0.331405  1
  Ni  Ni4  1  0.005786  0.331405  0.331405  1
  Ni  Ni5  1  0.331405  0.331405  0.005786  1
  Ni  Ni6  1  0.918595  0.918595  0.918595  1
  Ni  Ni7  1  0.918595  0.244214  0.918595  1
  Mo  Mo8  1  0.680081  0.319919  0.319919  1
  Mo  Mo9  1  0.930081  0.930081  0.569919  1
  Mo  Mo10  1  0.680081  0.680081  0.319919  1
  Mo  Mo11  1  0.680081  0.319919  0.680081  1
  Mo  Mo12  1  0.319919  0.680081  0.319919  1
  Mo  Mo13  1  0.569919  0.930081  0.569919  1
  Mo  Mo14  1  0.569919  0.930081  0.930081  1
  Mo  Mo15  1  0.930081  0.569919  0.569919  1
  Mo  Mo16  1  0.930081  0.569919  0.930081  1
  Mo  Mo17  1  0.319919  0.319919  0.680081  1
  Mo  Mo18  1  0.569919  0.569919  0.930081  1
  Mo  Mo19  1  0.319919  0.680081  0.680081  1
  As  As20  1  0.125000  0.125000  0.125000  1
  As  As21  1  0.625000  0.125000  0.125000  1
  As  As22  1  0.125000  0.125000  0.625000  1
  As  As23  1  0.125000  0.625000  0.125000  1
  H  H24  1  0.625000  0.625000  0.625000  1
  H  H25  1  0.625000  0.625000  0.125000  1
  H  H26  1  0.125000  0.625000  0.625000  1
  H  H27  1  0.625000  0.125000  0.625000  1
