# generated using pymatgen
data_Er6Tm4BiPb5
_symmetry_space_group_name_H-M   'P 1'
_cell_length_a   6.48924700
_cell_length_b   8.99932353
_cell_length_c   8.99414204
_cell_angle_alpha   120.01905920
_cell_angle_beta   89.99831774
_cell_angle_gamma   90.00334462
_symmetry_Int_Tables_number   1
_chemical_formula_structural   Er6Tm4BiPb5
_chemical_formula_sum   'Er6 Tm4 Bi1 Pb5'
_cell_volume   454.79020589
_cell_formula_units_Z   1
loop_
 _symmetry_equiv_pos_site_id
 _symmetry_equiv_pos_as_xyz
  1  'x, y, z'
loop_
 _atom_site_type_symbol
 _atom_site_label
 _atom_site_symmetry_multiplicity
 _atom_site_fract_x
 _atom_site_fract_y
 _atom_site_fract_z
 _atom_site_occupancy
  Er  Er0  1  0.750025  0.235306  0.000000  1
  Er  Er1  1  0.749991  0.764366  0.760749  1
  Er  Er2  1  0.749991  0.003617  0.239251  1
  Er  Er3  1  0.250015  0.763084  0.000000  1
  Er  Er4  1  0.249981  0.236943  0.237529  1
  Er  Er5  1  0.249981  0.999414  0.762471  1
  Tm  Tm6  1  0.499087  0.331413  0.664341  1
  Tm  Tm7  1  0.499087  0.667072  0.335659  1
  Tm  Tm8  1  0.000917  0.667082  0.335664  1
  Tm  Tm9  1  0.000917  0.331418  0.664336  1
  Bi  Bi10  1  0.749991  0.606642  0.000000  1
  Pb  Pb11  1  0.750005  0.395377  0.394890  1
  Pb  Pb12  1  0.750005  0.000487  0.605110  1
  Pb  Pb13  1  0.249970  0.393974  0.000000  1
  Pb  Pb14  1  0.250018  0.605249  0.606694  1
  Pb  Pb15  1  0.250018  0.998555  0.393306  1
