# generated using pymatgen
data_Tb3Tm7(Al2Ru3)2
_symmetry_space_group_name_H-M   'P 1'
_cell_length_a   8.29940913
_cell_length_b   8.29940869
_cell_length_c   8.29940974
_cell_angle_alpha   109.47043477
_cell_angle_beta   109.47043460
_cell_angle_gamma   109.47043539
_symmetry_Int_Tables_number   1
_chemical_formula_structural   Tb3Tm7(Al2Ru3)2
_chemical_formula_sum   'Tb3 Tm7 Al4 Ru6'
_cell_volume   440.08065037
_cell_formula_units_Z   1
loop_
 _symmetry_equiv_pos_site_id
 _symmetry_equiv_pos_as_xyz
  1  'x, y, z'
loop_
 _atom_site_type_symbol
 _atom_site_label
 _atom_site_symmetry_multiplicity
 _atom_site_fract_x
 _atom_site_fract_y
 _atom_site_fract_z
 _atom_site_occupancy
  Tb  Tb0  1  0.250185  0.181544  0.930381  1
  Tb  Tb1  1  0.930381  0.250185  0.181544  1
  Tb  Tb2  1  0.181544  0.930381  0.250185  1
  Tm  Tm3  1  0.786206  0.786206  0.786206  1
  Tm  Tm4  1  0.321786  0.572269  0.750804  1
  Tm  Tm5  1  0.750804  0.321786  0.572269  1
  Tm  Tm6  1  0.572269  0.750804  0.321786  1
  Tm  Tm7  1  0.711640  0.500762  0.000170  1
  Tm  Tm8  1  0.000170  0.711640  0.500762  1
  Tm  Tm9  1  0.500762  0.000170  0.711640  1
  Al  Al10  1  0.412801  0.412801  0.412801  1
  Al  Al11  1  0.089340  0.498774  0.998345  1
  Al  Al12  1  0.998345  0.089340  0.498774  1
  Al  Al13  1  0.498774  0.998345  0.089340  1
  Ru  Ru14  1  0.874128  0.124353  0.747521  1
  Ru  Ru15  1  0.747521  0.874128  0.124353  1
  Ru  Ru16  1  0.124353  0.747521  0.874128  1
  Ru  Ru17  1  0.251219  0.624111  0.373661  1
  Ru  Ru18  1  0.373661  0.251219  0.624111  1
  Ru  Ru19  1  0.624111  0.373661  0.251219  1
