# generated using pymatgen
data_K3InTe3
_symmetry_space_group_name_H-M   'P 1'
_cell_length_a   8.65766000
_cell_length_b   8.90332798
_cell_length_c   17.90126172
_cell_angle_alpha   61.11155413
_cell_angle_beta   90.00000000
_cell_angle_gamma   90.00000000
_symmetry_Int_Tables_number   1
_chemical_formula_structural   K3InTe3
_chemical_formula_sum   'K12 In4 Te12'
_cell_volume   1208.15715128
_cell_formula_units_Z   4
loop_
 _symmetry_equiv_pos_site_id
 _symmetry_equiv_pos_as_xyz
  1  'x, y, z'
loop_
 _atom_site_type_symbol
 _atom_site_label
 _atom_site_symmetry_multiplicity
 _atom_site_fract_x
 _atom_site_fract_y
 _atom_site_fract_z
 _atom_site_occupancy
  K  K0  1  0.021576  0.947255  0.278059  1
  K  K1  1  0.521576  0.052745  0.221941  1
  K  K2  1  0.978424  0.052745  0.721941  1
  K  K3  1  0.478424  0.947255  0.778059  1
  K  K4  1  0.001199  0.721159  0.104239  1
  K  K5  1  0.501199  0.278841  0.395761  1
  K  K6  1  0.998801  0.278841  0.895761  1
  K  K7  1  0.498801  0.721159  0.604239  1
  K  K8  1  0.999988  0.317291  0.399478  1
  K  K9  1  0.499988  0.682709  0.100522  1
  K  K10  1  0.000012  0.682709  0.600522  1
  K  K11  1  0.500012  0.317291  0.899478  1
  In  In12  1  0.641558  0.664423  0.418103  1
  In  In13  1  0.141558  0.335577  0.081897  1
  In  In14  1  0.358442  0.335577  0.581897  1
  In  In15  1  0.858442  0.664423  0.918103  1
  Te  Te16  1  0.805290  0.349635  0.071412  1
  Te  Te17  1  0.305290  0.650365  0.428588  1
  Te  Te18  1  0.194710  0.650365  0.928588  1
  Te  Te19  1  0.694710  0.349635  0.571412  1
  Te  Te20  1  0.240711  0.344099  0.228696  1
  Te  Te21  1  0.740711  0.655901  0.271304  1
  Te  Te22  1  0.759289  0.655901  0.771304  1
  Te  Te23  1  0.259289  0.344099  0.728696  1
  Te  Te24  1  0.756532  0.950044  0.425898  1
  Te  Te25  1  0.256532  0.049956  0.074102  1
  Te  Te26  1  0.243468  0.049956  0.574102  1
  Te  Te27  1  0.743468  0.950044  0.925898  1
