# generated using pymatgen
data_ScTa5TiH16
_symmetry_space_group_name_H-M   'P 1'
_cell_length_a   6.27961961
_cell_length_b   6.38708654
_cell_length_c   6.38708608
_cell_angle_alpha   59.48534497
_cell_angle_beta   60.55503775
_cell_angle_gamma   60.55503538
_symmetry_Int_Tables_number   1
_chemical_formula_structural   ScTa5TiH16
_chemical_formula_sum   'Sc1 Ta5 Ti1 H16'
_cell_volume   181.91634892
_cell_formula_units_Z   1
loop_
 _symmetry_equiv_pos_site_id
 _symmetry_equiv_pos_as_xyz
  1  'x, y, z'
loop_
 _atom_site_type_symbol
 _atom_site_label
 _atom_site_symmetry_multiplicity
 _atom_site_fract_x
 _atom_site_fract_y
 _atom_site_fract_z
 _atom_site_occupancy
  Sc  Sc0  1  0.000000  0.500000  0.500000  1
  Ta  Ta1  1  0.000000  0.000000  0.500000  1
  Ta  Ta2  1  0.500000  0.000000  0.500000  1
  Ta  Ta3  1  0.500000  0.500000  0.000000  1
  Ta  Ta4  1  0.000000  0.500000  0.000000  1
  Ta  Ta5  1  0.500000  0.000000  0.000000  1
  Ti  Ti6  1  0.000000  0.000000  0.000000  1
  H  H7  1  0.873830  0.885399  0.366940  1
  H  H8  1  0.873830  0.366940  0.885399  1
  H  H9  1  0.368519  0.877313  0.877313  1
  H  H10  1  0.876855  0.877313  0.877313  1
  H  H11  1  0.126170  0.114601  0.633060  1
  H  H12  1  0.126170  0.633060  0.114601  1
  H  H13  1  0.631481  0.122687  0.122687  1
  H  H14  1  0.123145  0.122687  0.122687  1
  H  H15  1  0.619523  0.620241  0.140715  1
  H  H16  1  0.619523  0.140715  0.620241  1
  H  H17  1  0.137729  0.628211  0.628211  1
  H  H18  1  0.605850  0.628211  0.628211  1
  H  H19  1  0.380477  0.379759  0.859285  1
  H  H20  1  0.380477  0.859285  0.379759  1
  H  H21  1  0.862271  0.371789  0.371789  1
  H  H22  1  0.394150  0.371789  0.371789  1
