# generated using pymatgen
data_Ba8TaTc3O20
_symmetry_space_group_name_H-M   'P 1'
_cell_length_a   5.82012500
_cell_length_b   7.49630639
_cell_length_c   11.65534936
_cell_angle_alpha   90.98544815
_cell_angle_beta   90.00000000
_cell_angle_gamma   90.00000000
_symmetry_Int_Tables_number   1
_chemical_formula_structural   Ba8TaTc3O20
_chemical_formula_sum   'Ba8 Ta1 Tc3 O20'
_cell_volume   508.44115603
_cell_formula_units_Z   1
loop_
 _symmetry_equiv_pos_site_id
 _symmetry_equiv_pos_as_xyz
  1  'x, y, z'
loop_
 _atom_site_type_symbol
 _atom_site_label
 _atom_site_symmetry_multiplicity
 _atom_site_fract_x
 _atom_site_fract_y
 _atom_site_fract_z
 _atom_site_occupancy
  Ba  Ba0  1  0.750000  0.169014  0.577102  1
  Ba  Ba1  1  0.250000  0.818262  0.418466  1
  Ba  Ba2  1  0.750000  0.680304  0.917875  1
  Ba  Ba3  1  0.250000  0.327077  0.085422  1
  Ba  Ba4  1  0.250000  0.031043  0.787961  1
  Ba  Ba5  1  0.750000  0.976189  0.215269  1
  Ba  Ba6  1  0.250000  0.525281  0.707887  1
  Ba  Ba7  1  0.750000  0.470387  0.292848  1
  Ta  Ta8  1  0.250000  0.314748  0.431857  1
  Tc  Tc9  1  0.750000  0.675227  0.565507  1
  Tc  Tc10  1  0.250000  0.826048  0.061986  1
  Tc  Tc11  1  0.750000  0.177662  0.936938  1
  O  O12  1  0.485029  0.676668  0.110221  1
  O  O13  1  0.984296  0.326670  0.886921  1
  O  O14  1  0.002411  0.166159  0.381673  1
  O  O15  1  0.514408  0.826115  0.616558  1
  O  O16  1  0.515704  0.326670  0.886921  1
  O  O17  1  0.014971  0.676668  0.110221  1
  O  O18  1  0.985592  0.826115  0.616558  1
  O  O19  1  0.497589  0.166159  0.381673  1
  O  O20  1  0.750000  0.272007  0.091424  1
  O  O21  1  0.250000  0.729566  0.907374  1
  O  O22  1  0.750000  0.775159  0.412753  1
  O  O23  1  0.250000  0.223279  0.595249  1
  O  O24  1  0.994855  0.504785  0.502417  1
  O  O25  1  0.505145  0.504785  0.502417  1
  O  O26  1  0.498774  0.001335  0.000123  1
  O  O27  1  0.001226  0.001335  0.000123  1
  O  O28  1  0.250000  0.474913  0.301910  1
  O  O29  1  0.750000  0.533821  0.695204  1
  O  O30  1  0.250000  0.973368  0.189976  1
  O  O31  1  0.750000  0.023184  0.811162  1
