# generated using pymatgen
data_Pr2Sm(OsO5)2
_symmetry_space_group_name_H-M   'P 1'
_cell_length_a   5.53523225
_cell_length_b   5.53523232
_cell_length_c   7.00995786
_cell_angle_alpha   72.67701932
_cell_angle_beta   72.67702038
_cell_angle_gamma   90.28633658
_symmetry_Int_Tables_number   1
_chemical_formula_structural   Pr2Sm(OsO5)2
_chemical_formula_sum   'Pr2 Sm1 Os2 O10'
_cell_volume   194.69827860
_cell_formula_units_Z   1
loop_
 _symmetry_equiv_pos_site_id
 _symmetry_equiv_pos_as_xyz
  1  'x, y, z'
loop_
 _atom_site_type_symbol
 _atom_site_label
 _atom_site_symmetry_multiplicity
 _atom_site_fract_x
 _atom_site_fract_y
 _atom_site_fract_z
 _atom_site_occupancy
  Pr  Pr0  1  0.753665  0.246335  0.500000  1
  Pr  Pr1  1  0.246335  0.753665  0.500000  1
  Sm  Sm2  1  0.500000  0.500000  0.000000  1
  Os  Os3  1  0.130371  0.130371  0.825301  1
  Os  Os4  1  0.869629  0.869629  0.174699  1
  O  O5  1  0.826941  0.826941  0.472095  1
  O  O6  1  0.173059  0.173059  0.527905  1
  O  O7  1  0.593673  0.593673  0.279240  1
  O  O8  1  0.406327  0.406327  0.720760  1
  O  O9  1  0.381636  0.894114  0.790042  1
  O  O10  1  0.851594  0.851594  0.898377  1
  O  O11  1  0.148406  0.148406  0.101623  1
  O  O12  1  0.894114  0.381636  0.790042  1
  O  O13  1  0.618364  0.105886  0.209958  1
  O  O14  1  0.105886  0.618364  0.209958  1
