# generated using pymatgen
data_Er12In2Si3Tc
_symmetry_space_group_name_H-M   'P 1'
_cell_length_a   8.46618915
_cell_length_b   8.46618943
_cell_length_c   8.46618922
_cell_angle_alpha   112.70967391
_cell_angle_beta   112.61490123
_cell_angle_gamma   103.26190741
_symmetry_Int_Tables_number   1
_chemical_formula_structural   Er12In2Si3Tc
_chemical_formula_sum   'Er12 In2 Si3 Tc1'
_cell_volume   463.08053632
_cell_formula_units_Z   1
loop_
 _symmetry_equiv_pos_site_id
 _symmetry_equiv_pos_as_xyz
  1  'x, y, z'
loop_
 _atom_site_type_symbol
 _atom_site_label
 _atom_site_symmetry_multiplicity
 _atom_site_fract_x
 _atom_site_fract_y
 _atom_site_fract_z
 _atom_site_occupancy
  Er  Er0  1  0.185634  0.288145  0.468189  1
  Er  Er1  1  0.819956  0.717445  0.531811  1
  Er  Er2  1  0.185634  0.717445  0.897488  1
  Er  Er3  1  0.819956  0.288145  0.102512  1
  Er  Er4  1  0.315408  0.621977  0.306569  1
  Er  Er5  1  0.677732  0.379879  0.702146  1
  Er  Er6  1  0.315408  0.008838  0.693431  1
  Er  Er7  1  0.677732  0.975586  0.297854  1
  Er  Er8  1  0.448611  0.244693  0.203919  1
  Er  Er9  1  0.546567  0.757657  0.788909  1
  Er  Er10  1  0.040773  0.244693  0.796081  1
  Er  Er11  1  0.968747  0.757657  0.211091  1
  In  In12  1  0.502805  0.502805  0.000000  1
  In  In13  1  0.991978  0.991978  0.000000  1
  Si  Si14  1  0.875269  0.375269  0.500000  1
  Si  Si15  1  0.360670  0.004673  0.355997  1
  Si  Si16  1  0.648676  0.004673  0.644003  1
  Tc  Tc17  1  0.118444  0.618444  0.500000  1
