# generated using pymatgen
data_Pr8Si12NiRh3
_symmetry_space_group_name_H-M   'P 1'
_cell_length_a   8.25928500
_cell_length_b   8.25928421
_cell_length_c   8.50800900
_cell_angle_alpha   90.00000000
_cell_angle_beta   90.00000000
_cell_angle_gamma   119.99999917
_symmetry_Int_Tables_number   1
_chemical_formula_structural   Pr8Si12NiRh3
_chemical_formula_sum   'Pr8 Si12 Ni1 Rh3'
_cell_volume   502.62425116
_cell_formula_units_Z   1
loop_
 _symmetry_equiv_pos_site_id
 _symmetry_equiv_pos_as_xyz
  1  'x, y, z'
loop_
 _atom_site_type_symbol
 _atom_site_label
 _atom_site_symmetry_multiplicity
 _atom_site_fract_x
 _atom_site_fract_y
 _atom_site_fract_z
 _atom_site_occupancy
  Pr  Pr0  1  0.000000  0.000000  0.750754  1
  Pr  Pr1  1  0.000000  0.000000  0.249391  1
  Pr  Pr2  1  0.499142  0.500858  0.748736  1
  Pr  Pr3  1  0.499142  0.998286  0.748736  1
  Pr  Pr4  1  0.001714  0.500858  0.748736  1
  Pr  Pr5  1  0.500390  0.499610  0.251275  1
  Pr  Pr6  1  0.999223  0.499610  0.251275  1
  Pr  Pr7  1  0.500390  0.000777  0.251275  1
  Si  Si8  1  0.829929  0.170071  0.000292  1
  Si  Si9  1  0.829929  0.659858  0.000292  1
  Si  Si10  1  0.340142  0.170071  0.000292  1
  Si  Si11  1  0.833666  0.166334  0.499602  1
  Si  Si12  1  0.833666  0.667333  0.499602  1
  Si  Si13  1  0.332667  0.166334  0.499602  1
  Si  Si14  1  0.166498  0.833502  0.500427  1
  Si  Si15  1  0.667005  0.833502  0.500427  1
  Si  Si16  1  0.166498  0.332995  0.500427  1
  Si  Si17  1  0.166606  0.833394  0.999571  1
  Si  Si18  1  0.666788  0.833394  0.999571  1
  Si  Si19  1  0.166606  0.333212  0.999571  1
  Ni  Ni20  1  0.666667  0.333333  0.997844  1
  Rh  Rh21  1  0.666667  0.333333  0.502283  1
  Rh  Rh22  1  0.333333  0.666667  0.497467  1
  Rh  Rh23  1  0.333333  0.666667  0.002553  1
