# generated using pymatgen
data_Nd3Sb25
_symmetry_space_group_name_H-M   'P 1'
_cell_length_a   4.23124400
_cell_length_b   13.30519738
_cell_length_c   15.93985965
_cell_angle_alpha   79.18452330
_cell_angle_beta   90.00000000
_cell_angle_gamma   90.00000000
_symmetry_Int_Tables_number   1
_chemical_formula_structural   Nd3Sb25
_chemical_formula_sum   'Nd3 Sb25'
_cell_volume   881.43440332
_cell_formula_units_Z   1
loop_
 _symmetry_equiv_pos_site_id
 _symmetry_equiv_pos_as_xyz
  1  'x, y, z'
loop_
 _atom_site_type_symbol
 _atom_site_label
 _atom_site_symmetry_multiplicity
 _atom_site_fract_x
 _atom_site_fract_y
 _atom_site_fract_z
 _atom_site_occupancy
  Nd  Nd0  1  0.750000  0.320887  0.428222  1
  Nd  Nd1  1  0.250000  0.387831  0.762921  1
  Nd  Nd2  1  0.750000  0.620753  0.223299  1
  Sb  Sb3  1  0.750000  0.353503  0.197315  1
  Sb  Sb4  1  0.250000  0.917874  0.387027  1
  Sb  Sb5  1  0.250000  0.601559  0.861298  1
  Sb  Sb6  1  0.250000  0.705050  0.619216  1
  Sb  Sb7  1  0.750000  0.065028  0.586245  1
  Sb  Sb8  1  0.750000  0.832251  0.833237  1
  Sb  Sb9  1  0.250000  0.887687  0.705960  1
  Sb  Sb10  1  0.250000  0.127130  0.459683  1
  Sb  Sb11  1  0.750000  0.278386  0.913539  1
  Sb  Sb12  1  0.250000  0.130878  0.785973  1
  Sb  Sb13  1  0.750000  0.588244  0.447047  1
  Sb  Sb14  1  0.750000  0.119669  0.283408  1
  Sb  Sb15  1  0.250000  0.707421  0.348499  1
  Sb  Sb16  1  0.750000  0.288182  0.637237  1
  Sb  Sb17  1  0.750000  0.882351  0.211698  1
  Sb  Sb18  1  0.250000  0.398730  0.976235  1
  Sb  Sb19  1  0.250000  0.424722  0.552957  1
  Sb  Sb20  1  0.750000  0.578943  0.731850  1
  Sb  Sb21  1  0.250000  0.440374  0.291708  1
  Sb  Sb22  1  0.750000  0.862159  0.518874  1
  Sb  Sb23  1  0.750000  0.028460  0.895645  1
  Sb  Sb24  1  0.250000  0.726858  0.069670  1
  Sb  Sb25  1  0.250000  0.966482  0.091937  1
  Sb  Sb26  1  0.250000  0.166327  0.153776  1
  Sb  Sb27  1  0.750000  0.592261  0.025525  1
