# generated using pymatgen
data_Tb5OsAu2
_symmetry_space_group_name_H-M   'P 1'
_cell_length_a   7.55510900
_cell_length_b   9.22825000
_cell_length_c   11.78001700
_cell_angle_alpha   90.00000000
_cell_angle_beta   90.00000000
_cell_angle_gamma   90.00000000
_symmetry_Int_Tables_number   1
_chemical_formula_structural   Tb5OsAu2
_chemical_formula_sum   'Tb20 Os4 Au8'
_cell_volume   821.30790518
_cell_formula_units_Z   4
loop_
 _symmetry_equiv_pos_site_id
 _symmetry_equiv_pos_as_xyz
  1  'x, y, z'
loop_
 _atom_site_type_symbol
 _atom_site_label
 _atom_site_symmetry_multiplicity
 _atom_site_fract_x
 _atom_site_fract_y
 _atom_site_fract_z
 _atom_site_occupancy
  Tb  Tb0  1  0.160243  0.750000  0.224894  1
  Tb  Tb1  1  0.660243  0.250000  0.275106  1
  Tb  Tb2  1  0.839757  0.250000  0.775106  1
  Tb  Tb3  1  0.339757  0.750000  0.724894  1
  Tb  Tb4  1  0.456525  0.750000  0.006594  1
  Tb  Tb5  1  0.956525  0.250000  0.493406  1
  Tb  Tb6  1  0.543475  0.250000  0.993406  1
  Tb  Tb7  1  0.043475  0.750000  0.506594  1
  Tb  Tb8  1  0.640518  0.750000  0.310201  1
  Tb  Tb9  1  0.140518  0.250000  0.189799  1
  Tb  Tb10  1  0.359482  0.250000  0.689799  1
  Tb  Tb11  1  0.859482  0.750000  0.810201  1
  Tb  Tb12  1  0.823644  0.970600  0.083718  1
  Tb  Tb13  1  0.323644  0.029400  0.416282  1
  Tb  Tb14  1  0.176356  0.470600  0.916282  1
  Tb  Tb15  1  0.676356  0.529400  0.583718  1
  Tb  Tb16  1  0.176356  0.029400  0.916282  1
  Tb  Tb17  1  0.676356  0.970600  0.583718  1
  Tb  Tb18  1  0.823644  0.529400  0.083718  1
  Tb  Tb19  1  0.323644  0.470600  0.416282  1
  Os  Os20  1  0.430603  0.750000  0.497750  1
  Os  Os21  1  0.930603  0.250000  0.002250  1
  Os  Os22  1  0.569397  0.250000  0.502250  1
  Os  Os23  1  0.069397  0.750000  0.997750  1
  Au  Au24  1  0.931328  0.991166  0.336094  1
  Au  Au25  1  0.431328  0.008834  0.163906  1
  Au  Au26  1  0.068672  0.491166  0.663906  1
  Au  Au27  1  0.568672  0.508834  0.836094  1
  Au  Au28  1  0.068672  0.008834  0.663906  1
  Au  Au29  1  0.568672  0.991166  0.836094  1
  Au  Au30  1  0.931328  0.508834  0.336094  1
  Au  Au31  1  0.431328  0.491166  0.163906  1
