# generated using pymatgen
data_Tb2PrTi(Co4P3)2
_symmetry_space_group_name_H-M   'P 1'
_cell_length_a   3.73318000
_cell_length_b   10.69329900
_cell_length_c   12.38920200
_cell_angle_alpha   90.00000000
_cell_angle_beta   90.00000000
_cell_angle_gamma   90.00000000
_symmetry_Int_Tables_number   1
_chemical_formula_structural   Tb2PrTi(Co4P3)2
_chemical_formula_sum   'Tb4 Pr2 Ti2 Co16 P12'
_cell_volume   494.57706725
_cell_formula_units_Z   2
loop_
 _symmetry_equiv_pos_site_id
 _symmetry_equiv_pos_as_xyz
  1  'x, y, z'
loop_
 _atom_site_type_symbol
 _atom_site_label
 _atom_site_symmetry_multiplicity
 _atom_site_fract_x
 _atom_site_fract_y
 _atom_site_fract_z
 _atom_site_occupancy
  Tb  Tb0  1  0.500000  0.819837  0.203294  1
  Tb  Tb1  1  0.500000  0.180163  0.203294  1
  Tb  Tb2  1  0.000000  0.680163  0.796706  1
  Tb  Tb3  1  0.000000  0.319837  0.796706  1
  Pr  Pr4  1  0.000000  0.500000  0.526288  1
  Pr  Pr5  1  0.500000  0.000000  0.473712  1
  Ti  Ti6  1  0.500000  0.500000  0.150716  1
  Ti  Ti7  1  0.000000  0.000000  0.849284  1
  Co  Co8  1  0.500000  0.500000  0.707005  1
  Co  Co9  1  0.000000  0.000000  0.292995  1
  Co  Co10  1  0.000000  0.500000  0.987769  1
  Co  Co11  1  0.500000  0.000000  0.012231  1
  Co  Co12  1  0.500000  0.331990  0.994297  1
  Co  Co13  1  0.500000  0.668010  0.994297  1
  Co  Co14  1  0.000000  0.168010  0.005703  1
  Co  Co15  1  0.000000  0.831990  0.005703  1
  Co  Co16  1  0.500000  0.295541  0.430499  1
  Co  Co17  1  0.500000  0.704459  0.430499  1
  Co  Co18  1  0.000000  0.204459  0.569501  1
  Co  Co19  1  0.000000  0.795541  0.569501  1
  Co  Co20  1  0.500000  0.879252  0.708612  1
  Co  Co21  1  0.500000  0.120748  0.708612  1
  Co  Co22  1  0.000000  0.620748  0.291388  1
  Co  Co23  1  0.000000  0.379252  0.291388  1
  P  P24  1  0.500000  0.500000  0.885327  1
  P  P25  1  0.000000  0.000000  0.114673  1
  P  P26  1  0.500000  0.500000  0.348174  1
  P  P27  1  0.000000  0.000000  0.651826  1
  P  P28  1  0.500000  0.306233  0.617270  1
  P  P29  1  0.500000  0.693767  0.617270  1
  P  P30  1  0.000000  0.193767  0.382730  1
  P  P31  1  0.000000  0.806233  0.382730  1
  P  P32  1  0.500000  0.843043  0.893262  1
  P  P33  1  0.500000  0.156957  0.893262  1
  P  P34  1  0.000000  0.656957  0.106738  1
  P  P35  1  0.000000  0.343043  0.106738  1
