# generated using pymatgen
data_Sc2Ti2NbSi4
_symmetry_space_group_name_H-M   'P 1'
_cell_length_a   6.87674800
_cell_length_b   6.87674800
_cell_length_c   12.61756800
_cell_angle_alpha   90.00000000
_cell_angle_beta   90.00000000
_cell_angle_gamma   90.00000000
_symmetry_Int_Tables_number   1
_chemical_formula_structural   Sc2Ti2NbSi4
_chemical_formula_sum   'Sc8 Ti8 Nb4 Si16'
_cell_volume   596.68053930
_cell_formula_units_Z   4
loop_
 _symmetry_equiv_pos_site_id
 _symmetry_equiv_pos_as_xyz
  1  'x, y, z'
loop_
 _atom_site_type_symbol
 _atom_site_label
 _atom_site_symmetry_multiplicity
 _atom_site_fract_x
 _atom_site_fract_y
 _atom_site_fract_z
 _atom_site_occupancy
  Sc  Sc0  1  0.001246  0.660038  0.032550  1
  Sc  Sc1  1  0.998754  0.339962  0.532550  1
  Sc  Sc2  1  0.339962  0.998754  0.467450  1
  Sc  Sc3  1  0.160038  0.498754  0.782550  1
  Sc  Sc4  1  0.839962  0.501246  0.282550  1
  Sc  Sc5  1  0.498754  0.160038  0.217450  1
  Sc  Sc6  1  0.501246  0.839962  0.717450  1
  Sc  Sc7  1  0.660038  0.001246  0.967450  1
  Ti  Ti8  1  0.992660  0.848621  0.626446  1
  Ti  Ti9  1  0.007340  0.151379  0.126446  1
  Ti  Ti10  1  0.848621  0.992660  0.373554  1
  Ti  Ti11  1  0.348621  0.507340  0.376446  1
  Ti  Ti12  1  0.651379  0.492660  0.876446  1
  Ti  Ti13  1  0.507340  0.348621  0.623554  1
  Ti  Ti14  1  0.492660  0.651379  0.123554  1
  Ti  Ti15  1  0.151379  0.007340  0.873554  1
  Nb  Nb16  1  0.670948  0.670948  0.500000  1
  Nb  Nb17  1  0.170948  0.829052  0.250000  1
  Nb  Nb18  1  0.329052  0.329052  0.000000  1
  Nb  Nb19  1  0.829052  0.170948  0.750000  1
  Si  Si20  1  0.044733  0.701250  0.436708  1
  Si  Si21  1  0.634343  0.292601  0.428737  1
  Si  Si22  1  0.365657  0.707399  0.928737  1
  Si  Si23  1  0.207399  0.134343  0.678737  1
  Si  Si24  1  0.292601  0.634343  0.571263  1
  Si  Si25  1  0.707399  0.365657  0.071263  1
  Si  Si26  1  0.792601  0.865657  0.178737  1
  Si  Si27  1  0.134343  0.207399  0.321263  1
  Si  Si28  1  0.955267  0.298750  0.936708  1
  Si  Si29  1  0.701250  0.044733  0.563292  1
  Si  Si30  1  0.201250  0.455267  0.186708  1
  Si  Si31  1  0.798750  0.544733  0.686708  1
  Si  Si32  1  0.455267  0.201250  0.813292  1
  Si  Si33  1  0.544733  0.798750  0.313292  1
  Si  Si34  1  0.298750  0.955267  0.063292  1
  Si  Si35  1  0.865657  0.792601  0.821263  1
