# generated using pymatgen
data_Ca4PrU5O19
_symmetry_space_group_name_H-M   'P 1'
_cell_length_a   6.77473684
_cell_length_b   7.54948372
_cell_length_c   8.54054517
_cell_angle_alpha   98.87364000
_cell_angle_beta   97.14358912
_cell_angle_gamma   107.76061470
_symmetry_Int_Tables_number   1
_chemical_formula_structural   Ca4PrU5O19
_chemical_formula_sum   'Ca4 Pr1 U5 O19'
_cell_volume   404.13741209
_cell_formula_units_Z   1
loop_
 _symmetry_equiv_pos_site_id
 _symmetry_equiv_pos_as_xyz
  1  'x, y, z'
loop_
 _atom_site_type_symbol
 _atom_site_label
 _atom_site_symmetry_multiplicity
 _atom_site_fract_x
 _atom_site_fract_y
 _atom_site_fract_z
 _atom_site_occupancy
  Ca  Ca0  1  0.384977  0.299105  0.801969  1
  Ca  Ca1  1  0.607660  0.702646  0.202277  1
  Ca  Ca2  1  0.000008  0.501750  0.999559  1
  Ca  Ca3  1  0.204902  0.908611  0.387133  1
  Pr  Pr4  1  0.803350  0.104335  0.603058  1
  U  U5  1  0.778088  0.596281  0.600799  1
  U  U6  1  0.601584  0.203338  0.192558  1
  U  U7  1  0.000756  0.007119  0.002087  1
  U  U8  1  0.408856  0.804678  0.814418  1
  U  U9  1  0.205892  0.389238  0.391138  1
  O  O10  1  0.335459  0.049097  0.956172  1
  O  O11  1  0.429429  0.975616  0.652584  1
  O  O12  1  0.038042  0.213391  0.865059  1
  O  O13  1  0.716125  0.385874  0.730114  1
  O  O14  1  0.157516  0.185668  0.528942  1
  O  O15  1  0.364771  0.605740  0.950656  1
  O  O16  1  0.948121  0.264153  0.168415  1
  O  O17  1  0.907223  0.393671  0.467866  1
  O  O18  1  0.750475  0.855495  0.768810  1
  O  O19  1  0.547427  0.446696  0.366201  1
  O  O20  1  0.406543  0.562696  0.626042  1
  O  O21  1  0.255216  0.140699  0.229713  1
  O  O22  1  0.065181  0.714416  0.785174  1
  O  O23  1  0.638445  0.401367  0.061197  1
  O  O24  1  0.860308  0.799993  0.466609  1
  O  O25  1  0.249466  0.614618  0.286306  1
  O  O26  1  0.960730  0.791897  0.119725  1
  O  O27  1  0.575324  0.015151  0.341062  1
  O  O28  1  0.662041  0.954304  0.042599  1
