# generated using pymatgen
data_Sr3Sn(GeRh3)2
_symmetry_space_group_name_H-M   'P 1'
_cell_length_a   5.84046600
_cell_length_b   5.84046643
_cell_length_c   15.94437600
_cell_angle_alpha   90.00000000
_cell_angle_beta   90.00000000
_cell_angle_gamma   119.99998624
_symmetry_Int_Tables_number   1
_chemical_formula_structural   Sr3Sn(GeRh3)2
_chemical_formula_sum   'Sr6 Sn2 Ge4 Rh12'
_cell_volume   471.01338772
_cell_formula_units_Z   2
loop_
 _symmetry_equiv_pos_site_id
 _symmetry_equiv_pos_as_xyz
  1  'x, y, z'
loop_
 _atom_site_type_symbol
 _atom_site_label
 _atom_site_symmetry_multiplicity
 _atom_site_fract_x
 _atom_site_fract_y
 _atom_site_fract_z
 _atom_site_occupancy
  Sr  Sr0  1  0.333334  0.666667  0.041542  1
  Sr  Sr1  1  0.333334  0.666667  0.250000  1
  Sr  Sr2  1  0.333334  0.666667  0.458458  1
  Sr  Sr3  1  0.666666  0.333333  0.541542  1
  Sr  Sr4  1  0.666666  0.333333  0.750000  1
  Sr  Sr5  1  0.666666  0.333333  0.958458  1
  Sn  Sn6  1  0.000000  0.000000  0.000000  1
  Sn  Sn7  1  0.000000  0.000000  0.500000  1
  Ge  Ge8  1  0.000000  0.000000  0.250000  1
  Ge  Ge9  1  0.666666  0.333333  0.250000  1
  Ge  Ge10  1  0.000000  0.000000  0.750000  1
  Ge  Ge11  1  0.333334  0.666667  0.750000  1
  Rh  Rh12  1  0.333721  0.166861  0.136958  1
  Rh  Rh13  1  0.833140  0.166861  0.136958  1
  Rh  Rh14  1  0.833140  0.666280  0.136958  1
  Rh  Rh15  1  0.333721  0.166861  0.363042  1
  Rh  Rh16  1  0.833140  0.166861  0.363042  1
  Rh  Rh17  1  0.833140  0.666280  0.363042  1
  Rh  Rh18  1  0.166861  0.333722  0.636958  1
  Rh  Rh19  1  0.166860  0.833139  0.636958  1
  Rh  Rh20  1  0.666279  0.833139  0.636958  1
  Rh  Rh21  1  0.166861  0.333722  0.863042  1
  Rh  Rh22  1  0.166860  0.833139  0.863042  1
  Rh  Rh23  1  0.666279  0.833139  0.863042  1
