# generated using pymatgen
data_Pr3NdAl18(Ir2Pt)2
_symmetry_space_group_name_H-M   'P 1'
_cell_length_a   7.64917435
_cell_length_b   7.65027671
_cell_length_c   9.61343101
_cell_angle_alpha   89.97232052
_cell_angle_beta   89.96416347
_cell_angle_gamma   119.59728433
_symmetry_Int_Tables_number   1
_chemical_formula_structural   Pr3NdAl18(Ir2Pt)2
_chemical_formula_sum   'Pr3 Nd1 Al18 Ir4 Pt2'
_cell_volume   489.15736742
_cell_formula_units_Z   1
loop_
 _symmetry_equiv_pos_site_id
 _symmetry_equiv_pos_as_xyz
  1  'x, y, z'
loop_
 _atom_site_type_symbol
 _atom_site_label
 _atom_site_symmetry_multiplicity
 _atom_site_fract_x
 _atom_site_fract_y
 _atom_site_fract_z
 _atom_site_occupancy
  Pr  Pr0  1  0.995142  0.669111  0.250137  1
  Pr  Pr1  1  0.004865  0.330778  0.749850  1
  Pr  Pr2  1  0.669161  0.995095  0.250150  1
  Nd  Nd3  1  0.330716  0.004795  0.749786  1
  Al  Al4  1  0.129075  0.128989  0.250729  1
  Al  Al5  1  0.871600  0.871219  0.749272  1
  Al  Al6  1  0.003161  0.330889  0.075351  1
  Al  Al7  1  0.997303  0.669535  0.924383  1
  Al  Al8  1  0.998933  0.665868  0.572478  1
  Al  Al9  1  0.334527  0.001448  0.428183  1
  Al  Al10  1  0.001465  0.334537  0.427792  1
  Al  Al11  1  0.665053  0.998554  0.572460  1
  Al  Al12  1  0.668711  0.996886  0.924425  1
  Al  Al13  1  0.330898  0.003111  0.074979  1
  Al  Al14  1  0.333523  0.333210  0.546552  1
  Al  Al15  1  0.666449  0.666442  0.453735  1
  Al  Al16  1  0.667420  0.667413  0.053327  1
  Al  Al17  1  0.332542  0.332190  0.946398  1
  Al  Al18  1  0.340243  0.544430  0.253656  1
  Al  Al19  1  0.659403  0.455088  0.746362  1
  Al  Al20  1  0.544334  0.340152  0.253658  1
  Al  Al21  1  0.455566  0.660215  0.746358  1
  Ir  Ir22  1  0.329068  0.670949  0.500255  1
  Ir  Ir23  1  0.670662  0.328970  0.500243  1
  Ir  Ir24  1  0.000181  0.000040  0.999785  1
  Ir  Ir25  1  0.000178  0.000055  0.500192  1
  Pt  Pt26  1  0.670956  0.328779  0.999751  1
  Pt  Pt27  1  0.328866  0.671253  0.999751  1
