# generated using pymatgen
data_SmLu3(ScPt)4
_symmetry_space_group_name_H-M   'P 1'
_cell_length_a   4.60624000
_cell_length_b   6.92053163
_cell_length_c   8.40514156
_cell_angle_alpha   90.38045683
_cell_angle_beta   90.00000000
_cell_angle_gamma   90.00000000
_symmetry_Int_Tables_number   1
_chemical_formula_structural   SmLu3(ScPt)4
_chemical_formula_sum   'Sm1 Lu3 Sc4 Pt4'
_cell_volume   267.93008274
_cell_formula_units_Z   1
loop_
 _symmetry_equiv_pos_site_id
 _symmetry_equiv_pos_as_xyz
  1  'x, y, z'
loop_
 _atom_site_type_symbol
 _atom_site_label
 _atom_site_symmetry_multiplicity
 _atom_site_fract_x
 _atom_site_fract_y
 _atom_site_fract_z
 _atom_site_occupancy
  Sm  Sm0  1  0.750000  0.514189  0.823812  1
  Lu  Lu1  1  0.250000  0.984405  0.324929  1
  Lu  Lu2  1  0.750000  0.017607  0.673135  1
  Lu  Lu3  1  0.250000  0.483367  0.176760  1
  Sc  Sc4  1  0.750000  0.642651  0.424788  1
  Sc  Sc5  1  0.250000  0.358518  0.569781  1
  Sc  Sc6  1  0.750000  0.140005  0.075170  1
  Sc  Sc7  1  0.250000  0.858333  0.925966  1
  Pt  Pt8  1  0.250000  0.242989  0.903464  1
  Pt  Pt9  1  0.750000  0.753437  0.104801  1
  Pt  Pt10  1  0.250000  0.753405  0.595739  1
  Pt  Pt11  1  0.750000  0.251095  0.401655  1
