# generated using pymatgen
data_YTm2Mg(Co4P3)2
_symmetry_space_group_name_H-M   'P 1'
_cell_length_a   3.71139100
_cell_length_b   10.58975500
_cell_length_c   12.21897300
_cell_angle_alpha   90.00000000
_cell_angle_beta   90.00000000
_cell_angle_gamma   90.00000000
_symmetry_Int_Tables_number   1
_chemical_formula_structural   YTm2Mg(Co4P3)2
_chemical_formula_sum   'Y2 Tm4 Mg2 Co16 P12'
_cell_volume   480.23889160
_cell_formula_units_Z   2
loop_
 _symmetry_equiv_pos_site_id
 _symmetry_equiv_pos_as_xyz
  1  'x, y, z'
loop_
 _atom_site_type_symbol
 _atom_site_label
 _atom_site_symmetry_multiplicity
 _atom_site_fract_x
 _atom_site_fract_y
 _atom_site_fract_z
 _atom_site_occupancy
  Y  Y0  1  0.000000  0.500000  0.526198  1
  Y  Y1  1  0.500000  0.000000  0.473802  1
  Tm  Tm2  1  0.500000  0.822565  0.206159  1
  Tm  Tm3  1  0.500000  0.177435  0.206159  1
  Tm  Tm4  1  0.000000  0.677435  0.793841  1
  Tm  Tm5  1  0.000000  0.322565  0.793841  1
  Mg  Mg6  1  0.500000  0.500000  0.156099  1
  Mg  Mg7  1  0.000000  0.000000  0.843901  1
  Co  Co8  1  0.500000  0.500000  0.706345  1
  Co  Co9  1  0.000000  0.000000  0.293655  1
  Co  Co10  1  0.000000  0.500000  0.988427  1
  Co  Co11  1  0.500000  0.000000  0.011573  1
  Co  Co12  1  0.500000  0.332453  0.996660  1
  Co  Co13  1  0.500000  0.667547  0.996660  1
  Co  Co14  1  0.000000  0.167547  0.003340  1
  Co  Co15  1  0.000000  0.832453  0.003340  1
  Co  Co16  1  0.500000  0.296164  0.431754  1
  Co  Co17  1  0.500000  0.703836  0.431754  1
  Co  Co18  1  0.000000  0.203836  0.568246  1
  Co  Co19  1  0.000000  0.796164  0.568246  1
  Co  Co20  1  0.500000  0.877188  0.706475  1
  Co  Co21  1  0.500000  0.122812  0.706475  1
  Co  Co22  1  0.000000  0.622812  0.293525  1
  Co  Co23  1  0.000000  0.377188  0.293525  1
  P  P24  1  0.500000  0.500000  0.884813  1
  P  P25  1  0.000000  0.000000  0.115187  1
  P  P26  1  0.500000  0.500000  0.355311  1
  P  P27  1  0.000000  0.000000  0.644689  1
  P  P28  1  0.500000  0.309878  0.616528  1
  P  P29  1  0.500000  0.690122  0.616528  1
  P  P30  1  0.000000  0.190122  0.383472  1
  P  P31  1  0.000000  0.809878  0.383472  1
  P  P32  1  0.500000  0.838081  0.892206  1
  P  P33  1  0.500000  0.161919  0.892206  1
  P  P34  1  0.000000  0.661919  0.107794  1
  P  P35  1  0.000000  0.338081  0.107794  1
