# generated using pymatgen
data_HfCrN2
_symmetry_space_group_name_H-M   'P 1'
_cell_length_a   2.97992300
_cell_length_b   5.30735700
_cell_length_c   10.08377200
_cell_angle_alpha   90.00000000
_cell_angle_beta   90.00000000
_cell_angle_gamma   90.00000000
_symmetry_Int_Tables_number   1
_chemical_formula_structural   HfCrN2
_chemical_formula_sum   'Hf4 Cr4 N8'
_cell_volume   159.48004927
_cell_formula_units_Z   4
loop_
 _symmetry_equiv_pos_site_id
 _symmetry_equiv_pos_as_xyz
  1  'x, y, z'
loop_
 _atom_site_type_symbol
 _atom_site_label
 _atom_site_symmetry_multiplicity
 _atom_site_fract_x
 _atom_site_fract_y
 _atom_site_fract_z
 _atom_site_occupancy
  Hf  Hf0  1  0.750000  0.093795  0.848402  1
  Hf  Hf1  1  0.750000  0.593795  0.651598  1
  Hf  Hf2  1  0.250000  0.906205  0.151598  1
  Hf  Hf3  1  0.250000  0.406205  0.348402  1
  Cr  Cr4  1  0.250000  0.075094  0.587700  1
  Cr  Cr5  1  0.750000  0.424906  0.087700  1
  Cr  Cr6  1  0.250000  0.575094  0.912300  1
  Cr  Cr7  1  0.750000  0.924906  0.412300  1
  N  N8  1  0.250000  0.341189  0.744275  1
  N  N9  1  0.750000  0.158811  0.244275  1
  N  N10  1  0.250000  0.237610  0.001609  1
  N  N11  1  0.750000  0.658811  0.255725  1
  N  N12  1  0.250000  0.841189  0.755725  1
  N  N13  1  0.750000  0.762390  0.998391  1
  N  N14  1  0.750000  0.262390  0.501609  1
  N  N15  1  0.250000  0.737610  0.498391  1
