# generated using pymatgen
data_HoCr2(FeTc4)2
_symmetry_space_group_name_H-M   'P 1'
_cell_length_a   6.75148556
_cell_length_b   6.70230227
_cell_length_c   6.75148508
_cell_angle_alpha   97.39362613
_cell_angle_beta   97.80572964
_cell_angle_gamma   137.88853766
_symmetry_Int_Tables_number   1
_chemical_formula_structural   HoCr2(FeTc4)2
_chemical_formula_sum   'Ho1 Cr2 Fe2 Tc8'
_cell_volume   190.47992873
_cell_formula_units_Z   1
loop_
 _symmetry_equiv_pos_site_id
 _symmetry_equiv_pos_as_xyz
  1  'x, y, z'
loop_
 _atom_site_type_symbol
 _atom_site_label
 _atom_site_symmetry_multiplicity
 _atom_site_fract_x
 _atom_site_fract_y
 _atom_site_fract_z
 _atom_site_occupancy
  Ho  Ho0  1  0.000000  0.000000  0.000000  1
  Cr  Cr1  1  0.000000  0.000000  0.500000  1
  Cr  Cr2  1  0.500000  0.000000  0.000000  1
  Fe  Fe3  1  0.000000  0.500000  0.000000  1
  Fe  Fe4  1  0.500000  0.500000  0.500000  1
  Tc  Tc5  1  0.643485  0.000000  0.643485  1
  Tc  Tc6  1  0.997245  0.641678  0.644432  1
  Tc  Tc7  1  0.002755  0.358322  0.355568  1
  Tc  Tc8  1  0.356515  0.000000  0.356515  1
  Tc  Tc9  1  0.719050  0.500000  0.219050  1
  Tc  Tc10  1  0.499751  0.716749  0.216997  1
  Tc  Tc11  1  0.500249  0.283251  0.783003  1
  Tc  Tc12  1  0.280950  0.500000  0.780950  1
