# generated using pymatgen
data_Lu8Sc4ZnCo4Sn
_symmetry_space_group_name_H-M   'P 1'
_cell_length_a   7.99247765
_cell_length_b   7.99263982
_cell_length_c   7.99247837
_cell_angle_alpha   110.92594493
_cell_angle_beta   110.50633356
_cell_angle_gamma   107.00857667
_symmetry_Int_Tables_number   1
_chemical_formula_structural   Lu8Sc4ZnCo4Sn
_chemical_formula_sum   'Lu8 Sc4 Zn1 Co4 Sn1'
_cell_volume   392.49189979
_cell_formula_units_Z   1
loop_
 _symmetry_equiv_pos_site_id
 _symmetry_equiv_pos_as_xyz
  1  'x, y, z'
loop_
 _atom_site_type_symbol
 _atom_site_label
 _atom_site_symmetry_multiplicity
 _atom_site_fract_x
 _atom_site_fract_y
 _atom_site_fract_z
 _atom_site_occupancy
  Lu  Lu0  1  0.185638  0.282232  0.467864  1
  Lu  Lu1  1  0.814362  0.717768  0.532136  1
  Lu  Lu2  1  0.185630  0.717768  0.903405  1
  Lu  Lu3  1  0.814370  0.282232  0.096595  1
  Lu  Lu4  1  0.317562  0.621960  0.304399  1
  Lu  Lu5  1  0.682438  0.378040  0.695601  1
  Lu  Lu6  1  0.317562  0.013152  0.695590  1
  Lu  Lu7  1  0.682438  0.986848  0.304410  1
  Sc  Sc8  1  0.430091  0.226406  0.203681  1
  Sc  Sc9  1  0.569909  0.773594  0.796319  1
  Sc  Sc10  1  0.022725  0.226406  0.796317  1
  Sc  Sc11  1  0.977275  0.773594  0.203683  1
  Zn  Zn12  1  0.000000  0.000000  0.000000  1
  Co  Co13  1  0.357466  0.000000  0.357466  1
  Co  Co14  1  0.642534  0.000000  0.642534  1
  Co  Co15  1  0.115977  0.615981  0.500004  1
  Co  Co16  1  0.884023  0.384019  0.499996  1
  Sn  Sn17  1  0.500000  0.500000  0.000000  1
