# generated using pymatgen
data_Gd4ReB16Ru3
_symmetry_space_group_name_H-M   'P 1'
_cell_length_a   3.58547800
_cell_length_b   5.98774703
_cell_length_c   11.58288600
_cell_angle_alpha   90.06732407
_cell_angle_beta   90.00000000
_cell_angle_gamma   90.00000000
_symmetry_Int_Tables_number   1
_chemical_formula_structural   Gd4ReB16Ru3
_chemical_formula_sum   'Gd4 Re1 B16 Ru3'
_cell_volume   248.67205794
_cell_formula_units_Z   1
loop_
 _symmetry_equiv_pos_site_id
 _symmetry_equiv_pos_as_xyz
  1  'x, y, z'
loop_
 _atom_site_type_symbol
 _atom_site_label
 _atom_site_symmetry_multiplicity
 _atom_site_fract_x
 _atom_site_fract_y
 _atom_site_fract_z
 _atom_site_occupancy
  Gd  Gd0  1  0.000000  0.628638  0.350500  1
  Gd  Gd1  1  0.000000  0.370970  0.649160  1
  Gd  Gd2  1  0.000000  0.129471  0.150663  1
  Gd  Gd3  1  0.000000  0.871192  0.850207  1
  Re  Re4  1  0.000000  0.637727  0.090336  1
  B  B5  1  0.500000  0.788328  0.185417  1
  B  B6  1  0.500000  0.211364  0.814903  1
  B  B7  1  0.500000  0.287839  0.315242  1
  B  B8  1  0.500000  0.711114  0.684598  1
  B  B9  1  0.500000  0.864219  0.030240  1
  B  B10  1  0.500000  0.136702  0.969068  1
  B  B11  1  0.500000  0.362987  0.469253  1
  B  B12  1  0.500000  0.636802  0.530744  1
  B  B13  1  0.500000  0.888335  0.453605  1
  B  B14  1  0.500000  0.111689  0.546572  1
  B  B15  1  0.500000  0.387874  0.046446  1
  B  B16  1  0.500000  0.611854  0.952840  1
  B  B17  1  0.500000  0.977719  0.309034  1
  B  B18  1  0.500000  0.023976  0.691028  1
  B  B19  1  0.500000  0.476600  0.191380  1
  B  B20  1  0.500000  0.523220  0.808589  1
  Ru  Ru21  1  0.000000  0.362046  0.908874  1
  Ru  Ru22  1  0.000000  0.139444  0.408710  1
  Ru  Ru23  1  0.000000  0.859890  0.592593  1
