# generated using pymatgen
data_Ho2Pa(GaPd)3
_symmetry_space_group_name_H-M   'P 1'
_cell_length_a   7.38231816
_cell_length_b   7.38231891
_cell_length_c   3.79892800
_cell_angle_alpha   90.00000000
_cell_angle_beta   90.00000000
_cell_angle_gamma   120.32744939
_symmetry_Int_Tables_number   1
_chemical_formula_structural   Ho2Pa(GaPd)3
_chemical_formula_sum   'Ho2 Pa1 Ga3 Pd3'
_cell_volume   178.70420861
_cell_formula_units_Z   1
loop_
 _symmetry_equiv_pos_site_id
 _symmetry_equiv_pos_as_xyz
  1  'x, y, z'
loop_
 _atom_site_type_symbol
 _atom_site_label
 _atom_site_symmetry_multiplicity
 _atom_site_fract_x
 _atom_site_fract_y
 _atom_site_fract_z
 _atom_site_occupancy
  Ho  Ho0  1  0.595236  0.997595  0.000000  1
  Ho  Ho1  1  0.997595  0.595236  0.000000  1
  Pa  Pa2  1  0.409602  0.409602  0.000000  1
  Ga  Ga3  1  0.751718  0.751718  0.500000  1
  Ga  Ga4  1  0.257038  0.991305  0.500000  1
  Ga  Ga5  1  0.991305  0.257038  0.500000  1
  Pd  Pd6  1  0.010307  0.010307  0.000000  1
  Pd  Pd7  1  0.653927  0.333272  0.500000  1
  Pd  Pd8  1  0.333272  0.653927  0.500000  1
