# generated using pymatgen
data_LaCu4HgO8
_symmetry_space_group_name_H-M   'P 1'
_cell_length_a   6.38203522
_cell_length_b   6.38203509
_cell_length_c   6.38203522
_cell_angle_alpha   125.03243558
_cell_angle_beta   125.03244001
_cell_angle_gamma   81.48431070
_symmetry_Int_Tables_number   1
_chemical_formula_structural   LaCu4HgO8
_chemical_formula_sum   'La1 Cu4 Hg1 O8'
_cell_volume   167.78278911
_cell_formula_units_Z   1
loop_
 _symmetry_equiv_pos_site_id
 _symmetry_equiv_pos_as_xyz
  1  'x, y, z'
loop_
 _atom_site_type_symbol
 _atom_site_label
 _atom_site_symmetry_multiplicity
 _atom_site_fract_x
 _atom_site_fract_y
 _atom_site_fract_z
 _atom_site_occupancy
  La  La0  1  0.750000  0.250000  0.500000  1
  Cu  Cu1  1  0.374119  0.626877  0.250156  1
  Cu  Cu2  1  0.376721  0.123963  0.749844  1
  Cu  Cu3  1  0.373123  0.623279  0.747242  1
  Cu  Cu4  1  0.876037  0.625881  0.252758  1
  Hg  Hg5  1  0.000000  0.000000  0.000000  1
  O  O6  1  0.724367  0.307666  0.128970  1
  O  O7  1  0.178696  0.595397  0.871030  1
  O  O8  1  0.027397  0.941125  0.370621  1
  O  O9  1  0.570505  0.656776  0.629379  1
  O  O10  1  0.058875  0.429495  0.086272  1
  O  O11  1  0.343224  0.972603  0.913728  1
  O  O12  1  0.404603  0.275633  0.583299  1
  O  O13  1  0.692334  0.821304  0.416701  1
