# generated using pymatgen
data_Y4Mn3VB16
_symmetry_space_group_name_H-M   'P 1'
_cell_length_a   3.42977000
_cell_length_b   5.93154091
_cell_length_c   11.46778377
_cell_angle_alpha   90.06355720
_cell_angle_beta   90.00000000
_cell_angle_gamma   90.00000000
_symmetry_Int_Tables_number   1
_chemical_formula_structural   Y4Mn3VB16
_chemical_formula_sum   'Y4 Mn3 V1 B16'
_cell_volume   233.29839748
_cell_formula_units_Z   1
loop_
 _symmetry_equiv_pos_site_id
 _symmetry_equiv_pos_as_xyz
  1  'x, y, z'
loop_
 _atom_site_type_symbol
 _atom_site_label
 _atom_site_symmetry_multiplicity
 _atom_site_fract_x
 _atom_site_fract_y
 _atom_site_fract_z
 _atom_site_occupancy
  Y  Y0  1  0.000000  0.625873  0.350837  1
  Y  Y1  1  0.000000  0.374051  0.650136  1
  Y  Y2  1  0.000000  0.124906  0.151514  1
  Y  Y3  1  0.000000  0.876450  0.848110  1
  Mn  Mn4  1  0.000000  0.376834  0.917908  1
  Mn  Mn5  1  0.000000  0.127476  0.417731  1
  Mn  Mn6  1  0.000000  0.872778  0.583957  1
  V  V7  1  0.000000  0.624054  0.080843  1
  B  B8  1  0.500000  0.783996  0.186102  1
  B  B9  1  0.500000  0.220667  0.816486  1
  B  B10  1  0.500000  0.279441  0.317438  1
  B  B11  1  0.500000  0.719409  0.683399  1
  B  B12  1  0.500000  0.864945  0.031098  1
  B  B13  1  0.500000  0.138475  0.965887  1
  B  B14  1  0.500000  0.361281  0.468236  1
  B  B15  1  0.500000  0.638364  0.532514  1
  B  B16  1  0.500000  0.887853  0.454345  1
  B  B17  1  0.500000  0.112034  0.546766  1
  B  B18  1  0.500000  0.383904  0.044261  1
  B  B19  1  0.500000  0.610161  0.950983  1
  B  B20  1  0.500000  0.975702  0.310172  1
  B  B21  1  0.500000  0.025373  0.690799  1
  B  B22  1  0.500000  0.472832  0.192177  1
  B  B23  1  0.500000  0.523141  0.808300  1
