# generated using pymatgen
data_Ta(TiBi)4
_symmetry_space_group_name_H-M   'P 1'
_cell_length_a   7.80507773
_cell_length_b   7.80507622
_cell_length_c   7.79403770
_cell_angle_alpha   93.05875420
_cell_angle_beta   93.04675248
_cell_angle_gamma   153.33428372
_symmetry_Int_Tables_number   1
_chemical_formula_structural   Ta(TiBi)4
_chemical_formula_sum   'Ta1 Ti4 Bi4'
_cell_volume   207.32595990
_cell_formula_units_Z   1
loop_
 _symmetry_equiv_pos_site_id
 _symmetry_equiv_pos_as_xyz
  1  'x, y, z'
loop_
 _atom_site_type_symbol
 _atom_site_label
 _atom_site_symmetry_multiplicity
 _atom_site_fract_x
 _atom_site_fract_y
 _atom_site_fract_z
 _atom_site_occupancy
  Ta  Ta0  1  0.000000  0.000000  0.000000  1
  Ti  Ti1  1  0.613503  0.678925  0.292428  1
  Ti  Ti2  1  0.386497  0.321075  0.707572  1
  Ti  Ti3  1  0.321031  0.613494  0.934524  1
  Ti  Ti4  1  0.678969  0.386506  0.065476  1
  Bi  Bi5  1  0.708725  0.936496  0.645219  1
  Bi  Bi6  1  0.291275  0.063504  0.354781  1
  Bi  Bi7  1  0.063238  0.708709  0.771945  1
  Bi  Bi8  1  0.936762  0.291291  0.228055  1
