# generated using pymatgen
data_Tb15Dy4LuPb16
_symmetry_space_group_name_H-M   'P 1'
_cell_length_a   8.21030105
_cell_length_b   8.30373282
_cell_length_c   15.68321903
_cell_angle_alpha   90.00681336
_cell_angle_beta   89.99967836
_cell_angle_gamma   89.95944628
_symmetry_Int_Tables_number   1
_chemical_formula_structural   Tb15Dy4LuPb16
_chemical_formula_sum   'Tb15 Dy4 Lu1 Pb16'
_cell_volume   1069.22115962
_cell_formula_units_Z   1
loop_
 _symmetry_equiv_pos_site_id
 _symmetry_equiv_pos_as_xyz
  1  'x, y, z'
loop_
 _atom_site_type_symbol
 _atom_site_label
 _atom_site_symmetry_multiplicity
 _atom_site_fract_x
 _atom_site_fract_y
 _atom_site_fract_z
 _atom_site_occupancy
  Tb  Tb0  1  0.877373  0.658649  0.620573  1
  Tb  Tb1  1  0.623146  0.159125  0.379557  1
  Tb  Tb2  1  0.123226  0.340904  0.120141  1
  Tb  Tb3  1  0.623180  0.159199  0.120484  1
  Tb  Tb4  1  0.123208  0.340878  0.379821  1
  Tb  Tb5  1  0.376403  0.840671  0.620537  1
  Tb  Tb6  1  0.877444  0.658635  0.879446  1
  Tb  Tb7  1  0.533658  0.323578  0.899720  1
  Tb  Tb8  1  0.034275  0.177173  0.600255  1
  Tb  Tb9  1  0.466080  0.676686  0.399881  1
  Tb  Tb10  1  0.965974  0.823252  0.100337  1
  Tb  Tb11  1  0.466012  0.676728  0.100019  1
  Tb  Tb12  1  0.965992  0.823312  0.399672  1
  Tb  Tb13  1  0.533656  0.323651  0.600301  1
  Tb  Tb14  1  0.034350  0.177125  0.899742  1
  Dy  Dy15  1  0.376315  0.840746  0.879455  1
  Dy  Dy16  1  0.708604  0.996380  0.750060  1
  Dy  Dy17  1  0.791167  0.496449  0.250003  1
  Dy  Dy18  1  0.291164  0.003732  0.249990  1
  Lu  Lu19  1  0.209264  0.504199  0.750084  1
  Pb  Pb20  1  0.281228  0.032921  0.042673  1
  Pb  Pb21  1  0.781033  0.466607  0.457126  1
  Pb  Pb22  1  0.719019  0.966722  0.543069  1
  Pb  Pb23  1  0.219109  0.533285  0.956136  1
  Pb  Pb24  1  0.718625  0.966613  0.956863  1
  Pb  Pb25  1  0.218865  0.532897  0.543796  1
  Pb  Pb26  1  0.281111  0.033195  0.457084  1
  Pb  Pb27  1  0.781020  0.466591  0.042873  1
  Pb  Pb28  1  0.570954  0.625615  0.750098  1
  Pb  Pb29  1  0.073114  0.872939  0.750095  1
  Pb  Pb30  1  0.427336  0.373797  0.250002  1
  Pb  Pb31  1  0.927430  0.126391  0.250011  1
  Pb  Pb32  1  0.345077  0.153907  0.750074  1
  Pb  Pb33  1  0.845821  0.347975  0.750004  1
  Pb  Pb34  1  0.654797  0.847522  0.250010  1
  Pb  Pb35  1  0.154979  0.651958  0.250011  1
