# generated using pymatgen
data_K6Tc2N4O3
_symmetry_space_group_name_H-M   'P 1'
_cell_length_a   9.60817100
_cell_length_b   6.84060591
_cell_length_c   11.56107319
_cell_angle_alpha   55.42029190
_cell_angle_beta   90.00000000
_cell_angle_gamma   90.00000000
_symmetry_Int_Tables_number   1
_chemical_formula_structural   K6Tc2N4O3
_chemical_formula_sum   'K12 Tc4 N8 O6'
_cell_volume   625.62097753
_cell_formula_units_Z   2
loop_
 _symmetry_equiv_pos_site_id
 _symmetry_equiv_pos_as_xyz
  1  'x, y, z'
loop_
 _atom_site_type_symbol
 _atom_site_label
 _atom_site_symmetry_multiplicity
 _atom_site_fract_x
 _atom_site_fract_y
 _atom_site_fract_z
 _atom_site_occupancy
  K  K0  1  0.524188  0.195906  0.546940  1
  K  K1  1  0.975812  0.195906  0.046940  1
  K  K2  1  0.475812  0.804094  0.453060  1
  K  K3  1  0.024188  0.804094  0.953060  1
  K  K4  1  0.657092  0.944210  0.929297  1
  K  K5  1  0.842908  0.944210  0.429297  1
  K  K6  1  0.342908  0.055790  0.070703  1
  K  K7  1  0.157092  0.055790  0.570703  1
  K  K8  1  0.697808  0.585202  0.778983  1
  K  K9  1  0.802192  0.585202  0.278983  1
  K  K10  1  0.302192  0.414798  0.221017  1
  K  K11  1  0.197808  0.414798  0.721017  1
  Tc  Tc12  1  0.649977  0.307054  0.127552  1
  Tc  Tc13  1  0.850023  0.307054  0.627552  1
  Tc  Tc14  1  0.350023  0.692946  0.872448  1
  Tc  Tc15  1  0.149977  0.692946  0.372448  1
  N  N16  1  0.674201  0.038270  0.141071  1
  N  N17  1  0.825799  0.038270  0.641071  1
  N  N18  1  0.325799  0.961730  0.858929  1
  N  N19  1  0.174201  0.961730  0.358929  1
  N  N20  1  0.699634  0.485386  0.575522  1
  N  N21  1  0.800366  0.485386  0.075522  1
  N  N22  1  0.300366  0.514614  0.424478  1
  N  N23  1  0.199634  0.514614  0.924478  1
  O  O24  1  0.500000  0.500000  0.000000  1
  O  O25  1  0.000000  0.500000  0.500000  1
  O  O26  1  0.577836  0.252565  0.299263  1
  O  O27  1  0.922164  0.252565  0.799263  1
  O  O28  1  0.422164  0.747435  0.700737  1
  O  O29  1  0.077836  0.747435  0.200737  1
