# generated using pymatgen
data_Ho20Ga8SnBi3
_symmetry_space_group_name_H-M   'P 1'
_cell_length_a   8.18263200
_cell_length_b   8.18263200
_cell_length_c   12.63985400
_cell_angle_alpha   90.00000000
_cell_angle_beta   90.00000000
_cell_angle_gamma   90.00000000
_symmetry_Int_Tables_number   1
_chemical_formula_structural   Ho20Ga8SnBi3
_chemical_formula_sum   'Ho20 Ga8 Sn1 Bi3'
_cell_volume   846.30732040
_cell_formula_units_Z   1
loop_
 _symmetry_equiv_pos_site_id
 _symmetry_equiv_pos_as_xyz
  1  'x, y, z'
loop_
 _atom_site_type_symbol
 _atom_site_label
 _atom_site_symmetry_multiplicity
 _atom_site_fract_x
 _atom_site_fract_y
 _atom_site_fract_z
 _atom_site_occupancy
  Ho  Ho0  1  0.000000  0.500000  0.744535  1
  Ho  Ho1  1  0.000000  0.500000  0.255642  1
  Ho  Ho2  1  0.500000  0.000000  0.250228  1
  Ho  Ho3  1  0.500000  0.000000  0.748501  1
  Ho  Ho4  1  0.656433  0.649381  0.607915  1
  Ho  Ho5  1  0.652919  0.348369  0.107516  1
  Ho  Ho6  1  0.850179  0.843932  0.392131  1
  Ho  Ho7  1  0.151846  0.847461  0.892575  1
  Ho  Ho8  1  0.343567  0.350619  0.607915  1
  Ho  Ho9  1  0.347081  0.651631  0.107516  1
  Ho  Ho10  1  0.149821  0.156068  0.392131  1
  Ho  Ho11  1  0.848154  0.152539  0.892575  1
  Ho  Ho12  1  0.656068  0.350179  0.392131  1
  Ho  Ho13  1  0.347461  0.348154  0.892575  1
  Ho  Ho14  1  0.149381  0.843567  0.607915  1
  Ho  Ho15  1  0.848369  0.847081  0.107516  1
  Ho  Ho16  1  0.343932  0.649821  0.392131  1
  Ho  Ho17  1  0.652539  0.651846  0.892575  1
  Ho  Ho18  1  0.850619  0.156433  0.607915  1
  Ho  Ho19  1  0.151631  0.152919  0.107516  1
  Ga  Ga20  1  0.851805  0.852970  0.750880  1
  Ga  Ga21  1  0.851818  0.146906  0.249122  1
  Ga  Ga22  1  0.646906  0.648182  0.249122  1
  Ga  Ga23  1  0.352970  0.648195  0.750880  1
  Ga  Ga24  1  0.148195  0.147030  0.750880  1
  Ga  Ga25  1  0.148182  0.853094  0.249122  1
  Ga  Ga26  1  0.353094  0.351818  0.249122  1
  Ga  Ga27  1  0.647030  0.351805  0.750880  1
  Sn  Sn28  1  0.000000  0.500000  0.501114  1
  Bi  Bi29  1  0.000000  0.500000  0.000333  1
  Bi  Bi30  1  0.500000  0.000000  0.499557  1
  Bi  Bi31  1  0.500000  0.000000  0.999533  1
