# generated using pymatgen
data_RbSbPt2Pb
_symmetry_space_group_name_H-M   'P 1'
_cell_length_a   4.82559560
_cell_length_b   4.82559566
_cell_length_c   7.32003400
_cell_angle_alpha   103.01308976
_cell_angle_beta   103.01307775
_cell_angle_gamma   98.48371982
_symmetry_Int_Tables_number   1
_chemical_formula_structural   RbSbPt2Pb
_chemical_formula_sum   'Rb1 Sb1 Pt2 Pb1'
_cell_volume   158.24701816
_cell_formula_units_Z   1
loop_
 _symmetry_equiv_pos_site_id
 _symmetry_equiv_pos_as_xyz
  1  'x, y, z'
loop_
 _atom_site_type_symbol
 _atom_site_label
 _atom_site_symmetry_multiplicity
 _atom_site_fract_x
 _atom_site_fract_y
 _atom_site_fract_z
 _atom_site_occupancy
  Rb  Rb0  1  0.993995  0.993995  0.991566  1
  Sb  Sb1  1  0.376897  0.376897  0.658822  1
  Pt  Pt2  1  0.806148  0.205530  0.515549  1
  Pt  Pt3  1  0.205530  0.806148  0.515549  1
  Pb  Pb4  1  0.617427  0.617427  0.318515  1
