# generated using pymatgen
data_Pa5Fe18CoP12
_symmetry_space_group_name_H-M   'P 1'
_cell_length_a   11.96382700
_cell_length_b   11.96382666
_cell_length_c   3.71394000
_cell_angle_alpha   90.00000000
_cell_angle_beta   90.00000000
_cell_angle_gamma   119.99999819
_symmetry_Int_Tables_number   1
_chemical_formula_structural   Pa5Fe18CoP12
_chemical_formula_sum   'Pa5 Fe18 Co1 P12'
_cell_volume   460.36866873
_cell_formula_units_Z   1
loop_
 _symmetry_equiv_pos_site_id
 _symmetry_equiv_pos_as_xyz
  1  'x, y, z'
loop_
 _atom_site_type_symbol
 _atom_site_label
 _atom_site_symmetry_multiplicity
 _atom_site_fract_x
 _atom_site_fract_y
 _atom_site_fract_z
 _atom_site_occupancy
  Pa  Pa0  1  0.666667  0.333333  0.000000  1
  Pa  Pa1  1  0.333333  0.666667  0.000000  1
  Pa  Pa2  1  0.190880  0.190880  0.500000  1
  Pa  Pa3  1  0.809120  0.000000  0.500000  1
  Pa  Pa4  1  0.000000  0.809120  0.500000  1
  Fe  Fe5  1  0.819178  0.194812  0.000000  1
  Fe  Fe6  1  0.805188  0.624366  0.000000  1
  Fe  Fe7  1  0.375634  0.180822  0.000000  1
  Fe  Fe8  1  0.194812  0.819178  0.000000  1
  Fe  Fe9  1  0.624366  0.805188  0.000000  1
  Fe  Fe10  1  0.180822  0.375634  0.000000  1
  Fe  Fe11  1  0.559654  0.559654  0.000000  1
  Fe  Fe12  1  0.440346  0.000000  0.000000  1
  Fe  Fe13  1  0.000000  0.440346  0.000000  1
  Fe  Fe14  1  0.635797  0.124502  0.500000  1
  Fe  Fe15  1  0.875498  0.511295  0.500000  1
  Fe  Fe16  1  0.488705  0.364203  0.500000  1
  Fe  Fe17  1  0.124502  0.635797  0.500000  1
  Fe  Fe18  1  0.511295  0.875498  0.500000  1
  Fe  Fe19  1  0.364203  0.488705  0.500000  1
  Fe  Fe20  1  0.717944  0.717944  0.500000  1
  Fe  Fe21  1  0.282056  0.000000  0.500000  1
  Fe  Fe22  1  0.000000  0.282056  0.500000  1
  Co  Co23  1  0.000000  0.000000  0.000000  1
  P  P24  1  0.376065  0.376065  0.000000  1
  P  P25  1  0.623935  0.000000  0.000000  1
  P  P26  1  0.000000  0.623935  0.000000  1
  P  P27  1  0.834454  0.309308  0.500000  1
  P  P28  1  0.690692  0.525146  0.500000  1
  P  P29  1  0.474854  0.165546  0.500000  1
  P  P30  1  0.309308  0.834454  0.500000  1
  P  P31  1  0.525146  0.690692  0.500000  1
  P  P32  1  0.165546  0.474854  0.500000  1
  P  P33  1  0.816044  0.816044  0.000000  1
  P  P34  1  0.183956  0.000000  0.000000  1
  P  P35  1  0.000000  0.183956  0.000000  1
