# generated using pymatgen
data_Nb2Ni3Se8
_symmetry_space_group_name_H-M   'P 1'
_cell_length_a   3.51361600
_cell_length_b   10.68166600
_cell_length_c   14.93104700
_cell_angle_alpha   90.00000000
_cell_angle_beta   90.00000000
_cell_angle_gamma   90.00000000
_symmetry_Int_Tables_number   1
_chemical_formula_structural   Nb2Ni3Se8
_chemical_formula_sum   'Nb4 Ni6 Se16'
_cell_volume   560.38119463
_cell_formula_units_Z   2
loop_
 _symmetry_equiv_pos_site_id
 _symmetry_equiv_pos_as_xyz
  1  'x, y, z'
loop_
 _atom_site_type_symbol
 _atom_site_label
 _atom_site_symmetry_multiplicity
 _atom_site_fract_x
 _atom_site_fract_y
 _atom_site_fract_z
 _atom_site_occupancy
  Nb  Nb0  1  0.500000  0.200421  0.119976  1
  Nb  Nb1  1  0.500000  0.700421  0.380024  1
  Nb  Nb2  1  0.500000  0.299579  0.619976  1
  Nb  Nb3  1  0.500000  0.799579  0.880024  1
  Ni  Ni4  1  0.000000  0.366107  0.223599  1
  Ni  Ni5  1  0.000000  0.633893  0.776401  1
  Ni  Ni6  1  0.000000  0.000000  0.000000  1
  Ni  Ni7  1  0.000000  0.866107  0.276401  1
  Ni  Ni8  1  0.000000  0.133893  0.723599  1
  Ni  Ni9  1  0.000000  0.500000  0.500000  1
  Se  Se10  1  0.000000  0.975134  0.843523  1
  Se  Se11  1  0.500000  0.745575  0.212040  1
  Se  Se12  1  0.500000  0.754425  0.712040  1
  Se  Se13  1  0.000000  0.524866  0.343523  1
  Se  Se14  1  0.500000  0.245575  0.287960  1
  Se  Se15  1  0.000000  0.719471  0.508550  1
  Se  Se16  1  0.000000  0.219471  0.991450  1
  Se  Se17  1  0.500000  0.558072  0.868989  1
  Se  Se18  1  0.000000  0.280529  0.491450  1
  Se  Se19  1  0.500000  0.441928  0.131011  1
  Se  Se20  1  0.500000  0.058072  0.631011  1
  Se  Se21  1  0.000000  0.024866  0.156477  1
  Se  Se22  1  0.500000  0.941928  0.368989  1
  Se  Se23  1  0.000000  0.780529  0.008550  1
  Se  Se24  1  0.500000  0.254425  0.787960  1
  Se  Se25  1  0.000000  0.475134  0.656477  1
