# generated using pymatgen
data_Lu5Ge2Se3
_symmetry_space_group_name_H-M   'P 1'
_cell_length_a   6.99254814
_cell_length_b   6.99254808
_cell_length_c   6.99464300
_cell_angle_alpha   99.13800076
_cell_angle_beta   99.78097447
_cell_angle_gamma   132.16024794
_symmetry_Int_Tables_number   1
_chemical_formula_structural   Lu5Ge2Se3
_chemical_formula_sum   'Lu5 Ge2 Se3'
_cell_volume   231.75507511
_cell_formula_units_Z   1
loop_
 _symmetry_equiv_pos_site_id
 _symmetry_equiv_pos_as_xyz
  1  'x, y, z'
loop_
 _atom_site_type_symbol
 _atom_site_label
 _atom_site_symmetry_multiplicity
 _atom_site_fract_x
 _atom_site_fract_y
 _atom_site_fract_z
 _atom_site_occupancy
  Lu  Lu0  1  0.393986  0.787103  0.181089  1
  Lu  Lu1  1  0.002689  0.993978  0.996667  1
  Lu  Lu2  1  0.597140  0.206553  0.803692  1
  Lu  Lu3  1  0.206502  0.412455  0.618957  1
  Lu  Lu4  1  0.799450  0.599930  0.399380  1
  Ge  Ge5  1  0.503290  0.501244  0.004534  1
  Ge  Ge6  1  0.096714  0.698737  0.795453  1
  Se  Se7  1  0.695108  0.899198  0.594305  1
  Se  Se8  1  0.300128  0.099469  0.399597  1
  Se  Se9  1  0.904993  0.301333  0.206327  1
