# generated using pymatgen
data_Pr3Tl2InPd2Rh
_symmetry_space_group_name_H-M   'P 1'
_cell_length_a   7.94052037
_cell_length_b   7.95926488
_cell_length_c   3.97404500
_cell_angle_alpha   90.00000000
_cell_angle_beta   90.00000000
_cell_angle_gamma   119.88572729
_symmetry_Int_Tables_number   1
_chemical_formula_structural   Pr3Tl2InPd2Rh
_chemical_formula_sum   'Pr3 Tl2 In1 Pd2 Rh1'
_cell_volume   217.76308890
_cell_formula_units_Z   1
loop_
 _symmetry_equiv_pos_site_id
 _symmetry_equiv_pos_as_xyz
  1  'x, y, z'
loop_
 _atom_site_type_symbol
 _atom_site_label
 _atom_site_symmetry_multiplicity
 _atom_site_fract_x
 _atom_site_fract_y
 _atom_site_fract_z
 _atom_site_occupancy
  Pr  Pr0  1  0.989505  0.585646  0.500000  1
  Pr  Pr1  1  0.416185  0.402358  0.500000  1
  Pr  Pr2  1  0.596171  0.011505  0.500000  1
  Tl  Tl3  1  0.738940  0.741067  0.000000  1
  Tl  Tl4  1  0.002741  0.261028  0.000000  1
  In  In5  1  0.257481  0.997795  0.000000  1
  Pd  Pd6  1  0.332133  0.674299  0.000000  1
  Pd  Pd7  1  0.009069  0.000183  0.500000  1
  Rh  Rh8  1  0.657774  0.326120  0.000000  1
