# generated using pymatgen
data_Sc12TlFe3Sn
_symmetry_space_group_name_H-M   'P 1'
_cell_length_a   7.78559873
_cell_length_b   7.78559868
_cell_length_c   7.78559800
_cell_angle_alpha   108.19620157
_cell_angle_beta   108.67379533
_cell_angle_gamma   111.56449222
_symmetry_Int_Tables_number   1
_chemical_formula_structural   Sc12TlFe3Sn
_chemical_formula_sum   'Sc12 Tl1 Fe3 Sn1'
_cell_volume   362.91934444
_cell_formula_units_Z   1
loop_
 _symmetry_equiv_pos_site_id
 _symmetry_equiv_pos_as_xyz
  1  'x, y, z'
loop_
 _atom_site_type_symbol
 _atom_site_label
 _atom_site_symmetry_multiplicity
 _atom_site_fract_x
 _atom_site_fract_y
 _atom_site_fract_z
 _atom_site_occupancy
  Sc  Sc0  1  0.303174  0.306771  0.609945  1
  Sc  Sc1  1  0.696826  0.693229  0.390055  1
  Sc  Sc2  1  0.696826  0.306771  0.003596  1
  Sc  Sc3  1  0.303174  0.693229  0.996404  1
  Sc  Sc4  1  0.192759  0.426703  0.233943  1
  Sc  Sc5  1  0.807241  0.573297  0.766057  1
  Sc  Sc6  1  0.192759  0.958814  0.766057  1
  Sc  Sc7  1  0.959890  0.194341  0.765550  1
  Sc  Sc8  1  0.807241  0.041186  0.233943  1
  Sc  Sc9  1  0.040110  0.805659  0.234450  1
  Sc  Sc10  1  0.428791  0.194341  0.234450  1
  Sc  Sc11  1  0.571209  0.805659  0.765550  1
  Tl  Tl12  1  0.000000  0.500000  0.500000  1
  Fe  Fe13  1  0.379591  0.379591  0.000000  1
  Fe  Fe14  1  0.620409  0.620409  0.000000  1
  Fe  Fe15  1  0.000000  0.000000  0.000000  1
  Sn  Sn16  1  0.500000  0.000000  0.500000  1
