# generated using pymatgen
data_Sm3MgPaInRh3
_symmetry_space_group_name_H-M   'P 1'
_cell_length_a   7.54646312
_cell_length_b   7.57339754
_cell_length_c   4.23011500
_cell_angle_alpha   90.00000000
_cell_angle_beta   90.00000000
_cell_angle_gamma   120.95000997
_symmetry_Int_Tables_number   1
_chemical_formula_structural   Sm3MgPaInRh3
_chemical_formula_sum   'Sm3 Mg1 Pa1 In1 Rh3'
_cell_volume   207.33825033
_cell_formula_units_Z   1
loop_
 _symmetry_equiv_pos_site_id
 _symmetry_equiv_pos_as_xyz
  1  'x, y, z'
loop_
 _atom_site_type_symbol
 _atom_site_label
 _atom_site_symmetry_multiplicity
 _atom_site_fract_x
 _atom_site_fract_y
 _atom_site_fract_z
 _atom_site_occupancy
  Sm  Sm0  1  0.968895  0.406751  0.500000  1
  Sm  Sm1  1  0.624320  0.625531  0.500000  1
  Sm  Sm2  1  0.409849  0.972952  0.500000  1
  Mg  Mg3  1  0.002031  0.754213  0.000000  1
  Pa  Pa4  1  0.265386  0.269251  0.000000  1
  In  In5  1  0.752168  0.002243  0.000000  1
  Rh  Rh6  1  0.319801  0.629193  0.000000  1
  Rh  Rh7  1  0.032234  0.022853  0.500000  1
  Rh  Rh8  1  0.625316  0.317011  0.000000  1
