# generated using pymatgen
data_Al(FeMo)6
_symmetry_space_group_name_H-M   'P 1'
_cell_length_a   9.07530296
_cell_length_b   9.07530273
_cell_length_c   9.07530303
_cell_angle_alpha   30.66081965
_cell_angle_beta   30.66082110
_cell_angle_gamma   30.66082516
_symmetry_Int_Tables_number   1
_chemical_formula_structural   Al(FeMo)6
_chemical_formula_sum   'Al1 Fe6 Mo6'
_cell_volume   172.34690447
_cell_formula_units_Z   1
loop_
 _symmetry_equiv_pos_site_id
 _symmetry_equiv_pos_as_xyz
  1  'x, y, z'
loop_
 _atom_site_type_symbol
 _atom_site_label
 _atom_site_symmetry_multiplicity
 _atom_site_fract_x
 _atom_site_fract_y
 _atom_site_fract_z
 _atom_site_occupancy
  Al  Al0  1  0.000000  0.000000  0.000000  1
  Fe  Fe1  1  0.583524  0.091134  0.091134  1
  Fe  Fe2  1  0.091134  0.091134  0.583524  1
  Fe  Fe3  1  0.908866  0.908866  0.416476  1
  Fe  Fe4  1  0.908866  0.416476  0.908866  1
  Fe  Fe5  1  0.091134  0.583524  0.091134  1
  Fe  Fe6  1  0.416476  0.908866  0.908866  1
  Mo  Mo7  1  0.349667  0.349667  0.349667  1
  Mo  Mo8  1  0.167354  0.167354  0.167354  1
  Mo  Mo9  1  0.549269  0.549269  0.549269  1
  Mo  Mo10  1  0.650333  0.650333  0.650333  1
  Mo  Mo11  1  0.450731  0.450731  0.450731  1
  Mo  Mo12  1  0.832646  0.832646  0.832646  1
