# generated using pymatgen
data_Nd3Sn2HgPt3
_symmetry_space_group_name_H-M   'P 1'
_cell_length_a   7.72875515
_cell_length_b   7.83404340
_cell_length_c   4.02783600
_cell_angle_alpha   90.00000000
_cell_angle_beta   90.00000000
_cell_angle_gamma   120.45167047
_symmetry_Int_Tables_number   1
_chemical_formula_structural   Nd3Sn2HgPt3
_chemical_formula_sum   'Nd3 Sn2 Hg1 Pt3'
_cell_volume   210.23415202
_cell_formula_units_Z   1
loop_
 _symmetry_equiv_pos_site_id
 _symmetry_equiv_pos_as_xyz
  1  'x, y, z'
loop_
 _atom_site_type_symbol
 _atom_site_label
 _atom_site_symmetry_multiplicity
 _atom_site_fract_x
 _atom_site_fract_y
 _atom_site_fract_z
 _atom_site_occupancy
  Nd  Nd0  1  0.601274  0.594423  0.000000  1
  Nd  Nd1  1  0.398726  0.993149  0.000000  1
  Nd  Nd2  1  0.000000  0.417479  0.000000  1
  Sn  Sn3  1  0.253786  0.255372  0.500000  1
  Sn  Sn4  1  0.746214  0.001586  0.500000  1
  Hg  Hg5  1  0.000000  0.738364  0.500000  1
  Pt  Pt6  1  0.000000  0.015852  0.000000  1
  Pt  Pt7  1  0.343688  0.663732  0.500000  1
  Pt  Pt8  1  0.656312  0.320043  0.500000  1
