# generated using pymatgen
data_Pa2TcSn2Ir
_symmetry_space_group_name_H-M   'P 1'
_cell_length_a   7.44819100
_cell_length_b   7.44819108
_cell_length_c   8.11071800
_cell_angle_alpha   90.00000000
_cell_angle_beta   90.00000000
_cell_angle_gamma   120.00000289
_symmetry_Int_Tables_number   1
_chemical_formula_structural   Pa2TcSn2Ir
_chemical_formula_sum   'Pa6 Tc3 Sn6 Ir3'
_cell_volume   389.66512271
_cell_formula_units_Z   3
loop_
 _symmetry_equiv_pos_site_id
 _symmetry_equiv_pos_as_xyz
  1  'x, y, z'
loop_
 _atom_site_type_symbol
 _atom_site_label
 _atom_site_symmetry_multiplicity
 _atom_site_fract_x
 _atom_site_fract_y
 _atom_site_fract_z
 _atom_site_occupancy
  Pa  Pa0  1  0.410311  0.002753  0.252497  1
  Pa  Pa1  1  0.591467  0.590486  0.747537  1
  Pa  Pa2  1  0.592443  0.589689  0.252497  1
  Pa  Pa3  1  0.997247  0.407557  0.252497  1
  Pa  Pa4  1  0.999017  0.408533  0.747537  1
  Pa  Pa5  1  0.409514  0.000983  0.747537  1
  Tc  Tc6  1  0.666667  0.333333  0.500998  1
  Tc  Tc7  1  0.000000  0.000000  0.751379  1
  Tc  Tc8  1  0.000000  0.000000  0.248644  1
  Sn  Sn9  1  0.255042  0.253154  0.500065  1
  Sn  Sn10  1  0.255252  0.255887  0.999989  1
  Sn  Sn11  1  0.744113  0.999365  0.999989  1
  Sn  Sn12  1  0.998112  0.744958  0.500065  1
  Sn  Sn13  1  0.746846  0.001888  0.500065  1
  Sn  Sn14  1  0.000635  0.744748  0.999989  1
  Ir  Ir15  1  0.666667  0.333333  0.998635  1
  Ir  Ir16  1  0.333333  0.666667  0.000927  1
  Ir  Ir17  1  0.333333  0.666667  0.499155  1
