# generated using pymatgen
data_Nd4Y5LuPb8
_symmetry_space_group_name_H-M   'P 1'
_cell_length_a   8.27408400
_cell_length_b   8.33588000
_cell_length_c   15.79136400
_cell_angle_alpha   90.00000000
_cell_angle_beta   90.00000000
_cell_angle_gamma   90.00000000
_symmetry_Int_Tables_number   1
_chemical_formula_structural   Nd4Y5LuPb8
_chemical_formula_sum   'Nd8 Y10 Lu2 Pb16'
_cell_volume   1089.15834686
_cell_formula_units_Z   2
loop_
 _symmetry_equiv_pos_site_id
 _symmetry_equiv_pos_as_xyz
  1  'x, y, z'
loop_
 _atom_site_type_symbol
 _atom_site_label
 _atom_site_symmetry_multiplicity
 _atom_site_fract_x
 _atom_site_fract_y
 _atom_site_fract_z
 _atom_site_occupancy
  Nd  Nd0  1  0.476244  0.676345  0.597456  1
  Nd  Nd1  1  0.976244  0.823655  0.902544  1
  Nd  Nd2  1  0.521937  0.321508  0.096430  1
  Nd  Nd3  1  0.021937  0.178492  0.403570  1
  Nd  Nd4  1  0.521937  0.321508  0.403570  1
  Nd  Nd5  1  0.021937  0.178492  0.096430  1
  Nd  Nd6  1  0.476244  0.676345  0.902544  1
  Nd  Nd7  1  0.976244  0.823655  0.597456  1
  Y  Y8  1  0.634867  0.158193  0.622279  1
  Y  Y9  1  0.134867  0.341807  0.877721  1
  Y  Y10  1  0.366197  0.841518  0.122299  1
  Y  Y11  1  0.866197  0.658482  0.377701  1
  Y  Y12  1  0.366197  0.841518  0.377701  1
  Y  Y13  1  0.866197  0.658482  0.122299  1
  Y  Y14  1  0.634867  0.158193  0.877721  1
  Y  Y15  1  0.134867  0.341807  0.622279  1
  Y  Y16  1  0.801287  0.496007  0.750000  1
  Y  Y17  1  0.301287  0.003993  0.750000  1
  Lu  Lu18  1  0.200890  0.505500  0.250000  1
  Lu  Lu19  1  0.700890  0.994500  0.250000  1
  Pb  Pb20  1  0.706200  0.960354  0.456160  1
  Pb  Pb21  1  0.206200  0.539646  0.043840  1
  Pb  Pb22  1  0.294300  0.039686  0.956763  1
  Pb  Pb23  1  0.794300  0.460314  0.543237  1
  Pb  Pb24  1  0.294300  0.039686  0.543237  1
  Pb  Pb25  1  0.794300  0.460314  0.956763  1
  Pb  Pb26  1  0.706200  0.960354  0.043840  1
  Pb  Pb27  1  0.206200  0.539646  0.456160  1
  Pb  Pb28  1  0.438910  0.371994  0.750000  1
  Pb  Pb29  1  0.938910  0.128006  0.750000  1
  Pb  Pb30  1  0.561828  0.623393  0.250000  1
  Pb  Pb31  1  0.061828  0.876607  0.250000  1
  Pb  Pb32  1  0.663405  0.848716  0.750000  1
  Pb  Pb33  1  0.163405  0.651284  0.750000  1
  Pb  Pb34  1  0.334189  0.151704  0.250000  1
  Pb  Pb35  1  0.834189  0.348296  0.250000  1
