# generated using pymatgen
data_Y4ErGa2Sn
_symmetry_space_group_name_H-M   'P 1'
_cell_length_a   8.85825181
_cell_length_b   8.85825299
_cell_length_c   8.85825200
_cell_angle_alpha   127.40851002
_cell_angle_beta   127.40851587
_cell_angle_gamma   77.58519814
_symmetry_Int_Tables_number   1
_chemical_formula_structural   Y4ErGa2Sn
_chemical_formula_sum   'Y8 Er2 Ga4 Sn2'
_cell_volume   425.29620446
_cell_formula_units_Z   2
loop_
 _symmetry_equiv_pos_site_id
 _symmetry_equiv_pos_as_xyz
  1  'x, y, z'
loop_
 _atom_site_type_symbol
 _atom_site_label
 _atom_site_symmetry_multiplicity
 _atom_site_fract_x
 _atom_site_fract_y
 _atom_site_fract_z
 _atom_site_occupancy
  Y  Y0  1  0.521504  0.021504  0.828496  1
  Y  Y1  1  0.193087  0.693087  0.171596  1
  Y  Y2  1  0.021635  0.192947  0.499980  1
  Y  Y3  1  0.692947  0.521635  0.499980  1
  Y  Y4  1  0.478496  0.978496  0.171504  1
  Y  Y5  1  0.806913  0.306913  0.828404  1
  Y  Y6  1  0.978365  0.807053  0.500020  1
  Y  Y7  1  0.307053  0.478365  0.500020  1
  Er  Er8  1  0.500000  0.500000  0.000000  1
  Er  Er9  1  0.000000  0.000000  0.000000  1
  Ga  Ga10  1  0.870388  0.370388  0.240783  1
  Ga  Ga11  1  0.129612  0.629612  0.759217  1
  Ga  Ga12  1  0.370365  0.129635  0.500000  1
  Ga  Ga13  1  0.629635  0.870365  0.500000  1
  Sn  Sn14  1  0.249942  0.250058  0.000000  1
  Sn  Sn15  1  0.750058  0.749942  0.000000  1
