# generated using pymatgen
data_Tb5Al2GeC4
_symmetry_space_group_name_H-M   'P 1'
_cell_length_a   10.83060700
_cell_length_b   10.83060700
_cell_length_c   3.53944600
_cell_angle_alpha   90.00000000
_cell_angle_beta   90.00000000
_cell_angle_gamma   90.00000000
_symmetry_Int_Tables_number   1
_chemical_formula_structural   Tb5Al2GeC4
_chemical_formula_sum   'Tb10 Al4 Ge2 C8'
_cell_volume   415.18426454
_cell_formula_units_Z   2
loop_
 _symmetry_equiv_pos_site_id
 _symmetry_equiv_pos_as_xyz
  1  'x, y, z'
loop_
 _atom_site_type_symbol
 _atom_site_label
 _atom_site_symmetry_multiplicity
 _atom_site_fract_x
 _atom_site_fract_y
 _atom_site_fract_z
 _atom_site_occupancy
  Tb  Tb0  1  0.551036  0.725222  0.500000  1
  Tb  Tb1  1  0.448964  0.274778  0.500000  1
  Tb  Tb2  1  0.051036  0.774778  0.500000  1
  Tb  Tb3  1  0.948964  0.225222  0.500000  1
  Tb  Tb4  1  0.274778  0.551036  0.500000  1
  Tb  Tb5  1  0.725222  0.448964  0.500000  1
  Tb  Tb6  1  0.225222  0.051036  0.500000  1
  Tb  Tb7  1  0.774778  0.948964  0.500000  1
  Tb  Tb8  1  0.500000  0.000000  0.000000  1
  Tb  Tb9  1  0.000000  0.500000  0.000000  1
  Al  Al10  1  0.703672  0.203672  0.000000  1
  Al  Al11  1  0.296328  0.796328  0.000000  1
  Al  Al12  1  0.203672  0.296328  0.000000  1
  Al  Al13  1  0.796328  0.703672  0.000000  1
  Ge  Ge14  1  0.500000  0.500000  0.000000  1
  Ge  Ge15  1  0.000000  0.000000  0.000000  1
  C  C16  1  0.634256  0.134256  0.500000  1
  C  C17  1  0.365744  0.865744  0.500000  1
  C  C18  1  0.134256  0.365744  0.500000  1
  C  C19  1  0.865744  0.634256  0.500000  1
  C  C20  1  0.163514  0.663514  0.000000  1
  C  C21  1  0.836486  0.336486  0.000000  1
  C  C22  1  0.663514  0.836486  0.000000  1
  C  C23  1  0.336486  0.163514  0.000000  1
