# generated using pymatgen
data_Rb6AgPb8Au
_symmetry_space_group_name_H-M   'P 1'
_cell_length_a   7.06253400
_cell_length_b   7.12030000
_cell_length_c   13.63240300
_cell_angle_alpha   90.00000000
_cell_angle_beta   90.00000000
_cell_angle_gamma   90.00000000
_symmetry_Int_Tables_number   1
_chemical_formula_structural   Rb6AgPb8Au
_chemical_formula_sum   'Rb6 Ag1 Pb8 Au1'
_cell_volume   685.53756878
_cell_formula_units_Z   1
loop_
 _symmetry_equiv_pos_site_id
 _symmetry_equiv_pos_as_xyz
  1  'x, y, z'
loop_
 _atom_site_type_symbol
 _atom_site_label
 _atom_site_symmetry_multiplicity
 _atom_site_fract_x
 _atom_site_fract_y
 _atom_site_fract_z
 _atom_site_occupancy
  Rb  Rb0  1  0.172923  0.000000  0.747867  1
  Rb  Rb1  1  0.172923  0.000000  0.252133  1
  Rb  Rb2  1  0.435577  0.500000  0.500000  1
  Rb  Rb3  1  0.558827  0.000000  0.000000  1
  Rb  Rb4  1  0.830032  0.500000  0.250101  1
  Rb  Rb5  1  0.830032  0.500000  0.749899  1
  Ag  Ag6  1  0.695947  0.500000  0.000000  1
  Pb  Pb7  1  0.047756  0.260537  0.000000  1
  Pb  Pb8  1  0.047756  0.739463  0.000000  1
  Pb  Pb9  1  0.336649  0.500000  0.880359  1
  Pb  Pb10  1  0.336649  0.500000  0.119641  1
  Pb  Pb11  1  0.660267  0.000000  0.380333  1
  Pb  Pb12  1  0.660267  0.000000  0.619667  1
  Pb  Pb13  1  0.954610  0.764577  0.500000  1
  Pb  Pb14  1  0.954610  0.235423  0.500000  1
  Au  Au15  1  0.305170  0.000000  0.500000  1
