# generated using pymatgen
data_TbNd16Ho3Sn16
_symmetry_space_group_name_H-M   'P 1'
_cell_length_a   8.22268600
_cell_length_b   8.37781800
_cell_length_c   15.91058400
_cell_angle_alpha   90.00000000
_cell_angle_beta   90.00000000
_cell_angle_gamma   90.00038982
_symmetry_Int_Tables_number   1
_chemical_formula_structural   TbNd16Ho3Sn16
_chemical_formula_sum   'Tb1 Nd16 Ho3 Sn16'
_cell_volume   1096.05096415
_cell_formula_units_Z   1
loop_
 _symmetry_equiv_pos_site_id
 _symmetry_equiv_pos_as_xyz
  1  'x, y, z'
loop_
 _atom_site_type_symbol
 _atom_site_label
 _atom_site_symmetry_multiplicity
 _atom_site_fract_x
 _atom_site_fract_y
 _atom_site_fract_z
 _atom_site_occupancy
  Tb  Tb0  1  0.198455  0.502113  0.250000  1
  Nd  Nd1  1  0.017914  0.180878  0.401414  1
  Nd  Nd2  1  0.367994  0.837755  0.120876  1
  Nd  Nd3  1  0.132227  0.337598  0.621066  1
  Nd  Nd4  1  0.481999  0.680999  0.901381  1
  Nd  Nd5  1  0.867469  0.662651  0.120938  1
  Nd  Nd6  1  0.132227  0.337598  0.878934  1
  Nd  Nd7  1  0.481999  0.680999  0.598619  1
  Nd  Nd8  1  0.632190  0.162413  0.620950  1
  Nd  Nd9  1  0.867469  0.662651  0.379062  1
  Nd  Nd10  1  0.017914  0.180878  0.098586  1
  Nd  Nd11  1  0.982026  0.818977  0.901417  1
  Nd  Nd12  1  0.632190  0.162413  0.879050  1
  Nd  Nd13  1  0.518170  0.318851  0.098529  1
  Nd  Nd14  1  0.367994  0.837755  0.379124  1
  Nd  Nd15  1  0.982026  0.818977  0.598583  1
  Nd  Nd16  1  0.518170  0.318851  0.401471  1
  Ho  Ho17  1  0.699221  0.997828  0.250000  1
  Ho  Ho18  1  0.300887  0.002059  0.750000  1
  Ho  Ho19  1  0.800846  0.497889  0.750000  1
  Sn  Sn20  1  0.792237  0.465079  0.543995  1
  Sn  Sn21  1  0.707777  0.965028  0.456238  1
  Sn  Sn22  1  0.675495  0.853252  0.750000  1
  Sn  Sn23  1  0.207813  0.535171  0.456577  1
  Sn  Sn24  1  0.292195  0.034992  0.955975  1
  Sn  Sn25  1  0.824245  0.352917  0.250000  1
  Sn  Sn26  1  0.792237  0.465079  0.956005  1
  Sn  Sn27  1  0.565046  0.616671  0.250000  1
  Sn  Sn28  1  0.207813  0.535171  0.043423  1
  Sn  Sn29  1  0.435834  0.383384  0.750000  1
  Sn  Sn30  1  0.175384  0.646877  0.750000  1
  Sn  Sn31  1  0.935753  0.116578  0.750000  1
  Sn  Sn32  1  0.292195  0.034992  0.544025  1
  Sn  Sn33  1  0.707777  0.965028  0.043762  1
  Sn  Sn34  1  0.324632  0.145905  0.250000  1
  Sn  Sn35  1  0.064179  0.883740  0.250000  1
