# generated using pymatgen
data_Yb2Th2(Al8Pt3)3
_symmetry_space_group_name_H-M   'P 1'
_cell_length_a   7.54419144
_cell_length_b   7.57909107
_cell_length_c   13.28656066
_cell_angle_alpha   84.75868926
_cell_angle_beta   100.78396289
_cell_angle_gamma   119.58973653
_symmetry_Int_Tables_number   1
_chemical_formula_structural   Yb2Th2(Al8Pt3)3
_chemical_formula_sum   'Yb2 Th2 Al24 Pt9'
_cell_volume   648.95561675
_cell_formula_units_Z   1
loop_
 _symmetry_equiv_pos_site_id
 _symmetry_equiv_pos_as_xyz
  1  'x, y, z'
loop_
 _atom_site_type_symbol
 _atom_site_label
 _atom_site_symmetry_multiplicity
 _atom_site_fract_x
 _atom_site_fract_y
 _atom_site_fract_z
 _atom_site_occupancy
  Yb  Yb0  1  0.767399  0.501284  0.806908  1
  Yb  Yb1  1  0.232601  0.498716  0.193092  1
  Th  Th2  1  0.436544  0.830901  0.806502  1
  Th  Th3  1  0.563456  0.169099  0.193498  1
  Al  Al4  1  0.480984  0.169308  0.944127  1
  Al  Al5  1  0.519016  0.830692  0.055873  1
  Al  Al6  1  0.021628  0.168097  0.559456  1
  Al  Al7  1  0.978372  0.831903  0.440544  1
  Al  Al8  1  0.354188  0.833019  0.556606  1
  Al  Al9  1  0.645812  0.166981  0.443394  1
  Al  Al10  1  0.618453  0.830151  0.331468  1
  Al  Al11  1  0.381547  0.169849  0.668532  1
  Al  Al12  1  0.051232  0.490256  0.668800  1
  Al  Al13  1  0.948768  0.509744  0.331200  1
  Al  Al14  1  0.734110  0.839228  0.667215  1
  Al  Al15  1  0.265890  0.160772  0.332785  1
  Al  Al16  1  0.145223  0.496938  0.947651  1
  Al  Al17  1  0.854777  0.503062  0.052349  1
  Al  Al18  1  0.819951  0.832742  0.955086  1
  Al  Al19  1  0.180049  0.167258  0.044914  1
  Al  Al20  1  0.313910  0.500587  0.441275  1
  Al  Al21  1  0.686090  0.499413  0.558725  1
  Al  Al22  1  0.099653  0.835036  0.182968  1
  Al  Al23  1  0.900347  0.164964  0.817032  1
  Al  Al24  1  0.304447  0.366489  0.815780  1
  Al  Al25  1  0.695553  0.633511  0.184220  1
  Al  Al26  1  0.101856  0.961231  0.816741  1
  Al  Al27  1  0.898144  0.038769  0.183259  1
  Pt  Pt28  1  0.386488  0.507335  0.638004  1
  Pt  Pt29  1  0.613512  0.492665  0.361996  1
  Pt  Pt30  1  0.173313  0.830176  0.999883  1
  Pt  Pt31  1  0.826687  0.169824  0.000117  1
  Pt  Pt32  1  0.295113  0.834601  0.361759  1
  Pt  Pt33  1  0.704887  0.165399  0.638241  1
  Pt  Pt34  1  0.048552  0.826558  0.637270  1
  Pt  Pt35  1  0.951448  0.173442  0.362730  1
  Pt  Pt36  1  0.500000  0.500000  0.000000  1
