# generated using pymatgen
data_LiHf(U3Bi5)2
_symmetry_space_group_name_H-M   'P 1'
_cell_length_a   9.49458300
_cell_length_b   9.49458318
_cell_length_c   6.38664700
_cell_angle_alpha   90.00000000
_cell_angle_beta   90.00000000
_cell_angle_gamma   120.00000284
_symmetry_Int_Tables_number   1
_chemical_formula_structural   LiHf(U3Bi5)2
_chemical_formula_sum   'Li1 Hf1 U6 Bi10'
_cell_volume   498.60350958
_cell_formula_units_Z   1
loop_
 _symmetry_equiv_pos_site_id
 _symmetry_equiv_pos_as_xyz
  1  'x, y, z'
loop_
 _atom_site_type_symbol
 _atom_site_label
 _atom_site_symmetry_multiplicity
 _atom_site_fract_x
 _atom_site_fract_y
 _atom_site_fract_z
 _atom_site_occupancy
  Li  Li0  1  0.000000  0.000000  0.500000  1
  Hf  Hf1  1  0.000000  0.000000  0.000000  1
  U  U2  1  0.386793  0.000000  0.751260  1
  U  U3  1  0.386793  0.386793  0.248740  1
  U  U4  1  0.000000  0.613207  0.248740  1
  U  U5  1  0.000000  0.386793  0.751260  1
  U  U6  1  0.613207  0.613207  0.751260  1
  U  U7  1  0.613207  0.000000  0.248740  1
  Bi  Bi8  1  0.333333  0.666667  0.500000  1
  Bi  Bi9  1  0.666667  0.333333  0.000000  1
  Bi  Bi10  1  0.666667  0.333333  0.500000  1
  Bi  Bi11  1  0.333333  0.666667  0.000000  1
  Bi  Bi12  1  0.735594  0.000000  0.745458  1
  Bi  Bi13  1  0.735594  0.735594  0.254542  1
  Bi  Bi14  1  0.000000  0.264406  0.254542  1
  Bi  Bi15  1  0.000000  0.735594  0.745458  1
  Bi  Bi16  1  0.264406  0.000000  0.254542  1
  Bi  Bi17  1  0.264406  0.264406  0.745458  1
