# generated using pymatgen
data_CeDy4Y3(CdRu)2
_symmetry_space_group_name_H-M   'P 1'
_cell_length_a   9.75310041
_cell_length_b   9.65782436
_cell_length_c   9.65782431
_cell_angle_alpha   59.64562307
_cell_angle_beta   59.67311701
_cell_angle_gamma   59.67311784
_symmetry_Int_Tables_number   1
_chemical_formula_structural   CeDy4Y3(CdRu)2
_chemical_formula_sum   'Ce2 Dy8 Y6 Cd4 Ru4'
_cell_volume   638.34826781
_cell_formula_units_Z   2
loop_
 _symmetry_equiv_pos_site_id
 _symmetry_equiv_pos_as_xyz
  1  'x, y, z'
loop_
 _atom_site_type_symbol
 _atom_site_label
 _atom_site_symmetry_multiplicity
 _atom_site_fract_x
 _atom_site_fract_y
 _atom_site_fract_z
 _atom_site_occupancy
  Ce  Ce0  1  0.971967  0.340730  0.340730  1
  Ce  Ce1  1  0.346573  0.340730  0.340730  1
  Dy  Dy2  1  0.189921  0.188425  0.811873  1
  Dy  Dy3  1  0.809782  0.188425  0.811873  1
  Dy  Dy4  1  0.188729  0.811271  0.811270  1
  Dy  Dy5  1  0.809782  0.811874  0.188425  1
  Dy  Dy6  1  0.189920  0.811873  0.188424  1
  Dy  Dy7  1  0.810719  0.189281  0.189281  1
  Dy  Dy8  1  0.348822  0.348494  0.953862  1
  Dy  Dy9  1  0.348822  0.953862  0.348494  1
  Y  Y10  1  0.562483  0.561342  0.938677  1
  Y  Y11  1  0.937499  0.561342  0.938677  1
  Y  Y12  1  0.561890  0.938110  0.938110  1
  Y  Y13  1  0.937499  0.938677  0.561342  1
  Y  Y14  1  0.562483  0.938677  0.561342  1
  Y  Y15  1  0.939392  0.560608  0.560608  1
  Cd  Cd16  1  0.581580  0.579115  0.257726  1
  Cd  Cd17  1  0.581580  0.257726  0.579115  1
  Cd  Cd18  1  0.259766  0.579677  0.579677  1
  Cd  Cd19  1  0.580879  0.579677  0.579677  1
  Ru  Ru20  1  0.137811  0.152943  0.571436  1
  Ru  Ru21  1  0.137811  0.571436  0.152943  1
  Ru  Ru22  1  0.573548  0.147855  0.147855  1
  Ru  Ru23  1  0.130742  0.147855  0.147855  1
