# generated using pymatgen
data_Y3AgPtRh3O14
_symmetry_space_group_name_H-M   'P 1'
_cell_length_a   7.15380704
_cell_length_b   7.32420040
_cell_length_c   7.32419900
_cell_angle_alpha   60.00000182
_cell_angle_beta   59.20891214
_cell_angle_gamma   59.20891483
_symmetry_Int_Tables_number   1
_chemical_formula_structural   Y3AgPtRh3O14
_chemical_formula_sum   'Y3 Ag1 Pt1 Rh3 O14'
_cell_volume   268.06787465
_cell_formula_units_Z   1
loop_
 _symmetry_equiv_pos_site_id
 _symmetry_equiv_pos_as_xyz
  1  'x, y, z'
loop_
 _atom_site_type_symbol
 _atom_site_label
 _atom_site_symmetry_multiplicity
 _atom_site_fract_x
 _atom_site_fract_y
 _atom_site_fract_z
 _atom_site_occupancy
  Y  Y0  1  0.125000  0.625000  0.125000  1
  Y  Y1  1  0.125000  0.125000  0.625000  1
  Y  Y2  1  0.125000  0.125000  0.125000  1
  Ag  Ag3  1  0.625000  0.125000  0.125000  1
  Pt  Pt4  1  0.125000  0.625000  0.625000  1
  Rh  Rh5  1  0.625000  0.625000  0.625000  1
  Rh  Rh6  1  0.625000  0.625000  0.125000  1
  Rh  Rh7  1  0.625000  0.125000  0.625000  1
  O  O8  1  0.281385  0.715988  0.715988  1
  O  O9  1  0.540639  0.951459  0.951459  1
  O  O10  1  0.709361  0.693558  0.298541  1
  O  O11  1  0.281385  0.286638  0.715988  1
  O  O12  1  0.988441  0.003853  0.003853  1
  O  O13  1  0.281385  0.715988  0.286638  1
  O  O14  1  0.709361  0.298541  0.693558  1
  O  O15  1  0.968615  0.534012  0.963362  1
  O  O16  1  0.540639  0.556442  0.951459  1
  O  O17  1  0.968615  0.963362  0.534012  1
  O  O18  1  0.261559  0.246147  0.246147  1
  O  O19  1  0.540639  0.951459  0.556442  1
  O  O20  1  0.709361  0.298541  0.298541  1
  O  O21  1  0.968615  0.534012  0.534012  1
