# generated using pymatgen
data_Sr4SmNp3O12
_symmetry_space_group_name_H-M   'P 1'
_cell_length_a   6.02282024
_cell_length_b   6.17527005
_cell_length_c   8.59731164
_cell_angle_alpha   89.78948849
_cell_angle_beta   90.12523276
_cell_angle_gamma   89.97894676
_symmetry_Int_Tables_number   1
_chemical_formula_structural   Sr4SmNp3O12
_chemical_formula_sum   'Sr4 Sm1 Np3 O12'
_cell_volume   319.75292485
_cell_formula_units_Z   1
loop_
 _symmetry_equiv_pos_site_id
 _symmetry_equiv_pos_as_xyz
  1  'x, y, z'
loop_
 _atom_site_type_symbol
 _atom_site_label
 _atom_site_symmetry_multiplicity
 _atom_site_fract_x
 _atom_site_fract_y
 _atom_site_fract_z
 _atom_site_occupancy
  Sr  Sr0  1  0.985595  0.454930  0.247818  1
  Sr  Sr1  1  0.511229  0.956754  0.249291  1
  Sr  Sr2  1  0.488771  0.043246  0.750709  1
  Sr  Sr3  1  0.014405  0.545070  0.752182  1
  Sm  Sm4  1  0.000000  0.000000  0.000000  1
  Np  Np5  1  0.500000  0.500000  0.500000  1
  Np  Np6  1  0.500000  0.500000  0.000000  1
  Np  Np7  1  0.000000  0.000000  0.500000  1
  O  O8  1  0.896575  0.959129  0.738309  1
  O  O9  1  0.786276  0.707816  0.440185  1
  O  O10  1  0.789427  0.690948  0.051622  1
  O  O11  1  0.710640  0.208616  0.444032  1
  O  O12  1  0.689150  0.210705  0.055436  1
  O  O13  1  0.603352  0.461045  0.744571  1
  O  O14  1  0.396648  0.538955  0.255429  1
  O  O15  1  0.310850  0.789295  0.944564  1
  O  O16  1  0.289360  0.791384  0.555968  1
  O  O17  1  0.210573  0.309052  0.948378  1
  O  O18  1  0.213724  0.292184  0.559815  1
  O  O19  1  0.103425  0.040871  0.261691  1
