# generated using pymatgen
data_Tm20Ir8Ru3Rh
_symmetry_space_group_name_H-M   'P 1'
_cell_length_a   10.70516300
_cell_length_b   10.70516300
_cell_length_c   6.35743800
_cell_angle_alpha   90.00000000
_cell_angle_beta   90.00000000
_cell_angle_gamma   90.00000000
_symmetry_Int_Tables_number   1
_chemical_formula_structural   Tm20Ir8Ru3Rh
_chemical_formula_sum   'Tm20 Ir8 Ru3 Rh1'
_cell_volume   728.56566797
_cell_formula_units_Z   1
loop_
 _symmetry_equiv_pos_site_id
 _symmetry_equiv_pos_as_xyz
  1  'x, y, z'
loop_
 _atom_site_type_symbol
 _atom_site_label
 _atom_site_symmetry_multiplicity
 _atom_site_fract_x
 _atom_site_fract_y
 _atom_site_fract_z
 _atom_site_occupancy
  Tm  Tm0  1  0.291968  0.087078  0.379355  1
  Tm  Tm1  1  0.291541  0.912993  0.874721  1
  Tm  Tm2  1  0.708459  0.087007  0.874721  1
  Tm  Tm3  1  0.708032  0.912922  0.379355  1
  Tm  Tm4  1  0.587007  0.791541  0.874721  1
  Tm  Tm5  1  0.587078  0.208032  0.379355  1
  Tm  Tm6  1  0.412922  0.791968  0.379355  1
  Tm  Tm7  1  0.412993  0.208459  0.874721  1
  Tm  Tm8  1  0.206351  0.413890  0.623161  1
  Tm  Tm9  1  0.206372  0.586271  0.123312  1
  Tm  Tm10  1  0.793628  0.413729  0.123312  1
  Tm  Tm11  1  0.793649  0.586110  0.623161  1
  Tm  Tm12  1  0.913729  0.706372  0.123312  1
  Tm  Tm13  1  0.913890  0.293649  0.623161  1
  Tm  Tm14  1  0.086110  0.706351  0.623161  1
  Tm  Tm15  1  0.086271  0.293628  0.123312  1
  Tm  Tm16  1  0.000000  0.000000  0.500032  1
  Tm  Tm17  1  0.000000  0.000000  0.000282  1
  Tm  Tm18  1  0.500000  0.500000  0.000282  1
  Tm  Tm19  1  0.500000  0.500000  0.500032  1
  Ir  Ir20  1  0.846705  0.152356  0.249659  1
  Ir  Ir21  1  0.846958  0.847401  0.750201  1
  Ir  Ir22  1  0.153042  0.152599  0.750201  1
  Ir  Ir23  1  0.153295  0.847644  0.249659  1
  Ir  Ir24  1  0.652599  0.346958  0.750201  1
  Ir  Ir25  1  0.652356  0.653295  0.249659  1
  Ir  Ir26  1  0.347644  0.346705  0.249659  1
  Ir  Ir27  1  0.347401  0.653042  0.750201  1
  Ru  Ru28  1  0.500000  0.000000  0.622836  1
  Ru  Ru29  1  0.000000  0.500000  0.876622  1
  Ru  Ru30  1  0.000000  0.500000  0.376466  1
  Rh  Rh31  1  0.500000  0.000000  0.121813  1
