# generated using pymatgen
data_Dy2Ho2V3TcB16
_symmetry_space_group_name_H-M   'P 1'
_cell_length_a   3.49777000
_cell_length_b   5.98439863
_cell_length_c   11.58247429
_cell_angle_alpha   90.03902594
_cell_angle_beta   90.00000000
_cell_angle_gamma   90.00000000
_symmetry_Int_Tables_number   1
_chemical_formula_structural   Dy2Ho2V3TcB16
_chemical_formula_sum   'Dy2 Ho2 V3 Tc1 B16'
_cell_volume   242.44487453
_cell_formula_units_Z   1
loop_
 _symmetry_equiv_pos_site_id
 _symmetry_equiv_pos_as_xyz
  1  'x, y, z'
loop_
 _atom_site_type_symbol
 _atom_site_label
 _atom_site_symmetry_multiplicity
 _atom_site_fract_x
 _atom_site_fract_y
 _atom_site_fract_z
 _atom_site_occupancy
  Dy  Dy0  1  0.500000  0.123718  0.650270  1
  Dy  Dy1  1  0.500000  0.875640  0.348894  1
  Ho  Ho2  1  0.500000  0.626413  0.848252  1
  Ho  Ho3  1  0.500000  0.374817  0.151107  1
  V  V4  1  0.500000  0.872171  0.081861  1
  V  V5  1  0.500000  0.627193  0.583997  1
  V  V6  1  0.500000  0.373055  0.417368  1
  Tc  Tc7  1  0.500000  0.127810  0.917213  1
  B  B8  1  0.000000  0.476586  0.692728  1
  B  B9  1  0.000000  0.523189  0.307316  1
  B  B10  1  0.000000  0.976672  0.807753  1
  B  B11  1  0.000000  0.023018  0.192275  1
  B  B12  1  0.000000  0.285052  0.815221  1
  B  B13  1  0.000000  0.714654  0.185123  1
  B  B14  1  0.000000  0.785683  0.685843  1
  B  B15  1  0.000000  0.214078  0.314261  1
  B  B16  1  0.000000  0.365009  0.968111  1
  B  B17  1  0.000000  0.634795  0.032239  1
  B  B18  1  0.000000  0.864201  0.532608  1
  B  B19  1  0.000000  0.135765  0.467304  1
  B  B20  1  0.000000  0.385721  0.547429  1
  B  B21  1  0.000000  0.614752  0.452554  1
  B  B22  1  0.000000  0.885852  0.952727  1
  B  B23  1  0.000000  0.114155  0.047548  1
