# generated using pymatgen
data_SrHo2(SiIr2)3
_symmetry_space_group_name_H-M   'P 1'
_cell_length_a   5.61219700
_cell_length_b   5.61219710
_cell_length_c   15.11408200
_cell_angle_alpha   90.00000000
_cell_angle_beta   90.00000000
_cell_angle_gamma   120.00000530
_symmetry_Int_Tables_number   1
_chemical_formula_structural   SrHo2(SiIr2)3
_chemical_formula_sum   'Sr2 Ho4 Si6 Ir12'
_cell_volume   412.26665058
_cell_formula_units_Z   2
loop_
 _symmetry_equiv_pos_site_id
 _symmetry_equiv_pos_as_xyz
  1  'x, y, z'
loop_
 _atom_site_type_symbol
 _atom_site_label
 _atom_site_symmetry_multiplicity
 _atom_site_fract_x
 _atom_site_fract_y
 _atom_site_fract_z
 _atom_site_occupancy
  Sr  Sr0  1  0.333333  0.666667  0.750000  1
  Sr  Sr1  1  0.666667  0.333333  0.250000  1
  Ho  Ho2  1  0.333333  0.666667  0.541064  1
  Ho  Ho3  1  0.666667  0.333333  0.458936  1
  Ho  Ho4  1  0.666667  0.333333  0.041064  1
  Ho  Ho5  1  0.333333  0.666667  0.958936  1
  Si  Si6  1  0.000000  0.000000  0.250000  1
  Si  Si7  1  0.000000  0.000000  0.750000  1
  Si  Si8  1  0.333333  0.666667  0.250000  1
  Si  Si9  1  0.666667  0.333333  0.750000  1
  Si  Si10  1  0.000000  0.000000  0.000000  1
  Si  Si11  1  0.000000  0.000000  0.500000  1
  Ir  Ir12  1  0.167754  0.335509  0.128237  1
  Ir  Ir13  1  0.832246  0.664491  0.871763  1
  Ir  Ir14  1  0.664491  0.832246  0.128237  1
  Ir  Ir15  1  0.832246  0.664491  0.628237  1
  Ir  Ir16  1  0.335509  0.167754  0.871763  1
  Ir  Ir17  1  0.167754  0.335509  0.371763  1
  Ir  Ir18  1  0.167754  0.832246  0.128237  1
  Ir  Ir19  1  0.335509  0.167754  0.628237  1
  Ir  Ir20  1  0.832246  0.167754  0.871763  1
  Ir  Ir21  1  0.664491  0.832246  0.371763  1
  Ir  Ir22  1  0.832246  0.167754  0.628237  1
  Ir  Ir23  1  0.167754  0.832246  0.371763  1
