# generated using pymatgen
data_CeBN
_symmetry_space_group_name_H-M   'P 1'
_cell_length_a   6.32486782
_cell_length_b   6.32486790
_cell_length_c   3.38212600
_cell_angle_alpha   90.00000000
_cell_angle_beta   90.00000000
_cell_angle_gamma   145.76049314
_symmetry_Int_Tables_number   1
_chemical_formula_structural   CeBN
_chemical_formula_sum   'Ce2 B2 N2'
_cell_volume   76.12612949
_cell_formula_units_Z   2
loop_
 _symmetry_equiv_pos_site_id
 _symmetry_equiv_pos_as_xyz
  1  'x, y, z'
loop_
 _atom_site_type_symbol
 _atom_site_label
 _atom_site_symmetry_multiplicity
 _atom_site_fract_x
 _atom_site_fract_y
 _atom_site_fract_z
 _atom_site_occupancy
  Ce  Ce0  1  0.859510  0.140490  0.750000  1
  Ce  Ce1  1  0.140490  0.859510  0.250000  1
  B  B2  1  0.535358  0.464642  0.750000  1
  B  B3  1  0.464642  0.535358  0.250000  1
  N  N4  1  0.658872  0.341128  0.750000  1
  N  N5  1  0.341128  0.658872  0.250000  1
