# generated using pymatgen
data_Mg2ScTaIr4
_symmetry_space_group_name_H-M   'P 1'
_cell_length_a   4.50724100
_cell_length_b   6.26372300
_cell_length_c   13.50787700
_cell_angle_alpha   90.00000000
_cell_angle_beta   89.99984315
_cell_angle_gamma   90.00000000
_symmetry_Int_Tables_number   1
_chemical_formula_structural   Mg2ScTaIr4
_chemical_formula_sum   'Mg6 Sc3 Ta3 Ir12'
_cell_volume   381.35585742
_cell_formula_units_Z   3
loop_
 _symmetry_equiv_pos_site_id
 _symmetry_equiv_pos_as_xyz
  1  'x, y, z'
loop_
 _atom_site_type_symbol
 _atom_site_label
 _atom_site_symmetry_multiplicity
 _atom_site_fract_x
 _atom_site_fract_y
 _atom_site_fract_z
 _atom_site_occupancy
  Mg  Mg0  1  0.999995  0.000000  0.998311  1
  Mg  Mg1  1  0.499904  0.499999  0.166670  1
  Mg  Mg2  1  0.999905  0.000000  0.335037  1
  Mg  Mg3  1  0.499993  0.499999  0.501986  1
  Mg  Mg4  1  0.000101  0.000000  0.666672  1
  Mg  Mg5  1  0.500084  0.499999  0.831331  1
  Sc  Sc6  1  0.499996  0.000000  0.501092  1
  Sc  Sc7  1  0.000090  0.499999  0.666670  1
  Sc  Sc8  1  0.500092  0.000000  0.832245  1
  Ta  Ta9  1  0.999997  0.499999  0.996966  1
  Ta  Ta10  1  0.499915  0.000000  0.166656  1
  Ta  Ta11  1  0.999914  0.499999  0.336366  1
  Ir  Ir12  1  0.499997  0.255127  0.005435  1
  Ir  Ir13  1  0.499997  0.744874  0.005435  1
  Ir  Ir14  1  0.999906  0.247534  0.166669  1
  Ir  Ir15  1  0.999906  0.752464  0.166669  1
  Ir  Ir16  1  0.499907  0.255133  0.327896  1
  Ir  Ir17  1  0.499907  0.744867  0.327896  1
  Ir  Ir18  1  0.999996  0.253588  0.495453  1
  Ir  Ir19  1  0.999996  0.746414  0.495453  1
  Ir  Ir20  1  0.500109  0.249370  0.666661  1
  Ir  Ir21  1  0.500109  0.750630  0.666661  1
  Ir  Ir22  1  0.000093  0.253594  0.837887  1
  Ir  Ir23  1  0.000093  0.746404  0.837887  1
