# generated using pymatgen
data_ErNp3O8
_symmetry_space_group_name_H-M   'P 1'
_cell_length_a   5.36248816
_cell_length_b   5.36328600
_cell_length_c   5.36217215
_cell_angle_alpha   90.00000000
_cell_angle_beta   90.02772722
_cell_angle_gamma   90.00000000
_symmetry_Int_Tables_number   1
_chemical_formula_structural   ErNp3O8
_chemical_formula_sum   'Er1 Np3 O8'
_cell_volume   154.21904343
_cell_formula_units_Z   1
loop_
 _symmetry_equiv_pos_site_id
 _symmetry_equiv_pos_as_xyz
  1  'x, y, z'
loop_
 _atom_site_type_symbol
 _atom_site_label
 _atom_site_symmetry_multiplicity
 _atom_site_fract_x
 _atom_site_fract_y
 _atom_site_fract_z
 _atom_site_occupancy
  Er  Er0  1  0.000000  0.250103  0.250000  1
  Np  Np1  1  0.499999  0.750042  0.250000  1
  Np  Np2  1  0.499999  0.249934  0.750001  1
  Np  Np3  1  0.000000  0.750079  0.750001  1
  O  O4  1  0.252971  0.997161  0.998005  1
  O  O5  1  0.252990  0.502919  0.997996  1
  O  O6  1  0.747029  0.997161  0.501994  1
  O  O7  1  0.747010  0.502919  0.502003  1
  O  O8  1  0.252444  0.502758  0.503493  1
  O  O9  1  0.252454  0.997078  0.503511  1
  O  O10  1  0.747556  0.502758  0.996507  1
  O  O11  1  0.747546  0.997078  0.996489  1
