# generated using pymatgen
data_CaNd(GaNi4)2
_symmetry_space_group_name_H-M   'P 1'
_cell_length_a   4.01398000
_cell_length_b   5.06747000
_cell_length_c   8.60118700
_cell_angle_alpha   90.00000000
_cell_angle_beta   90.00000000
_cell_angle_gamma   90.00000000
_symmetry_Int_Tables_number   1
_chemical_formula_structural   CaNd(GaNi4)2
_chemical_formula_sum   'Ca1 Nd1 Ga2 Ni8'
_cell_volume   174.95436422
_cell_formula_units_Z   1
loop_
 _symmetry_equiv_pos_site_id
 _symmetry_equiv_pos_as_xyz
  1  'x, y, z'
loop_
 _atom_site_type_symbol
 _atom_site_label
 _atom_site_symmetry_multiplicity
 _atom_site_fract_x
 _atom_site_fract_y
 _atom_site_fract_z
 _atom_site_occupancy
  Ca  Ca0  1  0.000000  0.000000  0.000000  1
  Nd  Nd1  1  0.000000  0.500000  0.500000  1
  Ga  Ga2  1  0.500000  0.500000  0.000000  1
  Ga  Ga3  1  0.500000  0.000000  0.500000  1
  Ni  Ni4  1  0.000000  0.000000  0.328829  1
  Ni  Ni5  1  0.000000  0.500000  0.830970  1
  Ni  Ni6  1  0.000000  0.500000  0.169030  1
  Ni  Ni7  1  0.000000  0.000000  0.671171  1
  Ni  Ni8  1  0.500000  0.251064  0.251923  1
  Ni  Ni9  1  0.500000  0.748936  0.748077  1
  Ni  Ni10  1  0.500000  0.748936  0.251923  1
  Ni  Ni11  1  0.500000  0.251064  0.748077  1
