# generated using pymatgen
data_Ho3Er(B6Ru)2
_symmetry_space_group_name_H-M   'P 1'
_cell_length_a   3.64330200
_cell_length_b   9.11210507
_cell_length_c   11.48318209
_cell_angle_alpha   90.01405511
_cell_angle_beta   90.00000000
_cell_angle_gamma   90.00000000
_symmetry_Int_Tables_number   1
_chemical_formula_structural   Ho3Er(B6Ru)2
_chemical_formula_sum   'Ho6 Er2 B24 Ru4'
_cell_volume   381.22039704
_cell_formula_units_Z   2
loop_
 _symmetry_equiv_pos_site_id
 _symmetry_equiv_pos_as_xyz
  1  'x, y, z'
loop_
 _atom_site_type_symbol
 _atom_site_label
 _atom_site_symmetry_multiplicity
 _atom_site_fract_x
 _atom_site_fract_y
 _atom_site_fract_z
 _atom_site_occupancy
  Ho  Ho0  1  0.000000  0.322590  0.414155  1
  Ho  Ho1  1  0.000000  0.677410  0.585845  1
  Ho  Ho2  1  0.000000  0.822236  0.085727  1
  Ho  Ho3  1  0.000000  0.177764  0.914273  1
  Ho  Ho4  1  0.000000  0.943863  0.372092  1
  Ho  Ho5  1  0.000000  0.056137  0.627908  1
  Er  Er6  1  0.000000  0.443755  0.127665  1
  Er  Er7  1  0.000000  0.556245  0.872335  1
  B  B8  1  0.500000  0.553993  0.433099  1
  B  B9  1  0.500000  0.446007  0.566901  1
  B  B10  1  0.500000  0.054293  0.066696  1
  B  B11  1  0.500000  0.945707  0.933304  1
  B  B12  1  0.500000  0.748095  0.419758  1
  B  B13  1  0.500000  0.251905  0.580242  1
  B  B14  1  0.500000  0.248785  0.080066  1
  B  B15  1  0.500000  0.751215  0.919934  1
  B  B16  1  0.500000  0.791124  0.265741  1
  B  B17  1  0.500000  0.208876  0.734259  1
  B  B18  1  0.500000  0.291694  0.233884  1
  B  B19  1  0.500000  0.708306  0.766116  1
  B  B20  1  0.500000  0.631517  0.184713  1
  B  B21  1  0.500000  0.368483  0.815287  1
  B  B22  1  0.500000  0.132151  0.314909  1
  B  B23  1  0.500000  0.867849  0.685091  1
  B  B24  1  0.500000  0.983643  0.212583  1
  B  B25  1  0.500000  0.016357  0.787417  1
  B  B26  1  0.500000  0.483260  0.286994  1
  B  B27  1  0.500000  0.516740  0.713006  1
  B  B28  1  0.500000  0.606601  0.029432  1
  B  B29  1  0.500000  0.393399  0.970568  1
  B  B30  1  0.500000  0.108045  0.470224  1
  B  B31  1  0.500000  0.891955  0.529776  1
  Ru  Ru32  1  0.000000  0.637760  0.320974  1
  Ru  Ru33  1  0.000000  0.362240  0.679026  1
  Ru  Ru34  1  0.000000  0.138290  0.178475  1
  Ru  Ru35  1  0.000000  0.861710  0.821525  1
