# generated using pymatgen
data_LiYb2AlAu2
_symmetry_space_group_name_H-M   'P 1'
_cell_length_a   4.36043400
_cell_length_b   7.27392900
_cell_length_c   8.24989700
_cell_angle_alpha   90.00000000
_cell_angle_beta   90.00000000
_cell_angle_gamma   90.00000000
_symmetry_Int_Tables_number   1
_chemical_formula_structural   LiYb2AlAu2
_chemical_formula_sum   'Li2 Yb4 Al2 Au4'
_cell_volume   261.66600353
_cell_formula_units_Z   2
loop_
 _symmetry_equiv_pos_site_id
 _symmetry_equiv_pos_as_xyz
  1  'x, y, z'
loop_
 _atom_site_type_symbol
 _atom_site_label
 _atom_site_symmetry_multiplicity
 _atom_site_fract_x
 _atom_site_fract_y
 _atom_site_fract_z
 _atom_site_occupancy
  Li  Li0  1  0.250000  0.636520  0.564380  1
  Li  Li1  1  0.250000  0.136520  0.935620  1
  Yb  Yb2  1  0.750000  0.472732  0.821998  1
  Yb  Yb3  1  0.250000  0.027967  0.320343  1
  Yb  Yb4  1  0.750000  0.972732  0.678002  1
  Yb  Yb5  1  0.250000  0.527967  0.179657  1
  Al  Al6  1  0.750000  0.364511  0.441272  1
  Al  Al7  1  0.750000  0.864511  0.058728  1
  Au  Au8  1  0.250000  0.774057  0.887564  1
  Au  Au9  1  0.250000  0.274057  0.612436  1
  Au  Au10  1  0.750000  0.724213  0.364805  1
  Au  Au11  1  0.750000  0.224213  0.135195  1
