# generated using pymatgen
data_Y2Co4ReP6Rh5
_symmetry_space_group_name_H-M   'P 1'
_cell_length_a   3.82096500
_cell_length_b   10.63541854
_cell_length_c   12.21980297
_cell_angle_alpha   89.78685524
_cell_angle_beta   90.00000000
_cell_angle_gamma   90.00000000
_symmetry_Int_Tables_number   1
_chemical_formula_structural   Y2Co4ReP6Rh5
_chemical_formula_sum   'Y4 Co8 Re2 P12 Rh10'
_cell_volume   496.57956499
_cell_formula_units_Z   2
loop_
 _symmetry_equiv_pos_site_id
 _symmetry_equiv_pos_as_xyz
  1  'x, y, z'
loop_
 _atom_site_type_symbol
 _atom_site_label
 _atom_site_symmetry_multiplicity
 _atom_site_fract_x
 _atom_site_fract_y
 _atom_site_fract_z
 _atom_site_occupancy
  Y  Y0  1  0.250000  0.917425  0.209570  1
  Y  Y1  1  0.750000  0.082575  0.790430  1
  Y  Y2  1  0.750000  0.416486  0.291832  1
  Y  Y3  1  0.250000  0.583514  0.708168  1
  Co  Co4  1  0.250000  0.616099  0.197225  1
  Co  Co5  1  0.750000  0.383901  0.802775  1
  Co  Co6  1  0.750000  0.113579  0.303157  1
  Co  Co7  1  0.250000  0.886421  0.696843  1
  Co  Co8  1  0.250000  0.036575  0.435229  1
  Co  Co9  1  0.750000  0.963425  0.564771  1
  Co  Co10  1  0.750000  0.536400  0.067278  1
  Co  Co11  1  0.250000  0.463600  0.932722  1
  Re  Re12  1  0.250000  0.792042  0.488950  1
  Re  Re13  1  0.750000  0.207958  0.511050  1
  P  P14  1  0.250000  0.071311  0.611201  1
  P  P15  1  0.750000  0.928689  0.388799  1
  P  P16  1  0.750000  0.568576  0.889244  1
  P  P17  1  0.250000  0.431424  0.110756  1
  P  P18  1  0.250000  0.226611  0.371374  1
  P  P19  1  0.750000  0.773389  0.628626  1
  P  P20  1  0.750000  0.725491  0.128795  1
  P  P21  1  0.250000  0.274509  0.871205  1
  P  P22  1  0.250000  0.900455  0.881554  1
  P  P23  1  0.750000  0.099545  0.118446  1
  P  P24  1  0.750000  0.397830  0.616099  1
  P  P25  1  0.250000  0.602170  0.383901  1
  Rh  Rh26  1  0.750000  0.283890  0.009235  1
  Rh  Rh27  1  0.250000  0.716110  0.990765  1
  Rh  Rh28  1  0.250000  0.091705  0.981072  1
  Rh  Rh29  1  0.750000  0.908295  0.018928  1
  Rh  Rh30  1  0.750000  0.593342  0.517657  1
  Rh  Rh31  1  0.250000  0.406658  0.482343  1
  Rh  Rh32  1  0.250000  0.273820  0.679736  1
  Rh  Rh33  1  0.750000  0.726180  0.320264  1
  Rh  Rh34  1  0.750000  0.772244  0.818470  1
  Rh  Rh35  1  0.250000  0.227756  0.181530  1
