# generated using pymatgen
data_CrInF6
_symmetry_space_group_name_H-M   'P 1'
_cell_length_a   5.62194095
_cell_length_b   5.62193285
_cell_length_c   5.62194322
_cell_angle_alpha   56.81223950
_cell_angle_beta   56.81235532
_cell_angle_gamma   56.81216908
_symmetry_Int_Tables_number   1
_chemical_formula_structural   CrInF6
_chemical_formula_sum   'Cr1 In1 F6'
_cell_volume   116.40082965
_cell_formula_units_Z   1
loop_
 _symmetry_equiv_pos_site_id
 _symmetry_equiv_pos_as_xyz
  1  'x, y, z'
loop_
 _atom_site_type_symbol
 _atom_site_label
 _atom_site_symmetry_multiplicity
 _atom_site_fract_x
 _atom_site_fract_y
 _atom_site_fract_z
 _atom_site_occupancy
  Cr  Cr0  1  0.500000  0.500000  0.500000  1
  In  In1  1  0.000000  0.000000  0.000000  1
  F  F2  1  0.848375  0.630582  0.261204  1
  F  F3  1  0.630582  0.261204  0.848375  1
  F  F4  1  0.261206  0.848374  0.630581  1
  F  F5  1  0.738794  0.151626  0.369419  1
  F  F6  1  0.369418  0.738796  0.151625  1
  F  F7  1  0.151625  0.369418  0.738796  1
