# generated using pymatgen
data_NaYH6PtRh
_symmetry_space_group_name_H-M   'P 1'
_cell_length_a   5.16784161
_cell_length_b   5.16785137
_cell_length_c   5.16785600
_cell_angle_alpha   119.99996534
_cell_angle_beta   119.99992491
_cell_angle_gamma   60.00016880
_symmetry_Int_Tables_number   1
_chemical_formula_structural   NaYH6PtRh
_chemical_formula_sum   'Na1 Y1 H6 Pt1 Rh1'
_cell_volume   97.59229456
_cell_formula_units_Z   1
loop_
 _symmetry_equiv_pos_site_id
 _symmetry_equiv_pos_as_xyz
  1  'x, y, z'
loop_
 _atom_site_type_symbol
 _atom_site_label
 _atom_site_symmetry_multiplicity
 _atom_site_fract_x
 _atom_site_fract_y
 _atom_site_fract_z
 _atom_site_occupancy
  Na  Na0  1  0.749999  0.750000  0.250001  1
  Y  Y1  1  0.250002  0.249993  0.750003  1
  H  H2  1  0.255089  0.255089  0.255088  1
  H  H3  1  0.744910  0.255090  0.255089  1
  H  H4  1  0.255091  0.744910  0.255090  1
  H  H5  1  0.744910  0.255089  0.744909  1
  H  H6  1  0.255090  0.744909  0.744909  1
  H  H7  1  0.744908  0.744909  0.744908  1
  Pt  Pt8  1  0.000001  0.000003  0.999998  1
  Rh  Rh9  1  0.499999  0.500008  0.500008  1
