# generated using pymatgen
data_LaNdSn4IrRh
_symmetry_space_group_name_H-M   'P 1'
_cell_length_a   8.87372205
_cell_length_b   8.87372226
_cell_length_c   9.72621500
_cell_angle_alpha   90.00000000
_cell_angle_beta   90.00000000
_cell_angle_gamma   149.37241040
_symmetry_Int_Tables_number   1
_chemical_formula_structural   LaNdSn4IrRh
_chemical_formula_sum   'La2 Nd2 Sn8 Ir2 Rh2'
_cell_volume   390.17734911
_cell_formula_units_Z   2
loop_
 _symmetry_equiv_pos_site_id
 _symmetry_equiv_pos_as_xyz
  1  'x, y, z'
loop_
 _atom_site_type_symbol
 _atom_site_label
 _atom_site_symmetry_multiplicity
 _atom_site_fract_x
 _atom_site_fract_y
 _atom_site_fract_z
 _atom_site_occupancy
  La  La0  1  0.501279  0.498721  0.500125  1
  La  La1  1  0.498721  0.501279  0.000125  1
  Nd  Nd2  1  0.296574  0.703426  0.249351  1
  Nd  Nd3  1  0.703426  0.296574  0.749351  1
  Sn  Sn4  1  0.908827  0.091173  0.749537  1
  Sn  Sn5  1  0.924110  0.075890  0.250590  1
  Sn  Sn6  1  0.091173  0.908827  0.249537  1
  Sn  Sn7  1  0.075890  0.924110  0.750590  1
  Sn  Sn8  1  0.698470  0.301530  0.409468  1
  Sn  Sn9  1  0.302524  0.697476  0.590310  1
  Sn  Sn10  1  0.301530  0.698470  0.909468  1
  Sn  Sn11  1  0.697476  0.302524  0.090310  1
  Ir  Ir12  1  0.147331  0.852669  0.505022  1
  Ir  Ir13  1  0.852669  0.147331  0.005022  1
  Rh  Rh14  1  0.147733  0.852267  0.995597  1
  Rh  Rh15  1  0.852267  0.147733  0.495597  1
