# generated using pymatgen
data_Yb3Sc2GaPt3
_symmetry_space_group_name_H-M   'P 1'
_cell_length_a   7.17311651
_cell_length_b   7.17311600
_cell_length_c   4.40790900
_cell_angle_alpha   90.00000000
_cell_angle_beta   90.00000000
_cell_angle_gamma   121.41195268
_symmetry_Int_Tables_number   1
_chemical_formula_structural   Yb3Sc2GaPt3
_chemical_formula_sum   'Yb3 Sc2 Ga1 Pt3'
_cell_volume   193.56303186
_cell_formula_units_Z   1
loop_
 _symmetry_equiv_pos_site_id
 _symmetry_equiv_pos_as_xyz
  1  'x, y, z'
loop_
 _atom_site_type_symbol
 _atom_site_label
 _atom_site_symmetry_multiplicity
 _atom_site_fract_x
 _atom_site_fract_y
 _atom_site_fract_z
 _atom_site_occupancy
  Yb  Yb0  1  0.584027  0.983949  0.500001  1
  Yb  Yb1  1  0.432733  0.432733  0.500001  1
  Yb  Yb2  1  0.983949  0.584027  0.500001  1
  Sc  Sc3  1  0.238570  0.988939  0.000000  1
  Sc  Sc4  1  0.988939  0.238570  0.000000  1
  Ga  Ga5  1  0.757022  0.757022  0.000000  1
  Pt  Pt6  1  0.664616  0.339033  0.000000  1
  Pt  Pt7  1  0.339033  0.664617  0.000000  1
  Pt  Pt8  1  0.011111  0.011111  0.500001  1
