# generated using pymatgen
data_Tb3YAl18CrPd5
_symmetry_space_group_name_H-M   'P 1'
_cell_length_a   7.61340839
_cell_length_b   7.61340948
_cell_length_c   9.52242200
_cell_angle_alpha   89.74841704
_cell_angle_beta   89.74841701
_cell_angle_gamma   119.15231948
_symmetry_Int_Tables_number   1
_chemical_formula_structural   Tb3YAl18CrPd5
_chemical_formula_sum   'Tb3 Y1 Al18 Cr1 Pd5'
_cell_volume   482.02179793
_cell_formula_units_Z   1
loop_
 _symmetry_equiv_pos_site_id
 _symmetry_equiv_pos_as_xyz
  1  'x, y, z'
loop_
 _atom_site_type_symbol
 _atom_site_label
 _atom_site_symmetry_multiplicity
 _atom_site_fract_x
 _atom_site_fract_y
 _atom_site_fract_z
 _atom_site_occupancy
  Tb  Tb0  1  0.005124  0.327026  0.751717  1
  Tb  Tb1  1  0.672974  0.994876  0.248283  1
  Tb  Tb2  1  0.327026  0.005124  0.751717  1
  Y  Y3  1  0.994876  0.672974  0.248283  1
  Al  Al4  1  0.127845  0.127845  0.243759  1
  Al  Al5  1  0.872155  0.872155  0.756241  1
  Al  Al6  1  0.001607  0.328265  0.072980  1
  Al  Al7  1  0.998393  0.671735  0.927020  1
  Al  Al8  1  0.998202  0.663487  0.577424  1
  Al  Al9  1  0.336513  0.001798  0.422576  1
  Al  Al10  1  0.001798  0.336513  0.422576  1
  Al  Al11  1  0.663487  0.998202  0.577424  1
  Al  Al12  1  0.671735  0.998393  0.927020  1
  Al  Al13  1  0.328265  0.001607  0.072980  1
  Al  Al14  1  0.333893  0.333893  0.555470  1
  Al  Al15  1  0.666107  0.666107  0.444530  1
  Al  Al16  1  0.672659  0.672659  0.051050  1
  Al  Al17  1  0.327341  0.327341  0.948950  1
  Al  Al18  1  0.340238  0.547080  0.249458  1
  Al  Al19  1  0.659762  0.452920  0.750542  1
  Al  Al20  1  0.547080  0.340238  0.249458  1
  Al  Al21  1  0.452920  0.659762  0.750542  1
  Cr  Cr22  1  0.000000  0.000000  0.000000  1
  Pd  Pd23  1  0.672625  0.327375  0.000000  1
  Pd  Pd24  1  0.327375  0.672625  0.000000  1
  Pd  Pd25  1  0.328147  0.671853  0.500000  1
  Pd  Pd26  1  0.671853  0.328147  0.500000  1
  Pd  Pd27  1  0.000000  0.000000  0.500000  1
