# generated using pymatgen
data_Rb2Ir3O5F7
_symmetry_space_group_name_H-M   'P 1'
_cell_length_a   8.56173000
_cell_length_b   8.33493832
_cell_length_c   10.07447757
_cell_angle_alpha   108.86741473
_cell_angle_beta   89.99848844
_cell_angle_gamma   120.90538806
_symmetry_Int_Tables_number   1
_chemical_formula_structural   Rb2Ir3O5F7
_chemical_formula_sum   'Rb4 Ir6 O10 F14'
_cell_volume   571.36919987
_cell_formula_units_Z   2
loop_
 _symmetry_equiv_pos_site_id
 _symmetry_equiv_pos_as_xyz
  1  'x, y, z'
loop_
 _atom_site_type_symbol
 _atom_site_label
 _atom_site_symmetry_multiplicity
 _atom_site_fract_x
 _atom_site_fract_y
 _atom_site_fract_z
 _atom_site_occupancy
  Rb  Rb0  1  0.794207  0.544722  0.139401  1
  Rb  Rb1  1  0.249481  0.455279  0.360578  1
  Rb  Rb2  1  0.750478  0.544690  0.639398  1
  Rb  Rb3  1  0.205799  0.455319  0.860588  1
  Ir  Ir4  1  0.788498  0.997849  0.050268  1
  Ir  Ir5  1  0.434989  0.000002  0.249996  1
  Ir  Ir6  1  0.790642  0.002155  0.449731  1
  Ir  Ir7  1  0.209366  0.997852  0.550271  1
  Ir  Ir8  1  0.565017  0.999996  0.750015  1
  Ir  Ir9  1  0.211532  0.002145  0.949763  1
  O  O10  1  0.000042  0.000001  0.999973  1
  O  O11  1  0.258206  0.001112  0.132835  1
  O  O12  1  0.583492  0.998472  0.108962  1
  O  O13  1  0.585031  0.001531  0.391030  1
  O  O14  1  0.257100  0.998896  0.367161  1
  O  O15  1  0.000028  0.000002  0.500034  1
  O  O16  1  0.742915  0.001116  0.632829  1
  O  O17  1  0.414900  0.998481  0.609026  1
  O  O18  1  0.416394  0.001511  0.890976  1
  O  O19  1  0.741797  0.998873  0.867155  1
  F  F20  1  0.356811  0.300140  0.024805  1
  F  F21  1  0.939714  0.297080  0.135364  1
  F  F22  1  0.286273  0.702031  0.170275  1
  F  F23  1  0.871766  0.000015  0.250001  1
  F  F24  1  0.584251  0.297974  0.329716  1
  F  F25  1  0.642627  0.702925  0.364619  1
  F  F26  1  0.056673  0.699852  0.475190  1
  F  F27  1  0.943341  0.300207  0.524863  1
  F  F28  1  0.357342  0.297027  0.635387  1
  F  F29  1  0.415770  0.702003  0.670258  1
  F  F30  1  0.128297  0.999987  0.750005  1
  F  F31  1  0.713768  0.297988  0.829749  1
  F  F32  1  0.060299  0.702973  0.864632  1
  F  F33  1  0.643151  0.699798  0.975146  1
