# generated using pymatgen
data_Li11AgAs6
_symmetry_space_group_name_H-M   'P 1'
_cell_length_a   7.41451000
_cell_length_b   7.40830255
_cell_length_c   6.06686678
_cell_angle_alpha   90.53445712
_cell_angle_beta   90.00000000
_cell_angle_gamma   120.02773939
_symmetry_Int_Tables_number   1
_chemical_formula_structural   Li11AgAs6
_chemical_formula_sum   'Li11 Ag1 As6'
_cell_volume   288.50250366
_cell_formula_units_Z   1
loop_
 _symmetry_equiv_pos_site_id
 _symmetry_equiv_pos_as_xyz
  1  'x, y, z'
loop_
 _atom_site_type_symbol
 _atom_site_label
 _atom_site_symmetry_multiplicity
 _atom_site_fract_x
 _atom_site_fract_y
 _atom_site_fract_z
 _atom_site_occupancy
  Li  Li0  1  0.699254  0.697907  0.499639  1
  Li  Li1  1  0.001347  0.302093  0.500361  1
  Li  Li2  1  0.998172  0.282222  0.000887  1
  Li  Li3  1  0.715950  0.717778  0.999113  1
  Li  Li4  1  0.300743  0.000000  0.500000  1
  Li  Li5  1  0.626837  0.009747  0.252081  1
  Li  Li6  1  0.375745  0.357663  0.252778  1
  Li  Li7  1  0.995320  0.630336  0.250370  1
  Li  Li8  1  0.617091  0.990253  0.747919  1
  Li  Li9  1  0.364984  0.369664  0.749630  1
  Li  Li10  1  0.018081  0.642337  0.747222  1
  Ag  Ag11  1  0.286992  0.000000  0.000000  1
  As  As12  1  0.992746  0.998482  0.277799  1
  As  As13  1  0.994264  0.001518  0.722201  1
  As  As14  1  0.334203  0.660352  0.038320  1
  As  As15  1  0.334273  0.664128  0.467590  1
  As  As16  1  0.673852  0.339648  0.961680  1
  As  As17  1  0.670146  0.335872  0.532410  1
