# generated using pymatgen
data_Ce2Si3Ni14H3
_symmetry_space_group_name_H-M   'P 1'
_cell_length_a   6.28327598
_cell_length_b   6.28327654
_cell_length_c   6.28327519
_cell_angle_alpha   83.91818459
_cell_angle_beta   83.91819475
_cell_angle_gamma   83.91818385
_symmetry_Int_Tables_number   1
_chemical_formula_structural   Ce2Si3Ni14H3
_chemical_formula_sum   'Ce2 Si3 Ni14 H3'
_cell_volume   244.14834906
_cell_formula_units_Z   1
loop_
 _symmetry_equiv_pos_site_id
 _symmetry_equiv_pos_as_xyz
  1  'x, y, z'
loop_
 _atom_site_type_symbol
 _atom_site_label
 _atom_site_symmetry_multiplicity
 _atom_site_fract_x
 _atom_site_fract_y
 _atom_site_fract_z
 _atom_site_occupancy
  Ce  Ce0  1  0.650766  0.650766  0.650766  1
  Ce  Ce1  1  0.349234  0.349234  0.349234  1
  Si  Si2  1  0.000000  0.000000  0.500000  1
  Si  Si3  1  0.500000  0.000000  0.000000  1
  Si  Si4  1  0.000000  0.500000  0.000000  1
  Ni  Ni5  1  0.708935  0.291065  0.000000  1
  Ni  Ni6  1  0.000000  0.708935  0.291065  1
  Ni  Ni7  1  0.291065  0.000000  0.708935  1
  Ni  Ni8  1  0.000000  0.291065  0.708935  1
  Ni  Ni9  1  0.708935  0.000000  0.291065  1
  Ni  Ni10  1  0.291065  0.708935  0.000000  1
  Ni  Ni11  1  0.342152  0.342152  0.860621  1
  Ni  Ni12  1  0.860621  0.342152  0.342152  1
  Ni  Ni13  1  0.342152  0.860621  0.342152  1
  Ni  Ni14  1  0.657848  0.657848  0.139379  1
  Ni  Ni15  1  0.139379  0.657848  0.657848  1
  Ni  Ni16  1  0.657848  0.139379  0.657848  1
  Ni  Ni17  1  0.899325  0.899325  0.899325  1
  Ni  Ni18  1  0.100675  0.100675  0.100675  1
  H  H19  1  0.500000  0.500000  0.000000  1
  H  H20  1  0.000000  0.500000  0.500000  1
  H  H21  1  0.500000  0.000000  0.500000  1
