# generated using pymatgen
data_Dy4MnFe8P12Ir11
_symmetry_space_group_name_H-M   'P 1'
_cell_length_a   3.83655100
_cell_length_b   10.47675365
_cell_length_c   12.32835422
_cell_angle_alpha   90.16934713
_cell_angle_beta   90.00000000
_cell_angle_gamma   90.00000000
_symmetry_Int_Tables_number   1
_chemical_formula_structural   Dy4MnFe8P12Ir11
_chemical_formula_sum   'Dy4 Mn1 Fe8 P12 Ir11'
_cell_volume   495.53109820
_cell_formula_units_Z   1
loop_
 _symmetry_equiv_pos_site_id
 _symmetry_equiv_pos_as_xyz
  1  'x, y, z'
loop_
 _atom_site_type_symbol
 _atom_site_label
 _atom_site_symmetry_multiplicity
 _atom_site_fract_x
 _atom_site_fract_y
 _atom_site_fract_z
 _atom_site_occupancy
  Dy  Dy0  1  0.250000  0.579377  0.714788  1
  Dy  Dy1  1  0.250000  0.920504  0.211764  1
  Dy  Dy2  1  0.750000  0.421036  0.287506  1
  Dy  Dy3  1  0.750000  0.077284  0.787773  1
  Mn  Mn4  1  0.250000  0.708160  0.993212  1
  Fe  Fe5  1  0.250000  0.876087  0.694808  1
  Fe  Fe6  1  0.250000  0.626828  0.197073  1
  Fe  Fe7  1  0.750000  0.125740  0.302677  1
  Fe  Fe8  1  0.750000  0.376990  0.803222  1
  Fe  Fe9  1  0.250000  0.456705  0.936880  1
  Fe  Fe10  1  0.250000  0.043542  0.436268  1
  Fe  Fe11  1  0.750000  0.537292  0.065880  1
  Fe  Fe12  1  0.750000  0.957660  0.561282  1
  P  P13  1  0.250000  0.441834  0.112578  1
  P  P14  1  0.250000  0.058996  0.611391  1
  P  P15  1  0.750000  0.563547  0.891002  1
  P  P16  1  0.750000  0.941623  0.386211  1
  P  P17  1  0.250000  0.272113  0.862573  1
  P  P18  1  0.250000  0.228520  0.361894  1
  P  P19  1  0.750000  0.726925  0.135782  1
  P  P20  1  0.750000  0.772739  0.637057  1
  P  P21  1  0.250000  0.600287  0.377496  1
  P  P22  1  0.250000  0.897868  0.878022  1
  P  P23  1  0.750000  0.400363  0.623391  1
  P  P24  1  0.750000  0.100318  0.120915  1
  Ir  Ir25  1  0.250000  0.783483  0.489583  1
  Ir  Ir26  1  0.750000  0.284769  0.009158  1
  Ir  Ir27  1  0.750000  0.216430  0.510709  1
  Ir  Ir28  1  0.250000  0.408628  0.475505  1
  Ir  Ir29  1  0.250000  0.092320  0.973388  1
  Ir  Ir30  1  0.750000  0.591065  0.525578  1
  Ir  Ir31  1  0.750000  0.906814  0.025274  1
  Ir  Ir32  1  0.250000  0.231198  0.172737  1
  Ir  Ir33  1  0.250000  0.269008  0.673579  1
  Ir  Ir34  1  0.750000  0.772608  0.826128  1
  Ir  Ir35  1  0.750000  0.731340  0.326917  1
