# generated using pymatgen
data_YNp(SbSe)2
_symmetry_space_group_name_H-M   'P 1'
_cell_length_a   4.18678000
_cell_length_b   4.18678000
_cell_length_c   8.76750900
_cell_angle_alpha   90.00000000
_cell_angle_beta   90.00000000
_cell_angle_gamma   90.00000000
_symmetry_Int_Tables_number   1
_chemical_formula_structural   YNp(SbSe)2
_chemical_formula_sum   'Y1 Np1 Sb2 Se2'
_cell_volume   153.68677670
_cell_formula_units_Z   1
loop_
 _symmetry_equiv_pos_site_id
 _symmetry_equiv_pos_as_xyz
  1  'x, y, z'
loop_
 _atom_site_type_symbol
 _atom_site_label
 _atom_site_symmetry_multiplicity
 _atom_site_fract_x
 _atom_site_fract_y
 _atom_site_fract_z
 _atom_site_occupancy
  Y  Y0  1  0.500000  0.000000  0.292085  1
  Np  Np1  1  0.000000  0.500000  0.707436  1
  Sb  Sb2  1  0.000000  0.000000  0.998544  1
  Sb  Sb3  1  0.500000  0.500000  0.998544  1
  Se  Se4  1  0.000000  0.500000  0.370610  1
  Se  Se5  1  0.500000  0.000000  0.632782  1
