# generated using pymatgen
data_La9Pr3(PtBr3)4
_symmetry_space_group_name_H-M   'P 1'
_cell_length_a   10.72730517
_cell_length_b   10.70399368
_cell_length_c   10.70877575
_cell_angle_alpha   109.20673706
_cell_angle_beta   109.29531737
_cell_angle_gamma   109.93830116
_symmetry_Int_Tables_number   1
_chemical_formula_structural   La9Pr3(PtBr3)4
_chemical_formula_sum   'La9 Pr3 Pt4 Br12'
_cell_volume   946.22717071
_cell_formula_units_Z   1
loop_
 _symmetry_equiv_pos_site_id
 _symmetry_equiv_pos_as_xyz
  1  'x, y, z'
loop_
 _atom_site_type_symbol
 _atom_site_label
 _atom_site_symmetry_multiplicity
 _atom_site_fract_x
 _atom_site_fract_y
 _atom_site_fract_z
 _atom_site_occupancy
  La  La0  1  0.470785  0.484539  0.235964  1
  La  La1  1  0.747314  0.235117  0.262377  1
  La  La2  1  0.754877  0.017165  0.488080  1
  La  La3  1  0.233203  0.470914  0.488080  1
  La  La4  1  0.265179  0.751425  0.235964  1
  La  La5  1  0.028609  0.264248  0.013853  1
  La  La6  1  0.015063  0.027260  0.262377  1
  La  La7  1  0.485244  0.749605  0.013853  1
  La  La8  1  0.485072  0.235072  0.470144  1
  Pr  Pr9  1  0.016711  0.485435  0.751400  1
  Pr  Pr10  1  0.264019  0.014019  0.028039  1
  Pr  Pr11  1  0.234689  0.265965  0.751400  1
  Pt  Pt12  1  0.249019  0.249996  0.249825  1
  Pt  Pt13  1  0.500806  0.999829  0.249825  1
  Pt  Pt14  1  0.998855  0.248855  0.497710  1
  Pt  Pt15  1  0.251133  0.501133  0.002266  1
  Br  Br16  1  0.247863  0.755188  0.748050  1
  Br  Br17  1  0.506879  0.501849  0.754084  1
  Br  Br18  1  0.992991  0.744514  0.992253  1
  Br  Br19  1  0.747205  0.252235  0.754084  1
  Br  Br20  1  0.000187  0.992862  0.748050  1
  Br  Br21  1  0.249330  0.997875  0.505508  1
  Br  Br22  1  0.756178  0.507633  0.505508  1
  Br  Br23  1  0.499262  0.247739  0.992253  1
  Br  Br24  1  0.754224  0.746086  0.250049  1
  Br  Br25  1  0.745556  0.995556  0.991112  1
  Br  Br26  1  0.995825  0.503963  0.250049  1
  Br  Br27  1  0.503923  0.753923  0.507845  1
