# generated using pymatgen
data_Tb4Tm6Ir3Ru
_symmetry_space_group_name_H-M   'P 1'
_cell_length_a   6.42418729
_cell_length_b   7.19530311
_cell_length_c   8.43475424
_cell_angle_alpha   96.84581973
_cell_angle_beta   112.10739930
_cell_angle_gamma   89.98979510
_symmetry_Int_Tables_number   1
_chemical_formula_structural   Tb4Tm6Ir3Ru
_chemical_formula_sum   'Tb4 Tm6 Ir3 Ru1'
_cell_volume   358.22464423
_cell_formula_units_Z   1
loop_
 _symmetry_equiv_pos_site_id
 _symmetry_equiv_pos_as_xyz
  1  'x, y, z'
loop_
 _atom_site_type_symbol
 _atom_site_label
 _atom_site_symmetry_multiplicity
 _atom_site_fract_x
 _atom_site_fract_y
 _atom_site_fract_z
 _atom_site_occupancy
  Tb  Tb0  1  0.971654  0.916823  0.187468  1
  Tb  Tb1  1  0.785781  0.580876  0.814633  1
  Tb  Tb2  1  0.027803  0.080340  0.813816  1
  Tb  Tb3  1  0.213673  0.419183  0.187917  1
  Tm  Tm4  1  0.649663  0.815942  0.437932  1
  Tm  Tm5  1  0.209861  0.683947  0.560818  1
  Tm  Tm6  1  0.350941  0.183877  0.561115  1
  Tm  Tm7  1  0.789625  0.317495  0.437129  1
  Tm  Tm8  1  0.426389  0.750163  0.999901  1
  Tm  Tm9  1  0.574603  0.251512  0.000947  1
  Ir  Ir10  1  0.598726  0.927328  0.778028  1
  Ir  Ir11  1  0.178689  0.426049  0.778388  1
  Ir  Ir12  1  0.399280  0.073253  0.221660  1
  Ru  Ru13  1  0.823312  0.573214  0.220249  1
