# generated using pymatgen
data_FeSnSbO6
_symmetry_space_group_name_H-M   'P 1'
_cell_length_a   4.74718500
_cell_length_b   4.74719400
_cell_length_c   9.47109700
_cell_angle_alpha   90.00005648
_cell_angle_beta   89.99991596
_cell_angle_gamma   90.00012070
_symmetry_Int_Tables_number   1
_chemical_formula_structural   FeSnSbO6
_chemical_formula_sum   'Fe2 Sn2 Sb2 O12'
_cell_volume   213.43882522
_cell_formula_units_Z   2
loop_
 _symmetry_equiv_pos_site_id
 _symmetry_equiv_pos_as_xyz
  1  'x, y, z'
loop_
 _atom_site_type_symbol
 _atom_site_label
 _atom_site_symmetry_multiplicity
 _atom_site_fract_x
 _atom_site_fract_y
 _atom_site_fract_z
 _atom_site_occupancy
  Fe  Fe0  1  0.999987  0.999999  0.667358  1
  Fe  Fe1  1  0.499993  0.500000  0.167377  1
  Sn  Sn2  1  0.500004  0.499999  0.499296  1
  Sn  Sn3  1  0.000000  0.999996  0.999268  1
  Sb  Sb4  1  0.499996  0.499997  0.833285  1
  Sb  Sb5  1  0.000010  0.000002  0.333183  1
  O  O6  1  0.195111  0.804896  0.171762  1
  O  O7  1  0.804898  0.195107  0.171763  1
  O  O8  1  0.304868  0.304876  0.671749  1
  O  O9  1  0.695122  0.695128  0.671750  1
  O  O10  1  0.188967  0.811035  0.497959  1
  O  O11  1  0.811034  0.188965  0.497959  1
  O  O12  1  0.311057  0.311052  0.997925  1
  O  O13  1  0.688946  0.688950  0.997923  1
  O  O14  1  0.198421  0.801576  0.830348  1
  O  O15  1  0.801574  0.198421  0.830348  1
  O  O16  1  0.301595  0.301590  0.330371  1
  O  O17  1  0.698416  0.698411  0.330373  1
