# generated using pymatgen
data_Hf4FeTe4
_symmetry_space_group_name_H-M   'P 1'
_cell_length_a   5.40660000
_cell_length_b   11.03647500
_cell_length_c   19.48540200
_cell_angle_alpha   90.00000000
_cell_angle_beta   90.00000000
_cell_angle_gamma   90.00000000
_symmetry_Int_Tables_number   1
_chemical_formula_structural   Hf4FeTe4
_chemical_formula_sum   'Hf16 Fe4 Te16'
_cell_volume   1162.69015201
_cell_formula_units_Z   4
loop_
 _symmetry_equiv_pos_site_id
 _symmetry_equiv_pos_as_xyz
  1  'x, y, z'
loop_
 _atom_site_type_symbol
 _atom_site_label
 _atom_site_symmetry_multiplicity
 _atom_site_fract_x
 _atom_site_fract_y
 _atom_site_fract_z
 _atom_site_occupancy
  Hf  Hf0  1  0.500000  0.594162  0.604144  1
  Hf  Hf1  1  0.500000  0.405838  0.395856  1
  Hf  Hf2  1  0.500000  0.094162  0.895856  1
  Hf  Hf3  1  0.500000  0.905838  0.104144  1
  Hf  Hf4  1  0.000000  0.303101  0.464239  1
  Hf  Hf5  1  0.000000  0.696899  0.535761  1
  Hf  Hf6  1  0.000000  0.803101  0.035761  1
  Hf  Hf7  1  0.000000  0.196899  0.964239  1
  Hf  Hf8  1  0.500000  0.316239  0.553508  1
  Hf  Hf9  1  0.500000  0.683761  0.446492  1
  Hf  Hf10  1  0.500000  0.816239  0.946492  1
  Hf  Hf11  1  0.500000  0.183761  0.053508  1
  Hf  Hf12  1  0.000000  0.436743  0.611230  1
  Hf  Hf13  1  0.000000  0.563257  0.388770  1
  Hf  Hf14  1  0.000000  0.936743  0.888770  1
  Hf  Hf15  1  0.000000  0.063257  0.111230  1
  Fe  Fe16  1  0.249982  0.500000  0.500000  1
  Fe  Fe17  1  0.750018  0.000000  0.000000  1
  Fe  Fe18  1  0.750018  0.500000  0.500000  1
  Fe  Fe19  1  0.249982  0.000000  0.000000  1
  Te  Te20  1  0.000000  0.665971  0.682961  1
  Te  Te21  1  0.000000  0.334029  0.317039  1
  Te  Te22  1  0.000000  0.165971  0.817039  1
  Te  Te23  1  0.000000  0.834029  0.182961  1
  Te  Te24  1  0.500000  0.388562  0.696110  1
  Te  Te25  1  0.500000  0.611438  0.303890  1
  Te  Te26  1  0.500000  0.888562  0.803890  1
  Te  Te27  1  0.500000  0.111438  0.196110  1
  Te  Te28  1  0.500000  0.154474  0.436805  1
  Te  Te29  1  0.500000  0.845526  0.563195  1
  Te  Te30  1  0.500000  0.654474  0.063195  1
  Te  Te31  1  0.500000  0.345526  0.936805  1
  Te  Te32  1  0.000000  0.323548  0.093924  1
  Te  Te33  1  0.000000  0.676452  0.906076  1
  Te  Te34  1  0.000000  0.823548  0.406076  1
  Te  Te35  1  0.000000  0.176452  0.593924  1
