# generated using pymatgen
data_Yb10InNi4Sb
_symmetry_space_group_name_H-M   'P 1'
_cell_length_a   8.97310150
_cell_length_b   8.97310093
_cell_length_c   8.97310171
_cell_angle_alpha   130.20157351
_cell_angle_beta   130.20156888
_cell_angle_gamma   73.08472448
_symmetry_Int_Tables_number   1
_chemical_formula_structural   Yb10InNi4Sb
_chemical_formula_sum   'Yb10 In1 Ni4 Sb1'
_cell_volume   411.56749953
_cell_formula_units_Z   1
loop_
 _symmetry_equiv_pos_site_id
 _symmetry_equiv_pos_as_xyz
  1  'x, y, z'
loop_
 _atom_site_type_symbol
 _atom_site_label
 _atom_site_symmetry_multiplicity
 _atom_site_fract_x
 _atom_site_fract_y
 _atom_site_fract_z
 _atom_site_occupancy
  Yb  Yb0  1  0.000439  0.000439  0.000000  1
  Yb  Yb1  1  0.499561  0.499561  0.000000  1
  Yb  Yb2  1  0.800119  0.299043  0.837687  1
  Yb  Yb3  1  0.200957  0.699881  0.162313  1
  Yb  Yb4  1  0.461355  0.962430  0.162313  1
  Yb  Yb5  1  0.299043  0.461355  0.498924  1
  Yb  Yb6  1  0.038645  0.200957  0.501076  1
  Yb  Yb7  1  0.537570  0.038645  0.837687  1
  Yb  Yb8  1  0.699881  0.537570  0.498924  1
  Yb  Yb9  1  0.962430  0.800119  0.501076  1
  In  In10  1  0.750000  0.750000  0.000000  1
  Ni  Ni11  1  0.113913  0.613913  0.727825  1
  Ni  Ni12  1  0.886087  0.386087  0.272175  1
  Ni  Ni13  1  0.613913  0.886087  0.500000  1
  Ni  Ni14  1  0.386087  0.113913  0.500000  1
  Sb  Sb15  1  0.250000  0.250000  0.000000  1
