# generated using pymatgen
data_Ba5(SbAs)2
_symmetry_space_group_name_H-M   'P 1'
_cell_length_a   8.87639800
_cell_length_b   8.96980900
_cell_length_c   17.55983300
_cell_angle_alpha   90.00000000
_cell_angle_beta   90.00000000
_cell_angle_gamma   90.00000000
_symmetry_Int_Tables_number   1
_chemical_formula_structural   Ba5(SbAs)2
_chemical_formula_sum   'Ba20 Sb8 As8'
_cell_volume   1398.10678590
_cell_formula_units_Z   4
loop_
 _symmetry_equiv_pos_site_id
 _symmetry_equiv_pos_as_xyz
  1  'x, y, z'
loop_
 _atom_site_type_symbol
 _atom_site_label
 _atom_site_symmetry_multiplicity
 _atom_site_fract_x
 _atom_site_fract_y
 _atom_site_fract_z
 _atom_site_occupancy
  Ba  Ba0  1  0.425330  0.664483  0.597695  1
  Ba  Ba1  1  0.925330  0.835517  0.902305  1
  Ba  Ba2  1  0.074670  0.164483  0.402305  1
  Ba  Ba3  1  0.574670  0.335517  0.097695  1
  Ba  Ba4  1  0.425330  0.664483  0.902305  1
  Ba  Ba5  1  0.925330  0.835517  0.597695  1
  Ba  Ba6  1  0.074670  0.164483  0.097695  1
  Ba  Ba7  1  0.574670  0.335517  0.402305  1
  Ba  Ba8  1  0.415248  0.838818  0.401427  1
  Ba  Ba9  1  0.915248  0.661182  0.098573  1
  Ba  Ba10  1  0.084752  0.338818  0.598573  1
  Ba  Ba11  1  0.584752  0.161182  0.901427  1
  Ba  Ba12  1  0.584752  0.161182  0.598573  1
  Ba  Ba13  1  0.084752  0.338818  0.901427  1
  Ba  Ba14  1  0.915248  0.661182  0.401427  1
  Ba  Ba15  1  0.415248  0.838818  0.098573  1
  Ba  Ba16  1  0.254374  0.002031  0.750000  1
  Ba  Ba17  1  0.754374  0.497969  0.750000  1
  Ba  Ba18  1  0.245626  0.502031  0.250000  1
  Ba  Ba19  1  0.745626  0.997969  0.250000  1
  Sb  Sb20  1  0.368714  0.387676  0.750000  1
  Sb  Sb21  1  0.868714  0.112324  0.750000  1
  Sb  Sb22  1  0.131286  0.887676  0.250000  1
  Sb  Sb23  1  0.631286  0.612324  0.250000  1
  Sb  Sb24  1  0.139498  0.617695  0.750000  1
  Sb  Sb25  1  0.639498  0.882305  0.750000  1
  Sb  Sb26  1  0.360502  0.117695  0.250000  1
  Sb  Sb27  1  0.860502  0.382305  0.250000  1
  As  As28  1  0.747559  0.996283  0.052748  1
  As  As29  1  0.247559  0.503717  0.447252  1
  As  As30  1  0.752441  0.496283  0.947252  1
  As  As31  1  0.252441  0.003717  0.552748  1
  As  As32  1  0.252441  0.003717  0.947252  1
  As  As33  1  0.752441  0.496283  0.552748  1
  As  As34  1  0.247559  0.503717  0.052748  1
  As  As35  1  0.747559  0.996283  0.447252  1
