# generated using pymatgen
data_La2Cd4CoIr17
_symmetry_space_group_name_H-M   'P 1'
_cell_length_a   8.89505100
_cell_length_b   8.89505048
_cell_length_c   5.15159400
_cell_angle_alpha   90.00000000
_cell_angle_beta   90.00000000
_cell_angle_gamma   89.41509955
_symmetry_Int_Tables_number   1
_chemical_formula_structural   La2Cd4CoIr17
_chemical_formula_sum   'La2 Cd4 Co1 Ir17'
_cell_volume   407.58280947
_cell_formula_units_Z   1
loop_
 _symmetry_equiv_pos_site_id
 _symmetry_equiv_pos_as_xyz
  1  'x, y, z'
loop_
 _atom_site_type_symbol
 _atom_site_label
 _atom_site_symmetry_multiplicity
 _atom_site_fract_x
 _atom_site_fract_y
 _atom_site_fract_z
 _atom_site_occupancy
  La  La0  1  0.500000  0.500000  0.000000  1
  La  La1  1  0.000000  0.000000  0.000000  1
  Cd  Cd2  1  0.115886  0.615886  0.000000  1
  Cd  Cd3  1  0.884114  0.384114  0.000000  1
  Cd  Cd4  1  0.381420  0.118580  0.000000  1
  Cd  Cd5  1  0.618580  0.881420  0.000000  1
  Co  Co6  1  0.000000  0.500000  0.500000  1
  Ir  Ir7  1  0.318659  0.818659  0.758669  1
  Ir  Ir8  1  0.681341  0.181341  0.758669  1
  Ir  Ir9  1  0.177555  0.322445  0.757378  1
  Ir  Ir10  1  0.822445  0.677555  0.757378  1
  Ir  Ir11  1  0.681341  0.181341  0.241331  1
  Ir  Ir12  1  0.318659  0.818659  0.241331  1
  Ir  Ir13  1  0.822445  0.677555  0.242622  1
  Ir  Ir14  1  0.177555  0.322445  0.242622  1
  Ir  Ir15  1  0.558212  0.702008  0.500000  1
  Ir  Ir16  1  0.441788  0.297992  0.500000  1
  Ir  Ir17  1  0.940687  0.210794  0.500000  1
  Ir  Ir18  1  0.059313  0.789206  0.500000  1
  Ir  Ir19  1  0.710794  0.440687  0.500000  1
  Ir  Ir20  1  0.289206  0.559313  0.500000  1
  Ir  Ir21  1  0.202008  0.058212  0.500000  1
  Ir  Ir22  1  0.797992  0.941788  0.500000  1
  Ir  Ir23  1  0.500000  0.000000  0.500000  1
