# generated using pymatgen
data_TbYb10ReN10
_symmetry_space_group_name_H-M   'P 1'
_cell_length_a   6.92363745
_cell_length_b   6.92363575
_cell_length_c   8.73873700
_cell_angle_alpha   80.49357708
_cell_angle_beta   80.49358783
_cell_angle_gamma   59.83248681
_symmetry_Int_Tables_number   1
_chemical_formula_structural   TbYb10ReN10
_chemical_formula_sum   'Tb1 Yb10 Re1 N10'
_cell_volume   355.53415102
_cell_formula_units_Z   1
loop_
 _symmetry_equiv_pos_site_id
 _symmetry_equiv_pos_as_xyz
  1  'x, y, z'
loop_
 _atom_site_type_symbol
 _atom_site_label
 _atom_site_symmetry_multiplicity
 _atom_site_fract_x
 _atom_site_fract_y
 _atom_site_fract_z
 _atom_site_occupancy
  Tb  Tb0  1  0.371291  0.371291  0.786938  1
  Yb  Yb1  1  0.878387  0.360997  0.826178  1
  Yb  Yb2  1  0.872104  0.872104  0.815216  1
  Yb  Yb3  1  0.738713  0.738713  0.527982  1
  Yb  Yb4  1  0.745772  0.258039  0.512439  1
  Yb  Yb5  1  0.623146  0.136814  0.157369  1
  Yb  Yb6  1  0.360997  0.878387  0.826178  1
  Yb  Yb7  1  0.258039  0.745772  0.512439  1
  Yb  Yb8  1  0.242596  0.242596  0.497520  1
  Yb  Yb9  1  0.136781  0.136781  0.170251  1
  Yb  Yb10  1  0.136814  0.623146  0.157369  1
  Re  Re11  1  0.631431  0.631431  0.222717  1
  N  N12  1  0.900310  0.473287  0.314214  1
  N  N13  1  0.991867  0.991867  0.022977  1
  N  N14  1  0.675406  0.675406  0.011573  1
  N  N15  1  0.558209  0.558209  0.676909  1
  N  N16  1  0.473287  0.900310  0.314214  1
  N  N17  1  0.554663  0.064011  0.657558  1
  N  N18  1  0.475396  0.475396  0.296575  1
  N  N19  1  0.310585  0.310585  0.038649  1
  N  N20  1  0.062478  0.062478  0.642984  1
  N  N21  1  0.064011  0.554663  0.657558  1
