# generated using pymatgen
data_DyY(Al5Cu6)2
_symmetry_space_group_name_H-M   'P 1'
_cell_length_a   10.32623522
_cell_length_b   8.18037995
_cell_length_c   7.83092011
_cell_angle_alpha   80.28911985
_cell_angle_beta   51.33781588
_cell_angle_gamma   48.37305316
_symmetry_Int_Tables_number   1
_chemical_formula_structural   DyY(Al5Cu6)2
_chemical_formula_sum   'Dy1 Y1 Al10 Cu12'
_cell_volume   350.03029649
_cell_formula_units_Z   1
loop_
 _symmetry_equiv_pos_site_id
 _symmetry_equiv_pos_as_xyz
  1  'x, y, z'
loop_
 _atom_site_type_symbol
 _atom_site_label
 _atom_site_symmetry_multiplicity
 _atom_site_fract_x
 _atom_site_fract_y
 _atom_site_fract_z
 _atom_site_occupancy
  Dy  Dy0  1  0.250000  0.250000  0.250000  1
  Y  Y1  1  0.000000  0.000000  0.000000  1
  Al  Al2  1  0.500000  0.500000  0.500000  1
  Al  Al3  1  0.750000  0.750000  0.750000  1
  Al  Al4  1  0.754366  0.071503  0.836144  1
  Al  Al5  1  0.836144  0.337988  0.754366  1
  Al  Al6  1  0.071503  0.754366  0.337988  1
  Al  Al7  1  0.337988  0.836144  0.071503  1
  Al  Al8  1  0.495351  0.178614  0.413955  1
  Al  Al9  1  0.413955  0.912079  0.495351  1
  Al  Al10  1  0.178614  0.495351  0.912079  1
  Al  Al11  1  0.912079  0.413955  0.178614  1
  Cu  Cu12  1  0.625032  0.124991  0.624946  1
  Cu  Cu13  1  0.624946  0.625031  0.625032  1
  Cu  Cu14  1  0.124991  0.625032  0.625031  1
  Cu  Cu15  1  0.625031  0.624946  0.124991  1
  Cu  Cu16  1  0.491168  0.434969  0.183403  1
  Cu  Cu17  1  0.183403  0.890460  0.491168  1
  Cu  Cu18  1  0.434969  0.491168  0.890460  1
  Cu  Cu19  1  0.890460  0.183403  0.434969  1
  Cu  Cu20  1  0.758476  0.815187  0.066668  1
  Cu  Cu21  1  0.066668  0.359669  0.758476  1
  Cu  Cu22  1  0.815187  0.758476  0.359669  1
  Cu  Cu23  1  0.359669  0.066668  0.815187  1
