# generated using pymatgen
data_Hf2PdBr12
_symmetry_space_group_name_H-M   'P 1'
_cell_length_a   9.45666521
_cell_length_b   9.45666715
_cell_length_c   7.10412804
_cell_angle_alpha   72.50672377
_cell_angle_beta   72.50671876
_cell_angle_gamma   81.70699379
_symmetry_Int_Tables_number   1
_chemical_formula_structural   Hf2PdBr12
_chemical_formula_sum   'Hf2 Pd1 Br12'
_cell_volume   576.89247213
_cell_formula_units_Z   1
loop_
 _symmetry_equiv_pos_site_id
 _symmetry_equiv_pos_as_xyz
  1  'x, y, z'
loop_
 _atom_site_type_symbol
 _atom_site_label
 _atom_site_symmetry_multiplicity
 _atom_site_fract_x
 _atom_site_fract_y
 _atom_site_fract_z
 _atom_site_occupancy
  Hf  Hf0  1  0.271018  0.271018  0.735879  1
  Hf  Hf1  1  0.728982  0.728982  0.264121  1
  Pd  Pd2  1  0.000000  0.000000  0.000000  1
  Br  Br3  1  0.972623  0.248536  0.752860  1
  Br  Br4  1  0.248536  0.972623  0.752860  1
  Br  Br5  1  0.027377  0.751464  0.247140  1
  Br  Br6  1  0.751464  0.027377  0.247140  1
  Br  Br7  1  0.207321  0.519932  0.797793  1
  Br  Br8  1  0.519932  0.207321  0.797793  1
  Br  Br9  1  0.792679  0.480068  0.202207  1
  Br  Br10  1  0.480068  0.792679  0.202207  1
  Br  Br11  1  0.132429  0.132429  0.150267  1
  Br  Br12  1  0.867571  0.867571  0.849733  1
  Br  Br13  1  0.661270  0.661270  0.646787  1
  Br  Br14  1  0.338730  0.338730  0.353213  1
