# generated using pymatgen
data_Ce2HfZr(NiP)4
_symmetry_space_group_name_H-M   'P 1'
_cell_length_a   3.88274300
_cell_length_b   3.88274319
_cell_length_c   14.86646700
_cell_angle_alpha   90.00000000
_cell_angle_beta   90.00000000
_cell_angle_gamma   120.00000694
_symmetry_Int_Tables_number   1
_chemical_formula_structural   Ce2HfZr(NiP)4
_chemical_formula_sum   'Ce2 Hf1 Zr1 Ni4 P4'
_cell_volume   194.09559718
_cell_formula_units_Z   1
loop_
 _symmetry_equiv_pos_site_id
 _symmetry_equiv_pos_as_xyz
  1  'x, y, z'
loop_
 _atom_site_type_symbol
 _atom_site_label
 _atom_site_symmetry_multiplicity
 _atom_site_fract_x
 _atom_site_fract_y
 _atom_site_fract_z
 _atom_site_occupancy
  Ce  Ce0  1  0.000000  0.000000  0.499704  1
  Ce  Ce1  1  0.000000  0.000000  0.000296  1
  Hf  Hf2  1  0.000000  0.000000  0.250000  1
  Zr  Zr3  1  0.000000  0.000000  0.750000  1
  Ni  Ni4  1  0.333333  0.666667  0.344000  1
  Ni  Ni5  1  0.666667  0.333333  0.653654  1
  Ni  Ni6  1  0.666667  0.333333  0.846346  1
  Ni  Ni7  1  0.333333  0.666667  0.156000  1
  P  P8  1  0.333333  0.666667  0.874218  1
  P  P9  1  0.666667  0.333333  0.126246  1
  P  P10  1  0.666667  0.333333  0.373754  1
  P  P11  1  0.333333  0.666667  0.625782  1
