# generated using pymatgen
data_Lu19Sc(NiPd3)2
_symmetry_space_group_name_H-M   'P 1'
_cell_length_a   9.16307400
_cell_length_b   9.16307499
_cell_length_c   9.21549800
_cell_angle_alpha   90.00000000
_cell_angle_beta   90.00000000
_cell_angle_gamma   119.99999644
_symmetry_Int_Tables_number   1
_chemical_formula_structural   Lu19Sc(NiPd3)2
_chemical_formula_sum   'Lu19 Sc1 Ni2 Pd6'
_cell_volume   670.08807779
_cell_formula_units_Z   1
loop_
 _symmetry_equiv_pos_site_id
 _symmetry_equiv_pos_as_xyz
  1  'x, y, z'
loop_
 _atom_site_type_symbol
 _atom_site_label
 _atom_site_symmetry_multiplicity
 _atom_site_fract_x
 _atom_site_fract_y
 _atom_site_fract_z
 _atom_site_occupancy
  Lu  Lu0  1  0.000000  0.000000  0.000000  1
  Lu  Lu1  1  0.542726  0.457274  0.250418  1
  Lu  Lu2  1  0.542726  0.085452  0.250418  1
  Lu  Lu3  1  0.914548  0.457274  0.250418  1
  Lu  Lu4  1  0.457274  0.542726  0.749582  1
  Lu  Lu5  1  0.457274  0.914548  0.749582  1
  Lu  Lu6  1  0.085452  0.542726  0.749582  1
  Lu  Lu7  1  0.205514  0.794486  0.441195  1
  Lu  Lu8  1  0.205514  0.411029  0.441195  1
  Lu  Lu9  1  0.588971  0.794486  0.441195  1
  Lu  Lu10  1  0.794486  0.205514  0.558805  1
  Lu  Lu11  1  0.794486  0.588971  0.558805  1
  Lu  Lu12  1  0.411029  0.205514  0.558805  1
  Lu  Lu13  1  0.792787  0.207213  0.940902  1
  Lu  Lu14  1  0.792787  0.585572  0.940902  1
  Lu  Lu15  1  0.414428  0.207213  0.940902  1
  Lu  Lu16  1  0.207213  0.792787  0.059098  1
  Lu  Lu17  1  0.207213  0.414428  0.059098  1
  Lu  Lu18  1  0.585572  0.792787  0.059098  1
  Sc  Sc19  1  0.000000  0.000000  0.500000  1
  Ni  Ni20  1  0.333333  0.666667  0.250000  1
  Ni  Ni21  1  0.666667  0.333333  0.750000  1
  Pd  Pd22  1  0.882396  0.117604  0.253755  1
  Pd  Pd23  1  0.882396  0.764792  0.253755  1
  Pd  Pd24  1  0.235208  0.117604  0.253755  1
  Pd  Pd25  1  0.117604  0.882396  0.746245  1
  Pd  Pd26  1  0.117604  0.235208  0.746245  1
  Pd  Pd27  1  0.764792  0.882396  0.746245  1
