# generated using pymatgen
data_Zr2Cu2Rh3Au
_symmetry_space_group_name_H-M   'P 1'
_cell_length_a   3.99392400
_cell_length_b   4.21909100
_cell_length_c   7.49779600
_cell_angle_alpha   90.00000000
_cell_angle_beta   90.00000000
_cell_angle_gamma   90.00000000
_symmetry_Int_Tables_number   1
_chemical_formula_structural   Zr2Cu2Rh3Au
_chemical_formula_sum   'Zr2 Cu2 Rh3 Au1'
_cell_volume   126.34332702
_cell_formula_units_Z   1
loop_
 _symmetry_equiv_pos_site_id
 _symmetry_equiv_pos_as_xyz
  1  'x, y, z'
loop_
 _atom_site_type_symbol
 _atom_site_label
 _atom_site_symmetry_multiplicity
 _atom_site_fract_x
 _atom_site_fract_y
 _atom_site_fract_z
 _atom_site_occupancy
  Zr  Zr0  1  0.000000  0.000000  0.237773  1
  Zr  Zr1  1  0.000000  0.000000  0.762227  1
  Cu  Cu2  1  0.500000  0.500000  0.244632  1
  Cu  Cu3  1  0.500000  0.500000  0.755368  1
  Rh  Rh4  1  0.000000  0.500000  0.000000  1
  Rh  Rh5  1  0.500000  0.000000  0.500000  1
  Rh  Rh6  1  0.500000  0.000000  0.000000  1
  Au  Au7  1  0.000000  0.500000  0.500000  1
