# generated using pymatgen
data_YTh3(Zn2Cd)4
_symmetry_space_group_name_H-M   'P 1'
_cell_length_a   4.44668300
_cell_length_b   7.35708486
_cell_length_c   10.41790600
_cell_angle_alpha   90.23112806
_cell_angle_beta   90.00000000
_cell_angle_gamma   90.00000000
_symmetry_Int_Tables_number   1
_chemical_formula_structural   YTh3(Zn2Cd)4
_chemical_formula_sum   'Y1 Th3 Zn8 Cd4'
_cell_volume   340.81510647
_cell_formula_units_Z   1
loop_
 _symmetry_equiv_pos_site_id
 _symmetry_equiv_pos_as_xyz
  1  'x, y, z'
loop_
 _atom_site_type_symbol
 _atom_site_label
 _atom_site_symmetry_multiplicity
 _atom_site_fract_x
 _atom_site_fract_y
 _atom_site_fract_z
 _atom_site_occupancy
  Y  Y0  1  0.250000  0.305092  0.673582  1
  Th  Th1  1  0.250000  0.806795  0.825098  1
  Th  Th2  1  0.750000  0.696934  0.327715  1
  Th  Th3  1  0.750000  0.195083  0.172989  1
  Zn  Zn4  1  0.250000  0.908164  0.145879  1
  Zn  Zn5  1  0.250000  0.408785  0.353775  1
  Zn  Zn6  1  0.750000  0.095268  0.853137  1
  Zn  Zn7  1  0.750000  0.586603  0.646921  1
  Zn  Zn8  1  0.250000  0.192776  0.959938  1
  Zn  Zn9  1  0.250000  0.676951  0.536920  1
  Zn  Zn10  1  0.750000  0.813321  0.035985  1
  Zn  Zn11  1  0.750000  0.313555  0.465566  1
  Cd  Cd12  1  0.250000  0.529711  0.096016  1
  Cd  Cd13  1  0.250000  0.030893  0.406714  1
  Cd  Cd14  1  0.750000  0.469216  0.901139  1
  Cd  Cd15  1  0.750000  0.970853  0.598626  1
