# generated using pymatgen
data_Sc3Nb(VP)4
_symmetry_space_group_name_H-M   'P 1'
_cell_length_a   3.45887200
_cell_length_b   6.58608212
_cell_length_c   7.82661282
_cell_angle_alpha   89.50263274
_cell_angle_beta   90.00000000
_cell_angle_gamma   90.00000000
_symmetry_Int_Tables_number   1
_chemical_formula_structural   Sc3Nb(VP)4
_chemical_formula_sum   'Sc3 Nb1 V4 P4'
_cell_volume   178.28677075
_cell_formula_units_Z   1
loop_
 _symmetry_equiv_pos_site_id
 _symmetry_equiv_pos_as_xyz
  1  'x, y, z'
loop_
 _atom_site_type_symbol
 _atom_site_label
 _atom_site_symmetry_multiplicity
 _atom_site_fract_x
 _atom_site_fract_y
 _atom_site_fract_z
 _atom_site_occupancy
  Sc  Sc0  1  0.250000  0.541492  0.168933  1
  Sc  Sc1  1  0.750000  0.459105  0.833995  1
  Sc  Sc2  1  0.750000  0.960881  0.663034  1
  Nb  Nb3  1  0.250000  0.039616  0.331982  1
  V  V4  1  0.250000  0.629825  0.554778  1
  V  V5  1  0.750000  0.366997  0.441106  1
  V  V6  1  0.750000  0.874265  0.059247  1
  V  V7  1  0.250000  0.124363  0.947323  1
  P  P8  1  0.250000  0.761817  0.861028  1
  P  P9  1  0.750000  0.238324  0.140133  1
  P  P10  1  0.750000  0.741683  0.361019  1
  P  P11  1  0.250000  0.261630  0.637424  1
