# generated using pymatgen
data_PrNd3(GaCu)4
_symmetry_space_group_name_H-M   'P 1'
_cell_length_a   4.53791200
_cell_length_b   7.39049779
_cell_length_c   7.34180309
_cell_angle_alpha   89.99132912
_cell_angle_beta   90.00000000
_cell_angle_gamma   90.00000000
_symmetry_Int_Tables_number   1
_chemical_formula_structural   PrNd3(GaCu)4
_chemical_formula_sum   'Pr1 Nd3 Ga4 Cu4'
_cell_volume   246.22519434
_cell_formula_units_Z   1
loop_
 _symmetry_equiv_pos_site_id
 _symmetry_equiv_pos_as_xyz
  1  'x, y, z'
loop_
 _atom_site_type_symbol
 _atom_site_label
 _atom_site_symmetry_multiplicity
 _atom_site_fract_x
 _atom_site_fract_y
 _atom_site_fract_z
 _atom_site_occupancy
  Pr  Pr0  1  0.750000  0.485935  0.297933  1
  Nd  Nd1  1  0.250000  0.014440  0.796119  1
  Nd  Nd2  1  0.250000  0.514504  0.704437  1
  Nd  Nd3  1  0.750000  0.985690  0.203351  1
  Ga  Ga4  1  0.250000  0.188320  0.410538  1
  Ga  Ga5  1  0.250000  0.690651  0.088904  1
  Ga  Ga6  1  0.750000  0.811399  0.590089  1
  Ga  Ga7  1  0.750000  0.310306  0.909497  1
  Cu  Cu8  1  0.250000  0.814635  0.417610  1
  Cu  Cu9  1  0.250000  0.313360  0.081422  1
  Cu  Cu10  1  0.750000  0.184554  0.583113  1
  Cu  Cu11  1  0.750000  0.686205  0.916988  1
