# generated using pymatgen
data_Dy16MgCd3(NiRu)2
_symmetry_space_group_name_H-M   'P 1'
_cell_length_a   9.61554661
_cell_length_b   9.61554732
_cell_length_c   9.65223139
_cell_angle_alpha   59.47538854
_cell_angle_beta   59.47538738
_cell_angle_gamma   59.32456125
_symmetry_Int_Tables_number   1
_chemical_formula_structural   Dy16MgCd3(NiRu)2
_chemical_formula_sum   'Dy16 Mg1 Cd3 Ni2 Ru2'
_cell_volume   622.78829666
_cell_formula_units_Z   1
loop_
 _symmetry_equiv_pos_site_id
 _symmetry_equiv_pos_as_xyz
  1  'x, y, z'
loop_
 _atom_site_type_symbol
 _atom_site_label
 _atom_site_symmetry_multiplicity
 _atom_site_fract_x
 _atom_site_fract_y
 _atom_site_fract_z
 _atom_site_occupancy
  Dy  Dy0  1  0.598941  0.598941  0.595041  1
  Dy  Dy1  1  0.599527  0.599527  0.208869  1
  Dy  Dy2  1  0.600767  0.207875  0.595611  1
  Dy  Dy3  1  0.207875  0.600767  0.595611  1
  Dy  Dy4  1  0.060425  0.437719  0.439550  1
  Dy  Dy5  1  0.435352  0.062451  0.062662  1
  Dy  Dy6  1  0.437719  0.060425  0.439550  1
  Dy  Dy7  1  0.062451  0.435352  0.062662  1
  Dy  Dy8  1  0.438143  0.438143  0.060845  1
  Dy  Dy9  1  0.061439  0.061439  0.438758  1
  Dy  Dy10  1  0.188519  0.810075  0.817463  1
  Dy  Dy11  1  0.808662  0.187944  0.187575  1
  Dy  Dy12  1  0.810075  0.188519  0.817463  1
  Dy  Dy13  1  0.187944  0.808662  0.187575  1
  Dy  Dy14  1  0.816308  0.816308  0.187149  1
  Dy  Dy15  1  0.189748  0.189748  0.811172  1
  Mg  Mg16  1  0.824564  0.824564  0.827061  1
  Cd  Cd17  1  0.829696  0.829696  0.506916  1
  Cd  Cd18  1  0.830381  0.505550  0.830823  1
  Cd  Cd19  1  0.505550  0.830381  0.830823  1
  Ni  Ni20  1  0.392531  0.825700  0.392005  1
  Ni  Ni21  1  0.825700  0.392531  0.392005  1
  Ru  Ru22  1  0.393407  0.393407  0.388738  1
  Ru  Ru23  1  0.394275  0.394275  0.824070  1
