# generated using pymatgen
data_Dy3CdIr8
_symmetry_space_group_name_H-M   'P 1'
_cell_length_a   5.34217700
_cell_length_b   5.34217676
_cell_length_c   8.68364300
_cell_angle_alpha   90.00000000
_cell_angle_beta   90.00000000
_cell_angle_gamma   119.99999532
_symmetry_Int_Tables_number   1
_chemical_formula_structural   Dy3CdIr8
_chemical_formula_sum   'Dy3 Cd1 Ir8'
_cell_volume   214.61948048
_cell_formula_units_Z   1
loop_
 _symmetry_equiv_pos_site_id
 _symmetry_equiv_pos_as_xyz
  1  'x, y, z'
loop_
 _atom_site_type_symbol
 _atom_site_label
 _atom_site_symmetry_multiplicity
 _atom_site_fract_x
 _atom_site_fract_y
 _atom_site_fract_z
 _atom_site_occupancy
  Dy  Dy0  1  0.333333  0.666667  0.081504  1
  Dy  Dy1  1  0.666667  0.333333  0.557249  1
  Dy  Dy2  1  0.666667  0.333333  0.929549  1
  Cd  Cd3  1  0.333333  0.666667  0.442526  1
  Ir  Ir4  1  0.000000  0.000000  0.996504  1
  Ir  Ir5  1  0.000000  0.000000  0.497324  1
  Ir  Ir6  1  0.830561  0.661123  0.248743  1
  Ir  Ir7  1  0.170468  0.829532  0.749705  1
  Ir  Ir8  1  0.659064  0.829532  0.749705  1
  Ir  Ir9  1  0.338877  0.169439  0.248743  1
  Ir  Ir10  1  0.830561  0.169439  0.248743  1
  Ir  Ir11  1  0.170468  0.340936  0.749705  1
