# generated using pymatgen
data_Sm7Lu(SiI6)2
_symmetry_space_group_name_H-M   'P 1'
_cell_length_a   4.26927100
_cell_length_b   14.21721617
_cell_length_c   15.02061972
_cell_angle_alpha   89.68963403
_cell_angle_beta   90.00000000
_cell_angle_gamma   90.00000000
_symmetry_Int_Tables_number   1
_chemical_formula_structural   Sm7Lu(SiI6)2
_chemical_formula_sum   'Sm7 Lu1 Si2 I12'
_cell_volume   911.69541277
_cell_formula_units_Z   1
loop_
 _symmetry_equiv_pos_site_id
 _symmetry_equiv_pos_as_xyz
  1  'x, y, z'
loop_
 _atom_site_type_symbol
 _atom_site_label
 _atom_site_symmetry_multiplicity
 _atom_site_fract_x
 _atom_site_fract_y
 _atom_site_fract_z
 _atom_site_occupancy
  Sm  Sm0  1  0.500000  0.115794  0.345760  1
  Sm  Sm1  1  0.500000  0.884897  0.653563  1
  Sm  Sm2  1  0.500000  0.613476  0.153091  1
  Sm  Sm3  1  0.500000  0.384686  0.847992  1
  Sm  Sm4  1  0.000000  0.112893  0.575307  1
  Sm  Sm5  1  0.000000  0.887246  0.424142  1
  Sm  Sm6  1  0.000000  0.610295  0.925997  1
  Lu  Lu7  1  0.000000  0.390797  0.072954  1
  Si  Si8  1  0.500000  0.000284  0.499464  1
  Si  Si9  1  0.500000  0.496322  0.002383  1
  I  I10  1  0.500000  0.254239  0.158221  1
  I  I11  1  0.500000  0.754129  0.838651  1
  I  I12  1  0.500000  0.743437  0.337764  1
  I  I13  1  0.500000  0.255423  0.663055  1
  I  I14  1  0.000000  0.260476  0.413888  1
  I  I15  1  0.000000  0.739882  0.585744  1
  I  I16  1  0.000000  0.758969  0.085179  1
  I  I17  1  0.000000  0.242050  0.921466  1
  I  I18  1  0.000000  0.999816  0.238557  1
  I  I19  1  0.000000  0.001354  0.760718  1
  I  I20  1  0.000000  0.492089  0.255557  1
  I  I21  1  0.000000  0.501444  0.740545  1
