# generated using pymatgen
data_Ho12In2Fe2Os
_symmetry_space_group_name_H-M   'P 1'
_cell_length_a   8.34259751
_cell_length_b   8.34288133
_cell_length_c   8.34259653
_cell_angle_alpha   108.61217891
_cell_angle_beta   108.60878974
_cell_angle_gamma   111.20533772
_symmetry_Int_Tables_number   1
_chemical_formula_structural   Ho12In2Fe2Os
_chemical_formula_sum   'Ho12 In2 Fe2 Os1'
_cell_volume   446.68831010
_cell_formula_units_Z   1
loop_
 _symmetry_equiv_pos_site_id
 _symmetry_equiv_pos_as_xyz
  1  'x, y, z'
loop_
 _atom_site_type_symbol
 _atom_site_label
 _atom_site_symmetry_multiplicity
 _atom_site_fract_x
 _atom_site_fract_y
 _atom_site_fract_z
 _atom_site_occupancy
  Ho  Ho0  1  0.307889  0.307885  0.615770  1
  Ho  Ho1  1  0.692111  0.692115  0.384230  1
  Ho  Ho2  1  0.307885  0.692115  0.000004  1
  Ho  Ho3  1  0.692115  0.307885  0.999996  1
  Ho  Ho4  1  0.429905  0.191956  0.237947  1
  Ho  Ho5  1  0.570095  0.808044  0.762053  1
  Ho  Ho6  1  0.954008  0.191956  0.762052  1
  Ho  Ho7  1  0.191957  0.954008  0.762051  1
  Ho  Ho8  1  0.045992  0.808044  0.237948  1
  Ho  Ho9  1  0.808043  0.045992  0.237949  1
  Ho  Ho10  1  0.191957  0.429907  0.237951  1
  Ho  Ho11  1  0.808043  0.570093  0.762049  1
  In  In12  1  0.500000  0.000000  0.500000  1
  In  In13  1  0.000000  0.500000  0.500000  1
  Fe  Fe14  1  0.386810  0.386796  0.999986  1
  Fe  Fe15  1  0.613190  0.613204  0.000014  1
  Os  Os16  1  0.000000  0.000000  0.000000  1
