# generated using pymatgen
data_TmLuCo2Sn
_symmetry_space_group_name_H-M   'P 1'
_cell_length_a   7.04814546
_cell_length_b   7.04814543
_cell_length_c   3.82387100
_cell_angle_alpha   90.00000000
_cell_angle_beta   90.00000000
_cell_angle_gamma   148.89927832
_symmetry_Int_Tables_number   1
_chemical_formula_structural   TmLuCo2Sn
_chemical_formula_sum   'Tm1 Lu1 Co2 Sn1'
_cell_volume   98.12063840
_cell_formula_units_Z   1
loop_
 _symmetry_equiv_pos_site_id
 _symmetry_equiv_pos_as_xyz
  1  'x, y, z'
loop_
 _atom_site_type_symbol
 _atom_site_label
 _atom_site_symmetry_multiplicity
 _atom_site_fract_x
 _atom_site_fract_y
 _atom_site_fract_z
 _atom_site_occupancy
  Tm  Tm0  1  0.361732  0.638268  0.500000  1
  Lu  Lu1  1  0.638867  0.361133  0.500000  1
  Co  Co2  1  0.795696  0.204304  0.000000  1
  Co  Co3  1  0.203290  0.796710  0.000000  1
  Sn  Sn4  1  0.000413  0.999587  0.000000  1
