# generated using pymatgen
data_CsSrCrH9
_symmetry_space_group_name_H-M   'P 1'
_cell_length_a   8.75907900
_cell_length_b   8.75907931
_cell_length_c   5.39446800
_cell_angle_alpha   90.00000000
_cell_angle_beta   90.00000000
_cell_angle_gamma   120.00000260
_symmetry_Int_Tables_number   1
_chemical_formula_structural   CsSrCrH9
_chemical_formula_sum   'Cs3 Sr3 Cr3 H27'
_cell_volume   358.42322546
_cell_formula_units_Z   3
loop_
 _symmetry_equiv_pos_site_id
 _symmetry_equiv_pos_as_xyz
  1  'x, y, z'
loop_
 _atom_site_type_symbol
 _atom_site_label
 _atom_site_symmetry_multiplicity
 _atom_site_fract_x
 _atom_site_fract_y
 _atom_site_fract_z
 _atom_site_occupancy
  Cs  Cs0  1  0.000000  0.583838  0.000000  1
  Cs  Cs1  1  0.416162  0.416162  0.000000  1
  Cs  Cs2  1  0.583838  0.000000  0.000000  1
  Sr  Sr3  1  0.000000  0.271512  0.500000  1
  Sr  Sr4  1  0.728488  0.728488  0.500000  1
  Sr  Sr5  1  0.271512  0.000000  0.500000  1
  Cr  Cr6  1  0.666667  0.333333  0.500000  1
  Cr  Cr7  1  0.333333  0.666667  0.500000  1
  Cr  Cr8  1  0.000000  0.000000  0.000000  1
  H  H9  1  0.777875  0.304792  0.714703  1
  H  H10  1  0.695208  0.473083  0.714703  1
  H  H11  1  0.526917  0.222125  0.714703  1
  H  H12  1  0.222125  0.526917  0.285297  1
  H  H13  1  0.526917  0.222125  0.285297  1
  H  H14  1  0.777875  0.304792  0.285297  1
  H  H15  1  0.695208  0.473083  0.285297  1
  H  H16  1  0.304792  0.777875  0.714703  1
  H  H17  1  0.473083  0.695208  0.714703  1
  H  H18  1  0.183875  0.000000  0.000000  1
  H  H19  1  0.816125  0.816125  0.000000  1
  H  H20  1  0.000000  0.183875  0.000000  1
  H  H21  1  0.870645  0.000000  0.216314  1
  H  H22  1  0.129355  0.129355  0.783686  1
  H  H23  1  0.000000  0.870645  0.783686  1
  H  H24  1  0.000000  0.870645  0.216314  1
  H  H25  1  0.129355  0.129355  0.216314  1
  H  H26  1  0.870645  0.000000  0.783686  1
  H  H27  1  0.135411  0.630491  0.500000  1
  H  H28  1  0.495081  0.864589  0.500000  1
  H  H29  1  0.369509  0.504919  0.500000  1
  H  H30  1  0.504919  0.369509  0.500000  1
  H  H31  1  0.864589  0.495081  0.500000  1
  H  H32  1  0.630491  0.135411  0.500000  1
  H  H33  1  0.222125  0.526917  0.714703  1
  H  H34  1  0.304792  0.777875  0.285297  1
  H  H35  1  0.473083  0.695208  0.285297  1
