# generated using pymatgen
data_Sr2Si2Tc2C
_symmetry_space_group_name_H-M   'P 1'
_cell_length_a   6.09365181
_cell_length_b   6.09365122
_cell_length_c   7.54469020
_cell_angle_alpha   53.81198804
_cell_angle_beta   53.81198881
_cell_angle_gamma   40.33012797
_symmetry_Int_Tables_number   1
_chemical_formula_structural   Sr2Si2Tc2C
_chemical_formula_sum   'Sr2 Si2 Tc2 C1'
_cell_volume   140.95487268
_cell_formula_units_Z   1
loop_
 _symmetry_equiv_pos_site_id
 _symmetry_equiv_pos_as_xyz
  1  'x, y, z'
loop_
 _atom_site_type_symbol
 _atom_site_label
 _atom_site_symmetry_multiplicity
 _atom_site_fract_x
 _atom_site_fract_y
 _atom_site_fract_z
 _atom_site_occupancy
  Sr  Sr0  1  0.430676  0.430676  0.310984  1
  Sr  Sr1  1  0.569324  0.569324  0.689016  1
  Si  Si2  1  0.828631  0.828631  0.737809  1
  Si  Si3  1  0.171369  0.171369  0.262191  1
  Tc  Tc4  1  0.802619  0.802619  0.083564  1
  Tc  Tc5  1  0.197381  0.197381  0.916436  1
  C  C6  1  0.000000  0.000000  0.000000  1
