# generated using pymatgen
data_BaAlGeAu5
_symmetry_space_group_name_H-M   'P 1'
_cell_length_a   7.24532000
_cell_length_b   9.22497700
_cell_length_c   10.42379600
_cell_angle_alpha   90.00000000
_cell_angle_beta   90.00000000
_cell_angle_gamma   90.00000000
_symmetry_Int_Tables_number   1
_chemical_formula_structural   BaAlGeAu5
_chemical_formula_sum   'Ba4 Al4 Ge4 Au20'
_cell_volume   696.70474263
_cell_formula_units_Z   4
loop_
 _symmetry_equiv_pos_site_id
 _symmetry_equiv_pos_as_xyz
  1  'x, y, z'
loop_
 _atom_site_type_symbol
 _atom_site_label
 _atom_site_symmetry_multiplicity
 _atom_site_fract_x
 _atom_site_fract_y
 _atom_site_fract_z
 _atom_site_occupancy
  Ba  Ba0  1  0.250000  0.229045  0.110705  1
  Ba  Ba1  1  0.250000  0.729045  0.389295  1
  Ba  Ba2  1  0.750000  0.770955  0.889295  1
  Ba  Ba3  1  0.750000  0.270955  0.610705  1
  Al  Al4  1  0.250000  0.066309  0.615687  1
  Al  Al5  1  0.250000  0.566309  0.884313  1
  Al  Al6  1  0.750000  0.933691  0.384313  1
  Al  Al7  1  0.750000  0.433691  0.115687  1
  Ge  Ge8  1  0.250000  0.335344  0.462190  1
  Ge  Ge9  1  0.250000  0.835344  0.037810  1
  Ge  Ge10  1  0.750000  0.664656  0.537810  1
  Ge  Ge11  1  0.750000  0.164656  0.962190  1
  Au  Au12  1  0.047265  0.094283  0.396805  1
  Au  Au13  1  0.452735  0.594283  0.103195  1
  Au  Au14  1  0.547265  0.905717  0.603195  1
  Au  Au15  1  0.952735  0.405717  0.896805  1
  Au  Au16  1  0.952735  0.905717  0.603195  1
  Au  Au17  1  0.547265  0.405717  0.896805  1
  Au  Au18  1  0.452735  0.094283  0.396805  1
  Au  Au19  1  0.047265  0.594283  0.103195  1
  Au  Au20  1  0.033871  0.089043  0.832410  1
  Au  Au21  1  0.466129  0.589043  0.667590  1
  Au  Au22  1  0.533871  0.910957  0.167590  1
  Au  Au23  1  0.966129  0.410957  0.332410  1
  Au  Au24  1  0.966129  0.910957  0.167590  1
  Au  Au25  1  0.533871  0.410957  0.332410  1
  Au  Au26  1  0.466129  0.089043  0.832410  1
  Au  Au27  1  0.033871  0.589043  0.667590  1
  Au  Au28  1  0.250000  0.328501  0.710822  1
  Au  Au29  1  0.250000  0.828501  0.789178  1
  Au  Au30  1  0.750000  0.671499  0.289178  1
  Au  Au31  1  0.750000  0.171499  0.210822  1
