# generated using pymatgen
data_Tm8In3Au
_symmetry_space_group_name_H-M   'P 1'
_cell_length_a   10.48462900
_cell_length_b   10.48462870
_cell_length_c   6.80716700
_cell_angle_alpha   90.00000000
_cell_angle_beta   90.00000000
_cell_angle_gamma   119.99999781
_symmetry_Int_Tables_number   1
_chemical_formula_structural   Tm8In3Au
_chemical_formula_sum   'Tm16 In6 Au2'
_cell_volume   648.04202279
_cell_formula_units_Z   2
loop_
 _symmetry_equiv_pos_site_id
 _symmetry_equiv_pos_as_xyz
  1  'x, y, z'
loop_
 _atom_site_type_symbol
 _atom_site_label
 _atom_site_symmetry_multiplicity
 _atom_site_fract_x
 _atom_site_fract_y
 _atom_site_fract_z
 _atom_site_occupancy
  Tm  Tm0  1  0.523090  0.046181  0.519332  1
  Tm  Tm1  1  0.953819  0.476910  0.519332  1
  Tm  Tm2  1  0.523090  0.476910  0.519332  1
  Tm  Tm3  1  0.476910  0.953819  0.019332  1
  Tm  Tm4  1  0.046181  0.523090  0.019332  1
  Tm  Tm5  1  0.476910  0.523090  0.019332  1
  Tm  Tm6  1  0.172833  0.345666  0.734223  1
  Tm  Tm7  1  0.654334  0.827167  0.734223  1
  Tm  Tm8  1  0.172833  0.827167  0.734223  1
  Tm  Tm9  1  0.827167  0.654334  0.234223  1
  Tm  Tm10  1  0.345666  0.172833  0.234223  1
  Tm  Tm11  1  0.827167  0.172833  0.234223  1
  Tm  Tm12  1  0.666667  0.333333  0.874584  1
  Tm  Tm13  1  0.333333  0.666667  0.374584  1
  Tm  Tm14  1  0.000000  0.000000  0.494507  1
  Tm  Tm15  1  0.000000  0.000000  0.994507  1
  In  In16  1  0.835757  0.671514  0.753827  1
  In  In17  1  0.328486  0.164243  0.753827  1
  In  In18  1  0.835757  0.164243  0.753827  1
  In  In19  1  0.164243  0.328486  0.253827  1
  In  In20  1  0.671514  0.835757  0.253827  1
  In  In21  1  0.164243  0.835757  0.253827  1
  Au  Au22  1  0.666667  0.333333  0.287766  1
  Au  Au23  1  0.333333  0.666667  0.787766  1
