# generated using pymatgen
data_Sc3Ni2Ag
_symmetry_space_group_name_H-M   'P 1'
_cell_length_a   3.25774000
_cell_length_b   3.25774000
_cell_length_c   9.92716700
_cell_angle_alpha   90.00000000
_cell_angle_beta   90.00000000
_cell_angle_gamma   90.00000000
_symmetry_Int_Tables_number   1
_chemical_formula_structural   Sc3Ni2Ag
_chemical_formula_sum   'Sc3 Ni2 Ag1'
_cell_volume   105.35573192
_cell_formula_units_Z   1
loop_
 _symmetry_equiv_pos_site_id
 _symmetry_equiv_pos_as_xyz
  1  'x, y, z'
loop_
 _atom_site_type_symbol
 _atom_site_label
 _atom_site_symmetry_multiplicity
 _atom_site_fract_x
 _atom_site_fract_y
 _atom_site_fract_z
 _atom_site_occupancy
  Sc  Sc0  1  0.000000  0.000000  0.000000  1
  Sc  Sc1  1  0.000000  0.000000  0.692143  1
  Sc  Sc2  1  0.000000  0.000000  0.307857  1
  Ni  Ni3  1  0.500000  0.500000  0.843607  1
  Ni  Ni4  1  0.500000  0.500000  0.156393  1
  Ag  Ag5  1  0.500000  0.500000  0.500000  1
