# generated using pymatgen
data_Zr10GaCuSnBi5
_symmetry_space_group_name_H-M   'P 1'
_cell_length_a   8.79930597
_cell_length_b   8.82217043
_cell_length_c   5.96271963
_cell_angle_alpha   90.02647879
_cell_angle_beta   89.94691132
_cell_angle_gamma   119.91430032
_symmetry_Int_Tables_number   1
_chemical_formula_structural   Zr10GaCuSnBi5
_chemical_formula_sum   'Zr10 Ga1 Cu1 Sn1 Bi5'
_cell_volume   401.21123987
_cell_formula_units_Z   1
loop_
 _symmetry_equiv_pos_site_id
 _symmetry_equiv_pos_as_xyz
  1  'x, y, z'
loop_
 _atom_site_type_symbol
 _atom_site_label
 _atom_site_symmetry_multiplicity
 _atom_site_fract_x
 _atom_site_fract_y
 _atom_site_fract_z
 _atom_site_occupancy
  Zr  Zr0  1  0.734062  0.000000  0.247251  1
  Zr  Zr1  1  0.005241  0.740637  0.246958  1
  Zr  Zr2  1  0.264604  0.259363  0.246958  1
  Zr  Zr3  1  0.262868  0.000000  0.753849  1
  Zr  Zr4  1  0.999595  0.261786  0.752741  1
  Zr  Zr5  1  0.737808  0.738214  0.752741  1
  Zr  Zr6  1  0.334228  0.670305  0.498393  1
  Zr  Zr7  1  0.663925  0.329695  0.498393  1
  Zr  Zr8  1  0.663993  0.329958  0.001561  1
  Zr  Zr9  1  0.334034  0.670042  0.001561  1
  Ga  Ga10  1  0.999895  0.000000  0.498768  1
  Cu  Cu11  1  0.000088  0.000000  0.000958  1
  Sn  Sn12  1  0.386711  0.000000  0.249785  1
  Bi  Bi13  1  0.000657  0.386219  0.250128  1
  Bi  Bi14  1  0.614438  0.613781  0.250128  1
  Bi  Bi15  1  0.611734  0.000000  0.750332  1
  Bi  Bi16  1  0.999377  0.612635  0.749746  1
  Bi  Bi17  1  0.386742  0.387365  0.749746  1
