# generated using pymatgen
data_TbLu2(P2Rh3)3
_symmetry_space_group_name_H-M   'P 1'
_cell_length_a   3.90632100
_cell_length_b   11.18350900
_cell_length_c   12.73878500
_cell_angle_alpha   90.00000000
_cell_angle_beta   90.00000000
_cell_angle_gamma   90.00000000
_symmetry_Int_Tables_number   1
_chemical_formula_structural   TbLu2(P2Rh3)3
_chemical_formula_sum   'Tb2 Lu4 P12 Rh18'
_cell_volume   556.51135206
_cell_formula_units_Z   2
loop_
 _symmetry_equiv_pos_site_id
 _symmetry_equiv_pos_as_xyz
  1  'x, y, z'
loop_
 _atom_site_type_symbol
 _atom_site_label
 _atom_site_symmetry_multiplicity
 _atom_site_fract_x
 _atom_site_fract_y
 _atom_site_fract_z
 _atom_site_occupancy
  Tb  Tb0  1  0.000000  0.500000  0.521139  1
  Tb  Tb1  1  0.500000  0.000000  0.478861  1
  Lu  Lu2  1  0.500000  0.814181  0.204929  1
  Lu  Lu3  1  0.500000  0.185819  0.204929  1
  Lu  Lu4  1  0.000000  0.685819  0.795071  1
  Lu  Lu5  1  0.000000  0.314181  0.795071  1
  P  P6  1  0.500000  0.500000  0.876971  1
  P  P7  1  0.000000  0.000000  0.123029  1
  P  P8  1  0.500000  0.500000  0.351141  1
  P  P9  1  0.000000  0.000000  0.648859  1
  P  P10  1  0.500000  0.315491  0.619724  1
  P  P11  1  0.500000  0.684509  0.619724  1
  P  P12  1  0.000000  0.184509  0.380276  1
  P  P13  1  0.000000  0.815491  0.380276  1
  P  P14  1  0.500000  0.846346  0.892667  1
  P  P15  1  0.500000  0.153654  0.892667  1
  P  P16  1  0.000000  0.653654  0.107333  1
  P  P17  1  0.000000  0.346346  0.107333  1
  Rh  Rh18  1  0.500000  0.500000  0.168797  1
  Rh  Rh19  1  0.000000  0.000000  0.831203  1
  Rh  Rh20  1  0.500000  0.500000  0.701666  1
  Rh  Rh21  1  0.000000  0.000000  0.298334  1
  Rh  Rh22  1  0.000000  0.500000  0.976448  1
  Rh  Rh23  1  0.500000  0.000000  0.023552  1
  Rh  Rh24  1  0.500000  0.333863  0.993109  1
  Rh  Rh25  1  0.500000  0.666137  0.993109  1
  Rh  Rh26  1  0.000000  0.166137  0.006891  1
  Rh  Rh27  1  0.000000  0.833863  0.006891  1
  Rh  Rh28  1  0.500000  0.293907  0.430311  1
  Rh  Rh29  1  0.500000  0.706093  0.430311  1
  Rh  Rh30  1  0.000000  0.206093  0.569689  1
  Rh  Rh31  1  0.000000  0.793907  0.569689  1
  Rh  Rh32  1  0.500000  0.871308  0.712094  1
  Rh  Rh33  1  0.500000  0.128692  0.712094  1
  Rh  Rh34  1  0.000000  0.628692  0.287906  1
  Rh  Rh35  1  0.000000  0.371308  0.287906  1
