# generated using pymatgen
data_BaLi(InAg2)4
_symmetry_space_group_name_H-M   'P 1'
_cell_length_a   9.58006289
_cell_length_b   9.58006310
_cell_length_c   9.58006300
_cell_angle_alpha   120.93147761
_cell_angle_beta   120.93148534
_cell_angle_gamma   88.39405749
_symmetry_Int_Tables_number   1
_chemical_formula_structural   BaLi(InAg2)4
_chemical_formula_sum   'Ba2 Li2 In8 Ag16'
_cell_volume   612.69871354
_cell_formula_units_Z   2
loop_
 _symmetry_equiv_pos_site_id
 _symmetry_equiv_pos_as_xyz
  1  'x, y, z'
loop_
 _atom_site_type_symbol
 _atom_site_label
 _atom_site_symmetry_multiplicity
 _atom_site_fract_x
 _atom_site_fract_y
 _atom_site_fract_z
 _atom_site_occupancy
  Ba  Ba0  1  0.750000  0.750000  0.000000  1
  Ba  Ba1  1  0.250000  0.250000  0.000000  1
  Li  Li2  1  0.500000  0.000000  0.500000  1
  Li  Li3  1  0.000000  0.500000  0.500000  1
  In  In4  1  0.302486  0.440927  0.500000  1
  In  In5  1  0.802486  0.302486  0.861560  1
  In  In6  1  0.697514  0.559073  0.500000  1
  In  In7  1  0.940927  0.802486  0.500000  1
  In  In8  1  0.059073  0.197514  0.500000  1
  In  In9  1  0.559073  0.059073  0.861560  1
  In  In10  1  0.197514  0.697514  0.138440  1
  In  In11  1  0.440927  0.940927  0.138440  1
  Ag  Ag12  1  0.209129  0.057505  0.266634  1
  Ag  Ag13  1  0.791407  0.062792  0.500000  1
  Ag  Ag14  1  0.708593  0.208593  0.271385  1
  Ag  Ag15  1  0.062792  0.562792  0.271385  1
  Ag  Ag16  1  0.557505  0.709129  0.266634  1
  Ag  Ag17  1  0.709129  0.442495  0.151624  1
  Ag  Ag18  1  0.790871  0.942495  0.733366  1
  Ag  Ag19  1  0.208593  0.937208  0.500000  1
  Ag  Ag20  1  0.057505  0.790871  0.848376  1
  Ag  Ag21  1  0.937208  0.437208  0.728615  1
  Ag  Ag22  1  0.291407  0.791407  0.728615  1
  Ag  Ag23  1  0.942495  0.209129  0.151624  1
  Ag  Ag24  1  0.290871  0.557505  0.848376  1
  Ag  Ag25  1  0.437208  0.708593  0.500000  1
  Ag  Ag26  1  0.442495  0.290871  0.733366  1
  Ag  Ag27  1  0.562792  0.291407  0.500000  1
