# generated using pymatgen
data_Th6TcPd6Ru
_symmetry_space_group_name_H-M   'P 1'
_cell_length_a   8.01656045
_cell_length_b   8.01656026
_cell_length_c   8.01656010
_cell_angle_alpha   113.80896809
_cell_angle_beta   113.80895277
_cell_angle_gamma   113.80896241
_symmetry_Int_Tables_number   1
_chemical_formula_structural   Th6TcPd6Ru
_chemical_formula_sum   'Th6 Tc1 Pd6 Ru1'
_cell_volume   317.38705526
_cell_formula_units_Z   1
loop_
 _symmetry_equiv_pos_site_id
 _symmetry_equiv_pos_as_xyz
  1  'x, y, z'
loop_
 _atom_site_type_symbol
 _atom_site_label
 _atom_site_symmetry_multiplicity
 _atom_site_fract_x
 _atom_site_fract_y
 _atom_site_fract_z
 _atom_site_occupancy
  Th  Th0  1  0.399563  0.042307  0.282296  1
  Th  Th1  1  0.042307  0.282296  0.399563  1
  Th  Th2  1  0.282296  0.399563  0.042307  1
  Th  Th3  1  0.600437  0.957693  0.717704  1
  Th  Th4  1  0.957693  0.717704  0.600437  1
  Th  Th5  1  0.717704  0.600437  0.957693  1
  Tc  Tc6  1  0.500000  0.500000  0.500000  1
  Pd  Pd7  1  0.232064  0.068780  0.570117  1
  Pd  Pd8  1  0.068780  0.570117  0.232064  1
  Pd  Pd9  1  0.570117  0.232064  0.068780  1
  Pd  Pd10  1  0.767936  0.931220  0.429883  1
  Pd  Pd11  1  0.931220  0.429883  0.767936  1
  Pd  Pd12  1  0.429883  0.767936  0.931220  1
  Ru  Ru13  1  0.000000  0.000000  0.000000  1
