# generated using pymatgen
data_Al3Ga(PbI8)2
_symmetry_space_group_name_H-M   'P 1'
_cell_length_a   8.34413603
_cell_length_b   8.57856398
_cell_length_c   15.74836244
_cell_angle_alpha   87.48478198
_cell_angle_beta   90.00356900
_cell_angle_gamma   90.00977687
_symmetry_Int_Tables_number   1
_chemical_formula_structural   Al3Ga(PbI8)2
_chemical_formula_sum   'Al3 Ga1 Pb2 I16'
_cell_volume   1126.19284584
_cell_formula_units_Z   1
loop_
 _symmetry_equiv_pos_site_id
 _symmetry_equiv_pos_as_xyz
  1  'x, y, z'
loop_
 _atom_site_type_symbol
 _atom_site_label
 _atom_site_symmetry_multiplicity
 _atom_site_fract_x
 _atom_site_fract_y
 _atom_site_fract_z
 _atom_site_occupancy
  Al  Al0  1  0.066244  0.221177  0.079571  1
  Al  Al1  1  0.570680  0.641746  0.777693  1
  Al  Al2  1  0.429352  0.641699  0.277684  1
  Ga  Ga3  1  0.933936  0.222115  0.579219  1
  Pb  Pb4  1  0.754210  0.075621  0.811435  1
  Pb  Pb5  1  0.245621  0.075680  0.311617  1
  I  I6  1  0.423974  0.615797  0.640735  1
  I  I7  1  0.575993  0.615795  0.140747  1
  I  I8  1  0.867896  0.728165  0.760170  1
  I  I9  1  0.132035  0.728079  0.260237  1
  I  I10  1  0.938916  0.478433  0.495767  1
  I  I11  1  0.061169  0.475812  0.996620  1
  I  I12  1  0.923101  0.998879  0.002930  1
  I  I13  1  0.078339  0.996585  0.502203  1
  I  I14  1  0.640461  0.127796  0.615492  1
  I  I15  1  0.356928  0.128821  0.114971  1
  I  I16  1  0.559197  0.389070  0.874382  1
  I  I17  1  0.440755  0.389060  0.374409  1
  I  I18  1  0.442070  0.858234  0.866248  1
  I  I19  1  0.557865  0.858228  0.366296  1
  I  I20  1  0.927787  0.234009  0.227316  1
  I  I21  1  0.073472  0.233994  0.728664  1
