# generated using pymatgen
data_CaErNbIr3
_symmetry_space_group_name_H-M   'P 1'
_cell_length_a   5.25901291
_cell_length_b   5.25901341
_cell_length_c   5.25901252
_cell_angle_alpha   64.87152864
_cell_angle_beta   64.87152734
_cell_angle_gamma   64.87152926
_symmetry_Int_Tables_number   1
_chemical_formula_structural   CaErNbIr3
_chemical_formula_sum   'Ca1 Er1 Nb1 Ir3'
_cell_volume   113.80172641
_cell_formula_units_Z   1
loop_
 _symmetry_equiv_pos_site_id
 _symmetry_equiv_pos_as_xyz
  1  'x, y, z'
loop_
 _atom_site_type_symbol
 _atom_site_label
 _atom_site_symmetry_multiplicity
 _atom_site_fract_x
 _atom_site_fract_y
 _atom_site_fract_z
 _atom_site_occupancy
  Ca  Ca0  1  0.250695  0.250695  0.250695  1
  Er  Er1  1  0.998696  0.998696  0.998696  1
  Nb  Nb2  1  0.625519  0.625519  0.625519  1
  Ir  Ir3  1  0.624807  0.125476  0.624807  1
  Ir  Ir4  1  0.624807  0.624807  0.125476  1
  Ir  Ir5  1  0.125476  0.624807  0.624807  1
