# generated using pymatgen
data_Li2Co8NiMo3As7
_symmetry_space_group_name_H-M   'P 1'
_cell_length_a   9.33697559
_cell_length_b   9.38272616
_cell_length_c   3.77448300
_cell_angle_alpha   90.00000000
_cell_angle_beta   90.00000000
_cell_angle_gamma   119.90558492
_symmetry_Int_Tables_number   1
_chemical_formula_structural   Li2Co8NiMo3As7
_chemical_formula_sum   'Li2 Co8 Ni1 Mo3 As7'
_cell_volume   286.63932157
_cell_formula_units_Z   1
loop_
 _symmetry_equiv_pos_site_id
 _symmetry_equiv_pos_as_xyz
  1  'x, y, z'
loop_
 _atom_site_type_symbol
 _atom_site_label
 _atom_site_symmetry_multiplicity
 _atom_site_fract_x
 _atom_site_fract_y
 _atom_site_fract_z
 _atom_site_occupancy
  Li  Li0  1  0.333753  0.667257  0.000000  1
  Li  Li1  1  0.999991  0.998636  0.500000  1
  Co  Co2  1  0.277370  0.376369  0.500000  1
  Co  Co3  1  0.622262  0.901150  0.500000  1
  Co  Co4  1  0.097712  0.722004  0.500000  1
  Co  Co5  1  0.502924  0.450977  0.000000  1
  Co  Co6  1  0.549147  0.052532  0.000000  1
  Co  Co7  1  0.950442  0.498802  0.000000  1
  Co  Co8  1  0.719017  0.759827  0.000000  1
  Co  Co9  1  0.238754  0.959391  0.000000  1
  Ni  Ni10  1  0.039873  0.278806  0.000000  1
  Mo  Mo11  1  0.760309  0.551927  0.500000  1
  Mo  Mo12  1  0.448233  0.208257  0.500000  1
  Mo  Mo13  1  0.792440  0.238696  0.500000  1
  As  As14  1  0.965196  0.757965  0.000000  1
  As  As15  1  0.244804  0.207991  0.000000  1
  As  As16  1  0.788454  0.030691  0.000000  1
  As  As17  1  0.668393  0.334282  0.000000  1
  As  As18  1  0.533760  0.623327  0.500000  1
  As  As19  1  0.376069  0.910743  0.500000  1
  As  As20  1  0.091097  0.470369  0.500000  1
