# generated using pymatgen
data_Y2Pa2TlPd4Pb
_symmetry_space_group_name_H-M   'P 1'
_cell_length_a   7.96269711
_cell_length_b   7.87233411
_cell_length_c   3.64264900
_cell_angle_alpha   90.00000000
_cell_angle_beta   90.00000000
_cell_angle_gamma   89.93924072
_symmetry_Int_Tables_number   1
_chemical_formula_structural   Y2Pa2TlPd4Pb
_chemical_formula_sum   'Y2 Pa2 Tl1 Pd4 Pb1'
_cell_volume   228.33936830
_cell_formula_units_Z   1
loop_
 _symmetry_equiv_pos_site_id
 _symmetry_equiv_pos_as_xyz
  1  'x, y, z'
loop_
 _atom_site_type_symbol
 _atom_site_label
 _atom_site_symmetry_multiplicity
 _atom_site_fract_x
 _atom_site_fract_y
 _atom_site_fract_z
 _atom_site_occupancy
  Y  Y0  1  0.827340  0.673802  0.500000  1
  Y  Y1  1  0.325131  0.828181  0.500000  1
  Pa  Pa2  1  0.671193  0.169174  0.500000  1
  Pa  Pa3  1  0.171249  0.330441  0.500000  1
  Tl  Tl4  1  0.002050  0.990051  0.000000  1
  Pd  Pd5  1  0.874352  0.358037  0.000000  1
  Pd  Pd6  1  0.371705  0.139530  0.000000  1
  Pd  Pd7  1  0.627047  0.891151  0.000000  1
  Pd  Pd8  1  0.126570  0.609765  0.000000  1
  Pb  Pb9  1  0.503362  0.509867  0.000000  1
