# generated using pymatgen
data_YTh(BOs)4
_symmetry_space_group_name_H-M   'P 1'
_cell_length_a   6.75852123
_cell_length_b   6.01696319
_cell_length_c   5.60999282
_cell_angle_alpha   70.98287709
_cell_angle_beta   57.31878023
_cell_angle_gamma   51.69834598
_symmetry_Int_Tables_number   1
_chemical_formula_structural   YTh(BOs)4
_chemical_formula_sum   'Y1 Th1 B4 Os4'
_cell_volume   150.67447114
_cell_formula_units_Z   1
loop_
 _symmetry_equiv_pos_site_id
 _symmetry_equiv_pos_as_xyz
  1  'x, y, z'
loop_
 _atom_site_type_symbol
 _atom_site_label
 _atom_site_symmetry_multiplicity
 _atom_site_fract_x
 _atom_site_fract_y
 _atom_site_fract_z
 _atom_site_occupancy
  Y  Y0  1  0.000000  0.000000  0.000000  1
  Th  Th1  1  0.250000  0.250000  0.250000  1
  B  B2  1  0.310127  0.689873  0.310127  1
  B  B3  1  0.689873  0.310127  0.689873  1
  B  B4  1  0.566124  0.933876  0.566124  1
  B  B5  1  0.933876  0.566124  0.933876  1
  Os  Os6  1  0.636831  0.636831  0.363169  1
  Os  Os7  1  0.363169  0.363169  0.636831  1
  Os  Os8  1  0.612149  0.612149  0.887851  1
  Os  Os9  1  0.887851  0.887851  0.612149  1
