# generated using pymatgen
data_Dy6Y4Si6C
_symmetry_space_group_name_H-M   'P 1'
_cell_length_a   8.46979124
_cell_length_b   8.46706889
_cell_length_c   6.37710918
_cell_angle_alpha   90.01373479
_cell_angle_beta   89.97253925
_cell_angle_gamma   120.01063254
_symmetry_Int_Tables_number   1
_chemical_formula_structural   Dy6Y4Si6C
_chemical_formula_sum   'Dy6 Y4 Si6 C1'
_cell_volume   396.01687612
_cell_formula_units_Z   1
loop_
 _symmetry_equiv_pos_site_id
 _symmetry_equiv_pos_as_xyz
  1  'x, y, z'
loop_
 _atom_site_type_symbol
 _atom_site_label
 _atom_site_symmetry_multiplicity
 _atom_site_fract_x
 _atom_site_fract_y
 _atom_site_fract_z
 _atom_site_occupancy
  Dy  Dy0  1  0.333280  0.666609  0.499946  1
  Dy  Dy1  1  0.666672  0.333391  0.499946  1
  Dy  Dy2  1  0.666693  0.333371  0.000089  1
  Dy  Dy3  1  0.333321  0.666629  0.000089  1
  Dy  Dy4  1  0.000045  0.764639  0.271504  1
  Dy  Dy5  1  0.235405  0.235361  0.271504  1
  Y  Y6  1  0.764217  0.000000  0.270927  1
  Y  Y7  1  0.000077  0.235986  0.728997  1
  Y  Y8  1  0.764091  0.764014  0.728997  1
  Y  Y9  1  0.235864  0.000000  0.728901  1
  Si  Si10  1  0.000052  0.399137  0.253584  1
  Si  Si11  1  0.600916  0.600863  0.253584  1
  Si  Si12  1  0.398943  0.000000  0.253612  1
  Si  Si13  1  0.999965  0.600982  0.746318  1
  Si  Si14  1  0.398983  0.399018  0.746318  1
  Si  Si15  1  0.600867  0.000000  0.746463  1
  C  C16  1  0.000607  0.000000  0.499220  1
