# generated using pymatgen
data_YHo9In8Pd3Au
_symmetry_space_group_name_H-M   'P 1'
_cell_length_a   3.62384500
_cell_length_b   8.15948705
_cell_length_c   18.27636081
_cell_angle_alpha   89.94179359
_cell_angle_beta   90.00000000
_cell_angle_gamma   90.00000000
_symmetry_Int_Tables_number   1
_chemical_formula_structural   YHo9In8Pd3Au
_chemical_formula_sum   'Y1 Ho9 In8 Pd3 Au1'
_cell_volume   540.40824985
_cell_formula_units_Z   1
loop_
 _symmetry_equiv_pos_site_id
 _symmetry_equiv_pos_as_xyz
  1  'x, y, z'
loop_
 _atom_site_type_symbol
 _atom_site_label
 _atom_site_symmetry_multiplicity
 _atom_site_fract_x
 _atom_site_fract_y
 _atom_site_fract_z
 _atom_site_occupancy
  Y  Y0  1  0.000000  0.499157  0.500957  1
  Ho  Ho1  1  0.000000  0.999209  0.999508  1
  Ho  Ho2  1  0.000000  0.746303  0.284147  1
  Ho  Ho3  1  0.000000  0.258970  0.718798  1
  Ho  Ho4  1  0.000000  0.758673  0.780017  1
  Ho  Ho5  1  0.000000  0.232787  0.219333  1
  Ho  Ho6  1  0.000000  0.621635  0.079707  1
  Ho  Ho7  1  0.000000  0.383210  0.915476  1
  Ho  Ho8  1  0.000000  0.883310  0.584117  1
  Ho  Ho9  1  0.000000  0.115535  0.417569  1
  In  In10  1  0.500000  0.709255  0.930981  1
  In  In11  1  0.500000  0.291444  0.065496  1
  In  In12  1  0.500000  0.791962  0.434363  1
  In  In13  1  0.500000  0.207760  0.567879  1
  In  In14  1  0.500000  0.579426  0.649603  1
  In  In15  1  0.500000  0.416134  0.352213  1
  In  In16  1  0.500000  0.921765  0.148844  1
  In  In17  1  0.500000  0.079013  0.849926  1
  Pd  Pd18  1  0.500000  0.475025  0.803242  1
  Pd  Pd19  1  0.500000  0.975924  0.696177  1
  Pd  Pd20  1  0.500000  0.025604  0.304212  1
  Au  Au21  1  0.500000  0.527897  0.197436  1
