# generated using pymatgen
data_Yb2ZnAg3
_symmetry_space_group_name_H-M   'P 1'
_cell_length_a   5.87221062
_cell_length_b   5.92445941
_cell_length_c   5.92445977
_cell_angle_alpha   134.66332456
_cell_angle_beta   103.78377294
_cell_angle_gamma   93.52276962
_symmetry_Int_Tables_number   1
_chemical_formula_structural   Yb2ZnAg3
_chemical_formula_sum   'Yb2 Zn1 Ag3'
_cell_volume   134.32801231
_cell_formula_units_Z   1
loop_
 _symmetry_equiv_pos_site_id
 _symmetry_equiv_pos_as_xyz
  1  'x, y, z'
loop_
 _atom_site_type_symbol
 _atom_site_label
 _atom_site_symmetry_multiplicity
 _atom_site_fract_x
 _atom_site_fract_y
 _atom_site_fract_z
 _atom_site_occupancy
  Yb  Yb0  1  0.698867  0.453571  0.245296  1
  Yb  Yb1  1  0.297959  0.548818  0.749141  1
  Zn  Zn2  1  0.890404  0.835286  0.055118  1
  Ag  Ag3  1  0.724782  0.174162  0.550619  1
  Ag  Ag4  1  0.284367  0.842124  0.442243  1
  Ag  Ag5  1  0.103621  0.146038  0.957583  1
