# generated using pymatgen
data_Pa6Co17TcP12
_symmetry_space_group_name_H-M   'P 1'
_cell_length_a   3.78287200
_cell_length_b   10.44480500
_cell_length_c   12.28028800
_cell_angle_alpha   90.00000000
_cell_angle_beta   90.00000000
_cell_angle_gamma   90.00000000
_symmetry_Int_Tables_number   1
_chemical_formula_structural   Pa6Co17TcP12
_chemical_formula_sum   'Pa6 Co17 Tc1 P12'
_cell_volume   485.21088474
_cell_formula_units_Z   1
loop_
 _symmetry_equiv_pos_site_id
 _symmetry_equiv_pos_as_xyz
  1  'x, y, z'
loop_
 _atom_site_type_symbol
 _atom_site_label
 _atom_site_symmetry_multiplicity
 _atom_site_fract_x
 _atom_site_fract_y
 _atom_site_fract_z
 _atom_site_occupancy
  Pa  Pa0  1  0.000000  0.500000  0.525917  1
  Pa  Pa1  1  0.500000  0.000000  0.476908  1
  Pa  Pa2  1  0.500000  0.818175  0.208665  1
  Pa  Pa3  1  0.500000  0.181825  0.208665  1
  Pa  Pa4  1  0.000000  0.684882  0.793172  1
  Pa  Pa5  1  0.000000  0.315118  0.793172  1
  Co  Co6  1  0.000000  0.000000  0.839723  1
  Co  Co7  1  0.500000  0.500000  0.700732  1
  Co  Co8  1  0.000000  0.000000  0.300649  1
  Co  Co9  1  0.000000  0.500000  0.983063  1
  Co  Co10  1  0.500000  0.000000  0.022497  1
  Co  Co11  1  0.500000  0.329973  0.989153  1
  Co  Co12  1  0.500000  0.670027  0.989153  1
  Co  Co13  1  0.000000  0.165258  0.005889  1
  Co  Co14  1  0.000000  0.834742  0.005889  1
  Co  Co15  1  0.500000  0.303608  0.429587  1
  Co  Co16  1  0.500000  0.696392  0.429587  1
  Co  Co17  1  0.000000  0.197463  0.570778  1
  Co  Co18  1  0.000000  0.802537  0.570778  1
  Co  Co19  1  0.500000  0.878269  0.713585  1
  Co  Co20  1  0.500000  0.121731  0.713585  1
  Co  Co21  1  0.000000  0.621896  0.286701  1
  Co  Co22  1  0.000000  0.378104  0.286701  1
  Tc  Tc23  1  0.500000  0.500000  0.153110  1
  P  P24  1  0.500000  0.500000  0.881258  1
  P  P25  1  0.000000  0.000000  0.119621  1
  P  P26  1  0.500000  0.500000  0.343634  1
  P  P27  1  0.000000  0.000000  0.658598  1
  P  P28  1  0.500000  0.308567  0.613710  1
  P  P29  1  0.500000  0.691433  0.613710  1
  P  P30  1  0.000000  0.191523  0.387538  1
  P  P31  1  0.000000  0.808477  0.387538  1
  P  P32  1  0.500000  0.853357  0.895900  1
  P  P33  1  0.500000  0.146643  0.895900  1
  P  P34  1  0.000000  0.654715  0.102468  1
  P  P35  1  0.000000  0.345285  0.102468  1
