# generated using pymatgen
data_Ta2NbCo4Ni5
_symmetry_space_group_name_H-M   'P 1'
_cell_length_a   6.96860710
_cell_length_b   6.98154891
_cell_length_c   6.96860762
_cell_angle_alpha   43.93090341
_cell_angle_beta   43.72432649
_cell_angle_gamma   43.93089622
_symmetry_Int_Tables_number   1
_chemical_formula_structural   Ta2NbCo4Ni5
_chemical_formula_sum   'Ta2 Nb1 Co4 Ni5'
_cell_volume   147.80864613
_cell_formula_units_Z   1
loop_
 _symmetry_equiv_pos_site_id
 _symmetry_equiv_pos_as_xyz
  1  'x, y, z'
loop_
 _atom_site_type_symbol
 _atom_site_label
 _atom_site_symmetry_multiplicity
 _atom_site_fract_x
 _atom_site_fract_y
 _atom_site_fract_z
 _atom_site_occupancy
  Ta  Ta0  1  0.216397  0.210947  0.216397  1
  Ta  Ta1  1  0.780026  0.786222  0.780026  1
  Nb  Nb2  1  0.002709  0.005874  0.002709  1
  Co  Co3  1  0.716587  0.236260  0.716587  1
  Co  Co4  1  0.284667  0.760449  0.284667  1
  Co  Co5  1  0.760152  0.286259  0.284573  1
  Co  Co6  1  0.284573  0.286259  0.760152  1
  Ni  Ni7  1  0.499591  0.498579  0.999836  1
  Ni  Ni8  1  0.498151  0.002340  0.498151  1
  Ni  Ni9  1  0.999836  0.498579  0.499591  1
  Ni  Ni10  1  0.239552  0.714118  0.717760  1
  Ni  Ni11  1  0.717760  0.714118  0.239552  1
