# generated using pymatgen
data_Na7Pa4TlBr24
_symmetry_space_group_name_H-M   'P 1'
_cell_length_a   7.45690600
_cell_length_b   7.45690721
_cell_length_c   27.88781500
_cell_angle_alpha   90.00000000
_cell_angle_beta   90.00000000
_cell_angle_gamma   119.99998578
_symmetry_Int_Tables_number   1
_chemical_formula_structural   Na7Pa4TlBr24
_chemical_formula_sum   'Na7 Pa4 Tl1 Br24'
_cell_volume   1342.95849280
_cell_formula_units_Z   1
loop_
 _symmetry_equiv_pos_site_id
 _symmetry_equiv_pos_as_xyz
  1  'x, y, z'
loop_
 _atom_site_type_symbol
 _atom_site_label
 _atom_site_symmetry_multiplicity
 _atom_site_fract_x
 _atom_site_fract_y
 _atom_site_fract_z
 _atom_site_occupancy
  Na  Na0  1  0.000000  0.000000  0.249972  1
  Na  Na1  1  0.000000  0.000000  0.750083  1
  Na  Na2  1  0.333333  0.666667  0.000744  1
  Na  Na3  1  0.333333  0.666667  0.499485  1
  Na  Na4  1  0.333333  0.666667  0.249911  1
  Na  Na5  1  0.666667  0.333333  0.750060  1
  Na  Na6  1  0.666667  0.333333  0.999257  1
  Pa  Pa7  1  0.000000  0.000000  0.999993  1
  Pa  Pa8  1  0.000000  0.000000  0.500034  1
  Pa  Pa9  1  0.333333  0.666667  0.750148  1
  Pa  Pa10  1  0.666667  0.333333  0.249880  1
  Tl  Tl11  1  0.666667  0.333333  0.500291  1
  Br  Br12  1  0.355055  0.020447  0.307121  1
  Br  Br13  1  0.334571  0.979685  0.807304  1
  Br  Br14  1  0.997771  0.311067  0.057224  1
  Br  Br15  1  0.029724  0.314376  0.560960  1
  Br  Br16  1  0.979553  0.334608  0.307121  1
  Br  Br17  1  0.020315  0.354887  0.807304  1
  Br  Br18  1  0.354896  0.334472  0.192692  1
  Br  Br19  1  0.334674  0.354985  0.692929  1
  Br  Br20  1  0.286471  0.313108  0.439067  1
  Br  Br21  1  0.311032  0.313239  0.942750  1
  Br  Br22  1  0.686892  0.973363  0.439067  1
  Br  Br23  1  0.313295  0.002229  0.057224  1
  Br  Br24  1  0.284650  0.970276  0.560960  1
  Br  Br25  1  0.688933  0.686705  0.057224  1
  Br  Br26  1  0.685624  0.715350  0.560960  1
  Br  Br27  1  0.665392  0.644945  0.307121  1
  Br  Br28  1  0.645113  0.665429  0.807304  1
  Br  Br29  1  0.979575  0.645104  0.192692  1
  Br  Br30  1  0.020311  0.665326  0.692929  1
  Br  Br31  1  0.026637  0.713529  0.439067  1
  Br  Br32  1  0.002206  0.688968  0.942750  1
  Br  Br33  1  0.686761  0.997794  0.942750  1
  Br  Br34  1  0.665528  0.020425  0.192692  1
  Br  Br35  1  0.645015  0.979689  0.692929  1
