# generated using pymatgen
data_Ta10CuSi3Ge2
_symmetry_space_group_name_H-M   'P 1'
_cell_length_a   7.60552599
_cell_length_b   7.60552566
_cell_length_c   7.60229128
_cell_angle_alpha   128.64012325
_cell_angle_beta   128.64012198
_cell_angle_gamma   75.62174850
_symmetry_Int_Tables_number   1
_chemical_formula_structural   Ta10CuSi3Ge2
_chemical_formula_sum   'Ta10 Cu1 Si3 Ge2'
_cell_volume   260.96114889
_cell_formula_units_Z   1
loop_
 _symmetry_equiv_pos_site_id
 _symmetry_equiv_pos_as_xyz
  1  'x, y, z'
loop_
 _atom_site_type_symbol
 _atom_site_label
 _atom_site_symmetry_multiplicity
 _atom_site_fract_x
 _atom_site_fract_y
 _atom_site_fract_z
 _atom_site_occupancy
  Ta  Ta0  1  0.014307  0.185127  0.499069  1
  Ta  Ta1  1  0.516101  0.016101  0.827817  1
  Ta  Ta2  1  0.187354  0.687354  0.172961  1
  Ta  Ta3  1  0.485608  0.985608  0.172961  1
  Ta  Ta4  1  0.685127  0.514307  0.499069  1
  Ta  Ta5  1  0.984761  0.813942  0.499069  1
  Ta  Ta6  1  0.313942  0.484761  0.499069  1
  Ta  Ta7  1  0.811715  0.311715  0.827817  1
  Ta  Ta8  1  0.500312  0.499247  0.999558  1
  Ta  Ta9  1  0.999247  0.000312  0.999558  1
  Cu  Cu10  1  0.128866  0.628866  0.757732  1
  Si  Si11  1  0.630685  0.867524  0.498208  1
  Si  Si12  1  0.367524  0.130685  0.498208  1
  Si  Si13  1  0.875416  0.375416  0.250832  1
  Ge  Ge14  1  0.749518  0.749518  0.999036  1
  Ge  Ge15  1  0.249518  0.249518  0.999036  1
