# generated using pymatgen
data_Y3Ho13MgCd(InPd2)2
_symmetry_space_group_name_H-M   'P 1'
_cell_length_a   9.74781344
_cell_length_b   9.71152935
_cell_length_c   9.70552500
_cell_angle_alpha   59.71673195
_cell_angle_beta   59.83333621
_cell_angle_gamma   59.92482237
_symmetry_Int_Tables_number   1
_chemical_formula_structural   Y3Ho13MgCd(InPd2)2
_chemical_formula_sum   'Y3 Ho13 Mg1 Cd1 In2 Pd4'
_cell_volume   647.09366674
_cell_formula_units_Z   1
loop_
 _symmetry_equiv_pos_site_id
 _symmetry_equiv_pos_as_xyz
  1  'x, y, z'
loop_
 _atom_site_type_symbol
 _atom_site_label
 _atom_site_symmetry_multiplicity
 _atom_site_fract_x
 _atom_site_fract_y
 _atom_site_fract_z
 _atom_site_occupancy
  Y  Y0  1  0.936288  0.562279  0.936280  1
  Y  Y1  1  0.566300  0.566176  0.931787  1
  Y  Y2  1  0.935355  0.935574  0.562730  1
  Ho  Ho3  1  0.349707  0.350608  0.350732  1
  Ho  Ho4  1  0.354263  0.351195  0.942270  1
  Ho  Ho5  1  0.354355  0.942367  0.351633  1
  Ho  Ho6  1  0.936697  0.355953  0.356028  1
  Ho  Ho7  1  0.807215  0.192057  0.192628  1
  Ho  Ho8  1  0.187485  0.811758  0.811434  1
  Ho  Ho9  1  0.188727  0.811700  0.189487  1
  Ho  Ho10  1  0.809691  0.190751  0.809889  1
  Ho  Ho11  1  0.188822  0.189028  0.811568  1
  Ho  Ho12  1  0.809885  0.810088  0.191157  1
  Ho  Ho13  1  0.935717  0.565885  0.565299  1
  Ho  Ho14  1  0.563035  0.936100  0.936117  1
  Ho  Ho15  1  0.565751  0.932884  0.564953  1
  Mg  Mg16  1  0.268941  0.576507  0.576579  1
  Cd  Cd17  1  0.582550  0.584031  0.583209  1
  In  In18  1  0.581745  0.583491  0.251981  1
  In  In19  1  0.581620  0.251316  0.583498  1
  Pd  Pd20  1  0.143473  0.144944  0.145267  1
  Pd  Pd21  1  0.141475  0.144159  0.568155  1
  Pd  Pd22  1  0.141495  0.568352  0.144232  1
  Pd  Pd23  1  0.569401  0.142796  0.143087  1
