# generated using pymatgen
data_Sm8Re(IO8)3
_symmetry_space_group_name_H-M   'P 1'
_cell_length_a   5.63919386
_cell_length_b   7.87449041
_cell_length_c   11.93707106
_cell_angle_alpha   75.67103223
_cell_angle_beta   90.56337940
_cell_angle_gamma   89.98110523
_symmetry_Int_Tables_number   1
_chemical_formula_structural   Sm8Re(IO8)3
_chemical_formula_sum   'Sm8 Re1 I3 O24'
_cell_volume   513.55776638
_cell_formula_units_Z   1
loop_
 _symmetry_equiv_pos_site_id
 _symmetry_equiv_pos_as_xyz
  1  'x, y, z'
loop_
 _atom_site_type_symbol
 _atom_site_label
 _atom_site_symmetry_multiplicity
 _atom_site_fract_x
 _atom_site_fract_y
 _atom_site_fract_z
 _atom_site_occupancy
  Sm  Sm0  1  0.737970  0.017656  0.753665  1
  Sm  Sm1  1  0.262176  0.980346  0.246375  1
  Sm  Sm2  1  0.181386  0.807251  0.576344  1
  Sm  Sm3  1  0.818055  0.778504  0.079091  1
  Sm  Sm4  1  0.680994  0.500811  0.750929  1
  Sm  Sm5  1  0.314838  0.503401  0.250852  1
  Sm  Sm6  1  0.176373  0.209351  0.918604  1
  Sm  Sm7  1  0.828637  0.194442  0.427219  1
  Re  Re8  1  0.251007  0.727071  0.882206  1
  I  I9  1  0.744763  0.708202  0.393892  1
  I  I10  1  0.259415  0.292430  0.607207  1
  I  I11  1  0.746935  0.269141  0.118988  1
  O  O12  1  0.044414  0.931796  0.901177  1
  O  O13  1  0.504194  0.843479  0.933691  1
  O  O14  1  0.022884  0.956486  0.397594  1
  O  O15  1  0.436477  0.803397  0.735606  1
  O  O16  1  0.485454  0.835558  0.432088  1
  O  O17  1  0.988832  0.710247  0.782280  1
  O  O18  1  0.555849  0.773706  0.227530  1
  O  O19  1  0.849267  0.637086  0.558695  1
  O  O20  1  0.358130  0.506059  0.879076  1
  O  O21  1  0.068132  0.725925  0.232447  1
  O  O22  1  0.379313  0.517835  0.605680  1
  O  O23  1  0.857626  0.370813  0.969924  1
  O  O24  1  0.155064  0.625756  0.029253  1
  O  O25  1  0.626366  0.483278  0.395698  1
  O  O26  1  0.932889  0.281769  0.761526  1
  O  O27  1  0.626544  0.492243  0.121082  1
  O  O28  1  0.155761  0.366379  0.439408  1
  O  O29  1  0.443505  0.224811  0.769716  1
  O  O30  1  0.016395  0.299122  0.215263  1
  O  O31  1  0.515311  0.162214  0.566569  1
  O  O32  1  0.585760  0.181830  0.265828  1
  O  O33  1  0.988176  0.045982  0.605008  1
  O  O34  1  0.472516  0.173029  0.063788  1
  O  O35  1  0.928594  0.062594  0.105704  1
