# generated using pymatgen
data_Lu5InBi2
_symmetry_space_group_name_H-M   'P 1'
_cell_length_a   6.39554504
_cell_length_b   8.94399548
_cell_length_c   8.91420689
_cell_angle_alpha   120.11061476
_cell_angle_beta   90.00761164
_cell_angle_gamma   89.98483961
_symmetry_Int_Tables_number   1
_chemical_formula_structural   Lu5InBi2
_chemical_formula_sum   'Lu10 In2 Bi4'
_cell_volume   441.10024833
_cell_formula_units_Z   2
loop_
 _symmetry_equiv_pos_site_id
 _symmetry_equiv_pos_as_xyz
  1  'x, y, z'
loop_
 _atom_site_type_symbol
 _atom_site_label
 _atom_site_symmetry_multiplicity
 _atom_site_fract_x
 _atom_site_fract_y
 _atom_site_fract_z
 _atom_site_occupancy
  Lu  Lu0  1  0.496490  0.332426  0.659779  1
  Lu  Lu1  1  0.496490  0.672647  0.340221  1
  Lu  Lu2  1  0.003684  0.672493  0.340079  1
  Lu  Lu3  1  0.003684  0.332415  0.659921  1
  Lu  Lu4  1  0.750223  0.234230  0.000000  1
  Lu  Lu5  1  0.750221  0.765784  0.763704  1
  Lu  Lu6  1  0.750221  0.002080  0.236296  1
  Lu  Lu7  1  0.250562  0.767510  0.000000  1
  Lu  Lu8  1  0.250283  0.231363  0.242116  1
  Lu  Lu9  1  0.250283  0.989247  0.757884  1
  In  In10  1  0.248849  0.604628  0.605470  1
  In  In11  1  0.248849  0.999159  0.394530  1
  Bi  Bi12  1  0.750104  0.606070  0.000000  1
  Bi  Bi13  1  0.749918  0.396732  0.392143  1
  Bi  Bi14  1  0.749918  0.004589  0.607857  1
  Bi  Bi15  1  0.250224  0.388629  0.000000  1
