# generated using pymatgen
data_Hf9ZrCu2(SnSb2)2
_symmetry_space_group_name_H-M   'P 1'
_cell_length_a   8.58646314
_cell_length_b   8.59600625
_cell_length_c   5.76513600
_cell_angle_alpha   90.00000000
_cell_angle_beta   90.00000000
_cell_angle_gamma   120.03675788
_symmetry_Int_Tables_number   1
_chemical_formula_structural   Hf9ZrCu2(SnSb2)2
_chemical_formula_sum   'Hf9 Zr1 Cu2 Sn2 Sb4'
_cell_volume   368.37507772
_cell_formula_units_Z   1
loop_
 _symmetry_equiv_pos_site_id
 _symmetry_equiv_pos_as_xyz
  1  'x, y, z'
loop_
 _atom_site_type_symbol
 _atom_site_label
 _atom_site_symmetry_multiplicity
 _atom_site_fract_x
 _atom_site_fract_y
 _atom_site_fract_z
 _atom_site_occupancy
  Hf  Hf0  1  0.667135  0.333574  0.999109  1
  Hf  Hf1  1  0.332865  0.666440  0.999109  1
  Hf  Hf2  1  0.332865  0.666440  0.500891  1
  Hf  Hf3  1  0.667135  0.333574  0.500891  1
  Hf  Hf4  1  0.733920  0.734248  0.750000  1
  Hf  Hf5  1  0.266080  0.000328  0.750000  1
  Hf  Hf6  1  0.000000  0.266738  0.750000  1
  Hf  Hf7  1  0.264165  0.263586  0.250000  1
  Hf  Hf8  1  0.735835  0.999421  0.250000  1
  Zr  Zr9  1  0.000000  0.733979  0.250000  1
  Cu  Cu10  1  0.000000  0.001711  0.504296  1
  Cu  Cu11  1  0.000000  0.001711  0.995704  1
  Sn  Sn12  1  0.384817  0.384677  0.750000  1
  Sn  Sn13  1  0.615183  0.999861  0.750000  1
  Sb  Sb14  1  0.000000  0.615082  0.750000  1
  Sb  Sb15  1  0.612682  0.613660  0.250000  1
  Sb  Sb16  1  0.387318  0.000979  0.250000  1
  Sb  Sb17  1  0.000000  0.383986  0.250000  1
