# generated using pymatgen
data_Ca10Ag3Hg2Rh
_symmetry_space_group_name_H-M   'P 1'
_cell_length_a   9.23295344
_cell_length_b   9.23295347
_cell_length_c   9.26014267
_cell_angle_alpha   128.28339680
_cell_angle_beta   128.28340058
_cell_angle_gamma   75.95097785
_symmetry_Int_Tables_number   1
_chemical_formula_structural   Ca10Ag3Hg2Rh
_chemical_formula_sum   'Ca10 Ag3 Hg2 Rh1'
_cell_volume   473.47156930
_cell_formula_units_Z   1
loop_
 _symmetry_equiv_pos_site_id
 _symmetry_equiv_pos_as_xyz
  1  'x, y, z'
loop_
 _atom_site_type_symbol
 _atom_site_label
 _atom_site_symmetry_multiplicity
 _atom_site_fract_x
 _atom_site_fract_y
 _atom_site_fract_z
 _atom_site_occupancy
  Ca  Ca0  1  0.527258  0.015132  0.822907  1
  Ca  Ca1  1  0.204349  0.692224  0.177093  1
  Ca  Ca2  1  0.025603  0.189034  0.500000  1
  Ca  Ca3  1  0.682160  0.543109  0.500000  1
  Ca  Ca4  1  0.484868  0.972742  0.177093  1
  Ca  Ca5  1  0.807776  0.295651  0.822907  1
  Ca  Ca6  1  0.956891  0.817840  0.500000  1
  Ca  Ca7  1  0.310966  0.474397  0.500000  1
  Ca  Ca8  1  0.503653  0.510708  0.014361  1
  Ca  Ca9  1  0.989292  0.996347  0.985639  1
  Ag  Ag10  1  0.375775  0.124225  0.500000  1
  Ag  Ag11  1  0.125166  0.625366  0.750532  1
  Ag  Ag12  1  0.874634  0.374834  0.249468  1
  Hg  Hg13  1  0.252392  0.247608  0.000000  1
  Hg  Hg14  1  0.752392  0.747608  0.000000  1
  Rh  Rh15  1  0.626825  0.873175  0.500000  1
