# generated using pymatgen
data_Dy5YSn2(BRh6)2
_symmetry_space_group_name_H-M   'P 1'
_cell_length_a   5.82153200
_cell_length_b   5.82153098
_cell_length_c   13.83843300
_cell_angle_alpha   90.00000000
_cell_angle_beta   90.00000000
_cell_angle_gamma   119.99999443
_symmetry_Int_Tables_number   1
_chemical_formula_structural   Dy5YSn2(BRh6)2
_chemical_formula_sum   'Dy5 Y1 Sn2 B2 Rh12'
_cell_volume   406.15525196
_cell_formula_units_Z   1
loop_
 _symmetry_equiv_pos_site_id
 _symmetry_equiv_pos_as_xyz
  1  'x, y, z'
loop_
 _atom_site_type_symbol
 _atom_site_label
 _atom_site_symmetry_multiplicity
 _atom_site_fract_x
 _atom_site_fract_y
 _atom_site_fract_z
 _atom_site_occupancy
  Dy  Dy0  1  0.000000  0.000000  0.250000  1
  Dy  Dy1  1  0.333333  0.666667  0.410830  1
  Dy  Dy2  1  0.666667  0.333333  0.910955  1
  Dy  Dy3  1  0.666667  0.333333  0.589045  1
  Dy  Dy4  1  0.333333  0.666667  0.089170  1
  Y  Y5  1  0.000000  0.000000  0.750000  1
  Sn  Sn6  1  0.333333  0.666667  0.750000  1
  Sn  Sn7  1  0.666667  0.333333  0.250000  1
  B  B8  1  0.000000  0.000000  0.500058  1
  B  B9  1  0.000000  0.000000  0.999942  1
  Rh  Rh10  1  0.344053  0.172027  0.413252  1
  Rh  Rh11  1  0.827973  0.172027  0.413252  1
  Rh  Rh12  1  0.827973  0.655947  0.413252  1
  Rh  Rh13  1  0.172274  0.344547  0.913621  1
  Rh  Rh14  1  0.655453  0.827726  0.586379  1
  Rh  Rh15  1  0.655453  0.827726  0.913621  1
  Rh  Rh16  1  0.344053  0.172027  0.086748  1
  Rh  Rh17  1  0.172274  0.344547  0.586379  1
  Rh  Rh18  1  0.172274  0.827726  0.586379  1
  Rh  Rh19  1  0.827973  0.172027  0.086748  1
  Rh  Rh20  1  0.827973  0.655947  0.086748  1
  Rh  Rh21  1  0.172274  0.827726  0.913621  1
