# generated using pymatgen
data_La8Nd4Ru(RhBr4)3
_symmetry_space_group_name_H-M   'P 1'
_cell_length_a   10.57453571
_cell_length_b   10.59278718
_cell_length_c   10.57453512
_cell_angle_alpha   108.71909853
_cell_angle_beta   110.76993029
_cell_angle_gamma   108.71911284
_symmetry_Int_Tables_number   1
_chemical_formula_structural   La8Nd4Ru(RhBr4)3
_chemical_formula_sum   'La8 Nd4 Ru1 Rh3 Br12'
_cell_volume   913.83458685
_cell_formula_units_Z   1
loop_
 _symmetry_equiv_pos_site_id
 _symmetry_equiv_pos_as_xyz
  1  'x, y, z'
loop_
 _atom_site_type_symbol
 _atom_site_label
 _atom_site_symmetry_multiplicity
 _atom_site_fract_x
 _atom_site_fract_y
 _atom_site_fract_z
 _atom_site_occupancy
  La  La0  1  0.230294  0.262634  0.741259  1
  La  La1  1  0.020905  0.489089  0.758301  1
  La  La2  1  0.477412  0.239089  0.468569  1
  La  La3  1  0.268159  0.014909  0.033643  1
  La  La4  1  0.758741  0.237366  0.269706  1
  La  La5  1  0.741699  0.010911  0.479095  1
  La  La6  1  0.466357  0.485091  0.231841  1
  La  La7  1  0.031431  0.260911  0.022588  1
  Nd  Nd8  1  0.265999  0.750000  0.234001  1
  Nd  Nd9  1  0.484506  0.750000  0.015494  1
  Nd  Nd10  1  0.236165  0.468663  0.481555  1
  Nd  Nd11  1  0.018445  0.031337  0.263835  1
  Ru  Ru12  1  0.250842  0.250000  0.249158  1
  Rh  Rh13  1  0.502135  0.000718  0.251224  1
  Rh  Rh14  1  0.248776  0.499282  0.997865  1
  Rh  Rh15  1  0.999364  0.250000  0.500636  1
  Br  Br16  1  0.245598  0.989054  0.499619  1
  Br  Br17  1  0.510015  0.511074  0.756469  1
  Br  Br18  1  0.254253  0.753390  0.744977  1
  Br  Br19  1  0.989557  0.745792  0.000148  1
  Br  Br20  1  0.000381  0.510946  0.254402  1
  Br  Br21  1  0.743531  0.988926  0.989985  1
  Br  Br22  1  0.755023  0.746610  0.245747  1
  Br  Br23  1  0.499852  0.754208  0.510443  1
  Br  Br24  1  0.504303  0.250000  0.995697  1
  Br  Br25  1  0.754189  0.508306  0.504391  1
  Br  Br26  1  0.746458  0.250000  0.753542  1
  Br  Br27  1  0.995609  0.991694  0.745811  1
