# generated using pymatgen
data_Tm10Th2Tc3Ru
_symmetry_space_group_name_H-M   'P 1'
_cell_length_a   6.27906299
_cell_length_b   7.29996620
_cell_length_c   9.17432500
_cell_angle_alpha   90.00000000
_cell_angle_beta   90.00000000
_cell_angle_gamma   89.47531982
_symmetry_Int_Tables_number   1
_chemical_formula_structural   Tm10Th2Tc3Ru
_chemical_formula_sum   'Tm10 Th2 Tc3 Ru1'
_cell_volume   420.50542215
_cell_formula_units_Z   1
loop_
 _symmetry_equiv_pos_site_id
 _symmetry_equiv_pos_as_xyz
  1  'x, y, z'
loop_
 _atom_site_type_symbol
 _atom_site_label
 _atom_site_symmetry_multiplicity
 _atom_site_fract_x
 _atom_site_fract_y
 _atom_site_fract_z
 _atom_site_occupancy
  Tm  Tm0  1  0.127630  0.457485  0.750000  1
  Tm  Tm1  1  0.870725  0.544686  0.250000  1
  Tm  Tm2  1  0.161197  0.180787  0.064729  1
  Tm  Tm3  1  0.836576  0.818632  0.933786  1
  Tm  Tm4  1  0.667359  0.328622  0.934932  1
  Tm  Tm5  1  0.836576  0.818632  0.566214  1
  Tm  Tm6  1  0.332323  0.671269  0.064613  1
  Tm  Tm7  1  0.161197  0.180787  0.435271  1
  Tm  Tm8  1  0.332323  0.671269  0.435387  1
  Tm  Tm9  1  0.667359  0.328622  0.565068  1
  Th  Th10  1  0.639114  0.045892  0.250000  1
  Th  Th11  1  0.363151  0.955879  0.750000  1
  Tc  Tc12  1  0.476647  0.370491  0.250000  1
  Tc  Tc13  1  0.521308  0.628213  0.750000  1
  Tc  Tc14  1  0.980027  0.113033  0.750000  1
  Ru  Ru15  1  0.026487  0.885702  0.250000  1
