# generated using pymatgen
data_YCd(CuPd)2
_symmetry_space_group_name_H-M   'P 1'
_cell_length_a   5.06852906
_cell_length_b   5.24051286
_cell_length_c   5.24051261
_cell_angle_alpha   63.40482633
_cell_angle_beta   61.07979889
_cell_angle_gamma   61.07980716
_symmetry_Int_Tables_number   1
_chemical_formula_structural   YCd(CuPd)2
_chemical_formula_sum   'Y1 Cd1 Cu2 Pd2'
_cell_volume   102.40668808
_cell_formula_units_Z   1
loop_
 _symmetry_equiv_pos_site_id
 _symmetry_equiv_pos_as_xyz
  1  'x, y, z'
loop_
 _atom_site_type_symbol
 _atom_site_label
 _atom_site_symmetry_multiplicity
 _atom_site_fract_x
 _atom_site_fract_y
 _atom_site_fract_z
 _atom_site_occupancy
  Y  Y0  1  0.748303  0.751697  0.751697  1
  Cd  Cd1  1  0.993079  0.006921  0.006921  1
  Cu  Cu2  1  0.378271  0.372072  0.372072  1
  Cu  Cu3  1  0.877585  0.372072  0.372072  1
  Pd  Pd4  1  0.376381  0.372980  0.874256  1
  Pd  Pd5  1  0.376381  0.874256  0.372980  1
