# generated using pymatgen
data_La4Bi3Sb3Rh7
_symmetry_space_group_name_H-M   'P 1'
_cell_length_a   7.91576469
_cell_length_b   7.97237237
_cell_length_c   7.91576468
_cell_angle_alpha   109.61615594
_cell_angle_beta   109.32590592
_cell_angle_gamma   109.61614652
_symmetry_Int_Tables_number   1
_chemical_formula_structural   La4Bi3Sb3Rh7
_chemical_formula_sum   'La4 Bi3 Sb3 Rh7'
_cell_volume   383.85879069
_cell_formula_units_Z   1
loop_
 _symmetry_equiv_pos_site_id
 _symmetry_equiv_pos_as_xyz
  1  'x, y, z'
loop_
 _atom_site_type_symbol
 _atom_site_label
 _atom_site_symmetry_multiplicity
 _atom_site_fract_x
 _atom_site_fract_y
 _atom_site_fract_z
 _atom_site_occupancy
  La  La0  1  0.511211  0.001098  0.000000  1
  La  La1  1  0.000000  0.467866  0.000000  1
  La  La2  1  0.000000  0.001098  0.511211  1
  La  La3  1  0.488789  0.489887  0.488789  1
  Bi  Bi4  1  0.304063  0.987313  0.304063  1
  Bi  Bi5  1  0.000000  0.683251  0.695937  1
  Bi  Bi6  1  0.695937  0.683251  0.000000  1
  Sb  Sb7  1  0.658995  0.988905  0.658995  1
  Sb  Sb8  1  0.000000  0.329910  0.341005  1
  Sb  Sb9  1  0.341005  0.329910  0.000000  1
  Rh  Rh10  1  0.252379  0.492274  0.751303  1
  Rh  Rh11  1  0.498923  0.239895  0.747621  1
  Rh  Rh12  1  0.747621  0.239895  0.498923  1
  Rh  Rh13  1  0.501077  0.740972  0.248697  1
  Rh  Rh14  1  0.000000  0.091233  0.000000  1
  Rh  Rh15  1  0.248697  0.740972  0.501077  1
  Rh  Rh16  1  0.751303  0.492274  0.252379  1
