# generated using pymatgen
data_Tm3Lu2Ga4P8Ir19
_symmetry_space_group_name_H-M   'P 1'
_cell_length_a   12.88687017
_cell_length_b   12.86752055
_cell_length_c   3.93930600
_cell_angle_alpha   90.00000000
_cell_angle_beta   90.00000000
_cell_angle_gamma   120.06220554
_symmetry_Int_Tables_number   1
_chemical_formula_structural   Tm3Lu2Ga4P8Ir19
_chemical_formula_sum   'Tm3 Lu2 Ga4 P8 Ir19'
_cell_volume   565.35352610
_cell_formula_units_Z   1
loop_
 _symmetry_equiv_pos_site_id
 _symmetry_equiv_pos_as_xyz
  1  'x, y, z'
loop_
 _atom_site_type_symbol
 _atom_site_label
 _atom_site_symmetry_multiplicity
 _atom_site_fract_x
 _atom_site_fract_y
 _atom_site_fract_z
 _atom_site_occupancy
  Tm  Tm0  1  0.179810  0.179969  0.000000  1
  Tm  Tm1  1  0.818677  0.999145  0.000000  1
  Tm  Tm2  1  0.002572  0.817459  0.000000  1
  Lu  Lu3  1  0.335089  0.669048  0.500000  1
  Lu  Lu4  1  0.665844  0.331611  0.500000  1
  Ga  Ga5  1  0.318211  0.834054  0.000000  1
  Ga  Ga6  1  0.356158  0.357164  0.500000  1
  Ga  Ga7  1  0.642229  0.000936  0.500000  1
  Ga  Ga8  1  0.996953  0.639085  0.500000  1
  P  P9  1  0.173630  0.485064  0.000000  1
  P  P10  1  0.520631  0.690155  0.000000  1
  P  P11  1  0.823465  0.306478  0.000000  1
  P  P12  1  0.482871  0.175274  0.000000  1
  P  P13  1  0.691314  0.514325  0.000000  1
  P  P14  1  0.823197  0.819320  0.500000  1
  P  P15  1  0.178037  0.001046  0.500000  1
  P  P16  1  0.000036  0.179534  0.500000  1
  Ir  Ir17  1  0.190350  0.825376  0.500000  1
  Ir  Ir18  1  0.174853  0.381882  0.500000  1
  Ir  Ir19  1  0.626306  0.795707  0.500000  1
  Ir  Ir20  1  0.825496  0.205105  0.500000  1
  Ir  Ir21  1  0.385448  0.178543  0.500000  1
  Ir  Ir22  1  0.790970  0.614909  0.500000  1
  Ir  Ir23  1  0.129491  0.633726  0.000000  1
  Ir  Ir24  1  0.362598  0.498424  0.000000  1
  Ir  Ir25  1  0.521276  0.870237  0.000000  1
  Ir  Ir26  1  0.634104  0.133266  0.000000  1
  Ir  Ir27  1  0.497611  0.365757  0.000000  1
  Ir  Ir28  1  0.865068  0.499923  0.000000  1
  Ir  Ir29  1  0.547334  0.550305  0.500000  1
  Ir  Ir30  1  0.444004  0.993182  0.500000  1
  Ir  Ir31  1  0.997975  0.447526  0.500000  1
  Ir  Ir32  1  0.720072  0.716554  0.000000  1
  Ir  Ir33  1  0.279343  0.008032  0.000000  1
  Ir  Ir34  1  0.000180  0.281221  0.000000  1
  Ir  Ir35  1  0.998797  0.000659  0.500000  1
