# generated using pymatgen
data_CaTbHo6(B6Ru)4
_symmetry_space_group_name_H-M   'P 1'
_cell_length_a   3.65491700
_cell_length_b   9.13587384
_cell_length_c   11.52464000
_cell_angle_alpha   89.89841853
_cell_angle_beta   90.00000000
_cell_angle_gamma   90.00000000
_symmetry_Int_Tables_number   1
_chemical_formula_structural   CaTbHo6(B6Ru)4
_chemical_formula_sum   'Ca1 Tb1 Ho6 B24 Ru4'
_cell_volume   384.81704311
_cell_formula_units_Z   1
loop_
 _symmetry_equiv_pos_site_id
 _symmetry_equiv_pos_as_xyz
  1  'x, y, z'
loop_
 _atom_site_type_symbol
 _atom_site_label
 _atom_site_symmetry_multiplicity
 _atom_site_fract_x
 _atom_site_fract_y
 _atom_site_fract_z
 _atom_site_occupancy
  Ca  Ca0  1  0.000000  0.322684  0.413866  1
  Tb  Tb1  1  0.000000  0.675743  0.585133  1
  Ho  Ho2  1  0.000000  0.822730  0.086251  1
  Ho  Ho3  1  0.000000  0.177770  0.914646  1
  Ho  Ho4  1  0.000000  0.943999  0.370910  1
  Ho  Ho5  1  0.000000  0.058011  0.628331  1
  Ho  Ho6  1  0.000000  0.442927  0.129453  1
  Ho  Ho7  1  0.000000  0.556201  0.872343  1
  B  B8  1  0.500000  0.554618  0.432240  1
  B  B9  1  0.500000  0.445845  0.568049  1
  B  B10  1  0.500000  0.053191  0.066370  1
  B  B11  1  0.500000  0.945901  0.932597  1
  B  B12  1  0.500000  0.748613  0.418772  1
  B  B13  1  0.500000  0.252063  0.581574  1
  B  B14  1  0.500000  0.247420  0.080170  1
  B  B15  1  0.500000  0.751923  0.919739  1
  B  B16  1  0.500000  0.791596  0.265749  1
  B  B17  1  0.500000  0.209546  0.734518  1
  B  B18  1  0.500000  0.289640  0.232940  1
  B  B19  1  0.500000  0.709536  0.766732  1
  B  B20  1  0.500000  0.632226  0.185575  1
  B  B21  1  0.500000  0.368326  0.815477  1
  B  B22  1  0.500000  0.130766  0.313493  1
  B  B23  1  0.500000  0.868811  0.685446  1
  B  B24  1  0.500000  0.983126  0.211519  1
  B  B25  1  0.500000  0.016634  0.787505  1
  B  B26  1  0.500000  0.484397  0.287325  1
  B  B27  1  0.500000  0.516058  0.713192  1
  B  B28  1  0.500000  0.608368  0.030135  1
  B  B29  1  0.500000  0.391850  0.970543  1
  B  B30  1  0.500000  0.103820  0.471228  1
  B  B31  1  0.500000  0.895176  0.528966  1
  Ru  Ru32  1  0.000000  0.640204  0.319890  1
  Ru  Ru33  1  0.000000  0.361667  0.681089  1
  Ru  Ru34  1  0.000000  0.136226  0.176902  1
  Ru  Ru35  1  0.000000  0.862386  0.821330  1
