# generated using pymatgen
data_GdHo5(RuI3)2
_symmetry_space_group_name_H-M   'P 1'
_cell_length_a   4.21804800
_cell_length_b   8.91827446
_cell_length_c   12.34262600
_cell_angle_alpha   94.16947052
_cell_angle_beta   90.00000000
_cell_angle_gamma   90.00000000
_symmetry_Int_Tables_number   1
_chemical_formula_structural   GdHo5(RuI3)2
_chemical_formula_sum   'Gd1 Ho5 Ru2 I6'
_cell_volume   463.07248406
_cell_formula_units_Z   1
loop_
 _symmetry_equiv_pos_site_id
 _symmetry_equiv_pos_as_xyz
  1  'x, y, z'
loop_
 _atom_site_type_symbol
 _atom_site_label
 _atom_site_symmetry_multiplicity
 _atom_site_fract_x
 _atom_site_fract_y
 _atom_site_fract_z
 _atom_site_occupancy
  Gd  Gd0  1  0.750000  0.266815  0.603023  1
  Ho  Ho1  1  0.250000  0.739473  0.397450  1
  Ho  Ho2  1  0.750000  0.872424  0.624891  1
  Ho  Ho3  1  0.250000  0.127872  0.373454  1
  Ho  Ho4  1  0.750000  0.896455  0.186555  1
  Ho  Ho5  1  0.250000  0.099530  0.814077  1
  Ru  Ru6  1  0.750000  0.944779  0.407123  1
  Ru  Ru7  1  0.250000  0.056105  0.592072  1
  I  I8  1  0.750000  0.425012  0.364756  1
  I  I9  1  0.250000  0.580256  0.633706  1
  I  I10  1  0.750000  0.861013  0.890199  1
  I  I11  1  0.250000  0.134230  0.109112  1
  I  I12  1  0.750000  0.350847  0.867112  1
  I  I13  1  0.250000  0.645188  0.136470  1
