# generated using pymatgen
data_Yb2Gd3Ir2
_symmetry_space_group_name_H-M   'P 1'
_cell_length_a   6.52913767
_cell_length_b   7.35240817
_cell_length_c   8.55221050
_cell_angle_alpha   96.84020681
_cell_angle_beta   112.44040058
_cell_angle_gamma   90.00000516
_symmetry_Int_Tables_number   1
_chemical_formula_structural   Yb2Gd3Ir2
_chemical_formula_sum   'Yb4 Gd6 Ir4'
_cell_volume   376.29645573
_cell_formula_units_Z   2
loop_
 _symmetry_equiv_pos_site_id
 _symmetry_equiv_pos_as_xyz
  1  'x, y, z'
loop_
 _atom_site_type_symbol
 _atom_site_label
 _atom_site_symmetry_multiplicity
 _atom_site_fract_x
 _atom_site_fract_y
 _atom_site_fract_z
 _atom_site_occupancy
  Yb  Yb0  1  0.976165  0.919588  0.182883  1
  Yb  Yb1  1  0.793282  0.580412  0.817117  1
  Yb  Yb2  1  0.023835  0.080412  0.817117  1
  Yb  Yb3  1  0.206718  0.419588  0.182883  1
  Gd  Gd4  1  0.648893  0.817662  0.440332  1
  Gd  Gd5  1  0.208561  0.682338  0.559668  1
  Gd  Gd6  1  0.351107  0.182338  0.559668  1
  Gd  Gd7  1  0.791439  0.317662  0.440332  1
  Gd  Gd8  1  0.429222  0.750000  0.000000  1
  Gd  Gd9  1  0.570778  0.250000  0.000000  1
  Ir  Ir10  1  0.814039  0.573540  0.226949  1
  Ir  Ir11  1  0.587090  0.926460  0.773051  1
  Ir  Ir12  1  0.185962  0.426460  0.773051  1
  Ir  Ir13  1  0.412910  0.073540  0.226949  1
