# generated using pymatgen
data_Ce2Y3Os2
_symmetry_space_group_name_H-M   'P 1'
_cell_length_a   6.41781748
_cell_length_b   7.17489285
_cell_length_c   8.76321050
_cell_angle_alpha   95.84369948
_cell_angle_beta   111.48020016
_cell_angle_gamma   89.99999606
_symmetry_Int_Tables_number   1
_chemical_formula_structural   Ce2Y3Os2
_chemical_formula_sum   'Ce4 Y6 Os4'
_cell_volume   373.23962462
_cell_formula_units_Z   2
loop_
 _symmetry_equiv_pos_site_id
 _symmetry_equiv_pos_as_xyz
  1  'x, y, z'
loop_
 _atom_site_type_symbol
 _atom_site_label
 _atom_site_symmetry_multiplicity
 _atom_site_fract_x
 _atom_site_fract_y
 _atom_site_fract_z
 _atom_site_occupancy
  Ce  Ce0  1  0.985961  0.904947  0.187253  1
  Ce  Ce1  1  0.798708  0.595053  0.812747  1
  Ce  Ce2  1  0.014039  0.095053  0.812747  1
  Ce  Ce3  1  0.201292  0.404947  0.187253  1
  Y  Y4  1  0.642960  0.818772  0.432370  1
  Y  Y5  1  0.210589  0.681228  0.567630  1
  Y  Y6  1  0.357040  0.181228  0.567630  1
  Y  Y7  1  0.789411  0.318772  0.432370  1
  Y  Y8  1  0.424530  0.750000  0.000000  1
  Y  Y9  1  0.575470  0.250000  0.000000  1
  Os  Os10  1  0.845915  0.586722  0.220206  1
  Os  Os11  1  0.625710  0.913278  0.779794  1
  Os  Os12  1  0.154085  0.413278  0.779794  1
  Os  Os13  1  0.374290  0.086722  0.220206  1
