# generated using pymatgen
data_Rb4Li2HoTmAs4
_symmetry_space_group_name_H-M   'P 1'
_cell_length_a   10.58703908
_cell_length_b   10.58704033
_cell_length_c   6.81914700
_cell_angle_alpha   90.00000000
_cell_angle_beta   90.00000000
_cell_angle_gamma   99.69056310
_symmetry_Int_Tables_number   1
_chemical_formula_structural   Rb4Li2HoTmAs4
_chemical_formula_sum   'Rb8 Li4 Ho2 Tm2 As8'
_cell_volume   753.42086327
_cell_formula_units_Z   2
loop_
 _symmetry_equiv_pos_site_id
 _symmetry_equiv_pos_as_xyz
  1  'x, y, z'
loop_
 _atom_site_type_symbol
 _atom_site_label
 _atom_site_symmetry_multiplicity
 _atom_site_fract_x
 _atom_site_fract_y
 _atom_site_fract_z
 _atom_site_occupancy
  Rb  Rb0  1  0.568284  0.931716  0.750000  1
  Rb  Rb1  1  0.931716  0.568284  0.250000  1
  Rb  Rb2  1  0.432288  0.067712  0.250000  1
  Rb  Rb3  1  0.067712  0.432288  0.750000  1
  Rb  Rb4  1  0.678150  0.322327  0.787435  1
  Rb  Rb5  1  0.821850  0.177673  0.287435  1
  Rb  Rb6  1  0.322327  0.678150  0.212565  1
  Rb  Rb7  1  0.177673  0.821850  0.712565  1
  Li  Li8  1  0.618773  0.618773  0.000000  1
  Li  Li9  1  0.881227  0.881227  0.500000  1
  Li  Li10  1  0.382084  0.382084  0.000000  1
  Li  Li11  1  0.117916  0.117916  0.500000  1
  Ho  Ho12  1  0.131337  0.131337  0.000000  1
  Ho  Ho13  1  0.368663  0.368663  0.500000  1
  Tm  Tm14  1  0.867822  0.867822  0.000000  1
  Tm  Tm15  1  0.632178  0.632178  0.500000  1
  As  As16  1  0.343156  0.156844  0.750000  1
  As  As17  1  0.156844  0.343156  0.250000  1
  As  As18  1  0.658627  0.841373  0.250000  1
  As  As19  1  0.841373  0.658627  0.750000  1
  As  As20  1  0.908964  0.088636  0.765869  1
  As  As21  1  0.591036  0.411364  0.265869  1
  As  As22  1  0.088636  0.908964  0.234131  1
  As  As23  1  0.411364  0.591036  0.734131  1
