# generated using pymatgen
data_Pr4Zn3GaPd4
_symmetry_space_group_name_H-M   'P 1'
_cell_length_a   4.55276100
_cell_length_b   7.17880060
_cell_length_c   7.88538002
_cell_angle_alpha   90.17531171
_cell_angle_beta   90.00000000
_cell_angle_gamma   90.00000000
_symmetry_Int_Tables_number   1
_chemical_formula_structural   Pr4Zn3GaPd4
_chemical_formula_sum   'Pr4 Zn3 Ga1 Pd4'
_cell_volume   257.71953406
_cell_formula_units_Z   1
loop_
 _symmetry_equiv_pos_site_id
 _symmetry_equiv_pos_as_xyz
  1  'x, y, z'
loop_
 _atom_site_type_symbol
 _atom_site_label
 _atom_site_symmetry_multiplicity
 _atom_site_fract_x
 _atom_site_fract_y
 _atom_site_fract_z
 _atom_site_occupancy
  Pr  Pr0  1  0.250000  0.021487  0.696616  1
  Pr  Pr1  1  0.250000  0.522562  0.801820  1
  Pr  Pr2  1  0.750000  0.980270  0.304295  1
  Pr  Pr3  1  0.750000  0.476239  0.196900  1
  Zn  Zn4  1  0.250000  0.165171  0.076817  1
  Zn  Zn5  1  0.250000  0.670654  0.423727  1
  Zn  Zn6  1  0.750000  0.836765  0.925114  1
  Ga  Ga7  1  0.750000  0.329702  0.573784  1
  Pd  Pd8  1  0.250000  0.282243  0.404795  1
  Pd  Pd9  1  0.250000  0.778555  0.099549  1
  Pd  Pd10  1  0.750000  0.713254  0.598138  1
  Pd  Pd11  1  0.750000  0.223097  0.898444  1
