# generated using pymatgen
data_Sc16In6FeRh
_symmetry_space_group_name_H-M   'P 1'
_cell_length_a   9.78852701
_cell_length_b   9.78875131
_cell_length_c   6.47224700
_cell_angle_alpha   90.00032218
_cell_angle_beta   90.00048487
_cell_angle_gamma   119.99915475
_symmetry_Int_Tables_number   1
_chemical_formula_structural   Sc16In6FeRh
_chemical_formula_sum   'Sc16 In6 Fe1 Rh1'
_cell_volume   537.07390541
_cell_formula_units_Z   1
loop_
 _symmetry_equiv_pos_site_id
 _symmetry_equiv_pos_as_xyz
  1  'x, y, z'
loop_
 _atom_site_type_symbol
 _atom_site_label
 _atom_site_symmetry_multiplicity
 _atom_site_fract_x
 _atom_site_fract_y
 _atom_site_fract_z
 _atom_site_occupancy
  Sc  Sc0  1  0.526366  0.052731  0.521250  1
  Sc  Sc1  1  0.947260  0.473622  0.521255  1
  Sc  Sc2  1  0.526366  0.473615  0.521248  1
  Sc  Sc3  1  0.468476  0.936947  0.019785  1
  Sc  Sc4  1  0.063085  0.531544  0.019805  1
  Sc  Sc5  1  0.468457  0.531557  0.019797  1
  Sc  Sc6  1  0.180713  0.361426  0.736382  1
  Sc  Sc7  1  0.638582  0.819289  0.736317  1
  Sc  Sc8  1  0.180707  0.819287  0.736336  1
  Sc  Sc9  1  0.822262  0.644525  0.233061  1
  Sc  Sc10  1  0.355454  0.177734  0.233071  1
  Sc  Sc11  1  0.822285  0.177737  0.233084  1
  Sc  Sc12  1  0.666664  0.333326  0.896257  1
  Sc  Sc13  1  0.333339  0.666683  0.409374  1
  Sc  Sc14  1  0.000002  0.999996  0.510849  1
  Sc  Sc15  1  0.999994  0.999991  0.010488  1
  In  In16  1  0.837539  0.675080  0.763675  1
  In  In17  1  0.324901  0.162445  0.763675  1
  In  In18  1  0.837546  0.162442  0.763684  1
  In  In19  1  0.163274  0.326545  0.266911  1
  In  In20  1  0.673464  0.836735  0.266754  1
  In  In21  1  0.163263  0.836732  0.266751  1
  Fe  Fe22  1  0.333336  0.666682  0.802644  1
  Rh  Rh23  1  0.666667  0.333327  0.303230  1
