# generated using pymatgen
data_Pr20AgRh15
_symmetry_space_group_name_H-M   'P 1'
_cell_length_a   7.71821125
_cell_length_b   7.76182520
_cell_length_c   15.17111900
_cell_angle_alpha   90.00000000
_cell_angle_beta   90.00000000
_cell_angle_gamma   90.25835550
_symmetry_Int_Tables_number   1
_chemical_formula_structural   Pr20AgRh15
_chemical_formula_sum   'Pr20 Ag1 Rh15'
_cell_volume   908.85315513
_cell_formula_units_Z   1
loop_
 _symmetry_equiv_pos_site_id
 _symmetry_equiv_pos_as_xyz
  1  'x, y, z'
loop_
 _atom_site_type_symbol
 _atom_site_label
 _atom_site_symmetry_multiplicity
 _atom_site_fract_x
 _atom_site_fract_y
 _atom_site_fract_z
 _atom_site_occupancy
  Pr  Pr0  1  0.672816  0.157856  0.619191  1
  Pr  Pr1  1  0.153698  0.332482  0.883671  1
  Pr  Pr2  1  0.335666  0.834525  0.122758  1
  Pr  Pr3  1  0.836035  0.665021  0.376704  1
  Pr  Pr4  1  0.335666  0.834525  0.377242  1
  Pr  Pr5  1  0.836035  0.665021  0.123296  1
  Pr  Pr6  1  0.672816  0.157856  0.880809  1
  Pr  Pr7  1  0.153698  0.332482  0.616329  1
  Pr  Pr8  1  0.520601  0.692659  0.587586  1
  Pr  Pr9  1  0.020315  0.815558  0.910684  1
  Pr  Pr10  1  0.484535  0.318174  0.091958  1
  Pr  Pr11  1  0.985553  0.180325  0.402161  1
  Pr  Pr12  1  0.484535  0.318174  0.408042  1
  Pr  Pr13  1  0.985553  0.180325  0.097839  1
  Pr  Pr14  1  0.520601  0.692659  0.912414  1
  Pr  Pr15  1  0.020315  0.815558  0.589316  1
  Pr  Pr16  1  0.837366  0.515093  0.750000  1
  Pr  Pr17  1  0.321251  0.986092  0.750000  1
  Pr  Pr18  1  0.176497  0.490810  0.250000  1
  Pr  Pr19  1  0.673151  0.008544  0.250000  1
  Ag  Ag20  1  0.454631  0.407937  0.750000  1
  Rh  Rh21  1  0.678493  0.967709  0.456070  1
  Rh  Rh22  1  0.172447  0.530459  0.044548  1
  Rh  Rh23  1  0.325271  0.033229  0.957955  1
  Rh  Rh24  1  0.819925  0.468811  0.542038  1
  Rh  Rh25  1  0.325271  0.033229  0.542045  1
  Rh  Rh26  1  0.819925  0.468811  0.957962  1
  Rh  Rh27  1  0.678493  0.967709  0.043930  1
  Rh  Rh28  1  0.172447  0.530459  0.455452  1
  Rh  Rh29  1  0.957620  0.100201  0.750000  1
  Rh  Rh30  1  0.539229  0.596335  0.250000  1
  Rh  Rh31  1  0.041706  0.901977  0.250000  1
  Rh  Rh32  1  0.690832  0.853526  0.750000  1
  Rh  Rh33  1  0.191417  0.644691  0.750000  1
  Rh  Rh34  1  0.307256  0.147179  0.250000  1
  Rh  Rh35  1  0.798338  0.353998  0.250000  1
