# generated using pymatgen
data_YSc(NbS2)8
_symmetry_space_group_name_H-M   'P 1'
_cell_length_a   6.67961600
_cell_length_b   6.67961724
_cell_length_c   13.22738300
_cell_angle_alpha   90.00000000
_cell_angle_beta   90.00000000
_cell_angle_gamma   120.00000376
_symmetry_Int_Tables_number   1
_chemical_formula_structural   YSc(NbS2)8
_chemical_formula_sum   'Y1 Sc1 Nb8 S16'
_cell_volume   511.10204356
_cell_formula_units_Z   1
loop_
 _symmetry_equiv_pos_site_id
 _symmetry_equiv_pos_as_xyz
  1  'x, y, z'
loop_
 _atom_site_type_symbol
 _atom_site_label
 _atom_site_symmetry_multiplicity
 _atom_site_fract_x
 _atom_site_fract_y
 _atom_site_fract_z
 _atom_site_occupancy
  Y  Y0  1  0.000000  0.000000  0.000000  1
  Sc  Sc1  1  0.000000  0.000000  0.500000  1
  Nb  Nb2  1  0.000000  0.000000  0.257766  1
  Nb  Nb3  1  0.000000  0.000000  0.742234  1
  Nb  Nb4  1  0.504960  0.009919  0.257878  1
  Nb  Nb5  1  0.495040  0.990081  0.742122  1
  Nb  Nb6  1  0.990081  0.495040  0.257878  1
  Nb  Nb7  1  0.009919  0.504960  0.742122  1
  Nb  Nb8  1  0.504960  0.495040  0.257878  1
  Nb  Nb9  1  0.495040  0.504960  0.742122  1
  S  S10  1  0.333333  0.666667  0.621078  1
  S  S11  1  0.666667  0.333333  0.378922  1
  S  S12  1  0.666667  0.333333  0.135476  1
  S  S13  1  0.333333  0.666667  0.864524  1
  S  S14  1  0.169426  0.338851  0.139397  1
  S  S15  1  0.830574  0.661149  0.860603  1
  S  S16  1  0.661149  0.830574  0.139397  1
  S  S17  1  0.831098  0.662195  0.623550  1
  S  S18  1  0.338851  0.169426  0.860603  1
  S  S19  1  0.168902  0.337805  0.376450  1
  S  S20  1  0.169426  0.830574  0.139397  1
  S  S21  1  0.337805  0.168902  0.623550  1
  S  S22  1  0.830574  0.169426  0.860603  1
  S  S23  1  0.662195  0.831098  0.376450  1
  S  S24  1  0.831098  0.168902  0.623550  1
  S  S25  1  0.168902  0.831098  0.376450  1
