# generated using pymatgen
data_Pr16Cd4CoOs3
_symmetry_space_group_name_H-M   'P 1'
_cell_length_a   9.96215908
_cell_length_b   9.96215954
_cell_length_c   9.96215823
_cell_angle_alpha   60.47259908
_cell_angle_beta   60.47259842
_cell_angle_gamma   60.47259769
_symmetry_Int_Tables_number   1
_chemical_formula_structural   Pr16Cd4CoOs3
_chemical_formula_sum   'Pr16 Cd4 Co1 Os3'
_cell_volume   706.57811844
_cell_formula_units_Z   1
loop_
 _symmetry_equiv_pos_site_id
 _symmetry_equiv_pos_as_xyz
  1  'x, y, z'
loop_
 _atom_site_type_symbol
 _atom_site_label
 _atom_site_symmetry_multiplicity
 _atom_site_fract_x
 _atom_site_fract_y
 _atom_site_fract_z
 _atom_site_occupancy
  Pr  Pr0  1  0.345195  0.345195  0.345195  1
  Pr  Pr1  1  0.343882  0.343882  0.961065  1
  Pr  Pr2  1  0.343882  0.961065  0.343882  1
  Pr  Pr3  1  0.961065  0.343882  0.343882  1
  Pr  Pr4  1  0.811772  0.191310  0.191310  1
  Pr  Pr5  1  0.192698  0.809604  0.809604  1
  Pr  Pr6  1  0.191310  0.811772  0.191310  1
  Pr  Pr7  1  0.809604  0.192698  0.809604  1
  Pr  Pr8  1  0.191310  0.191310  0.811772  1
  Pr  Pr9  1  0.809604  0.809604  0.192698  1
  Pr  Pr10  1  0.940542  0.559782  0.559782  1
  Pr  Pr11  1  0.564169  0.940382  0.940382  1
  Pr  Pr12  1  0.559782  0.940542  0.559782  1
  Pr  Pr13  1  0.940382  0.564169  0.940382  1
  Pr  Pr14  1  0.559782  0.559782  0.940542  1
  Pr  Pr15  1  0.940382  0.940382  0.564169  1
  Cd  Cd16  1  0.578648  0.578648  0.578648  1
  Cd  Cd17  1  0.579276  0.579276  0.262723  1
  Cd  Cd18  1  0.579276  0.262723  0.579276  1
  Cd  Cd19  1  0.262723  0.579276  0.579276  1
  Co  Co20  1  0.138210  0.138210  0.138210  1
  Os  Os21  1  0.136496  0.136496  0.583514  1
  Os  Os22  1  0.136496  0.583514  0.136496  1
  Os  Os23  1  0.583514  0.136496  0.136496  1
