# generated using pymatgen
data_Pr2Nd2ZnPt3
_symmetry_space_group_name_H-M   'P 1'
_cell_length_a   4.61024800
_cell_length_b   5.81396711
_cell_length_c   7.50111626
_cell_angle_alpha   89.82026175
_cell_angle_beta   90.00000000
_cell_angle_gamma   90.00000000
_symmetry_Int_Tables_number   1
_chemical_formula_structural   Pr2Nd2ZnPt3
_chemical_formula_sum   'Pr2 Nd2 Zn1 Pt3'
_cell_volume   201.05765746
_cell_formula_units_Z   1
loop_
 _symmetry_equiv_pos_site_id
 _symmetry_equiv_pos_as_xyz
  1  'x, y, z'
loop_
 _atom_site_type_symbol
 _atom_site_label
 _atom_site_symmetry_multiplicity
 _atom_site_fract_x
 _atom_site_fract_y
 _atom_site_fract_z
 _atom_site_occupancy
  Pr  Pr0  1  0.250000  0.362523  0.689249  1
  Pr  Pr1  1  0.750000  0.628932  0.306554  1
  Nd  Nd2  1  0.250000  0.146804  0.177582  1
  Nd  Nd3  1  0.750000  0.863759  0.829146  1
  Zn  Zn4  1  0.250000  0.870923  0.533495  1
  Pt  Pt5  1  0.250000  0.664738  0.042236  1
  Pt  Pt6  1  0.750000  0.115317  0.466086  1
  Pt  Pt7  1  0.750000  0.347004  0.955650  1
