# generated using pymatgen
data_Tb2DyTmNi13C4
_symmetry_space_group_name_H-M   'P 1'
_cell_length_a   3.85051700
_cell_length_b   8.38358231
_cell_length_c   8.38358339
_cell_angle_alpha   91.06500578
_cell_angle_beta   90.00000000
_cell_angle_gamma   90.00000000
_symmetry_Int_Tables_number   1
_chemical_formula_structural   Tb2DyTmNi13C4
_chemical_formula_sum   'Tb2 Dy1 Tm1 Ni13 C4'
_cell_volume   270.58476194
_cell_formula_units_Z   1
loop_
 _symmetry_equiv_pos_site_id
 _symmetry_equiv_pos_as_xyz
  1  'x, y, z'
loop_
 _atom_site_type_symbol
 _atom_site_label
 _atom_site_symmetry_multiplicity
 _atom_site_fract_x
 _atom_site_fract_y
 _atom_site_fract_z
 _atom_site_occupancy
  Tb  Tb0  1  0.500000  0.652185  0.651032  1
  Tb  Tb1  1  0.500000  0.348968  0.347815  1
  Dy  Dy2  1  0.500000  0.186748  0.813252  1
  Tm  Tm3  1  0.500000  0.812802  0.187198  1
  Ni  Ni4  1  0.500000  0.000242  0.496718  1
  Ni  Ni5  1  0.500000  0.503282  0.999758  1
  Ni  Ni6  1  0.000000  0.998559  0.001441  1
  Ni  Ni7  1  0.000000  0.785399  0.428641  1
  Ni  Ni8  1  0.000000  0.215525  0.569465  1
  Ni  Ni9  1  0.000000  0.571359  0.214601  1
  Ni  Ni10  1  0.000000  0.430535  0.784475  1
  Ni  Ni11  1  0.000000  0.925975  0.709574  1
  Ni  Ni12  1  0.000000  0.071683  0.291124  1
  Ni  Ni13  1  0.000000  0.290426  0.074025  1
  Ni  Ni14  1  0.000000  0.708876  0.928317  1
  Ni  Ni15  1  0.500000  0.875964  0.878330  1
  Ni  Ni16  1  0.500000  0.121670  0.124036  1
  C  C17  1  0.000000  0.557596  0.442404  1
  C  C18  1  0.000000  0.443526  0.556474  1
  C  C19  1  0.000000  0.999859  0.501182  1
  C  C20  1  0.000000  0.498818  0.000141  1
