# generated using pymatgen
data_CeNdP7Ru12
_symmetry_space_group_name_H-M   'P 1'
_cell_length_a   9.47877600
_cell_length_b   9.47877430
_cell_length_c   3.95958000
_cell_angle_alpha   90.00000000
_cell_angle_beta   90.00000000
_cell_angle_gamma   119.99999803
_symmetry_Int_Tables_number   1
_chemical_formula_structural   CeNdP7Ru12
_chemical_formula_sum   'Ce1 Nd1 P7 Ru12'
_cell_volume   308.09468387
_cell_formula_units_Z   1
loop_
 _symmetry_equiv_pos_site_id
 _symmetry_equiv_pos_as_xyz
  1  'x, y, z'
loop_
 _atom_site_type_symbol
 _atom_site_label
 _atom_site_symmetry_multiplicity
 _atom_site_fract_x
 _atom_site_fract_y
 _atom_site_fract_z
 _atom_site_occupancy
  Ce  Ce0  1  0.666667  0.333333  0.500000  1
  Nd  Nd1  1  0.333333  0.666667  0.000000  1
  P  P2  1  0.604294  0.717588  0.500000  1
  P  P3  1  0.000000  0.000000  0.000000  1
  P  P4  1  0.282412  0.886706  0.500000  1
  P  P5  1  0.113294  0.395706  0.500000  1
  P  P6  1  0.890082  0.576746  0.000000  1
  P  P7  1  0.423254  0.313336  0.000000  1
  P  P8  1  0.686664  0.109918  0.000000  1
  Ru  Ru9  1  0.559958  0.953782  0.500000  1
  Ru  Ru10  1  0.393826  0.440042  0.500000  1
  Ru  Ru11  1  0.913558  0.120490  0.500000  1
  Ru  Ru12  1  0.206932  0.086442  0.500000  1
  Ru  Ru13  1  0.879510  0.793068  0.500000  1
  Ru  Ru14  1  0.729079  0.891265  0.000000  1
  Ru  Ru15  1  0.108735  0.837813  0.000000  1
  Ru  Ru16  1  0.162187  0.270921  0.000000  1
  Ru  Ru17  1  0.423938  0.069229  0.000000  1
  Ru  Ru18  1  0.930771  0.354711  0.000000  1
  Ru  Ru19  1  0.645289  0.576062  0.000000  1
  Ru  Ru20  1  0.046218  0.606174  0.500000  1
