# generated using pymatgen
data_Ho8TmMg(Ni2Bi)2
_symmetry_space_group_name_H-M   'P 1'
_cell_length_a   8.74791996
_cell_length_b   8.74791994
_cell_length_c   8.74792022
_cell_angle_alpha   129.32261863
_cell_angle_beta   129.32262631
_cell_angle_gamma   74.49200804
_symmetry_Int_Tables_number   1
_chemical_formula_structural   Ho8TmMg(Ni2Bi)2
_chemical_formula_sum   'Ho8 Tm1 Mg1 Ni4 Bi2'
_cell_volume   390.42236439
_cell_formula_units_Z   1
loop_
 _symmetry_equiv_pos_site_id
 _symmetry_equiv_pos_as_xyz
  1  'x, y, z'
loop_
 _atom_site_type_symbol
 _atom_site_label
 _atom_site_symmetry_multiplicity
 _atom_site_fract_x
 _atom_site_fract_y
 _atom_site_fract_z
 _atom_site_occupancy
  Ho  Ho0  1  0.042155  0.524464  0.824181  1
  Ho  Ho1  1  0.700283  0.217975  0.175819  1
  Ho  Ho2  1  0.524464  0.700283  0.482309  1
  Ho  Ho3  1  0.217975  0.042155  0.517691  1
  Ho  Ho4  1  0.957845  0.475536  0.175819  1
  Ho  Ho5  1  0.299717  0.782025  0.824181  1
  Ho  Ho6  1  0.475536  0.299717  0.517691  1
  Ho  Ho7  1  0.782025  0.957845  0.482309  1
  Tm  Tm8  1  0.000000  0.000000  0.000000  1
  Mg  Mg9  1  0.500000  0.500000  0.000000  1
  Ni  Ni10  1  0.368646  0.875944  0.244588  1
  Ni  Ni11  1  0.631354  0.124056  0.755412  1
  Ni  Ni12  1  0.875944  0.631354  0.507297  1
  Ni  Ni13  1  0.124056  0.368646  0.492703  1
  Bi  Bi14  1  0.759515  0.759515  0.000000  1
  Bi  Bi15  1  0.240485  0.240485  0.000000  1
