# generated using pymatgen
data_Nd12Os2PdAu
_symmetry_space_group_name_H-M   'P 1'
_cell_length_a   6.57804414
_cell_length_b   7.47726426
_cell_length_c   9.87071100
_cell_angle_alpha   90.00000000
_cell_angle_beta   90.00000000
_cell_angle_gamma   90.35626830
_symmetry_Int_Tables_number   1
_chemical_formula_structural   Nd12Os2PdAu
_chemical_formula_sum   'Nd12 Os2 Pd1 Au1'
_cell_volume   485.48917762
_cell_formula_units_Z   1
loop_
 _symmetry_equiv_pos_site_id
 _symmetry_equiv_pos_as_xyz
  1  'x, y, z'
loop_
 _atom_site_type_symbol
 _atom_site_label
 _atom_site_symmetry_multiplicity
 _atom_site_fract_x
 _atom_site_fract_y
 _atom_site_fract_z
 _atom_site_occupancy
  Nd  Nd0  1  0.339043  0.670380  0.060491  1
  Nd  Nd1  1  0.174208  0.188669  0.438247  1
  Nd  Nd2  1  0.665398  0.326505  0.562598  1
  Nd  Nd3  1  0.827431  0.816844  0.933838  1
  Nd  Nd4  1  0.665398  0.326505  0.937402  1
  Nd  Nd5  1  0.827431  0.816844  0.566162  1
  Nd  Nd6  1  0.339043  0.670380  0.439509  1
  Nd  Nd7  1  0.174208  0.188669  0.061753  1
  Nd  Nd8  1  0.855430  0.518529  0.250000  1
  Nd  Nd9  1  0.622786  0.042538  0.250000  1
  Nd  Nd10  1  0.142977  0.475633  0.750000  1
  Nd  Nd11  1  0.368750  0.955819  0.750000  1
  Os  Os12  1  0.436080  0.382772  0.250000  1
  Os  Os13  1  0.561843  0.617037  0.750000  1
  Pd  Pd14  1  0.939312  0.117501  0.750000  1
  Au  Au15  1  0.060664  0.885377  0.250000  1
