# generated using pymatgen
data_Yb3Zr3(NpH12)2
_symmetry_space_group_name_H-M   'P 1'
_cell_length_a   6.30935700
_cell_length_b   6.37169200
_cell_length_c   6.30748500
_cell_angle_alpha   90.00000000
_cell_angle_beta   90.00000000
_cell_angle_gamma   90.00000000
_symmetry_Int_Tables_number   1
_chemical_formula_structural   Yb3Zr3(NpH12)2
_chemical_formula_sum   'Yb3 Zr3 Np2 H24'
_cell_volume   253.56896757
_cell_formula_units_Z   1
loop_
 _symmetry_equiv_pos_site_id
 _symmetry_equiv_pos_as_xyz
  1  'x, y, z'
loop_
 _atom_site_type_symbol
 _atom_site_label
 _atom_site_symmetry_multiplicity
 _atom_site_fract_x
 _atom_site_fract_y
 _atom_site_fract_z
 _atom_site_occupancy
  Yb  Yb0  1  0.000000  0.500628  0.246142  1
  Yb  Yb1  1  0.000000  0.500628  0.753858  1
  Yb  Yb2  1  0.500000  0.752218  0.000000  1
  Zr  Zr3  1  0.000000  0.999688  0.000000  1
  Zr  Zr4  1  0.500000  0.496705  0.500000  1
  Zr  Zr5  1  0.500000  0.261504  0.000000  1
  Np  Np6  1  0.250028  0.999589  0.500000  1
  Np  Np7  1  0.749972  0.999589  0.500000  1
  H  H8  1  0.000000  0.151694  0.300536  1
  H  H9  1  0.500000  0.204746  0.663744  1
  H  H10  1  0.500000  0.791111  0.348551  1
  H  H11  1  0.784045  0.655830  0.500000  1
  H  H12  1  0.215955  0.655830  0.500000  1
  H  H13  1  0.351783  0.480260  0.804413  1
  H  H14  1  0.648217  0.480260  0.804413  1
  H  H15  1  0.297849  0.015484  0.151600  1
  H  H16  1  0.166767  0.286968  0.000000  1
  H  H17  1  0.846797  0.721414  0.000000  1
  H  H18  1  0.297849  0.015484  0.848400  1
  H  H19  1  0.833233  0.286968  0.000000  1
  H  H20  1  0.702151  0.015484  0.151600  1
  H  H21  1  0.702151  0.015484  0.848400  1
  H  H22  1  0.153203  0.721414  0.000000  1
  H  H23  1  0.000000  0.849700  0.700949  1
  H  H24  1  0.000000  0.151694  0.699464  1
  H  H25  1  0.000000  0.849700  0.299051  1
  H  H26  1  0.648217  0.480260  0.195587  1
  H  H27  1  0.351783  0.480260  0.195587  1
  H  H28  1  0.784669  0.341773  0.500000  1
  H  H29  1  0.215331  0.341773  0.500000  1
  H  H30  1  0.500000  0.791111  0.651449  1
  H  H31  1  0.500000  0.204746  0.336256  1
