# generated using pymatgen
data_TbYb7(Sc3Sn4)4
_symmetry_space_group_name_H-M   'P 1'
_cell_length_a   7.64001165
_cell_length_b   8.06894206
_cell_length_c   15.07720500
_cell_angle_alpha   89.96376472
_cell_angle_beta   89.93030022
_cell_angle_gamma   90.22537768
_symmetry_Int_Tables_number   1
_chemical_formula_structural   TbYb7(Sc3Sn4)4
_chemical_formula_sum   'Tb1 Yb7 Sc12 Sn16'
_cell_volume   929.45354576
_cell_formula_units_Z   1
loop_
 _symmetry_equiv_pos_site_id
 _symmetry_equiv_pos_as_xyz
  1  'x, y, z'
loop_
 _atom_site_type_symbol
 _atom_site_label
 _atom_site_symmetry_multiplicity
 _atom_site_fract_x
 _atom_site_fract_y
 _atom_site_fract_z
 _atom_site_occupancy
  Tb  Tb0  1  0.501915  0.681200  0.594463  1
  Yb  Yb1  1  0.996304  0.178802  0.091438  1
  Yb  Yb2  1  0.004138  0.821807  0.906948  1
  Yb  Yb3  1  0.504842  0.678046  0.907456  1
  Yb  Yb4  1  0.004654  0.821641  0.592085  1
  Yb  Yb5  1  0.496323  0.321109  0.091283  1
  Yb  Yb6  1  0.996423  0.179905  0.409282  1
  Yb  Yb7  1  0.496606  0.320725  0.408899  1
  Sc  Sc8  1  0.162445  0.500262  0.750404  1
  Sc  Sc9  1  0.836943  0.499074  0.249962  1
  Sc  Sc10  1  0.337789  0.000601  0.249687  1
  Sc  Sc11  1  0.663090  0.999489  0.749719  1
  Sc  Sc12  1  0.328573  0.158379  0.626071  1
  Sc  Sc13  1  0.669912  0.841324  0.374057  1
  Sc  Sc14  1  0.170999  0.658431  0.374693  1
  Sc  Sc15  1  0.670933  0.841564  0.125439  1
  Sc  Sc16  1  0.829945  0.341216  0.626051  1
  Sc  Sc17  1  0.327817  0.158696  0.872874  1
  Sc  Sc18  1  0.829338  0.340192  0.873191  1
  Sc  Sc19  1  0.170312  0.658860  0.125459  1
  Sn  Sn20  1  0.023125  0.129164  0.749016  1
  Sn  Sn21  1  0.976332  0.871039  0.250374  1
  Sn  Sn22  1  0.475484  0.627595  0.249651  1
  Sn  Sn23  1  0.523248  0.374046  0.748915  1
  Sn  Sn24  1  0.304130  0.852626  0.749716  1
  Sn  Sn25  1  0.700036  0.144099  0.250333  1
  Sn  Sn26  1  0.199267  0.356090  0.250564  1
  Sn  Sn27  1  0.801349  0.644739  0.748477  1
  Sn  Sn28  1  0.174593  0.459671  0.544878  1
  Sn  Sn29  1  0.823714  0.544501  0.457942  1
  Sn  Sn30  1  0.328697  0.955979  0.457930  1
  Sn  Sn31  1  0.828284  0.542283  0.043408  1
  Sn  Sn32  1  0.671833  0.038410  0.544852  1
  Sn  Sn33  1  0.171681  0.458462  0.955703  1
  Sn  Sn34  1  0.670751  0.041370  0.955327  1
  Sn  Sn35  1  0.328175  0.958605  0.043451  1
