# generated using pymatgen
data_Lu8Th4Fe3Co
_symmetry_space_group_name_H-M   'P 1'
_cell_length_a   6.17769099
_cell_length_b   6.92135100
_cell_length_c   9.35038900
_cell_angle_alpha   90.00000000
_cell_angle_beta   90.00000000
_cell_angle_gamma   89.96663618
_symmetry_Int_Tables_number   1
_chemical_formula_structural   Lu8Th4Fe3Co
_chemical_formula_sum   'Lu8 Th4 Fe3 Co1'
_cell_volume   399.80356303
_cell_formula_units_Z   1
loop_
 _symmetry_equiv_pos_site_id
 _symmetry_equiv_pos_as_xyz
  1  'x, y, z'
loop_
 _atom_site_type_symbol
 _atom_site_label
 _atom_site_symmetry_multiplicity
 _atom_site_fract_x
 _atom_site_fract_y
 _atom_site_fract_z
 _atom_site_occupancy
  Lu  Lu0  1  0.326689  0.669997  0.069952  1
  Lu  Lu1  1  0.170280  0.171137  0.430408  1
  Lu  Lu2  1  0.670107  0.329606  0.568623  1
  Lu  Lu3  1  0.830449  0.830014  0.930440  1
  Lu  Lu4  1  0.670107  0.329606  0.931377  1
  Lu  Lu5  1  0.830449  0.830014  0.569560  1
  Lu  Lu6  1  0.326689  0.669997  0.430048  1
  Lu  Lu7  1  0.170280  0.171137  0.069592  1
  Th  Th8  1  0.847840  0.557545  0.250000  1
  Th  Th9  1  0.647099  0.053511  0.250000  1
  Th  Th10  1  0.153074  0.441884  0.750000  1
  Th  Th11  1  0.346826  0.949910  0.750000  1
  Fe  Fe12  1  0.023405  0.866810  0.250000  1
  Fe  Fe13  1  0.478281  0.367070  0.250000  1
  Fe  Fe14  1  0.974012  0.132949  0.750000  1
  Co  Co15  1  0.534414  0.628812  0.750000  1
