# generated using pymatgen
data_Ce6Er2Ti11Si16Ag
_symmetry_space_group_name_H-M   'P 1'
_cell_length_a   7.11237294
_cell_length_b   7.10015250
_cell_length_c   13.05510209
_cell_angle_alpha   90.17345881
_cell_angle_beta   89.83787451
_cell_angle_gamma   89.96147033
_symmetry_Int_Tables_number   1
_chemical_formula_structural   Ce6Er2Ti11Si16Ag
_chemical_formula_sum   'Ce6 Er2 Ti11 Si16 Ag1'
_cell_volume   659.26290605
_cell_formula_units_Z   1
loop_
 _symmetry_equiv_pos_site_id
 _symmetry_equiv_pos_as_xyz
  1  'x, y, z'
loop_
 _atom_site_type_symbol
 _atom_site_label
 _atom_site_symmetry_multiplicity
 _atom_site_fract_x
 _atom_site_fract_y
 _atom_site_fract_z
 _atom_site_occupancy
  Ce  Ce0  1  0.339377  0.001439  0.467343  1
  Ce  Ce1  1  0.488704  0.833078  0.717086  1
  Ce  Ce2  1  0.508715  0.164272  0.215178  1
  Ce  Ce3  1  0.835809  0.490007  0.283028  1
  Ce  Ce4  1  0.163692  0.509240  0.782796  1
  Ce  Ce5  1  0.658990  0.002475  0.968459  1
  Er  Er6  1  0.000299  0.338397  0.532084  1
  Er  Er7  1  0.002986  0.659624  0.031631  1
  Ti  Ti8  1  0.174310  0.826461  0.251504  1
  Ti  Ti9  1  0.825188  0.172843  0.750801  1
  Ti  Ti10  1  0.669027  0.672737  0.499755  1
  Ti  Ti11  1  0.151142  0.010972  0.878677  1
  Ti  Ti12  1  0.497818  0.653738  0.124049  1
  Ti  Ti13  1  0.503933  0.344330  0.624140  1
  Ti  Ti14  1  0.653880  0.498696  0.875780  1
  Ti  Ti15  1  0.347242  0.503077  0.374884  1
  Ti  Ti16  1  0.846810  0.988613  0.376285  1
  Ti  Ti17  1  0.009709  0.152823  0.121194  1
  Ti  Ti18  1  0.992189  0.844222  0.624532  1
  Si  Si19  1  0.196326  0.131500  0.686310  1
  Si  Si20  1  0.372746  0.717341  0.933698  1
  Si  Si21  1  0.630772  0.294666  0.437167  1
  Si  Si22  1  0.721555  0.379948  0.067124  1
  Si  Si23  1  0.293840  0.625128  0.563084  1
  Si  Si24  1  0.803379  0.868250  0.184923  1
  Si  Si25  1  0.130795  0.198619  0.313739  1
  Si  Si26  1  0.869109  0.801303  0.815352  1
  Si  Si27  1  0.286137  0.938883  0.069139  1
  Si  Si28  1  0.545341  0.788506  0.314218  1
  Si  Si29  1  0.457562  0.209814  0.808867  1
  Si  Si30  1  0.790227  0.541807  0.684341  1
  Si  Si31  1  0.208166  0.458920  0.190151  1
  Si  Si32  1  0.710845  0.043986  0.566636  1
  Si  Si33  1  0.943193  0.293320  0.932149  1
  Si  Si34  1  0.044308  0.705440  0.435156  1
  Ag  Ag35  1  0.325878  0.335524  0.998742  1
