# generated using pymatgen
data_Sm5Nb3Fe3Co13P12
_symmetry_space_group_name_H-M   'P 1'
_cell_length_a   12.27151300
_cell_length_b   12.27151275
_cell_length_c   3.74352500
_cell_angle_alpha   90.00000000
_cell_angle_beta   90.00000000
_cell_angle_gamma   119.99999798
_symmetry_Int_Tables_number   1
_chemical_formula_structural   Sm5Nb3Fe3Co13P12
_chemical_formula_sum   'Sm5 Nb3 Fe3 Co13 P12'
_cell_volume   488.21103669
_cell_formula_units_Z   1
loop_
 _symmetry_equiv_pos_site_id
 _symmetry_equiv_pos_as_xyz
  1  'x, y, z'
loop_
 _atom_site_type_symbol
 _atom_site_label
 _atom_site_symmetry_multiplicity
 _atom_site_fract_x
 _atom_site_fract_y
 _atom_site_fract_z
 _atom_site_occupancy
  Sm  Sm0  1  0.816780  0.000000  0.500000  1
  Sm  Sm1  1  0.000000  0.816780  0.500000  1
  Sm  Sm2  1  0.183220  0.183220  0.500000  1
  Sm  Sm3  1  0.333333  0.666667  0.000000  1
  Sm  Sm4  1  0.666667  0.333333  0.000000  1
  Nb  Nb5  1  0.440287  0.000000  0.000000  1
  Nb  Nb6  1  0.000000  0.440287  0.000000  1
  Nb  Nb7  1  0.559713  0.559713  0.000000  1
  Fe  Fe8  1  0.281743  0.000000  0.500000  1
  Fe  Fe9  1  0.000000  0.281743  0.500000  1
  Fe  Fe10  1  0.718257  0.718257  0.500000  1
  Co  Co11  1  0.623967  0.803346  0.000000  1
  Co  Co12  1  0.196654  0.820621  0.000000  1
  Co  Co13  1  0.179379  0.376033  0.000000  1
  Co  Co14  1  0.376033  0.179379  0.000000  1
  Co  Co15  1  0.803346  0.623967  0.000000  1
  Co  Co16  1  0.820621  0.196654  0.000000  1
  Co  Co17  1  0.519700  0.875488  0.500000  1
  Co  Co18  1  0.124512  0.644211  0.500000  1
  Co  Co19  1  0.355789  0.480300  0.500000  1
  Co  Co20  1  0.480300  0.355789  0.500000  1
  Co  Co21  1  0.875488  0.519700  0.500000  1
  Co  Co22  1  0.644211  0.124512  0.500000  1
  Co  Co23  1  0.000000  0.000000  0.000000  1
  P  P24  1  0.182375  0.000000  0.000000  1
  P  P25  1  0.000000  0.182375  0.000000  1
  P  P26  1  0.817625  0.817625  0.000000  1
  P  P27  1  0.523966  0.691340  0.500000  1
  P  P28  1  0.308660  0.832626  0.500000  1
  P  P29  1  0.167374  0.476034  0.500000  1
  P  P30  1  0.476034  0.167374  0.500000  1
  P  P31  1  0.691340  0.523966  0.500000  1
  P  P32  1  0.832626  0.308660  0.500000  1
  P  P33  1  0.641726  0.000000  0.000000  1
  P  P34  1  0.000000  0.641726  0.000000  1
  P  P35  1  0.358274  0.358274  0.000000  1
