# generated using pymatgen
data_Dy6Al24Tc2(OsPt)3
_symmetry_space_group_name_H-M   'P 1'
_cell_length_a   8.86656297
_cell_length_b   8.84236027
_cell_length_c   9.57827251
_cell_angle_alpha   89.97869070
_cell_angle_beta   89.82398787
_cell_angle_gamma   119.93495668
_symmetry_Int_Tables_number   1
_chemical_formula_structural   Dy6Al24Tc2(OsPt)3
_chemical_formula_sum   'Dy6 Al24 Tc2 Os3 Pt3'
_cell_volume   650.76247523
_cell_formula_units_Z   1
loop_
 _symmetry_equiv_pos_site_id
 _symmetry_equiv_pos_as_xyz
  1  'x, y, z'
loop_
 _atom_site_type_symbol
 _atom_site_label
 _atom_site_symmetry_multiplicity
 _atom_site_fract_x
 _atom_site_fract_y
 _atom_site_fract_z
 _atom_site_occupancy
  Dy  Dy0  1  0.188798  0.806267  0.251194  1
  Dy  Dy1  1  0.194364  0.385870  0.251558  1
  Dy  Dy2  1  0.616199  0.804058  0.251972  1
  Dy  Dy3  1  0.811202  0.193733  0.748806  1
  Dy  Dy4  1  0.805636  0.614130  0.748442  1
  Dy  Dy5  1  0.383801  0.195942  0.748028  1
  Al  Al6  1  0.562247  0.437469  0.249588  1
  Al  Al7  1  0.562855  0.126478  0.249541  1
  Al  Al8  1  0.873275  0.437322  0.252346  1
  Al  Al9  1  0.437753  0.562531  0.750412  1
  Al  Al10  1  0.437145  0.873522  0.750459  1
  Al  Al11  1  0.126725  0.562678  0.747654  1
  Al  Al12  1  0.325468  0.167848  0.422815  1
  Al  Al13  1  0.843157  0.166569  0.422406  1
  Al  Al14  1  0.835899  0.672399  0.423682  1
  Al  Al15  1  0.674532  0.832152  0.577185  1
  Al  Al16  1  0.156843  0.833431  0.577594  1
  Al  Al17  1  0.164101  0.327601  0.576318  1
  Al  Al18  1  0.675749  0.832590  0.922283  1
  Al  Al19  1  0.161859  0.839890  0.920409  1
  Al  Al20  1  0.168222  0.325730  0.921678  1
  Al  Al21  1  0.324251  0.167410  0.077717  1
  Al  Al22  1  0.838141  0.160110  0.079591  1
  Al  Al23  1  0.831778  0.674270  0.078322  1
  Al  Al24  1  0.669000  0.337931  0.524811  1
  Al  Al25  1  0.331000  0.662069  0.475189  1
  Al  Al26  1  0.335750  0.664534  0.026582  1
  Al  Al27  1  0.664250  0.335466  0.973418  1
  Al  Al28  1  0.999399  0.998588  0.250104  1
  Al  Al29  1  0.000601  0.001412  0.749896  1
  Tc  Tc30  1  0.000000  0.000000  0.500000  1
  Tc  Tc31  1  0.000000  0.000000  0.000000  1
  Os  Os32  1  0.500000  0.500000  0.500000  1
  Os  Os33  1  0.000000  0.500000  0.500000  1
  Os  Os34  1  0.500000  0.500000  0.000000  1
  Pt  Pt35  1  0.500000  0.000000  0.500000  1
  Pt  Pt36  1  0.500000  0.000000  0.000000  1
  Pt  Pt37  1  0.000000  0.500000  0.000000  1
