# generated using pymatgen
data_Cs2In5F17
_symmetry_space_group_name_H-M   'P 1'
_cell_length_a   14.65863600
_cell_length_b   14.65863632
_cell_length_c   16.05555600
_cell_angle_alpha   90.00000000
_cell_angle_beta   90.00000000
_cell_angle_gamma   147.78443930
_symmetry_Int_Tables_number   1
_chemical_formula_structural   Cs2In5F17
_chemical_formula_sum   'Cs8 In20 F68'
_cell_volume   1839.18792928
_cell_formula_units_Z   4
loop_
 _symmetry_equiv_pos_site_id
 _symmetry_equiv_pos_as_xyz
  1  'x, y, z'
loop_
 _atom_site_type_symbol
 _atom_site_label
 _atom_site_symmetry_multiplicity
 _atom_site_fract_x
 _atom_site_fract_y
 _atom_site_fract_z
 _atom_site_occupancy
  Cs  Cs0  1  0.000000  0.000000  0.000000  1
  Cs  Cs1  1  0.750205  0.249795  0.968561  1
  Cs  Cs2  1  0.750205  0.249795  0.531439  1
  Cs  Cs3  1  0.249795  0.750205  0.468561  1
  Cs  Cs4  1  0.249795  0.750205  0.031439  1
  Cs  Cs5  1  0.747306  0.252694  0.250000  1
  Cs  Cs6  1  0.000000  0.000000  0.500000  1
  Cs  Cs7  1  0.252694  0.747306  0.750000  1
  In  In8  1  0.376647  0.131950  0.122864  1
  In  In9  1  0.623353  0.868050  0.622864  1
  In  In10  1  0.124166  0.372943  0.124211  1
  In  In11  1  0.627057  0.875834  0.375789  1
  In  In12  1  0.251149  0.252417  0.250000  1
  In  In13  1  0.124166  0.372943  0.375789  1
  In  In14  1  0.376647  0.131950  0.377136  1
  In  In15  1  0.875834  0.627057  0.624211  1
  In  In16  1  0.747583  0.748851  0.250000  1
  In  In17  1  0.868050  0.623353  0.377136  1
  In  In18  1  0.131950  0.376647  0.877136  1
  In  In19  1  0.372943  0.124166  0.624211  1
  In  In20  1  0.623353  0.868050  0.877136  1
  In  In21  1  0.627057  0.875834  0.124211  1
  In  In22  1  0.131950  0.376647  0.622864  1
  In  In23  1  0.252417  0.251149  0.750000  1
  In  In24  1  0.748851  0.747583  0.750000  1
  In  In25  1  0.868050  0.623353  0.122864  1
  In  In26  1  0.875834  0.627057  0.875789  1
  In  In27  1  0.372943  0.124166  0.875789  1
  F  F28  1  0.439370  0.159247  0.750000  1
  F  F29  1  0.561476  0.833562  0.750000  1
  F  F30  1  0.252143  0.152587  0.344474  1
  F  F31  1  0.101980  0.300834  0.499011  1
  F  F32  1  0.105002  0.488272  0.902904  1
  F  F33  1  0.017367  0.982633  0.750000  1
  F  F34  1  0.891502  0.108498  0.348366  1
  F  F35  1  0.518930  0.481070  0.250000  1
  F  F36  1  0.847413  0.747857  0.155526  1
  F  F37  1  0.438524  0.166438  0.250000  1
  F  F38  1  0.396737  0.008700  0.897499  1
  F  F39  1  0.747857  0.847413  0.844474  1
  F  F40  1  0.101980  0.300834  0.000989  1
  F  F41  1  0.898020  0.699166  0.999011  1
  F  F42  1  0.159247  0.439370  0.250000  1
  F  F43  1  0.863859  0.136141  0.640576  1
  F  F44  1  0.340635  0.238666  0.845247  1
  F  F45  1  0.399867  0.600133  0.606064  1
  F  F46  1  0.396737  0.008700  0.602501  1
  F  F47  1  0.898020  0.699166  0.500989  1
  F  F48  1  0.863859  0.136141  0.859424  1
  F  F49  1  0.847413  0.747857  0.344474  1
  F  F50  1  0.761334  0.659365  0.845247  1
  F  F51  1  0.699166  0.898020  0.499011  1
  F  F52  1  0.399867  0.600133  0.893936  1
  F  F53  1  0.761334  0.659365  0.654753  1
  F  F54  1  0.105002  0.488272  0.597096  1
  F  F55  1  0.152587  0.252143  0.655526  1
  F  F56  1  0.603263  0.991300  0.397499  1
  F  F57  1  0.252143  0.152587  0.155526  1
  F  F58  1  0.991300  0.603263  0.897499  1
  F  F59  1  0.699166  0.898020  0.000989  1
  F  F60  1  0.600133  0.399867  0.106064  1
  F  F61  1  0.894998  0.511728  0.402904  1
  F  F62  1  0.300834  0.101980  0.500989  1
  F  F63  1  0.840753  0.560630  0.750000  1
  F  F64  1  0.340635  0.238666  0.654753  1
  F  F65  1  0.603263  0.991300  0.102501  1
  F  F66  1  0.108498  0.891502  0.848366  1
  F  F67  1  0.108498  0.891502  0.651634  1
  F  F68  1  0.632188  0.367812  0.593321  1
  F  F69  1  0.560630  0.840753  0.250000  1
  F  F70  1  0.481070  0.518930  0.750000  1
  F  F71  1  0.008700  0.396737  0.102501  1
  F  F72  1  0.511728  0.894998  0.597096  1
  F  F73  1  0.136141  0.863859  0.359424  1
  F  F74  1  0.632188  0.367812  0.906679  1
  F  F75  1  0.982633  0.017367  0.250000  1
  F  F76  1  0.238666  0.340635  0.154753  1
  F  F77  1  0.488272  0.105002  0.097096  1
  F  F78  1  0.367812  0.632188  0.406679  1
  F  F79  1  0.659365  0.761334  0.154753  1
  F  F80  1  0.152587  0.252143  0.844474  1
  F  F81  1  0.659365  0.761334  0.345247  1
  F  F82  1  0.367812  0.632188  0.093321  1
  F  F83  1  0.488272  0.105002  0.402904  1
  F  F84  1  0.991300  0.603263  0.602501  1
  F  F85  1  0.238666  0.340635  0.345247  1
  F  F86  1  0.136141  0.863859  0.140576  1
  F  F87  1  0.166438  0.438524  0.750000  1
  F  F88  1  0.008700  0.396737  0.397499  1
  F  F89  1  0.511728  0.894998  0.902904  1
  F  F90  1  0.833562  0.561476  0.250000  1
  F  F91  1  0.891502  0.108498  0.151634  1
  F  F92  1  0.300834  0.101980  0.999011  1
  F  F93  1  0.894998  0.511728  0.097096  1
  F  F94  1  0.747857  0.847413  0.655526  1
  F  F95  1  0.600133  0.399867  0.393936  1
