# generated using pymatgen
data_YErTh(SnIr)3
_symmetry_space_group_name_H-M   'P 1'
_cell_length_a   7.45029753
_cell_length_b   7.46426342
_cell_length_c   4.05509800
_cell_angle_alpha   90.00000000
_cell_angle_beta   90.00000000
_cell_angle_gamma   119.23496568
_symmetry_Int_Tables_number   1
_chemical_formula_structural   YErTh(SnIr)3
_chemical_formula_sum   'Y1 Er1 Th1 Sn3 Ir3'
_cell_volume   196.78372471
_cell_formula_units_Z   1
loop_
 _symmetry_equiv_pos_site_id
 _symmetry_equiv_pos_as_xyz
  1  'x, y, z'
loop_
 _atom_site_type_symbol
 _atom_site_label
 _atom_site_symmetry_multiplicity
 _atom_site_fract_x
 _atom_site_fract_y
 _atom_site_fract_z
 _atom_site_occupancy
  Y  Y0  1  0.594178  0.000169  0.500000  1
  Er  Er1  1  0.000082  0.594667  0.500000  1
  Th  Th2  1  0.413101  0.413328  0.500000  1
  Sn  Sn3  1  0.754733  0.754408  0.000000  1
  Sn  Sn4  1  0.254701  0.988998  0.000000  1
  Sn  Sn5  1  0.989204  0.254703  0.000000  1
  Ir  Ir6  1  0.656900  0.336246  0.000000  1
  Ir  Ir7  1  0.331088  0.653555  0.000000  1
  Ir  Ir8  1  0.006014  0.003927  0.500000  1
