# generated using pymatgen
data_Y4Tm3ScPt4
_symmetry_space_group_name_H-M   'P 1'
_cell_length_a   4.73293700
_cell_length_b   7.11541109
_cell_length_c   8.60263208
_cell_angle_alpha   90.19887323
_cell_angle_beta   90.00000000
_cell_angle_gamma   90.00000000
_symmetry_Int_Tables_number   1
_chemical_formula_structural   Y4Tm3ScPt4
_chemical_formula_sum   'Y4 Tm3 Sc1 Pt4'
_cell_volume   289.70730992
_cell_formula_units_Z   1
loop_
 _symmetry_equiv_pos_site_id
 _symmetry_equiv_pos_as_xyz
  1  'x, y, z'
loop_
 _atom_site_type_symbol
 _atom_site_label
 _atom_site_symmetry_multiplicity
 _atom_site_fract_x
 _atom_site_fract_y
 _atom_site_fract_z
 _atom_site_occupancy
  Y  Y0  1  0.250000  0.981410  0.328836  1
  Y  Y1  1  0.250000  0.490925  0.177190  1
  Y  Y2  1  0.750000  0.008991  0.666996  1
  Y  Y3  1  0.750000  0.513555  0.827261  1
  Tm  Tm4  1  0.250000  0.855898  0.921613  1
  Tm  Tm5  1  0.250000  0.357191  0.575623  1
  Tm  Tm6  1  0.750000  0.145145  0.077899  1
  Sc  Sc7  1  0.750000  0.641975  0.424158  1
  Pt  Pt8  1  0.250000  0.254285  0.906268  1
  Pt  Pt9  1  0.250000  0.747613  0.589768  1
  Pt  Pt10  1  0.750000  0.747825  0.099721  1
  Pt  Pt11  1  0.750000  0.255191  0.404668  1
