# generated using pymatgen
data_Y8LuMg(SiB4)4
_symmetry_space_group_name_H-M   'P 1'
_cell_length_a   7.19633500
_cell_length_b   7.19633500
_cell_length_c   7.99031400
_cell_angle_alpha   90.00000000
_cell_angle_beta   90.00000000
_cell_angle_gamma   90.00000000
_symmetry_Int_Tables_number   1
_chemical_formula_structural   Y8LuMg(SiB4)4
_chemical_formula_sum   'Y8 Lu1 Mg1 Si4 B16'
_cell_volume   413.79628828
_cell_formula_units_Z   1
loop_
 _symmetry_equiv_pos_site_id
 _symmetry_equiv_pos_as_xyz
  1  'x, y, z'
loop_
 _atom_site_type_symbol
 _atom_site_label
 _atom_site_symmetry_multiplicity
 _atom_site_fract_x
 _atom_site_fract_y
 _atom_site_fract_z
 _atom_site_occupancy
  Y  Y0  1  0.681837  0.180230  0.229275  1
  Y  Y1  1  0.318163  0.819770  0.770725  1
  Y  Y2  1  0.318163  0.819770  0.229275  1
  Y  Y3  1  0.819770  0.681837  0.229275  1
  Y  Y4  1  0.819770  0.681837  0.770725  1
  Y  Y5  1  0.681837  0.180230  0.770725  1
  Y  Y6  1  0.180230  0.318163  0.770725  1
  Y  Y7  1  0.180230  0.318163  0.229275  1
  Lu  Lu8  1  0.500000  0.500000  0.500000  1
  Mg  Mg9  1  0.000000  0.000000  0.500000  1
  Si  Si10  1  0.117068  0.614838  0.500000  1
  Si  Si11  1  0.882932  0.385162  0.500000  1
  Si  Si12  1  0.385162  0.117068  0.500000  1
  Si  Si13  1  0.614838  0.882932  0.500000  1
  B  B14  1  0.174261  0.038540  0.000000  1
  B  B15  1  0.825739  0.961460  0.000000  1
  B  B16  1  0.961460  0.174261  0.000000  1
  B  B17  1  0.327230  0.539464  0.000000  1
  B  B18  1  0.038540  0.825739  0.000000  1
  B  B19  1  0.672770  0.460536  0.000000  1
  B  B20  1  0.539464  0.672770  0.000000  1
  B  B21  1  0.460536  0.327230  0.000000  1
  B  B22  1  0.089367  0.588498  0.000000  1
  B  B23  1  0.910633  0.411502  0.000000  1
  B  B24  1  0.411502  0.089367  0.000000  1
  B  B25  1  0.588498  0.910633  0.000000  1
  B  B26  1  0.000000  0.000000  0.158787  1
  B  B27  1  0.000000  0.000000  0.841213  1
  B  B28  1  0.500000  0.500000  0.836250  1
  B  B29  1  0.500000  0.500000  0.163750  1
