# generated using pymatgen
data_ScPbIO6
_symmetry_space_group_name_H-M   'P 1'
_cell_length_a   5.43248700
_cell_length_b   5.43248560
_cell_length_c   5.33172400
_cell_angle_alpha   90.00000000
_cell_angle_beta   90.00000000
_cell_angle_gamma   119.99999024
_symmetry_Int_Tables_number   1
_chemical_formula_structural   ScPbIO6
_chemical_formula_sum   'Sc1 Pb1 I1 O6'
_cell_volume   136.26854347
_cell_formula_units_Z   1
loop_
 _symmetry_equiv_pos_site_id
 _symmetry_equiv_pos_as_xyz
  1  'x, y, z'
loop_
 _atom_site_type_symbol
 _atom_site_label
 _atom_site_symmetry_multiplicity
 _atom_site_fract_x
 _atom_site_fract_y
 _atom_site_fract_z
 _atom_site_occupancy
  Sc  Sc0  1  0.333333  0.666666  0.500000  1
  Pb  Pb1  1  0.666667  0.333333  0.000000  1
  I  I2  1  0.000000  0.000000  0.500000  1
  O  O3  1  0.028887  0.303837  0.296967  1
  O  O4  1  0.696162  0.725050  0.296967  1
  O  O5  1  0.274950  0.971112  0.296967  1
  O  O6  1  0.274949  0.303837  0.703033  1
  O  O7  1  0.028887  0.725050  0.703033  1
  O  O8  1  0.696163  0.971112  0.703033  1
