# generated using pymatgen
data_Ba2SrThB24
_symmetry_space_group_name_H-M   'P 1'
_cell_length_a   4.20684900
_cell_length_b   4.20684900
_cell_length_c   16.86460100
_cell_angle_alpha   90.00000000
_cell_angle_beta   90.00000000
_cell_angle_gamma   90.00000000
_symmetry_Int_Tables_number   1
_chemical_formula_structural   Ba2SrThB24
_chemical_formula_sum   'Ba2 Sr1 Th1 B24'
_cell_volume   298.46260022
_cell_formula_units_Z   1
loop_
 _symmetry_equiv_pos_site_id
 _symmetry_equiv_pos_as_xyz
  1  'x, y, z'
loop_
 _atom_site_type_symbol
 _atom_site_label
 _atom_site_symmetry_multiplicity
 _atom_site_fract_x
 _atom_site_fract_y
 _atom_site_fract_z
 _atom_site_occupancy
  Ba  Ba0  1  0.500000  0.500000  0.250279  1
  Ba  Ba1  1  0.500000  0.500000  0.749721  1
  Sr  Sr2  1  0.500000  0.500000  0.500000  1
  Th  Th3  1  0.500000  0.500000  0.000000  1
  B  B4  1  0.000000  0.000000  0.048543  1
  B  B5  1  0.000000  0.000000  0.300983  1
  B  B6  1  0.000000  0.000000  0.550429  1
  B  B7  1  0.000000  0.000000  0.802571  1
  B  B8  1  0.000000  0.299016  0.878055  1
  B  B9  1  0.000000  0.299016  0.121945  1
  B  B10  1  0.000000  0.296499  0.375913  1
  B  B11  1  0.000000  0.296499  0.624087  1
  B  B12  1  0.299016  0.000000  0.878055  1
  B  B13  1  0.299016  0.000000  0.121945  1
  B  B14  1  0.296499  0.000000  0.375913  1
  B  B15  1  0.296499  0.000000  0.624087  1
  B  B16  1  0.000000  0.000000  0.951457  1
  B  B17  1  0.000000  0.000000  0.197429  1
  B  B18  1  0.000000  0.000000  0.449571  1
  B  B19  1  0.000000  0.000000  0.699017  1
  B  B20  1  0.000000  0.700984  0.878055  1
  B  B21  1  0.000000  0.700984  0.121945  1
  B  B22  1  0.000000  0.703501  0.375913  1
  B  B23  1  0.000000  0.703501  0.624087  1
  B  B24  1  0.700984  0.000000  0.878055  1
  B  B25  1  0.700984  0.000000  0.121945  1
  B  B26  1  0.703501  0.000000  0.375913  1
  B  B27  1  0.703501  0.000000  0.624087  1
