# generated using pymatgen
data_La8ErTmIr6
_symmetry_space_group_name_H-M   'P 1'
_cell_length_a   11.35417400
_cell_length_b   11.35417400
_cell_length_c   6.52839600
_cell_angle_alpha   90.00000000
_cell_angle_beta   90.00000000
_cell_angle_gamma   90.00000000
_symmetry_Int_Tables_number   1
_chemical_formula_structural   La8ErTmIr6
_chemical_formula_sum   'La16 Er2 Tm2 Ir12'
_cell_volume   841.62297166
_cell_formula_units_Z   2
loop_
 _symmetry_equiv_pos_site_id
 _symmetry_equiv_pos_as_xyz
  1  'x, y, z'
loop_
 _atom_site_type_symbol
 _atom_site_label
 _atom_site_symmetry_multiplicity
 _atom_site_fract_x
 _atom_site_fract_y
 _atom_site_fract_z
 _atom_site_occupancy
  La  La0  1  0.287466  0.088188  0.386698  1
  La  La1  1  0.287466  0.911812  0.886698  1
  La  La2  1  0.712534  0.088188  0.886698  1
  La  La3  1  0.712534  0.911812  0.386698  1
  La  La4  1  0.588160  0.787343  0.886722  1
  La  La5  1  0.588160  0.212657  0.386722  1
  La  La6  1  0.411840  0.787343  0.386722  1
  La  La7  1  0.411840  0.212657  0.886722  1
  La  La8  1  0.212657  0.411840  0.613278  1
  La  La9  1  0.212657  0.588160  0.113278  1
  La  La10  1  0.787343  0.411840  0.113278  1
  La  La11  1  0.787343  0.588160  0.613278  1
  La  La12  1  0.911812  0.712534  0.113302  1
  La  La13  1  0.911812  0.287466  0.613302  1
  La  La14  1  0.088188  0.712534  0.613302  1
  La  La15  1  0.088188  0.287466  0.113302  1
  Er  Er16  1  0.000000  0.000000  0.500000  1
  Er  Er17  1  0.000000  0.000000  0.000000  1
  Tm  Tm18  1  0.500000  0.500000  0.000000  1
  Tm  Tm19  1  0.500000  0.500000  0.500000  1
  Ir  Ir20  1  0.852842  0.147158  0.250000  1
  Ir  Ir21  1  0.852842  0.852842  0.750000  1
  Ir  Ir22  1  0.147158  0.147158  0.750000  1
  Ir  Ir23  1  0.147158  0.852842  0.250000  1
  Ir  Ir24  1  0.646931  0.353069  0.750000  1
  Ir  Ir25  1  0.646931  0.646931  0.250000  1
  Ir  Ir26  1  0.353069  0.353069  0.250000  1
  Ir  Ir27  1  0.353069  0.646931  0.750000  1
  Ir  Ir28  1  0.500000  0.000000  0.117277  1
  Ir  Ir29  1  0.500000  0.000000  0.617277  1
  Ir  Ir30  1  0.000000  0.500000  0.882723  1
  Ir  Ir31  1  0.000000  0.500000  0.382723  1
