# generated using pymatgen
data_LaNd4(RuO6)2
_symmetry_space_group_name_H-M   'P 1'
_cell_length_a   7.09953317
_cell_length_b   7.09953289
_cell_length_c   7.72468770
_cell_angle_alpha   74.20029917
_cell_angle_beta   74.20030121
_cell_angle_gamma   49.95809243
_symmetry_Int_Tables_number   1
_chemical_formula_structural   LaNd4(RuO6)2
_chemical_formula_sum   'La1 Nd4 Ru2 O12'
_cell_volume   284.31202409
_cell_formula_units_Z   1
loop_
 _symmetry_equiv_pos_site_id
 _symmetry_equiv_pos_as_xyz
  1  'x, y, z'
loop_
 _atom_site_type_symbol
 _atom_site_label
 _atom_site_symmetry_multiplicity
 _atom_site_fract_x
 _atom_site_fract_y
 _atom_site_fract_z
 _atom_site_occupancy
  La  La0  1  0.000000  0.000000  0.500000  1
  Nd  Nd1  1  0.306247  0.306247  0.357494  1
  Nd  Nd2  1  0.693753  0.693753  0.642506  1
  Nd  Nd3  1  0.691354  0.691354  0.167478  1
  Nd  Nd4  1  0.308646  0.308646  0.832522  1
  Ru  Ru5  1  0.763826  0.236174  0.000000  1
  Ru  Ru6  1  0.236174  0.763826  0.000000  1
  O  O7  1  0.095018  0.591691  0.578752  1
  O  O8  1  0.999071  0.999071  0.184536  1
  O  O9  1  0.408309  0.904982  0.421248  1
  O  O10  1  0.500012  0.500012  0.173968  1
  O  O11  1  0.096884  0.583962  0.078586  1
  O  O12  1  0.904982  0.408309  0.421248  1
  O  O13  1  0.000929  0.000929  0.815464  1
  O  O14  1  0.591691  0.095017  0.578752  1
  O  O15  1  0.499988  0.499988  0.826032  1
  O  O16  1  0.583962  0.096884  0.078586  1
  O  O17  1  0.416038  0.903116  0.921414  1
  O  O18  1  0.903116  0.416038  0.921414  1
