# generated using pymatgen
data_Pr19SmSi15Sn
_symmetry_space_group_name_H-M   'P 1'
_cell_length_a   7.98486170
_cell_length_b   7.96888501
_cell_length_c   15.32415895
_cell_angle_alpha   90.11010952
_cell_angle_beta   89.70081390
_cell_angle_gamma   89.70923725
_symmetry_Int_Tables_number   1
_chemical_formula_structural   Pr19SmSi15Sn
_chemical_formula_sum   'Pr19 Sm1 Si15 Sn1'
_cell_volume   975.05534795
_cell_formula_units_Z   1
loop_
 _symmetry_equiv_pos_site_id
 _symmetry_equiv_pos_as_xyz
  1  'x, y, z'
loop_
 _atom_site_type_symbol
 _atom_site_label
 _atom_site_symmetry_multiplicity
 _atom_site_fract_x
 _atom_site_fract_y
 _atom_site_fract_z
 _atom_site_occupancy
  Pr  Pr0  1  0.191583  0.808951  0.249828  1
  Pr  Pr1  1  0.800531  0.189787  0.752222  1
  Pr  Pr2  1  0.688542  0.692092  0.497045  1
  Pr  Pr3  1  0.376479  0.013468  0.449453  1
  Pr  Pr4  1  0.495771  0.872081  0.698077  1
  Pr  Pr5  1  0.509648  0.120804  0.197331  1
  Pr  Pr6  1  0.878489  0.489134  0.300797  1
  Pr  Pr7  1  0.119533  0.515882  0.805690  1
  Pr  Pr8  1  0.622585  0.986947  0.949779  1
  Pr  Pr9  1  0.004448  0.384140  0.546700  1
  Pr  Pr10  1  0.988597  0.621046  0.053430  1
  Pr  Pr11  1  0.127684  0.980604  0.879424  1
  Pr  Pr12  1  0.519173  0.627420  0.126688  1
  Pr  Pr13  1  0.491195  0.382440  0.625897  1
  Pr  Pr14  1  0.629113  0.520768  0.876323  1
  Pr  Pr15  1  0.373883  0.481539  0.372147  1
  Pr  Pr16  1  0.872200  0.018625  0.375795  1
  Pr  Pr17  1  0.981480  0.127900  0.124497  1
  Pr  Pr18  1  0.007716  0.858615  0.620730  1
  Sm  Sm19  1  0.309946  0.310375  0.000806  1
  Si  Si20  1  0.330347  0.693851  0.954374  1
  Si  Si21  1  0.666422  0.303235  0.450823  1
  Si  Si22  1  0.695341  0.330577  0.048390  1
  Si  Si23  1  0.304407  0.669357  0.546452  1
  Si  Si24  1  0.803717  0.832000  0.201765  1
  Si  Si25  1  0.167824  0.196646  0.298540  1
  Si  Si26  1  0.834590  0.803741  0.799133  1
  Si  Si27  1  0.288499  0.923916  0.060042  1
  Si  Si28  1  0.578526  0.789527  0.309116  1
  Si  Si29  1  0.428935  0.212730  0.816312  1
  Si  Si30  1  0.788960  0.577232  0.691870  1
  Si  Si31  1  0.212886  0.419056  0.189168  1
  Si  Si32  1  0.710515  0.080049  0.559603  1
  Si  Si33  1  0.925011  0.289382  0.941535  1
  Si  Si34  1  0.079893  0.712785  0.438359  1
  Sn  Sn35  1  0.195533  0.163302  0.691860  1
