# generated using pymatgen
data_Pr4NdGa2Sn
_symmetry_space_group_name_H-M   'P 1'
_cell_length_a   9.24699531
_cell_length_b   9.24699537
_cell_length_c   9.24699491
_cell_angle_alpha   127.55875531
_cell_angle_beta   127.55876780
_cell_angle_gamma   77.34092030
_symmetry_Int_Tables_number   1
_chemical_formula_structural   Pr4NdGa2Sn
_chemical_formula_sum   'Pr8 Nd2 Ga4 Sn2'
_cell_volume   482.04019216
_cell_formula_units_Z   2
loop_
 _symmetry_equiv_pos_site_id
 _symmetry_equiv_pos_as_xyz
  1  'x, y, z'
loop_
 _atom_site_type_symbol
 _atom_site_label
 _atom_site_symmetry_multiplicity
 _atom_site_fract_x
 _atom_site_fract_y
 _atom_site_fract_z
 _atom_site_occupancy
  Pr  Pr0  1  0.524524  0.024524  0.840023  1
  Pr  Pr1  1  0.184499  0.684499  0.159977  1
  Pr  Pr2  1  0.024524  0.184499  0.500000  1
  Pr  Pr3  1  0.684499  0.524524  0.500000  1
  Pr  Pr4  1  0.475476  0.975476  0.159977  1
  Pr  Pr5  1  0.815501  0.315501  0.840023  1
  Pr  Pr6  1  0.975476  0.815501  0.500000  1
  Pr  Pr7  1  0.315501  0.475476  0.500000  1
  Nd  Nd8  1  0.500000  0.500000  0.000000  1
  Nd  Nd9  1  0.000000  0.000000  0.000000  1
  Ga  Ga10  1  0.879345  0.379345  0.258690  1
  Ga  Ga11  1  0.120655  0.620655  0.741310  1
  Ga  Ga12  1  0.379345  0.120655  0.500000  1
  Ga  Ga13  1  0.620655  0.879345  0.500000  1
  Sn  Sn14  1  0.250000  0.250000  0.000000  1
  Sn  Sn15  1  0.750000  0.750000  0.000000  1
