# generated using pymatgen
data_Nb4AlZn7
_symmetry_space_group_name_H-M   'P 1'
_cell_length_a   5.09368900
_cell_length_b   5.09369029
_cell_length_c   8.16779300
_cell_angle_alpha   90.00000000
_cell_angle_beta   90.00000000
_cell_angle_gamma   120.31299973
_symmetry_Int_Tables_number   1
_chemical_formula_structural   Nb4AlZn7
_chemical_formula_sum   'Nb4 Al1 Zn7'
_cell_volume   182.94556852
_cell_formula_units_Z   1
loop_
 _symmetry_equiv_pos_site_id
 _symmetry_equiv_pos_as_xyz
  1  'x, y, z'
loop_
 _atom_site_type_symbol
 _atom_site_label
 _atom_site_symmetry_multiplicity
 _atom_site_fract_x
 _atom_site_fract_y
 _atom_site_fract_z
 _atom_site_occupancy
  Nb  Nb0  1  0.332215  0.667785  0.431076  1
  Nb  Nb1  1  0.668627  0.331373  0.567766  1
  Nb  Nb2  1  0.668627  0.331373  0.932234  1
  Nb  Nb3  1  0.332215  0.667785  0.068924  1
  Al  Al4  1  0.825696  0.174304  0.250000  1
  Zn  Zn5  1  0.001391  0.998609  0.501391  1
  Zn  Zn6  1  0.001391  0.998609  0.998609  1
  Zn  Zn7  1  0.827113  0.658197  0.250000  1
  Zn  Zn8  1  0.341803  0.172887  0.250000  1
  Zn  Zn9  1  0.172860  0.827140  0.750000  1
  Zn  Zn10  1  0.172878  0.344816  0.750000  1
  Zn  Zn11  1  0.655184  0.827122  0.750000  1
