# generated using pymatgen
data_Li3Al8FeRh4
_symmetry_space_group_name_H-M   'P 1'
_cell_length_a   5.96573600
_cell_length_b   4.23912200
_cell_length_c   8.53806700
_cell_angle_alpha   90.00000000
_cell_angle_beta   90.00001631
_cell_angle_gamma   90.00000000
_symmetry_Int_Tables_number   1
_chemical_formula_structural   Li3Al8FeRh4
_chemical_formula_sum   'Li3 Al8 Fe1 Rh4'
_cell_volume   215.92329789
_cell_formula_units_Z   1
loop_
 _symmetry_equiv_pos_site_id
 _symmetry_equiv_pos_as_xyz
  1  'x, y, z'
loop_
 _atom_site_type_symbol
 _atom_site_label
 _atom_site_symmetry_multiplicity
 _atom_site_fract_x
 _atom_site_fract_y
 _atom_site_fract_z
 _atom_site_occupancy
  Li  Li0  1  0.750009  0.750001  0.376418  1
  Li  Li1  1  0.249993  0.250001  0.624970  1
  Li  Li2  1  0.749990  0.750001  0.873636  1
  Al  Al3  1  0.012458  0.750001  0.125009  1
  Al  Al4  1  0.487553  0.750001  0.125013  1
  Al  Al5  1  0.007994  0.250001  0.369988  1
  Al  Al6  1  0.492000  0.250001  0.369991  1
  Al  Al7  1  0.494269  0.750001  0.625011  1
  Al  Al8  1  0.005737  0.750001  0.625016  1
  Al  Al9  1  0.491989  0.250001  0.879983  1
  Al  Al10  1  0.007997  0.250001  0.879984  1
  Fe  Fe11  1  0.250003  0.250001  0.124993  1
  Rh  Rh12  1  0.750001  0.250001  0.124983  1
  Rh  Rh13  1  0.249999  0.750001  0.374624  1
  Rh  Rh14  1  0.750005  0.250001  0.624987  1
  Rh  Rh15  1  0.250002  0.750001  0.875392  1
