# generated using pymatgen
data_Y2Ho4MnBi2
_symmetry_space_group_name_H-M   'P 1'
_cell_length_a   8.28137600
_cell_length_b   8.30329782
_cell_length_c   4.27833500
_cell_angle_alpha   90.00000000
_cell_angle_beta   90.00000000
_cell_angle_gamma   119.91270344
_symmetry_Int_Tables_number   1
_chemical_formula_structural   Y2Ho4MnBi2
_chemical_formula_sum   'Y2 Ho4 Mn1 Bi2'
_cell_volume   254.99983339
_cell_formula_units_Z   1
loop_
 _symmetry_equiv_pos_site_id
 _symmetry_equiv_pos_as_xyz
  1  'x, y, z'
loop_
 _atom_site_type_symbol
 _atom_site_label
 _atom_site_symmetry_multiplicity
 _atom_site_fract_x
 _atom_site_fract_y
 _atom_site_fract_z
 _atom_site_occupancy
  Y  Y0  1  0.999906  0.605900  0.000000  1
  Y  Y1  1  0.394006  0.394100  0.000000  1
  Ho  Ho2  1  0.232394  0.000000  0.500000  1
  Ho  Ho3  1  0.999298  0.231587  0.500000  1
  Ho  Ho4  1  0.767711  0.768413  0.500000  1
  Ho  Ho5  1  0.607381  0.000000  0.000000  1
  Mn  Mn6  1  0.999005  0.000000  0.000000  1
  Bi  Bi7  1  0.333598  0.666897  0.500000  1
  Bi  Bi8  1  0.666702  0.333103  0.500000  1
