# generated using pymatgen
data_Nd2Dy2B4I5
_symmetry_space_group_name_H-M   'P 1'
_cell_length_a   9.77131055
_cell_length_b   9.77131029
_cell_length_c   9.69599984
_cell_angle_alpha   75.72031627
_cell_angle_beta   75.72031631
_cell_angle_gamma   25.43209522
_symmetry_Int_Tables_number   1
_chemical_formula_structural   Nd2Dy2B4I5
_chemical_formula_sum   'Nd2 Dy2 B4 I5'
_cell_volume   384.63996023
_cell_formula_units_Z   1
loop_
 _symmetry_equiv_pos_site_id
 _symmetry_equiv_pos_as_xyz
  1  'x, y, z'
loop_
 _atom_site_type_symbol
 _atom_site_label
 _atom_site_symmetry_multiplicity
 _atom_site_fract_x
 _atom_site_fract_y
 _atom_site_fract_z
 _atom_site_occupancy
  Nd  Nd0  1  0.133346  0.133346  0.931200  1
  Nd  Nd1  1  0.868633  0.868633  0.067317  1
  Dy  Dy2  1  0.502626  0.502626  0.753023  1
  Dy  Dy3  1  0.499433  0.499433  0.245667  1
  B  B4  1  0.315434  0.686534  0.999373  1
  B  B5  1  0.686534  0.315434  0.999373  1
  B  B6  1  0.001247  0.001247  0.098076  1
  B  B7  1  0.000712  0.000712  0.900659  1
  I  I8  1  0.670800  0.670800  0.669124  1
  I  I9  1  0.331310  0.331310  0.329669  1
  I  I10  1  0.329818  0.329818  0.838496  1
  I  I11  1  0.672413  0.672413  0.159383  1
  I  I12  1  0.001994  0.001994  0.498841  1
