# generated using pymatgen
data_Rb3Ba(MnN2)4
_symmetry_space_group_name_H-M   'P 1'
_cell_length_a   6.62439684
_cell_length_b   6.62439632
_cell_length_c   7.94264246
_cell_angle_alpha   89.95809984
_cell_angle_beta   90.04189922
_cell_angle_gamma   128.32379230
_symmetry_Int_Tables_number   1
_chemical_formula_structural   Rb3Ba(MnN2)4
_chemical_formula_sum   'Rb3 Ba1 Mn4 N8'
_cell_volume   273.43931015
_cell_formula_units_Z   1
loop_
 _symmetry_equiv_pos_site_id
 _symmetry_equiv_pos_as_xyz
  1  'x, y, z'
loop_
 _atom_site_type_symbol
 _atom_site_label
 _atom_site_symmetry_multiplicity
 _atom_site_fract_x
 _atom_site_fract_y
 _atom_site_fract_z
 _atom_site_occupancy
  Rb  Rb0  1  0.837466  0.162534  0.553673  1
  Rb  Rb1  1  0.158478  0.841522  0.442349  1
  Rb  Rb2  1  0.661071  0.338929  0.069458  1
  Ba  Ba3  1  0.348781  0.651219  0.949506  1
  Mn  Mn4  1  0.539806  0.460194  0.635704  1
  Mn  Mn5  1  0.456428  0.543572  0.365456  1
  Mn  Mn6  1  0.961323  0.038677  0.133402  1
  Mn  Mn7  1  0.041978  0.958022  0.862569  1
  N  N8  1  0.897557  0.102443  0.925490  1
  N  N9  1  0.105536  0.894464  0.070751  1
  N  N10  1  0.599106  0.400894  0.427394  1
  N  N11  1  0.395517  0.604483  0.576025  1
  N  N12  1  0.323178  0.179234  0.750943  1
  N  N13  1  0.179881  0.326871  0.243169  1
  N  N14  1  0.673129  0.820119  0.243169  1
  N  N15  1  0.820766  0.676822  0.750943  1
