# generated using pymatgen
data_Lu2Sc2TcB12Ir
_symmetry_space_group_name_H-M   'P 1'
_cell_length_a   3.54958900
_cell_length_b   8.93324509
_cell_length_c   11.30636298
_cell_angle_alpha   90.10061433
_cell_angle_beta   90.00000000
_cell_angle_gamma   90.00000000
_symmetry_Int_Tables_number   1
_chemical_formula_structural   Lu2Sc2TcB12Ir
_chemical_formula_sum   'Lu4 Sc4 Tc2 B24 Ir2'
_cell_volume   358.51685132
_cell_formula_units_Z   2
loop_
 _symmetry_equiv_pos_site_id
 _symmetry_equiv_pos_as_xyz
  1  'x, y, z'
loop_
 _atom_site_type_symbol
 _atom_site_label
 _atom_site_symmetry_multiplicity
 _atom_site_fract_x
 _atom_site_fract_y
 _atom_site_fract_z
 _atom_site_occupancy
  Lu  Lu0  1  0.500000  0.314600  0.410508  1
  Lu  Lu1  1  0.500000  0.685400  0.589492  1
  Lu  Lu2  1  0.500000  0.176676  0.917167  1
  Lu  Lu3  1  0.500000  0.823324  0.082833  1
  Sc  Sc4  1  0.500000  0.441535  0.124472  1
  Sc  Sc5  1  0.500000  0.558465  0.875528  1
  Sc  Sc6  1  0.500000  0.051901  0.626895  1
  Sc  Sc7  1  0.500000  0.948099  0.373105  1
  Tc  Tc8  1  0.500000  0.139998  0.181996  1
  Tc  Tc9  1  0.500000  0.860002  0.818004  1
  B  B10  1  0.000000  0.101012  0.472973  1
  B  B11  1  0.000000  0.898988  0.527027  1
  B  B12  1  0.000000  0.398943  0.972124  1
  B  B13  1  0.000000  0.601057  0.027876  1
  B  B14  1  0.000000  0.129157  0.317264  1
  B  B15  1  0.000000  0.870843  0.682736  1
  B  B16  1  0.000000  0.370921  0.818641  1
  B  B17  1  0.000000  0.629079  0.181359  1
  B  B18  1  0.000000  0.053464  0.066514  1
  B  B19  1  0.000000  0.946536  0.933486  1
  B  B20  1  0.000000  0.445449  0.565309  1
  B  B21  1  0.000000  0.554551  0.434691  1
  B  B22  1  0.000000  0.480394  0.286197  1
  B  B23  1  0.000000  0.519606  0.713803  1
  B  B24  1  0.000000  0.019831  0.785946  1
  B  B25  1  0.000000  0.980169  0.214054  1
  B  B26  1  0.000000  0.251668  0.080184  1
  B  B27  1  0.000000  0.748332  0.919816  1
  B  B28  1  0.000000  0.246480  0.578853  1
  B  B29  1  0.000000  0.753520  0.421147  1
  B  B30  1  0.000000  0.294406  0.235221  1
  B  B31  1  0.000000  0.705594  0.764779  1
  B  B32  1  0.000000  0.206789  0.735330  1
  B  B33  1  0.000000  0.793211  0.264670  1
  Ir  Ir34  1  0.500000  0.361180  0.679655  1
  Ir  Ir35  1  0.500000  0.638820  0.320345  1
