# generated using pymatgen
data_La6Yb(SiSe7)2
_symmetry_space_group_name_H-M   'P 1'
_cell_length_a   10.93787800
_cell_length_b   10.93787918
_cell_length_c   6.05781900
_cell_angle_alpha   90.00000000
_cell_angle_beta   90.00000000
_cell_angle_gamma   120.00000247
_symmetry_Int_Tables_number   1
_chemical_formula_structural   La6Yb(SiSe7)2
_chemical_formula_sum   'La6 Yb1 Si2 Se14'
_cell_volume   627.64360882
_cell_formula_units_Z   1
loop_
 _symmetry_equiv_pos_site_id
 _symmetry_equiv_pos_as_xyz
  1  'x, y, z'
loop_
 _atom_site_type_symbol
 _atom_site_label
 _atom_site_symmetry_multiplicity
 _atom_site_fract_x
 _atom_site_fract_y
 _atom_site_fract_z
 _atom_site_occupancy
  La  La0  1  0.973576  0.431961  0.755145  1
  La  La1  1  0.458384  0.026424  0.755145  1
  La  La2  1  0.568039  0.541616  0.755145  1
  La  La3  1  0.692583  0.900641  0.246092  1
  La  La4  1  0.208058  0.307417  0.246092  1
  La  La5  1  0.099359  0.791942  0.246092  1
  Yb  Yb6  1  0.333333  0.666667  0.513697  1
  Si  Si7  1  0.666667  0.333333  0.164966  1
  Si  Si8  1  0.000000  0.000000  0.658048  1
  Se  Se9  1  0.666667  0.333333  0.538225  1
  Se  Se10  1  0.000000  0.000000  0.032289  1
  Se  Se11  1  0.077381  0.499067  0.266504  1
  Se  Se12  1  0.421687  0.922619  0.266504  1
  Se  Se13  1  0.500933  0.578313  0.266504  1
  Se  Se14  1  0.588286  0.834878  0.761849  1
  Se  Se15  1  0.246592  0.411714  0.761849  1
  Se  Se16  1  0.165122  0.753408  0.761849  1
  Se  Se17  1  0.811973  0.555173  0.017039  1
  Se  Se18  1  0.743201  0.188027  0.017039  1
  Se  Se19  1  0.444827  0.256799  0.017039  1
  Se  Se20  1  0.854369  0.777743  0.512308  1
  Se  Se21  1  0.923376  0.145631  0.512308  1
  Se  Se22  1  0.222257  0.076624  0.512308  1
