# generated using pymatgen
data_Tb4Ho2Fe7Co16
_symmetry_space_group_name_H-M   'P 1'
_cell_length_a   8.40913698
_cell_length_b   8.39345087
_cell_length_c   8.39345171
_cell_angle_alpha   59.87157980
_cell_angle_beta   59.93814818
_cell_angle_gamma   59.93814983
_symmetry_Int_Tables_number   1
_chemical_formula_structural   Tb4Ho2Fe7Co16
_chemical_formula_sum   'Tb4 Ho2 Fe7 Co16'
_cell_volume   418.10797269
_cell_formula_units_Z   1
loop_
 _symmetry_equiv_pos_site_id
 _symmetry_equiv_pos_as_xyz
  1  'x, y, z'
loop_
 _atom_site_type_symbol
 _atom_site_label
 _atom_site_symmetry_multiplicity
 _atom_site_fract_x
 _atom_site_fract_y
 _atom_site_fract_z
 _atom_site_occupancy
  Tb  Tb0  1  0.713237  0.286475  0.286475  1
  Tb  Tb1  1  0.713880  0.286041  0.713959  1
  Tb  Tb2  1  0.713880  0.713959  0.286041  1
  Tb  Tb3  1  0.286187  0.713525  0.713525  1
  Ho  Ho4  1  0.284829  0.714788  0.285212  1
  Ho  Ho5  1  0.284829  0.285212  0.714788  1
  Fe  Fe6  1  0.000477  0.000000  0.000000  1
  Fe  Fe7  1  0.498989  0.000000  0.000000  1
  Fe  Fe8  1  0.499526  0.000582  0.500583  1
  Fe  Fe9  1  0.499526  0.500583  0.000582  1
  Fe  Fe10  1  0.001206  0.500000  0.500000  1
  Fe  Fe11  1  0.000692  0.499417  0.999418  1
  Fe  Fe12  1  0.000692  0.999418  0.499417  1
  Co  Co13  1  0.629388  0.123571  0.123571  1
  Co  Co14  1  0.123576  0.629944  0.123786  1
  Co  Co15  1  0.123576  0.123786  0.629944  1
  Co  Co16  1  0.123854  0.123033  0.123033  1
  Co  Co17  1  0.369920  0.876967  0.876967  1
  Co  Co18  1  0.877306  0.370056  0.876214  1
  Co  Co19  1  0.877306  0.876214  0.370056  1
  Co  Co20  1  0.876530  0.876429  0.876429  1
  Co  Co21  1  0.031693  0.322868  0.322868  1
  Co  Co22  1  0.322890  0.030880  0.323063  1
  Co  Co23  1  0.322890  0.323063  0.030880  1
  Co  Co24  1  0.322736  0.323281  0.323281  1
  Co  Co25  1  0.969297  0.676719  0.676719  1
  Co  Co26  1  0.676832  0.969120  0.676937  1
  Co  Co27  1  0.676832  0.676937  0.969120  1
  Co  Co28  1  0.677427  0.677132  0.677132  1
