# generated using pymatgen
data_Pr3In2Pd3Pb
_symmetry_space_group_name_H-M   'P 1'
_cell_length_a   7.86456614
_cell_length_b   7.86456690
_cell_length_c   4.07254000
_cell_angle_alpha   90.00000000
_cell_angle_beta   90.00000000
_cell_angle_gamma   119.44229391
_symmetry_Int_Tables_number   1
_chemical_formula_structural   Pr3In2Pd3Pb
_chemical_formula_sum   'Pr3 In2 Pd3 Pb1'
_cell_volume   219.36073666
_cell_formula_units_Z   1
loop_
 _symmetry_equiv_pos_site_id
 _symmetry_equiv_pos_as_xyz
  1  'x, y, z'
loop_
 _atom_site_type_symbol
 _atom_site_label
 _atom_site_symmetry_multiplicity
 _atom_site_fract_x
 _atom_site_fract_y
 _atom_site_fract_z
 _atom_site_occupancy
  Pr  Pr0  1  0.407103  0.407103  0.500000  1
  Pr  Pr1  1  0.589891  0.002616  0.500000  1
  Pr  Pr2  1  0.002616  0.589891  0.500000  1
  In  In3  1  0.254041  0.001158  0.000000  1
  In  In4  1  0.001158  0.254041  0.000000  1
  Pd  Pd5  1  0.664156  0.325764  0.000000  1
  Pd  Pd6  1  0.325764  0.664156  0.000000  1
  Pd  Pd7  1  0.008874  0.008874  0.500000  1
  Pb  Pb8  1  0.746396  0.746396  0.000000  1
