# generated using pymatgen
data_Dy5Ho5Si5Sb
_symmetry_space_group_name_H-M   'P 1'
_cell_length_a   8.50325600
_cell_length_b   8.52852958
_cell_length_c   6.37917500
_cell_angle_alpha   90.00000000
_cell_angle_beta   90.00000000
_cell_angle_gamma   119.87551080
_symmetry_Int_Tables_number   1
_chemical_formula_structural   Dy5Ho5Si5Sb
_chemical_formula_sum   'Dy5 Ho5 Si5 Sb1'
_cell_volume   401.14186679
_cell_formula_units_Z   1
loop_
 _symmetry_equiv_pos_site_id
 _symmetry_equiv_pos_as_xyz
  1  'x, y, z'
loop_
 _atom_site_type_symbol
 _atom_site_label
 _atom_site_symmetry_multiplicity
 _atom_site_fract_x
 _atom_site_fract_y
 _atom_site_fract_z
 _atom_site_occupancy
  Dy  Dy0  1  0.988433  0.747755  0.750000  1
  Dy  Dy1  1  0.998755  0.243319  0.250000  1
  Dy  Dy2  1  0.755073  0.756418  0.250000  1
  Dy  Dy3  1  0.765016  0.000045  0.750000  1
  Dy  Dy4  1  0.242055  0.000123  0.250000  1
  Ho  Ho5  1  0.240794  0.252521  0.750000  1
  Ho  Ho6  1  0.331263  0.656931  0.496481  1
  Ho  Ho7  1  0.674267  0.343012  0.003559  1
  Ho  Ho8  1  0.674267  0.343012  0.496441  1
  Ho  Ho9  1  0.331263  0.656931  0.003519  1
  Si  Si10  1  0.393812  0.392052  0.250000  1
  Si  Si11  1  0.001764  0.608006  0.250000  1
  Si  Si12  1  0.999272  0.394460  0.750000  1
  Si  Si13  1  0.603984  0.605044  0.750000  1
  Si  Si14  1  0.605718  0.000020  0.250000  1
  Sb  Sb15  1  0.394265  0.000348  0.750000  1
