# generated using pymatgen
data_Pr3ZnAg3Sn4
_symmetry_space_group_name_H-M   'P 1'
_cell_length_a   8.93749518
_cell_length_b   8.95247181
_cell_length_c   8.95247108
_cell_angle_alpha   149.42913595
_cell_angle_beta   130.90386189
_cell_angle_gamma   58.96513086
_symmetry_Int_Tables_number   1
_chemical_formula_structural   Pr3ZnAg3Sn4
_chemical_formula_sum   'Pr3 Zn1 Ag3 Sn4'
_cell_volume   273.18063612
_cell_formula_units_Z   1
loop_
 _symmetry_equiv_pos_site_id
 _symmetry_equiv_pos_as_xyz
  1  'x, y, z'
loop_
 _atom_site_type_symbol
 _atom_site_label
 _atom_site_symmetry_multiplicity
 _atom_site_fract_x
 _atom_site_fract_y
 _atom_site_fract_z
 _atom_site_occupancy
  Pr  Pr0  1  0.506415  0.000587  0.505828  1
  Pr  Pr1  1  0.863984  0.874429  0.989555  1
  Pr  Pr2  1  0.141486  0.127112  0.014374  1
  Zn  Zn3  1  0.472171  0.660183  0.811989  1
  Ag  Ag4  1  0.867876  0.678477  0.189400  1
  Ag  Ag5  1  0.117318  0.317696  0.799622  1
  Ag  Ag6  1  0.526987  0.341994  0.184992  1
  Sn  Sn7  1  0.299584  0.781053  0.518531  1
  Sn  Sn8  1  0.690654  0.216796  0.473858  1
  Sn  Sn9  1  0.819066  0.508683  0.310383  1
  Sn  Sn10  1  0.194460  0.492989  0.701470  1
