# generated using pymatgen
data_Sm3Th(Nb3Ge4)2
_symmetry_space_group_name_H-M   'P 1'
_cell_length_a   7.11713800
_cell_length_b   7.29297834
_cell_length_c   13.74877163
_cell_angle_alpha   90.03488388
_cell_angle_beta   90.00000000
_cell_angle_gamma   90.00000000
_symmetry_Int_Tables_number   1
_chemical_formula_structural   Sm3Th(Nb3Ge4)2
_chemical_formula_sum   'Sm6 Th2 Nb12 Ge16'
_cell_volume   713.63169175
_cell_formula_units_Z   2
loop_
 _symmetry_equiv_pos_site_id
 _symmetry_equiv_pos_as_xyz
  1  'x, y, z'
loop_
 _atom_site_type_symbol
 _atom_site_label
 _atom_site_symmetry_multiplicity
 _atom_site_fract_x
 _atom_site_fract_y
 _atom_site_fract_z
 _atom_site_occupancy
  Sm  Sm0  1  0.496120  0.327634  0.095179  1
  Sm  Sm1  1  0.996120  0.172366  0.404821  1
  Sm  Sm2  1  0.502278  0.672469  0.595972  1
  Sm  Sm3  1  0.002278  0.827531  0.904028  1
  Sm  Sm4  1  0.503055  0.672247  0.903950  1
  Sm  Sm5  1  0.003055  0.827753  0.596050  1
  Th  Th6  1  0.498046  0.328774  0.406876  1
  Th  Th7  1  0.998046  0.171226  0.093124  1
  Nb  Nb8  1  0.664137  0.014182  0.749425  1
  Nb  Nb9  1  0.164137  0.485818  0.750575  1
  Nb  Nb10  1  0.334112  0.988527  0.250676  1
  Nb  Nb11  1  0.834112  0.511473  0.249324  1
  Nb  Nb12  1  0.838853  0.330158  0.626971  1
  Nb  Nb13  1  0.338853  0.169842  0.873029  1
  Nb  Nb14  1  0.158078  0.670460  0.127344  1
  Nb  Nb15  1  0.658078  0.829540  0.372656  1
  Nb  Nb16  1  0.164487  0.666970  0.373454  1
  Nb  Nb17  1  0.664487  0.833030  0.126546  1
  Nb  Nb18  1  0.840426  0.330156  0.873485  1
  Nb  Nb19  1  0.340426  0.169844  0.626515  1
  Ge  Ge20  1  0.805753  0.632480  0.749849  1
  Ge  Ge21  1  0.305753  0.867520  0.750151  1
  Ge  Ge22  1  0.192674  0.369095  0.250529  1
  Ge  Ge23  1  0.692674  0.130905  0.249471  1
  Ge  Ge24  1  0.539045  0.373976  0.750159  1
  Ge  Ge25  1  0.039045  0.126024  0.749841  1
  Ge  Ge26  1  0.461354  0.628910  0.247689  1
  Ge  Ge27  1  0.961354  0.871090  0.252311  1
  Ge  Ge28  1  0.672631  0.038684  0.544806  1
  Ge  Ge29  1  0.172631  0.461316  0.955194  1
  Ge  Ge30  1  0.333454  0.955006  0.042759  1
  Ge  Ge31  1  0.833454  0.544994  0.457241  1
  Ge  Ge32  1  0.325508  0.955608  0.457349  1
  Ge  Ge33  1  0.825508  0.544392  0.042651  1
  Ge  Ge34  1  0.669989  0.041423  0.954777  1
  Ge  Ge35  1  0.169989  0.458577  0.545223  1
