# generated using pymatgen
data_Tb5Ho5(SnBi)4
_symmetry_space_group_name_H-M   'P 1'
_cell_length_a   8.17408800
_cell_length_b   8.20914505
_cell_length_c   15.63631109
_cell_angle_alpha   90.01244766
_cell_angle_beta   90.00000000
_cell_angle_gamma   90.00000000
_symmetry_Int_Tables_number   1
_chemical_formula_structural   Tb5Ho5(SnBi)4
_chemical_formula_sum   'Tb10 Ho10 Sn8 Bi8'
_cell_volume   1049.23200698
_cell_formula_units_Z   2
loop_
 _symmetry_equiv_pos_site_id
 _symmetry_equiv_pos_as_xyz
  1  'x, y, z'
loop_
 _atom_site_type_symbol
 _atom_site_label
 _atom_site_symmetry_multiplicity
 _atom_site_fract_x
 _atom_site_fract_y
 _atom_site_fract_z
 _atom_site_occupancy
  Tb  Tb0  1  0.387098  0.837866  0.622968  1
  Tb  Tb1  1  0.887098  0.662134  0.877032  1
  Tb  Tb2  1  0.553355  0.327406  0.890264  1
  Tb  Tb3  1  0.053355  0.172594  0.609736  1
  Tb  Tb4  1  0.446327  0.672056  0.389841  1
  Tb  Tb5  1  0.946327  0.827944  0.110159  1
  Tb  Tb6  1  0.446744  0.672210  0.110005  1
  Tb  Tb7  1  0.946744  0.827790  0.389995  1
  Tb  Tb8  1  0.553209  0.327639  0.609968  1
  Tb  Tb9  1  0.053209  0.172361  0.890032  1
  Ho  Ho10  1  0.386133  0.838298  0.876071  1
  Ho  Ho11  1  0.886133  0.661702  0.623929  1
  Ho  Ho12  1  0.613657  0.161552  0.376035  1
  Ho  Ho13  1  0.113657  0.338448  0.123965  1
  Ho  Ho14  1  0.613425  0.161509  0.124296  1
  Ho  Ho15  1  0.113425  0.338491  0.375704  1
  Ho  Ho16  1  0.218302  0.498325  0.749931  1
  Ho  Ho17  1  0.718302  0.001675  0.750069  1
  Ho  Ho18  1  0.781741  0.501289  0.250246  1
  Ho  Ho19  1  0.281741  0.998711  0.249754  1
  Sn  Sn20  1  0.583468  0.626543  0.750297  1
  Sn  Sn21  1  0.083468  0.873457  0.749703  1
  Sn  Sn22  1  0.416502  0.372924  0.249989  1
  Sn  Sn23  1  0.916502  0.127076  0.250011  1
  Sn  Sn24  1  0.357078  0.143052  0.749939  1
  Sn  Sn25  1  0.857078  0.356948  0.750061  1
  Sn  Sn26  1  0.642783  0.856532  0.250086  1
  Sn  Sn27  1  0.142783  0.643468  0.249914  1
  Bi  Bi28  1  0.271725  0.022078  0.044360  1
  Bi  Bi29  1  0.771725  0.477922  0.455640  1
  Bi  Bi30  1  0.729553  0.978657  0.544197  1
  Bi  Bi31  1  0.229553  0.521343  0.955803  1
  Bi  Bi32  1  0.727230  0.979351  0.955954  1
  Bi  Bi33  1  0.227230  0.520649  0.544046  1
  Bi  Bi34  1  0.271669  0.022829  0.454862  1
  Bi  Bi35  1  0.771669  0.477171  0.045138  1
