# generated using pymatgen
data_Y4TmB4P8Ir19
_symmetry_space_group_name_H-M   'P 1'
_cell_length_a   12.42910514
_cell_length_b   12.39853411
_cell_length_c   3.96488100
_cell_angle_alpha   90.00000000
_cell_angle_beta   90.00000000
_cell_angle_gamma   119.66381664
_symmetry_Int_Tables_number   1
_chemical_formula_structural   Y4TmB4P8Ir19
_chemical_formula_sum   'Y4 Tm1 B4 P8 Ir19'
_cell_volume   530.92388711
_cell_formula_units_Z   1
loop_
 _symmetry_equiv_pos_site_id
 _symmetry_equiv_pos_as_xyz
  1  'x, y, z'
loop_
 _atom_site_type_symbol
 _atom_site_label
 _atom_site_symmetry_multiplicity
 _atom_site_fract_x
 _atom_site_fract_y
 _atom_site_fract_z
 _atom_site_occupancy
  Y  Y0  1  0.332622  0.666530  0.500000  1
  Y  Y1  1  0.182860  0.187704  0.000000  1
  Y  Y2  1  0.814793  0.002804  0.000000  1
  Y  Y3  1  0.001625  0.815577  0.000000  1
  Tm  Tm4  1  0.675051  0.331120  0.500000  1
  B  B5  1  0.304898  0.816148  0.000000  1
  B  B6  1  0.177821  0.486433  0.000000  1
  B  B7  1  0.511084  0.692681  0.000000  1
  B  B8  1  0.823159  0.303029  0.000000  1
  P  P9  1  0.487092  0.174309  0.000000  1
  P  P10  1  0.692800  0.513431  0.000000  1
  P  P11  1  0.359090  0.365091  0.500000  1
  P  P12  1  0.639375  0.000771  0.500000  1
  P  P13  1  0.006277  0.639516  0.500000  1
  P  P14  1  0.816289  0.819566  0.500000  1
  P  P15  1  0.180873  0.998792  0.500000  1
  P  P16  1  0.001851  0.186131  0.500000  1
  Ir  Ir17  1  0.200015  0.818425  0.500000  1
  Ir  Ir18  1  0.181500  0.382408  0.500000  1
  Ir  Ir19  1  0.619251  0.803420  0.500000  1
  Ir  Ir20  1  0.821487  0.201758  0.500000  1
  Ir  Ir21  1  0.376747  0.181643  0.500000  1
  Ir  Ir22  1  0.806244  0.622610  0.500000  1
  Ir  Ir23  1  0.134270  0.637458  0.000000  1
  Ir  Ir24  1  0.359916  0.499728  0.000000  1
  Ir  Ir25  1  0.497958  0.859910  0.000000  1
  Ir  Ir26  1  0.642820  0.130530  0.000000  1
  Ir  Ir27  1  0.491627  0.363678  0.000000  1
  Ir  Ir28  1  0.868674  0.496870  0.000000  1
  Ir  Ir29  1  0.539641  0.548938  0.500000  1
  Ir  Ir30  1  0.453963  0.995187  0.500000  1
  Ir  Ir31  1  0.002966  0.455565  0.500000  1
  Ir  Ir32  1  0.700975  0.706513  0.000000  1
  Ir  Ir33  1  0.293353  0.994467  0.000000  1
  Ir  Ir34  1  0.001764  0.300427  0.000000  1
  Ir  Ir35  1  0.999267  0.000837  0.500000  1
