# generated using pymatgen
data_NaLi2Ac3(MgPb2)2
_symmetry_space_group_name_H-M   'P 1'
_cell_length_a   5.00414100
_cell_length_b   8.19930685
_cell_length_c   8.88241447
_cell_angle_alpha   88.61749687
_cell_angle_beta   90.00000000
_cell_angle_gamma   90.00000000
_symmetry_Int_Tables_number   1
_chemical_formula_structural   NaLi2Ac3(MgPb2)2
_chemical_formula_sum   'Na1 Li2 Ac3 Mg2 Pb4'
_cell_volume   364.34370703
_cell_formula_units_Z   1
loop_
 _symmetry_equiv_pos_site_id
 _symmetry_equiv_pos_as_xyz
  1  'x, y, z'
loop_
 _atom_site_type_symbol
 _atom_site_label
 _atom_site_symmetry_multiplicity
 _atom_site_fract_x
 _atom_site_fract_y
 _atom_site_fract_z
 _atom_site_occupancy
  Na  Na0  1  0.250000  0.010231  0.809681  1
  Li  Li1  1  0.750000  0.855002  0.572245  1
  Li  Li2  1  0.750000  0.341235  0.932768  1
  Ac  Ac3  1  0.750000  0.992570  0.183042  1
  Ac  Ac4  1  0.750000  0.490154  0.298850  1
  Ac  Ac5  1  0.250000  0.500101  0.706683  1
  Mg  Mg6  1  0.250000  0.670456  0.069118  1
  Mg  Mg7  1  0.250000  0.147647  0.436843  1
  Pb  Pb8  1  0.250000  0.278158  0.096926  1
  Pb  Pb9  1  0.250000  0.775306  0.395413  1
  Pb  Pb10  1  0.750000  0.223652  0.606043  1
  Pb  Pb11  1  0.750000  0.715487  0.892388  1
