# generated using pymatgen
data_PuCoSb12IrOs2
_symmetry_space_group_name_H-M   'P 1'
_cell_length_a   8.09981668
_cell_length_b   8.08674898
_cell_length_c   8.09220431
_cell_angle_alpha   109.28411877
_cell_angle_beta   109.44926614
_cell_angle_gamma   109.37546399
_symmetry_Int_Tables_number   1
_chemical_formula_structural   PuCoSb12IrOs2
_chemical_formula_sum   'Pu1 Co1 Sb12 Ir1 Os2'
_cell_volume   409.55898660
_cell_formula_units_Z   1
loop_
 _symmetry_equiv_pos_site_id
 _symmetry_equiv_pos_as_xyz
  1  'x, y, z'
loop_
 _atom_site_type_symbol
 _atom_site_label
 _atom_site_symmetry_multiplicity
 _atom_site_fract_x
 _atom_site_fract_y
 _atom_site_fract_z
 _atom_site_occupancy
  Pu  Pu0  1  0.000000  0.000000  0.000000  1
  Co  Co1  1  0.500000  0.500000  0.500000  1
  Sb  Sb2  1  0.338595  0.185506  0.843860  1
  Sb  Sb3  1  0.661405  0.814494  0.156140  1
  Sb  Sb4  1  0.660879  0.507558  0.837146  1
  Sb  Sb5  1  0.339121  0.492442  0.162854  1
  Sb  Sb6  1  0.182626  0.843457  0.338631  1
  Sb  Sb7  1  0.817374  0.156543  0.661369  1
  Sb  Sb8  1  0.507809  0.837162  0.658414  1
  Sb  Sb9  1  0.492191  0.162838  0.341586  1
  Sb  Sb10  1  0.845773  0.341012  0.185468  1
  Sb  Sb11  1  0.154227  0.658988  0.814532  1
  Sb  Sb12  1  0.836776  0.660273  0.507096  1
  Sb  Sb13  1  0.163224  0.339727  0.492904  1
  Ir  Ir14  1  0.500000  0.000000  0.000000  1
  Os  Os15  1  0.000000  0.000000  0.500000  1
  Os  Os16  1  0.000000  0.500000  0.000000  1
