# generated using pymatgen
data_Er6Tm2Re(B8Ir)3
_symmetry_space_group_name_H-M   'P 1'
_cell_length_a   3.63581200
_cell_length_b   9.12887348
_cell_length_c   11.46352013
_cell_angle_alpha   90.15672038
_cell_angle_beta   90.00000000
_cell_angle_gamma   90.00000000
_symmetry_Int_Tables_number   1
_chemical_formula_structural   Er6Tm2Re(B8Ir)3
_chemical_formula_sum   'Er6 Tm2 Re1 B24 Ir3'
_cell_volume   380.48275719
_cell_formula_units_Z   1
loop_
 _symmetry_equiv_pos_site_id
 _symmetry_equiv_pos_as_xyz
  1  'x, y, z'
loop_
 _atom_site_type_symbol
 _atom_site_label
 _atom_site_symmetry_multiplicity
 _atom_site_fract_x
 _atom_site_fract_y
 _atom_site_fract_z
 _atom_site_occupancy
  Er  Er0  1  0.000000  0.320652  0.413737  1
  Er  Er1  1  0.000000  0.683351  0.590618  1
  Er  Er2  1  0.000000  0.820300  0.082575  1
  Er  Er3  1  0.000000  0.176161  0.912394  1
  Er  Er4  1  0.000000  0.943645  0.373068  1
  Er  Er5  1  0.000000  0.053802  0.626384  1
  Tm  Tm6  1  0.000000  0.443585  0.125936  1
  Tm  Tm7  1  0.000000  0.557342  0.875015  1
  Re  Re8  1  0.000000  0.862121  0.821332  1
  B  B9  1  0.500000  0.553562  0.434452  1
  B  B10  1  0.500000  0.447679  0.566464  1
  B  B11  1  0.500000  0.053508  0.066126  1
  B  B12  1  0.500000  0.946711  0.933550  1
  B  B13  1  0.500000  0.750123  0.420689  1
  B  B14  1  0.500000  0.250578  0.579043  1
  B  B15  1  0.500000  0.249583  0.078864  1
  B  B16  1  0.500000  0.751250  0.920090  1
  B  B17  1  0.500000  0.792161  0.264503  1
  B  B18  1  0.500000  0.207792  0.733888  1
  B  B19  1  0.500000  0.293490  0.235061  1
  B  B20  1  0.500000  0.707454  0.766057  1
  B  B21  1  0.500000  0.630889  0.183951  1
  B  B22  1  0.500000  0.368551  0.816161  1
  B  B23  1  0.500000  0.132193  0.315650  1
  B  B24  1  0.500000  0.868732  0.685371  1
  B  B25  1  0.500000  0.981493  0.212768  1
  B  B26  1  0.500000  0.017527  0.786726  1
  B  B27  1  0.500000  0.480837  0.287249  1
  B  B28  1  0.500000  0.518451  0.714244  1
  B  B29  1  0.500000  0.606916  0.030666  1
  B  B30  1  0.500000  0.390650  0.970523  1
  B  B31  1  0.500000  0.109423  0.469396  1
  B  B32  1  0.500000  0.891549  0.528682  1
  Ir  Ir33  1  0.000000  0.636901  0.322110  1
  Ir  Ir34  1  0.000000  0.362909  0.678364  1
  Ir  Ir35  1  0.000000  0.138131  0.178287  1
