# generated using pymatgen
data_NaLu(InCl3)2
_symmetry_space_group_name_H-M   'P 1'
_cell_length_a   7.18316734
_cell_length_b   7.79465600
_cell_length_c   12.55392134
_cell_angle_alpha   90.00000000
_cell_angle_beta   123.72367360
_cell_angle_gamma   90.00000000
_symmetry_Int_Tables_number   1
_chemical_formula_structural   NaLu(InCl3)2
_chemical_formula_sum   'Na2 Lu2 In4 Cl12'
_cell_volume   584.61774219
_cell_formula_units_Z   2
loop_
 _symmetry_equiv_pos_site_id
 _symmetry_equiv_pos_as_xyz
  1  'x, y, z'
loop_
 _atom_site_type_symbol
 _atom_site_label
 _atom_site_symmetry_multiplicity
 _atom_site_fract_x
 _atom_site_fract_y
 _atom_site_fract_z
 _atom_site_occupancy
  Na  Na0  1  0.500000  0.000000  0.000000  1
  Na  Na1  1  0.500001  0.500000  0.500000  1
  Lu  Lu2  1  0.000000  0.500000  0.000000  1
  Lu  Lu3  1  0.000000  0.000000  0.500000  1
  In  In4  1  0.288820  0.087530  0.253273  1
  In  In5  1  0.711180  0.587530  0.246727  1
  In  In6  1  0.288819  0.412470  0.753273  1
  In  In7  1  0.711180  0.912470  0.746726  1
  Cl  Cl8  1  0.335265  0.319791  0.038101  1
  Cl  Cl9  1  0.233146  0.779295  0.049716  1
  Cl  Cl10  1  0.149020  0.474296  0.241527  1
  Cl  Cl11  1  0.850980  0.974296  0.258473  1
  Cl  Cl12  1  0.766855  0.279295  0.450285  1
  Cl  Cl13  1  0.664735  0.819791  0.461900  1
  Cl  Cl14  1  0.335266  0.180209  0.538101  1
  Cl  Cl15  1  0.233146  0.720705  0.549716  1
  Cl  Cl16  1  0.149019  0.025704  0.741527  1
  Cl  Cl17  1  0.850981  0.525705  0.758473  1
  Cl  Cl18  1  0.766854  0.220705  0.950285  1
  Cl  Cl19  1  0.664734  0.680209  0.961900  1
