# generated using pymatgen
data_Tm20Ir3Ru4Rh5
_symmetry_space_group_name_H-M   'P 1'
_cell_length_a   10.70205471
_cell_length_b   10.70205471
_cell_length_c   6.33875000
_cell_angle_alpha   89.99938740
_cell_angle_beta   89.99938740
_cell_angle_gamma   89.95812322
_symmetry_Int_Tables_number   1
_chemical_formula_structural   Tm20Ir3Ru4Rh5
_chemical_formula_sum   'Tm20 Ir3 Ru4 Rh5'
_cell_volume   726.00204080
_cell_formula_units_Z   1
loop_
 _symmetry_equiv_pos_site_id
 _symmetry_equiv_pos_as_xyz
  1  'x, y, z'
loop_
 _atom_site_type_symbol
 _atom_site_label
 _atom_site_symmetry_multiplicity
 _atom_site_fract_x
 _atom_site_fract_y
 _atom_site_fract_z
 _atom_site_occupancy
  Tm  Tm0  1  0.294392  0.087324  0.375896  1
  Tm  Tm1  1  0.294462  0.912568  0.875818  1
  Tm  Tm2  1  0.705636  0.086093  0.875928  1
  Tm  Tm3  1  0.705476  0.912579  0.375530  1
  Tm  Tm4  1  0.585357  0.793150  0.877195  1
  Tm  Tm5  1  0.585079  0.205985  0.375796  1
  Tm  Tm6  1  0.414441  0.793148  0.376611  1
  Tm  Tm7  1  0.413096  0.206124  0.877314  1
  Tm  Tm8  1  0.206850  0.414643  0.622805  1
  Tm  Tm9  1  0.206852  0.585559  0.123389  1
  Tm  Tm10  1  0.794015  0.414921  0.124204  1
  Tm  Tm11  1  0.793876  0.586904  0.622686  1
  Tm  Tm12  1  0.912676  0.705608  0.124104  1
  Tm  Tm13  1  0.913907  0.294364  0.624072  1
  Tm  Tm14  1  0.087432  0.705538  0.624182  1
  Tm  Tm15  1  0.087421  0.294524  0.124470  1
  Tm  Tm16  1  0.999953  0.000014  0.499909  1
  Tm  Tm17  1  0.999986  0.000047  0.000091  1
  Tm  Tm18  1  0.499820  0.500272  0.000194  1
  Tm  Tm19  1  0.499728  0.500180  0.499806  1
  Ir  Ir20  1  0.653032  0.652434  0.250144  1
  Ir  Ir21  1  0.347566  0.346968  0.249856  1
  Ir  Ir22  1  0.346981  0.653019  0.750000  1
  Ru  Ru23  1  0.500272  0.000568  0.122859  1
  Ru  Ru24  1  0.500258  0.000496  0.623143  1
  Ru  Ru25  1  0.999504  0.499742  0.876857  1
  Ru  Ru26  1  0.999432  0.499728  0.377141  1
  Rh  Rh27  1  0.847864  0.152136  0.250000  1
  Rh  Rh28  1  0.848269  0.848267  0.749913  1
  Rh  Rh29  1  0.151733  0.151731  0.750087  1
  Rh  Rh30  1  0.151648  0.848352  0.250000  1
  Rh  Rh31  1  0.652988  0.347012  0.750000  1
