# generated using pymatgen
data_YbDy3(W2O7)2
_symmetry_space_group_name_H-M   'P 1'
_cell_length_a   7.33586901
_cell_length_b   7.33586830
_cell_length_c   7.45182705
_cell_angle_alpha   60.52931543
_cell_angle_beta   60.52932406
_cell_angle_gamma   59.99586078
_symmetry_Int_Tables_number   1
_chemical_formula_structural   YbDy3(W2O7)2
_chemical_formula_sum   'Yb1 Dy3 W4 O14'
_cell_volume   285.80232991
_cell_formula_units_Z   1
loop_
 _symmetry_equiv_pos_site_id
 _symmetry_equiv_pos_as_xyz
  1  'x, y, z'
loop_
 _atom_site_type_symbol
 _atom_site_label
 _atom_site_symmetry_multiplicity
 _atom_site_fract_x
 _atom_site_fract_y
 _atom_site_fract_z
 _atom_site_occupancy
  Yb  Yb0  1  0.500000  0.500000  0.000000  1
  Dy  Dy1  1  0.000000  0.500000  0.500000  1
  Dy  Dy2  1  0.500000  0.000000  0.500000  1
  Dy  Dy3  1  0.500000  0.500000  0.500000  1
  W  W4  1  0.500000  0.000000  0.000000  1
  W  W5  1  0.000000  0.500000  0.000000  1
  W  W6  1  0.000000  0.000000  0.000000  1
  W  W7  1  0.000000  0.000000  0.500000  1
  O  O8  1  0.372656  0.372656  0.382115  1
  O  O9  1  0.627344  0.627344  0.617885  1
  O  O10  1  0.084202  0.671623  0.660000  1
  O  O11  1  0.338507  0.924845  0.898225  1
  O  O12  1  0.671623  0.084202  0.660000  1
  O  O13  1  0.084661  0.084661  0.659642  1
  O  O14  1  0.661786  0.661786  0.103040  1
  O  O15  1  0.075155  0.661493  0.101775  1
  O  O16  1  0.661493  0.075155  0.101775  1
  O  O17  1  0.338214  0.338214  0.896960  1
  O  O18  1  0.915339  0.915339  0.340358  1
  O  O19  1  0.915798  0.328377  0.340000  1
  O  O20  1  0.924845  0.338507  0.898225  1
  O  O21  1  0.328377  0.915798  0.340000  1
