# generated using pymatgen
data_Pr2Th(ZnPt)3
_symmetry_space_group_name_H-M   'P 1'
_cell_length_a   7.55522300
_cell_length_b   7.54461119
_cell_length_c   3.94825000
_cell_angle_alpha   90.00000000
_cell_angle_beta   90.00000000
_cell_angle_gamma   120.04653456
_symmetry_Int_Tables_number   1
_chemical_formula_structural   Pr2Th(ZnPt)3
_chemical_formula_sum   'Pr2 Th1 Zn3 Pt3'
_cell_volume   194.81194804
_cell_formula_units_Z   1
loop_
 _symmetry_equiv_pos_site_id
 _symmetry_equiv_pos_as_xyz
  1  'x, y, z'
loop_
 _atom_site_type_symbol
 _atom_site_label
 _atom_site_symmetry_multiplicity
 _atom_site_fract_x
 _atom_site_fract_y
 _atom_site_fract_z
 _atom_site_occupancy
  Pr  Pr0  1  0.407909  0.406608  0.500000  1
  Pr  Pr1  1  0.001301  0.593392  0.500000  1
  Th  Th2  1  0.590897  0.000000  0.500000  1
  Zn  Zn3  1  0.754589  0.751196  0.000000  1
  Zn  Zn4  1  0.003394  0.248804  0.000000  1
  Zn  Zn5  1  0.238947  0.000000  0.000000  1
  Pt  Pt6  1  0.990434  0.000000  0.500000  1
  Pt  Pt7  1  0.347174  0.681819  0.000000  1
  Pt  Pt8  1  0.665355  0.318181  0.000000  1
