# generated using pymatgen
data_Zr3SiIr2RuPt2
_symmetry_space_group_name_H-M   'P 1'
_cell_length_a   7.30275122
_cell_length_b   7.30275256
_cell_length_c   3.30432500
_cell_angle_alpha   90.00000000
_cell_angle_beta   90.00000000
_cell_angle_gamma   119.80827075
_symmetry_Int_Tables_number   1
_chemical_formula_structural   Zr3SiIr2RuPt2
_chemical_formula_sum   'Zr3 Si1 Ir2 Ru1 Pt2'
_cell_volume   152.90521393
_cell_formula_units_Z   1
loop_
 _symmetry_equiv_pos_site_id
 _symmetry_equiv_pos_as_xyz
  1  'x, y, z'
loop_
 _atom_site_type_symbol
 _atom_site_label
 _atom_site_symmetry_multiplicity
 _atom_site_fract_x
 _atom_site_fract_y
 _atom_site_fract_z
 _atom_site_occupancy
  Zr  Zr0  1  0.399811  0.399811  0.500000  1
  Zr  Zr1  1  0.603272  0.997267  0.500000  1
  Zr  Zr2  1  0.997267  0.603272  0.500000  1
  Si  Si3  1  0.999090  0.999090  0.500000  1
  Ir  Ir4  1  0.000683  0.238850  0.000000  1
  Ir  Ir5  1  0.238850  0.000683  0.000000  1
  Ru  Ru6  1  0.763614  0.763614  0.000000  1
  Pt  Pt7  1  0.665907  0.331507  0.000000  1
  Pt  Pt8  1  0.331507  0.665907  0.000000  1
