# generated using pymatgen
data_HoZrBRh6
_symmetry_space_group_name_H-M   'P 1'
_cell_length_a   5.76262419
_cell_length_b   5.76262409
_cell_length_c   5.76262400
_cell_angle_alpha   60.00000054
_cell_angle_beta   60.00000111
_cell_angle_gamma   60.00000348
_symmetry_Int_Tables_number   1
_chemical_formula_structural   HoZrBRh6
_chemical_formula_sum   'Ho1 Zr1 B1 Rh6'
_cell_volume   135.31498434
_cell_formula_units_Z   1
loop_
 _symmetry_equiv_pos_site_id
 _symmetry_equiv_pos_as_xyz
  1  'x, y, z'
loop_
 _atom_site_type_symbol
 _atom_site_label
 _atom_site_symmetry_multiplicity
 _atom_site_fract_x
 _atom_site_fract_y
 _atom_site_fract_z
 _atom_site_occupancy
  Ho  Ho0  1  0.750000  0.750000  0.750000  1
  Zr  Zr1  1  0.250000  0.250000  0.250000  1
  B  B2  1  0.000000  0.000000  0.000000  1
  Rh  Rh3  1  0.743058  0.743058  0.256942  1
  Rh  Rh4  1  0.256942  0.743058  0.256942  1
  Rh  Rh5  1  0.743058  0.256942  0.256942  1
  Rh  Rh6  1  0.256942  0.256942  0.743058  1
  Rh  Rh7  1  0.743058  0.256942  0.743058  1
  Rh  Rh8  1  0.256942  0.743058  0.743058  1
