# generated using pymatgen
data_CuHgF4
_symmetry_space_group_name_H-M   'P 1'
_cell_length_a   6.58966913
_cell_length_b   6.58966871
_cell_length_c   6.58966914
_cell_angle_alpha   130.12724855
_cell_angle_beta   130.12724752
_cell_angle_gamma   73.20341986
_symmetry_Int_Tables_number   1
_chemical_formula_structural   CuHgF4
_chemical_formula_sum   'Cu2 Hg2 F8'
_cell_volume   163.33643468
_cell_formula_units_Z   2
loop_
 _symmetry_equiv_pos_site_id
 _symmetry_equiv_pos_as_xyz
  1  'x, y, z'
loop_
 _atom_site_type_symbol
 _atom_site_label
 _atom_site_symmetry_multiplicity
 _atom_site_fract_x
 _atom_site_fract_y
 _atom_site_fract_z
 _atom_site_occupancy
  Cu  Cu0  1  0.500000  0.000000  0.500000  1
  Cu  Cu1  1  0.000000  0.500000  0.500000  1
  Hg  Hg2  1  0.250000  0.250000  0.000000  1
  Hg  Hg3  1  0.750000  0.750000  0.000000  1
  F  F4  1  0.948705  0.448705  0.146670  1
  F  F5  1  0.697965  0.197965  0.146670  1
  F  F6  1  0.051295  0.551295  0.853330  1
  F  F7  1  0.551295  0.697965  0.500000  1
  F  F8  1  0.302035  0.802035  0.853330  1
  F  F9  1  0.802035  0.948705  0.500000  1
  F  F10  1  0.448705  0.302035  0.500000  1
  F  F11  1  0.197965  0.051295  0.500000  1
