# generated using pymatgen
data_Tb2Gd3DyTa2O14
_symmetry_space_group_name_H-M   'P 1'
_cell_length_a   6.53832053
_cell_length_b   6.55058216
_cell_length_c   7.53432083
_cell_angle_alpha   89.99592182
_cell_angle_beta   90.01471132
_cell_angle_gamma   108.58899173
_symmetry_Int_Tables_number   1
_chemical_formula_structural   Tb2Gd3DyTa2O14
_chemical_formula_sum   'Tb2 Gd3 Dy1 Ta2 O14'
_cell_volume   305.85846281
_cell_formula_units_Z   1
loop_
 _symmetry_equiv_pos_site_id
 _symmetry_equiv_pos_as_xyz
  1  'x, y, z'
loop_
 _atom_site_type_symbol
 _atom_site_label
 _atom_site_symmetry_multiplicity
 _atom_site_fract_x
 _atom_site_fract_y
 _atom_site_fract_z
 _atom_site_occupancy
  Tb  Tb0  1  0.535419  0.999526  0.757902  1
  Tb  Tb1  1  0.000180  0.464691  0.742042  1
  Gd  Gd2  1  0.999523  0.533431  0.242363  1
  Gd  Gd3  1  0.467165  0.464685  0.998833  1
  Gd  Gd4  1  0.530889  0.533180  0.499872  1
  Dy  Dy5  1  0.464409  0.999706  0.257924  1
  Ta  Ta6  1  0.002223  0.001623  0.500103  1
  Ta  Ta7  1  0.997447  0.997658  0.999526  1
  O  O8  1  0.931872  0.064995  0.749799  1
  O  O9  1  0.639348  0.358773  0.749331  1
  O  O10  1  0.306240  0.045362  0.542630  1
  O  O11  1  0.946882  0.693429  0.955912  1
  O  O12  1  0.626265  0.366358  0.251489  1
  O  O13  1  0.918651  0.674863  0.526480  1
  O  O14  1  0.326081  0.078282  0.975643  1
  O  O15  1  0.082267  0.326720  0.021741  1
  O  O16  1  0.674847  0.922271  0.473082  1
  O  O17  1  0.370782  0.630902  0.750402  1
  O  O18  1  0.694891  0.955207  0.045015  1
  O  O19  1  0.056656  0.309299  0.461383  1
  O  O20  1  0.361526  0.641994  0.248592  1
  O  O21  1  0.066437  0.937045  0.249938  1
