# generated using pymatgen
data_Sc10As4OsRu
_symmetry_space_group_name_H-M   'P 1'
_cell_length_a   5.83236600
_cell_length_b   7.82574173
_cell_length_c   7.98474771
_cell_angle_alpha   119.34342178
_cell_angle_beta   90.00000000
_cell_angle_gamma   90.00000000
_symmetry_Int_Tables_number   1
_chemical_formula_structural   Sc10As4OsRu
_chemical_formula_sum   'Sc10 As4 Os1 Ru1'
_cell_volume   317.68565111
_cell_formula_units_Z   1
loop_
 _symmetry_equiv_pos_site_id
 _symmetry_equiv_pos_as_xyz
  1  'x, y, z'
loop_
 _atom_site_type_symbol
 _atom_site_label
 _atom_site_symmetry_multiplicity
 _atom_site_fract_x
 _atom_site_fract_y
 _atom_site_fract_z
 _atom_site_occupancy
  Sc  Sc0  1  0.999066  0.662848  0.325112  1
  Sc  Sc1  1  0.999066  0.337733  0.674888  1
  Sc  Sc2  1  0.500934  0.337733  0.674888  1
  Sc  Sc3  1  0.500934  0.662848  0.325112  1
  Sc  Sc4  1  0.750000  0.743563  0.766746  1
  Sc  Sc5  1  0.250000  0.256679  0.233210  1
  Sc  Sc6  1  0.750000  0.976819  0.233254  1
  Sc  Sc7  1  0.250000  0.023468  0.766790  1
  Sc  Sc8  1  0.750000  0.250027  0.000000  1
  Sc  Sc9  1  0.250000  0.748932  0.000000  1
  As  As10  1  0.750000  0.378746  0.388061  1
  As  As11  1  0.250000  0.621204  0.611805  1
  As  As12  1  0.750000  0.990685  0.611939  1
  As  As13  1  0.250000  0.009398  0.388195  1
  Os  Os14  1  0.750000  0.590685  0.000000  1
  Ru  Ru15  1  0.250000  0.408632  0.000000  1
