# generated using pymatgen
data_Sm2Ga5Pt2Rh
_symmetry_space_group_name_H-M   'P 1'
_cell_length_a   8.67530369
_cell_length_b   8.67530451
_cell_length_c   5.78951200
_cell_angle_alpha   70.51830760
_cell_angle_beta   70.51830567
_cell_angle_gamma   95.44884458
_symmetry_Int_Tables_number   1
_chemical_formula_structural   Sm2Ga5Pt2Rh
_chemical_formula_sum   'Sm4 Ga10 Pt4 Rh2'
_cell_volume   376.69527214
_cell_formula_units_Z   2
loop_
 _symmetry_equiv_pos_site_id
 _symmetry_equiv_pos_as_xyz
  1  'x, y, z'
loop_
 _atom_site_type_symbol
 _atom_site_label
 _atom_site_symmetry_multiplicity
 _atom_site_fract_x
 _atom_site_fract_y
 _atom_site_fract_z
 _atom_site_occupancy
  Sm  Sm0  1  0.865661  0.588147  0.772778  1
  Sm  Sm1  1  0.411853  0.134339  0.727222  1
  Sm  Sm2  1  0.134339  0.411853  0.227222  1
  Sm  Sm3  1  0.588147  0.865661  0.272778  1
  Ga  Ga4  1  0.075880  0.257405  0.833320  1
  Ga  Ga5  1  0.742595  0.924120  0.666680  1
  Ga  Ga6  1  0.924120  0.742595  0.166680  1
  Ga  Ga7  1  0.257405  0.075880  0.333320  1
  Ga  Ga8  1  0.205086  0.794914  0.750000  1
  Ga  Ga9  1  0.794914  0.205086  0.250000  1
  Ga  Ga10  1  0.500273  0.499727  0.750000  1
  Ga  Ga11  1  0.499727  0.500273  0.250000  1
  Ga  Ga12  1  0.794254  0.205746  0.750000  1
  Ga  Ga13  1  0.205746  0.794254  0.250000  1
  Pt  Pt14  1  0.255285  0.550195  0.598104  1
  Pt  Pt15  1  0.449805  0.744715  0.901896  1
  Pt  Pt16  1  0.744715  0.449805  0.401896  1
  Pt  Pt17  1  0.550195  0.255285  0.098104  1
  Rh  Rh18  1  0.999889  0.000111  0.750000  1
  Rh  Rh19  1  0.000111  0.999889  0.250000  1
