# generated using pymatgen
data_CaHo3(ReN3)4
_symmetry_space_group_name_H-M   'P 1'
_cell_length_a   7.37964515
_cell_length_b   7.37964492
_cell_length_c   6.27257697
_cell_angle_alpha   73.18470127
_cell_angle_beta   73.18470161
_cell_angle_gamma   82.58886028
_symmetry_Int_Tables_number   1
_chemical_formula_structural   CaHo3(ReN3)4
_chemical_formula_sum   'Ca1 Ho3 Re4 N12'
_cell_volume   312.62902958
_cell_formula_units_Z   1
loop_
 _symmetry_equiv_pos_site_id
 _symmetry_equiv_pos_as_xyz
  1  'x, y, z'
loop_
 _atom_site_type_symbol
 _atom_site_label
 _atom_site_symmetry_multiplicity
 _atom_site_fract_x
 _atom_site_fract_y
 _atom_site_fract_z
 _atom_site_occupancy
  Ca  Ca0  1  0.707173  0.292827  0.250000  1
  Ho  Ho1  1  0.909090  0.090910  0.750000  1
  Ho  Ho2  1  0.289620  0.710380  0.750000  1
  Ho  Ho3  1  0.092485  0.907515  0.250000  1
  Re  Re4  1  0.621999  0.794528  0.275660  1
  Re  Re5  1  0.205472  0.378001  0.224340  1
  Re  Re6  1  0.378159  0.202261  0.726011  1
  Re  Re7  1  0.797739  0.621841  0.773989  1
  N  N8  1  0.336378  0.364821  0.923336  1
  N  N9  1  0.012999  0.215897  0.343947  1
  N  N10  1  0.784103  0.987001  0.156053  1
  N  N11  1  0.218649  0.002969  0.841069  1
  N  N12  1  0.659376  0.645460  0.067730  1
  N  N13  1  0.877061  0.378367  0.826007  1
  N  N14  1  0.128432  0.627117  0.159310  1
  N  N15  1  0.997031  0.781351  0.658931  1
  N  N16  1  0.372883  0.871568  0.340690  1
  N  N17  1  0.635179  0.663622  0.576664  1
  N  N18  1  0.621633  0.122939  0.673993  1
  N  N19  1  0.354540  0.340624  0.432270  1
