# generated using pymatgen
data_Hf8Si8MoW
_symmetry_space_group_name_H-M   'P 1'
_cell_length_a   6.94965609
_cell_length_b   6.94965609
_cell_length_c   12.71286000
_cell_angle_alpha   90.00000000
_cell_angle_beta   90.00000000
_cell_angle_gamma   89.98176338
_symmetry_Int_Tables_number   1
_chemical_formula_structural   Hf8Si8MoW
_chemical_formula_sum   'Hf16 Si16 Mo2 W2'
_cell_volume   614.00211829
_cell_formula_units_Z   2
loop_
 _symmetry_equiv_pos_site_id
 _symmetry_equiv_pos_as_xyz
  1  'x, y, z'
loop_
 _atom_site_type_symbol
 _atom_site_label
 _atom_site_symmetry_multiplicity
 _atom_site_fract_x
 _atom_site_fract_y
 _atom_site_fract_z
 _atom_site_occupancy
  Hf  Hf0  1  0.496862  0.154656  0.530428  1
  Hf  Hf1  1  0.503138  0.845344  0.030428  1
  Hf  Hf2  1  0.654902  0.003332  0.280606  1
  Hf  Hf3  1  0.345098  0.996668  0.780606  1
  Hf  Hf4  1  0.845344  0.503138  0.969572  1
  Hf  Hf5  1  0.154656  0.496862  0.469572  1
  Hf  Hf6  1  0.003332  0.654902  0.719394  1
  Hf  Hf7  1  0.996668  0.345098  0.219394  1
  Hf  Hf8  1  0.498106  0.355112  0.124687  1
  Hf  Hf9  1  0.501894  0.644888  0.624687  1
  Hf  Hf10  1  0.855384  0.001960  0.874700  1
  Hf  Hf11  1  0.144616  0.998040  0.374700  1
  Hf  Hf12  1  0.644888  0.501894  0.375313  1
  Hf  Hf13  1  0.355112  0.498106  0.875313  1
  Hf  Hf14  1  0.001960  0.855384  0.125300  1
  Hf  Hf15  1  0.998040  0.144616  0.625300  1
  Si  Si16  1  0.797266  0.146200  0.071610  1
  Si  Si17  1  0.202734  0.853800  0.571610  1
  Si  Si18  1  0.646212  0.702939  0.821565  1
  Si  Si19  1  0.353788  0.297061  0.321565  1
  Si  Si20  1  0.853800  0.202734  0.428390  1
  Si  Si21  1  0.146200  0.797266  0.928390  1
  Si  Si22  1  0.702939  0.646212  0.178435  1
  Si  Si23  1  0.297061  0.353788  0.678435  1
  Si  Si24  1  0.546166  0.197390  0.933225  1
  Si  Si25  1  0.453834  0.802610  0.433225  1
  Si  Si26  1  0.697504  0.953696  0.683204  1
  Si  Si27  1  0.302496  0.046304  0.183204  1
  Si  Si28  1  0.802610  0.453834  0.566775  1
  Si  Si29  1  0.197390  0.546166  0.066775  1
  Si  Si30  1  0.953696  0.697504  0.316796  1
  Si  Si31  1  0.046304  0.302496  0.816796  1
  Mo  Mo32  1  0.672307  0.327693  0.750000  1
  Mo  Mo33  1  0.327693  0.672307  0.250000  1
  W  W34  1  0.827466  0.827466  0.500000  1
  W  W35  1  0.172534  0.172534  0.000000  1
