# generated using pymatgen
data_Dy2TmAl12Ir3Ru
_symmetry_space_group_name_H-M   'P 1'
_cell_length_a   8.80814322
_cell_length_b   8.81896102
_cell_length_c   9.47596300
_cell_angle_alpha   90.00000000
_cell_angle_beta   90.00000000
_cell_angle_gamma   120.04063955
_symmetry_Int_Tables_number   1
_chemical_formula_structural   Dy2TmAl12Ir3Ru
_chemical_formula_sum   'Dy4 Tm2 Al24 Ir6 Ru2'
_cell_volume   637.20295990
_cell_formula_units_Z   2
loop_
 _symmetry_equiv_pos_site_id
 _symmetry_equiv_pos_as_xyz
  1  'x, y, z'
loop_
 _atom_site_type_symbol
 _atom_site_label
 _atom_site_symmetry_multiplicity
 _atom_site_fract_x
 _atom_site_fract_y
 _atom_site_fract_z
 _atom_site_occupancy
  Dy  Dy0  1  0.613846  0.806922  0.250000  1
  Dy  Dy1  1  0.807764  0.192159  0.750000  1
  Dy  Dy2  1  0.807764  0.615606  0.750000  1
  Dy  Dy3  1  0.384256  0.192129  0.750000  1
  Tm  Tm4  1  0.194021  0.806005  0.250000  1
  Tm  Tm5  1  0.194021  0.388015  0.250000  1
  Al  Al6  1  0.561522  0.437246  0.250000  1
  Al  Al7  1  0.561522  0.124276  0.250000  1
  Al  Al8  1  0.876553  0.438276  0.250000  1
  Al  Al9  1  0.437797  0.562647  0.750000  1
  Al  Al10  1  0.437797  0.875151  0.750000  1
  Al  Al11  1  0.124621  0.562310  0.750000  1
  Al  Al12  1  0.325815  0.162908  0.423270  1
  Al  Al13  1  0.837402  0.163347  0.423397  1
  Al  Al14  1  0.837402  0.674056  0.423397  1
  Al  Al15  1  0.673678  0.836838  0.576474  1
  Al  Al16  1  0.163014  0.837076  0.575829  1
  Al  Al17  1  0.163014  0.325938  0.575829  1
  Al  Al18  1  0.673678  0.836838  0.923526  1
  Al  Al19  1  0.163014  0.837076  0.924171  1
  Al  Al20  1  0.163014  0.325938  0.924171  1
  Al  Al21  1  0.325815  0.162908  0.076730  1
  Al  Al22  1  0.837402  0.163347  0.076603  1
  Al  Al23  1  0.837402  0.674056  0.076603  1
  Al  Al24  1  0.666219  0.333109  0.529639  1
  Al  Al25  1  0.332984  0.666492  0.469799  1
  Al  Al26  1  0.332984  0.666492  0.030201  1
  Al  Al27  1  0.666219  0.333109  0.970361  1
  Al  Al28  1  0.001057  0.000528  0.250000  1
  Al  Al29  1  0.999875  0.999938  0.750000  1
  Ir  Ir30  1  0.499245  0.499994  0.499143  1
  Ir  Ir31  1  0.499245  0.999251  0.499143  1
  Ir  Ir32  1  0.000571  0.500286  0.499048  1
  Ir  Ir33  1  0.499245  0.499994  0.000857  1
  Ir  Ir34  1  0.499245  0.999251  0.000857  1
  Ir  Ir35  1  0.000571  0.500286  0.000952  1
  Ru  Ru36  1  0.000200  0.000100  0.499254  1
  Ru  Ru37  1  0.000200  0.000100  0.000746  1
