# generated using pymatgen
data_Tm2Lu2B12MoRh
_symmetry_space_group_name_H-M   'P 1'
_cell_length_a   3.61160300
_cell_length_b   9.09249368
_cell_length_c   11.48973910
_cell_angle_alpha   90.36753664
_cell_angle_beta   90.00000000
_cell_angle_gamma   90.00000000
_symmetry_Int_Tables_number   1
_chemical_formula_structural   Tm2Lu2B12MoRh
_chemical_formula_sum   'Tm4 Lu4 B24 Mo2 Rh2'
_cell_volume   377.29777525
_cell_formula_units_Z   2
loop_
 _symmetry_equiv_pos_site_id
 _symmetry_equiv_pos_as_xyz
  1  'x, y, z'
loop_
 _atom_site_type_symbol
 _atom_site_label
 _atom_site_symmetry_multiplicity
 _atom_site_fract_x
 _atom_site_fract_y
 _atom_site_fract_z
 _atom_site_occupancy
  Tm  Tm0  1  0.500000  0.317625  0.411762  1
  Tm  Tm1  1  0.500000  0.682375  0.588238  1
  Tm  Tm2  1  0.500000  0.175551  0.916995  1
  Tm  Tm3  1  0.500000  0.824449  0.083005  1
  Lu  Lu4  1  0.500000  0.443277  0.126826  1
  Lu  Lu5  1  0.500000  0.556723  0.873174  1
  Lu  Lu6  1  0.500000  0.055196  0.627903  1
  Lu  Lu7  1  0.500000  0.944804  0.372097  1
  B  B8  1  0.000000  0.104908  0.472367  1
  B  B9  1  0.000000  0.895092  0.527633  1
  B  B10  1  0.000000  0.396524  0.970616  1
  B  B11  1  0.000000  0.603476  0.029384  1
  B  B12  1  0.000000  0.131627  0.318205  1
  B  B13  1  0.000000  0.868373  0.681795  1
  B  B14  1  0.000000  0.369203  0.816242  1
  B  B15  1  0.000000  0.630797  0.183758  1
  B  B16  1  0.000000  0.051634  0.065761  1
  B  B17  1  0.000000  0.948366  0.934239  1
  B  B18  1  0.000000  0.446050  0.565152  1
  B  B19  1  0.000000  0.553950  0.434848  1
  B  B20  1  0.000000  0.482563  0.288244  1
  B  B21  1  0.000000  0.517437  0.711756  1
  B  B22  1  0.000000  0.021750  0.786078  1
  B  B23  1  0.000000  0.978250  0.213922  1
  B  B24  1  0.000000  0.251208  0.079131  1
  B  B25  1  0.000000  0.748792  0.920869  1
  B  B26  1  0.000000  0.249786  0.578979  1
  B  B27  1  0.000000  0.750214  0.421021  1
  B  B28  1  0.000000  0.296102  0.237016  1
  B  B29  1  0.000000  0.703898  0.762984  1
  B  B30  1  0.000000  0.208899  0.734477  1
  B  B31  1  0.000000  0.791101  0.265523  1
  Mo  Mo32  1  0.500000  0.139311  0.181490  1
  Mo  Mo33  1  0.500000  0.860689  0.818510  1
  Rh  Rh34  1  0.500000  0.362015  0.678203  1
  Rh  Rh35  1  0.500000  0.637985  0.321797  1
