# generated using pymatgen
data_Er3Lu2CoBi2
_symmetry_space_group_name_H-M   'P 1'
_cell_length_a   7.85219700
_cell_length_b   8.87100900
_cell_length_c   12.34085800
_cell_angle_alpha   90.00000000
_cell_angle_beta   90.00000000
_cell_angle_gamma   90.00000000
_symmetry_Int_Tables_number   1
_chemical_formula_structural   Er3Lu2CoBi2
_chemical_formula_sum   'Er12 Lu8 Co4 Bi8'
_cell_volume   859.62603820
_cell_formula_units_Z   4
loop_
 _symmetry_equiv_pos_site_id
 _symmetry_equiv_pos_as_xyz
  1  'x, y, z'
loop_
 _atom_site_type_symbol
 _atom_site_label
 _atom_site_symmetry_multiplicity
 _atom_site_fract_x
 _atom_site_fract_y
 _atom_site_fract_z
 _atom_site_occupancy
  Er  Er0  1  0.153368  0.750000  0.200243  1
  Er  Er1  1  0.653368  0.250000  0.299757  1
  Er  Er2  1  0.846632  0.250000  0.799757  1
  Er  Er3  1  0.346632  0.750000  0.700243  1
  Er  Er4  1  0.443425  0.750000  0.997202  1
  Er  Er5  1  0.943425  0.250000  0.502798  1
  Er  Er6  1  0.556575  0.250000  0.002798  1
  Er  Er7  1  0.056575  0.750000  0.497202  1
  Er  Er8  1  0.618034  0.750000  0.314135  1
  Er  Er9  1  0.118034  0.250000  0.185865  1
  Er  Er10  1  0.381966  0.250000  0.685865  1
  Er  Er11  1  0.881966  0.750000  0.814135  1
  Lu  Lu12  1  0.829197  0.962432  0.063622  1
  Lu  Lu13  1  0.329197  0.037568  0.436378  1
  Lu  Lu14  1  0.170803  0.462432  0.936378  1
  Lu  Lu15  1  0.670803  0.537568  0.563622  1
  Lu  Lu16  1  0.170803  0.037568  0.936378  1
  Lu  Lu17  1  0.670803  0.962432  0.563622  1
  Lu  Lu18  1  0.829197  0.537568  0.063622  1
  Lu  Lu19  1  0.329197  0.462432  0.436378  1
  Co  Co20  1  0.435237  0.750000  0.493204  1
  Co  Co21  1  0.935237  0.250000  0.006796  1
  Co  Co22  1  0.564763  0.250000  0.506796  1
  Co  Co23  1  0.064763  0.750000  0.993204  1
  Bi  Bi24  1  0.933513  0.992086  0.327200  1
  Bi  Bi25  1  0.433513  0.007914  0.172800  1
  Bi  Bi26  1  0.066487  0.492086  0.672800  1
  Bi  Bi27  1  0.566487  0.507914  0.827200  1
  Bi  Bi28  1  0.066487  0.007914  0.672800  1
  Bi  Bi29  1  0.566487  0.992086  0.827200  1
  Bi  Bi30  1  0.933513  0.507914  0.327200  1
  Bi  Bi31  1  0.433513  0.492086  0.172800  1
