# generated using pymatgen
data_DyHoFe6(P3Ru2)2
_symmetry_space_group_name_H-M   'P 1'
_cell_length_a   3.75591200
_cell_length_b   10.47146600
_cell_length_c   11.98293400
_cell_angle_alpha   90.00000000
_cell_angle_beta   90.00000000
_cell_angle_gamma   90.00000000
_symmetry_Int_Tables_number   1
_chemical_formula_structural   DyHoFe6(P3Ru2)2
_chemical_formula_sum   'Dy2 Ho2 Fe12 P12 Ru8'
_cell_volume   471.28765353
_cell_formula_units_Z   2
loop_
 _symmetry_equiv_pos_site_id
 _symmetry_equiv_pos_as_xyz
  1  'x, y, z'
loop_
 _atom_site_type_symbol
 _atom_site_label
 _atom_site_symmetry_multiplicity
 _atom_site_fract_x
 _atom_site_fract_y
 _atom_site_fract_z
 _atom_site_occupancy
  Dy  Dy0  1  0.750000  0.417111  0.290580  1
  Dy  Dy1  1  0.750000  0.082889  0.790580  1
  Ho  Ho2  1  0.250000  0.582882  0.709409  1
  Ho  Ho3  1  0.250000  0.917118  0.209409  1
  Fe  Fe4  1  0.250000  0.224000  0.175764  1
  Fe  Fe5  1  0.250000  0.276000  0.675764  1
  Fe  Fe6  1  0.750000  0.775729  0.824263  1
  Fe  Fe7  1  0.750000  0.724271  0.324263  1
  Fe  Fe8  1  0.250000  0.880224  0.698989  1
  Fe  Fe9  1  0.250000  0.619776  0.198989  1
  Fe  Fe10  1  0.750000  0.119364  0.300862  1
  Fe  Fe11  1  0.750000  0.380636  0.800862  1
  Fe  Fe12  1  0.250000  0.462212  0.934441  1
  Fe  Fe13  1  0.250000  0.037788  0.434441  1
  Fe  Fe14  1  0.750000  0.537972  0.065266  1
  Fe  Fe15  1  0.750000  0.962028  0.565266  1
  P  P16  1  0.250000  0.425259  0.112873  1
  P  P17  1  0.250000  0.074741  0.612873  1
  P  P18  1  0.750000  0.574822  0.886808  1
  P  P19  1  0.750000  0.925178  0.386808  1
  P  P20  1  0.250000  0.272836  0.861574  1
  P  P21  1  0.250000  0.227164  0.361574  1
  P  P22  1  0.750000  0.727433  0.138566  1
  P  P23  1  0.750000  0.772567  0.638566  1
  P  P24  1  0.250000  0.606108  0.385400  1
  P  P25  1  0.250000  0.893892  0.885400  1
  P  P26  1  0.750000  0.394169  0.614721  1
  P  P27  1  0.750000  0.105831  0.114721  1
  Ru  Ru28  1  0.250000  0.702245  0.984360  1
  Ru  Ru29  1  0.250000  0.797755  0.484360  1
  Ru  Ru30  1  0.750000  0.297757  0.015648  1
  Ru  Ru31  1  0.750000  0.202243  0.515648  1
  Ru  Ru32  1  0.250000  0.403022  0.486026  1
  Ru  Ru33  1  0.250000  0.096978  0.986026  1
  Ru  Ru34  1  0.750000  0.597025  0.514451  1
  Ru  Ru35  1  0.750000  0.902975  0.014451  1
