# generated using pymatgen
data_Dy2Lu6Tl3Ir
_symmetry_space_group_name_H-M   'P 1'
_cell_length_a   10.13294320
_cell_length_b   10.13269995
_cell_length_c   7.13821000
_cell_angle_alpha   89.97123534
_cell_angle_beta   90.02789319
_cell_angle_gamma   119.92539093
_symmetry_Int_Tables_number   1
_chemical_formula_structural   Dy2Lu6Tl3Ir
_chemical_formula_sum   'Dy4 Lu12 Tl6 Ir2'
_cell_volume   635.19444062
_cell_formula_units_Z   2
loop_
 _symmetry_equiv_pos_site_id
 _symmetry_equiv_pos_as_xyz
  1  'x, y, z'
loop_
 _atom_site_type_symbol
 _atom_site_label
 _atom_site_symmetry_multiplicity
 _atom_site_fract_x
 _atom_site_fract_y
 _atom_site_fract_z
 _atom_site_occupancy
  Dy  Dy0  1  0.931110  0.465836  0.711152  1
  Dy  Dy1  1  0.534178  0.068882  0.711155  1
  Dy  Dy2  1  0.999868  0.000129  0.230830  1
  Dy  Dy3  1  0.999909  0.000050  0.731517  1
  Lu  Lu4  1  0.176508  0.823506  0.508059  1
  Lu  Lu5  1  0.646199  0.822123  0.509239  1
  Lu  Lu6  1  0.177884  0.353803  0.509275  1
  Lu  Lu7  1  0.823006  0.177013  0.012522  1
  Lu  Lu8  1  0.353713  0.177516  0.011599  1
  Lu  Lu9  1  0.822483  0.646274  0.011637  1
  Lu  Lu10  1  0.333914  0.666096  0.826884  1
  Lu  Lu11  1  0.666154  0.333802  0.326750  1
  Lu  Lu12  1  0.463775  0.536219  0.210730  1
  Lu  Lu13  1  0.073252  0.536655  0.210708  1
  Lu  Lu14  1  0.463342  0.926754  0.210674  1
  Lu  Lu15  1  0.535770  0.464257  0.710997  1
  Tl  Tl16  1  0.164426  0.835565  0.958658  1
  Tl  Tl17  1  0.671037  0.835777  0.957647  1
  Tl  Tl18  1  0.164232  0.328977  0.957651  1
  Tl  Tl19  1  0.836197  0.163814  0.456563  1
  Tl  Tl20  1  0.328891  0.164787  0.457064  1
  Tl  Tl21  1  0.835221  0.671100  0.457055  1
  Ir  Ir22  1  0.333314  0.666700  0.442280  1
  Ir  Ir23  1  0.665623  0.334366  0.944186  1
