# generated using pymatgen
data_Y4Ho6Cd3Fe
_symmetry_space_group_name_H-M   'P 1'
_cell_length_a   9.57334700
_cell_length_b   9.57334787
_cell_length_c   9.75686000
_cell_angle_alpha   90.00000000
_cell_angle_beta   90.00000000
_cell_angle_gamma   119.99999352
_symmetry_Int_Tables_number   1
_chemical_formula_structural   Y4Ho6Cd3Fe
_chemical_formula_sum   'Y8 Ho12 Cd6 Fe2'
_cell_volume   774.40540377
_cell_formula_units_Z   2
loop_
 _symmetry_equiv_pos_site_id
 _symmetry_equiv_pos_as_xyz
  1  'x, y, z'
loop_
 _atom_site_type_symbol
 _atom_site_label
 _atom_site_symmetry_multiplicity
 _atom_site_fract_x
 _atom_site_fract_y
 _atom_site_fract_z
 _atom_site_occupancy
  Y  Y0  1  0.000000  0.000000  0.500000  1
  Y  Y1  1  0.000000  0.000000  0.000000  1
  Y  Y2  1  0.541418  0.458582  0.250000  1
  Y  Y3  1  0.541418  0.082836  0.250000  1
  Y  Y4  1  0.917164  0.458582  0.250000  1
  Y  Y5  1  0.458582  0.541418  0.750000  1
  Y  Y6  1  0.458582  0.917164  0.750000  1
  Y  Y7  1  0.082836  0.541418  0.750000  1
  Ho  Ho8  1  0.212439  0.787561  0.435488  1
  Ho  Ho9  1  0.212439  0.424881  0.435488  1
  Ho  Ho10  1  0.575119  0.787561  0.435488  1
  Ho  Ho11  1  0.787561  0.212439  0.564512  1
  Ho  Ho12  1  0.787561  0.575119  0.564512  1
  Ho  Ho13  1  0.424881  0.212439  0.564512  1
  Ho  Ho14  1  0.787561  0.212439  0.935488  1
  Ho  Ho15  1  0.787561  0.575119  0.935488  1
  Ho  Ho16  1  0.424881  0.212439  0.935488  1
  Ho  Ho17  1  0.212439  0.787561  0.064512  1
  Ho  Ho18  1  0.212439  0.424881  0.064512  1
  Ho  Ho19  1  0.575119  0.787561  0.064512  1
  Cd  Cd20  1  0.885216  0.114784  0.250000  1
  Cd  Cd21  1  0.885216  0.770432  0.250000  1
  Cd  Cd22  1  0.229568  0.114784  0.250000  1
  Cd  Cd23  1  0.114784  0.885216  0.750000  1
  Cd  Cd24  1  0.114784  0.229568  0.750000  1
  Cd  Cd25  1  0.770432  0.885216  0.750000  1
  Fe  Fe26  1  0.333333  0.666667  0.250000  1
  Fe  Fe27  1  0.666667  0.333333  0.750000  1
