# generated using pymatgen
data_Eu2CrCo11P7
_symmetry_space_group_name_H-M   'P 1'
_cell_length_a   9.08382369
_cell_length_b   9.11462217
_cell_length_c   3.62896000
_cell_angle_alpha   90.00000000
_cell_angle_beta   90.00000000
_cell_angle_gamma   120.06066225
_symmetry_Int_Tables_number   1
_chemical_formula_structural   Eu2CrCo11P7
_chemical_formula_sum   'Eu2 Cr1 Co11 P7'
_cell_volume   260.04851765
_cell_formula_units_Z   1
loop_
 _symmetry_equiv_pos_site_id
 _symmetry_equiv_pos_as_xyz
  1  'x, y, z'
loop_
 _atom_site_type_symbol
 _atom_site_label
 _atom_site_symmetry_multiplicity
 _atom_site_fract_x
 _atom_site_fract_y
 _atom_site_fract_z
 _atom_site_occupancy
  Eu  Eu0  1  0.334198  0.665795  0.000000  1
  Eu  Eu1  1  0.667107  0.332852  0.500000  1
  Cr  Cr2  1  0.213637  0.098060  0.500000  1
  Co  Co3  1  0.429403  0.056409  0.000000  1
  Co  Co4  1  0.152166  0.271591  0.000000  1
  Co  Co5  1  0.943355  0.374162  0.000000  1
  Co  Co6  1  0.627461  0.570180  0.000000  1
  Co  Co7  1  0.117156  0.844164  0.000000  1
  Co  Co8  1  0.728048  0.881472  0.000000  1
  Co  Co9  1  0.903687  0.128275  0.500000  1
  Co  Co10  1  0.383140  0.431358  0.500000  1
  Co  Co11  1  0.050061  0.617269  0.500000  1
  Co  Co12  1  0.876098  0.776717  0.500000  1
  Co  Co13  1  0.569936  0.952746  0.500000  1
  P  P14  1  0.997571  0.998263  0.000000  1
  P  P15  1  0.705667  0.110527  0.000000  1
  P  P16  1  0.406666  0.297183  0.000000  1
  P  P17  1  0.889929  0.593124  0.000000  1
  P  P18  1  0.109282  0.400810  0.500000  1
  P  P19  1  0.602165  0.710118  0.500000  1
  P  P20  1  0.293281  0.888970  0.500000  1
