# generated using pymatgen
data_PrCl27
_symmetry_space_group_name_H-M   'P 1'
_cell_length_a   17.34004288
_cell_length_b   17.34004199
_cell_length_c   17.34004221
_cell_angle_alpha   119.52938589
_cell_angle_beta   119.52938745
_cell_angle_gamma   119.52938049
_symmetry_Int_Tables_number   1
_chemical_formula_structural   PrCl27
_chemical_formula_sum   'Pr1 Cl27'
_cell_volume   929.47199164
_cell_formula_units_Z   1
loop_
 _symmetry_equiv_pos_site_id
 _symmetry_equiv_pos_as_xyz
  1  'x, y, z'
loop_
 _atom_site_type_symbol
 _atom_site_label
 _atom_site_symmetry_multiplicity
 _atom_site_fract_x
 _atom_site_fract_y
 _atom_site_fract_z
 _atom_site_occupancy
  Pr  Pr0  1  0.431694  0.431694  0.431694  1
  Cl  Cl1  1  0.132501  0.700090  0.700090  1
  Cl  Cl2  1  0.700090  0.700090  0.132501  1
  Cl  Cl3  1  0.700090  0.132501  0.700090  1
  Cl  Cl4  1  0.136914  0.773673  0.621339  1
  Cl  Cl5  1  0.773673  0.621339  0.136914  1
  Cl  Cl6  1  0.621339  0.136914  0.773673  1
  Cl  Cl7  1  0.773673  0.136914  0.621339  1
  Cl  Cl8  1  0.136914  0.621339  0.773673  1
  Cl  Cl9  1  0.621339  0.773673  0.136914  1
  Cl  Cl10  1  0.204773  0.713477  0.554621  1
  Cl  Cl11  1  0.713477  0.554621  0.204773  1
  Cl  Cl12  1  0.554621  0.204773  0.713477  1
  Cl  Cl13  1  0.713477  0.204773  0.554621  1
  Cl  Cl14  1  0.204773  0.554621  0.713477  1
  Cl  Cl15  1  0.554621  0.713477  0.204773  1
  Cl  Cl16  1  0.277714  0.650225  0.497781  1
  Cl  Cl17  1  0.650225  0.497781  0.277714  1
  Cl  Cl18  1  0.497781  0.277714  0.650225  1
  Cl  Cl19  1  0.650225  0.277714  0.497781  1
  Cl  Cl20  1  0.277714  0.497781  0.650225  1
  Cl  Cl21  1  0.497781  0.650225  0.277714  1
  Cl  Cl22  1  0.282543  0.572112  0.572112  1
  Cl  Cl23  1  0.572112  0.572112  0.282543  1
  Cl  Cl24  1  0.572112  0.282543  0.572112  1
  Cl  Cl25  1  0.012700  0.891112  0.891112  1
  Cl  Cl26  1  0.891112  0.891112  0.012700  1
  Cl  Cl27  1  0.891112  0.012700  0.891112  1
