# generated using pymatgen
data_YTmLu6(WO6)4
_symmetry_space_group_name_H-M   'P 1'
_cell_length_a   5.31974500
_cell_length_b   7.60706711
_cell_length_c   11.32219002
_cell_angle_alpha   75.18153636
_cell_angle_beta   90.00000000
_cell_angle_gamma   90.00000000
_symmetry_Int_Tables_number   1
_chemical_formula_structural   YTmLu6(WO6)4
_chemical_formula_sum   'Y1 Tm1 Lu6 W4 O24'
_cell_volume   442.94382224
_cell_formula_units_Z   1
loop_
 _symmetry_equiv_pos_site_id
 _symmetry_equiv_pos_as_xyz
  1  'x, y, z'
loop_
 _atom_site_type_symbol
 _atom_site_label
 _atom_site_symmetry_multiplicity
 _atom_site_fract_x
 _atom_site_fract_y
 _atom_site_fract_z
 _atom_site_occupancy
  Y  Y0  1  0.314788  0.500000  0.750000  1
  Tm  Tm1  1  0.685311  0.500000  0.250000  1
  Lu  Lu2  1  0.257698  0.000000  0.750000  1
  Lu  Lu3  1  0.182906  0.794678  0.079179  1
  Lu  Lu4  1  0.182906  0.205322  0.420821  1
  Lu  Lu5  1  0.741256  0.000000  0.250000  1
  Lu  Lu6  1  0.816546  0.204385  0.921695  1
  Lu  Lu7  1  0.816546  0.795615  0.578305  1
  W  W8  1  0.743631  0.725227  0.885915  1
  W  W9  1  0.256445  0.724542  0.384560  1
  W  W10  1  0.743631  0.274773  0.614085  1
  W  W11  1  0.256445  0.275458  0.115440  1
  O  O12  1  0.540944  0.153206  0.069400  1
  O  O13  1  0.042591  0.056760  0.105363  1
  O  O14  1  0.019698  0.715633  0.769237  1
  O  O15  1  0.457841  0.153516  0.568972  1
  O  O16  1  0.360910  0.487551  0.384694  1
  O  O17  1  0.957868  0.057469  0.603798  1
  O  O18  1  0.541185  0.796080  0.724740  1
  O  O19  1  0.459959  0.794615  0.224450  1
  O  O20  1  0.146663  0.635193  0.548902  1
  O  O21  1  0.042591  0.943240  0.394637  1
  O  O22  1  0.457841  0.846484  0.931028  1
  O  O23  1  0.459959  0.205385  0.275550  1
  O  O24  1  0.851356  0.364542  0.448912  1
  O  O25  1  0.643997  0.487368  0.886487  1
  O  O26  1  0.360910  0.512449  0.115306  1
  O  O27  1  0.957868  0.942531  0.896202  1
  O  O28  1  0.540944  0.846794  0.430600  1
  O  O29  1  0.977934  0.287991  0.230286  1
  O  O30  1  0.541185  0.203920  0.775260  1
  O  O31  1  0.851356  0.635458  0.051088  1
  O  O32  1  0.019698  0.284367  0.730763  1
  O  O33  1  0.146663  0.364807  0.951098  1
  O  O34  1  0.977934  0.712009  0.269714  1
  O  O35  1  0.643997  0.512632  0.613513  1
