# generated using pymatgen
data_UAg2(AsO5)2
_symmetry_space_group_name_H-M   'P 1'
_cell_length_a   5.54747221
_cell_length_b   6.36554374
_cell_length_c   8.02012165
_cell_angle_alpha   113.38129444
_cell_angle_beta   104.75744509
_cell_angle_gamma   89.99999314
_symmetry_Int_Tables_number   1
_chemical_formula_structural   UAg2(AsO5)2
_chemical_formula_sum   'U1 Ag2 As2 O10'
_cell_volume   249.74499837
_cell_formula_units_Z   1
loop_
 _symmetry_equiv_pos_site_id
 _symmetry_equiv_pos_as_xyz
  1  'x, y, z'
loop_
 _atom_site_type_symbol
 _atom_site_label
 _atom_site_symmetry_multiplicity
 _atom_site_fract_x
 _atom_site_fract_y
 _atom_site_fract_z
 _atom_site_occupancy
  U  U0  1  0.000000  0.000000  0.000000  1
  Ag  Ag1  1  0.499999  0.000000  0.500000  1
  Ag  Ag2  1  0.499999  0.500000  0.500000  1
  As  As3  1  0.919893  0.640700  0.281400  1
  As  As4  1  0.080105  0.359300  0.718600  1
  O  O5  1  0.867407  0.350658  0.153675  1
  O  O6  1  0.867407  0.803017  0.153675  1
  O  O7  1  0.306110  0.086997  0.173994  1
  O  O8  1  0.720199  0.714783  0.429567  1
  O  O9  1  0.225427  0.717858  0.435716  1
  O  O10  1  0.774574  0.282141  0.564283  1
  O  O11  1  0.279800  0.285216  0.570433  1
  O  O12  1  0.693889  0.913002  0.826006  1
  O  O13  1  0.132592  0.196984  0.846326  1
  O  O14  1  0.132592  0.649341  0.846326  1
