# generated using pymatgen
data_Tb2Nd(Bi2Rh)4
_symmetry_space_group_name_H-M   'P 1'
_cell_length_a   4.15495500
_cell_length_b   10.85606100
_cell_length_c   16.96241400
_cell_angle_alpha   90.00000000
_cell_angle_beta   90.00000000
_cell_angle_gamma   90.00000000
_symmetry_Int_Tables_number   1
_chemical_formula_structural   Tb2Nd(Bi2Rh)4
_chemical_formula_sum   'Tb4 Nd2 Bi16 Rh8'
_cell_volume   765.11419301
_cell_formula_units_Z   2
loop_
 _symmetry_equiv_pos_site_id
 _symmetry_equiv_pos_as_xyz
  1  'x, y, z'
loop_
 _atom_site_type_symbol
 _atom_site_label
 _atom_site_symmetry_multiplicity
 _atom_site_fract_x
 _atom_site_fract_y
 _atom_site_fract_z
 _atom_site_occupancy
  Tb  Tb0  1  0.500000  0.869338  0.192804  1
  Tb  Tb1  1  0.500000  0.130662  0.807196  1
  Tb  Tb2  1  0.500000  0.369338  0.307196  1
  Tb  Tb3  1  0.500000  0.630662  0.692804  1
  Nd  Nd4  1  0.500000  0.000000  0.500000  1
  Nd  Nd5  1  0.500000  0.500000  0.000000  1
  Bi  Bi6  1  0.000000  0.116444  0.212132  1
  Bi  Bi7  1  0.000000  0.883556  0.787868  1
  Bi  Bi8  1  0.000000  0.616444  0.287868  1
  Bi  Bi9  1  0.000000  0.383556  0.712132  1
  Bi  Bi10  1  0.000000  0.399654  0.147239  1
  Bi  Bi11  1  0.000000  0.600346  0.852761  1
  Bi  Bi12  1  0.000000  0.899654  0.352761  1
  Bi  Bi13  1  0.000000  0.100346  0.647239  1
  Bi  Bi14  1  0.500000  0.130855  0.036327  1
  Bi  Bi15  1  0.500000  0.869145  0.963673  1
  Bi  Bi16  1  0.500000  0.630855  0.463673  1
  Bi  Bi17  1  0.500000  0.369145  0.536327  1
  Bi  Bi18  1  0.000000  0.696203  0.088054  1
  Bi  Bi19  1  0.000000  0.303797  0.911946  1
  Bi  Bi20  1  0.000000  0.196203  0.411946  1
  Bi  Bi21  1  0.000000  0.803797  0.588054  1
  Rh  Rh22  1  0.000000  0.952997  0.082390  1
  Rh  Rh23  1  0.000000  0.047003  0.917610  1
  Rh  Rh24  1  0.000000  0.452997  0.417610  1
  Rh  Rh25  1  0.000000  0.547003  0.582390  1
  Rh  Rh26  1  0.500000  0.580862  0.180082  1
  Rh  Rh27  1  0.500000  0.419138  0.819918  1
  Rh  Rh28  1  0.500000  0.080862  0.319918  1
  Rh  Rh29  1  0.500000  0.919138  0.680082  1
