# generated using pymatgen
data_Ta3Al2GaOs6
_symmetry_space_group_name_H-M   'P 1'
_cell_length_a   4.40158300
_cell_length_b   6.23833800
_cell_length_c   13.23558100
_cell_angle_alpha   89.99996432
_cell_angle_beta   90.00164257
_cell_angle_gamma   89.99983924
_symmetry_Int_Tables_number   1
_chemical_formula_structural   Ta3Al2GaOs6
_chemical_formula_sum   'Ta6 Al4 Ga2 Os12'
_cell_volume   363.43002789
_cell_formula_units_Z   2
loop_
 _symmetry_equiv_pos_site_id
 _symmetry_equiv_pos_as_xyz
  1  'x, y, z'
loop_
 _atom_site_type_symbol
 _atom_site_label
 _atom_site_symmetry_multiplicity
 _atom_site_fract_x
 _atom_site_fract_y
 _atom_site_fract_z
 _atom_site_occupancy
  Ta  Ta0  1  0.000008  0.999999  0.000144  1
  Ta  Ta1  1  0.499739  0.500000  0.166512  1
  Ta  Ta2  1  0.999746  0.999999  0.333270  1
  Ta  Ta3  1  0.500002  0.500000  0.500061  1
  Ta  Ta4  1  0.000240  0.000000  0.666598  1
  Ta  Ta5  1  0.500263  0.500001  0.833408  1
  Al  Al6  1  0.999841  0.500000  0.333530  1
  Al  Al7  1  0.500000  0.000000  0.500088  1
  Al  Al8  1  0.000157  0.499999  0.666554  1
  Al  Al9  1  0.500211  0.000000  0.833181  1
  Ga  Ga10  1  0.000002  0.499999  0.999930  1
  Ga  Ga11  1  0.499797  0.000000  0.166743  1
  Os  Os12  1  0.500005  0.249149  0.999126  1
  Os  Os13  1  0.500007  0.750853  0.999127  1
  Os  Os14  1  0.999767  0.250854  0.167533  1
  Os  Os15  1  0.999765  0.749145  0.167533  1
  Os  Os16  1  0.499785  0.251221  0.334135  1
  Os  Os17  1  0.499785  0.748778  0.334135  1
  Os  Os18  1  0.999999  0.249874  0.500001  1
  Os  Os19  1  0.999999  0.750123  0.500001  1
  Os  Os20  1  0.500206  0.250128  0.666660  1
  Os  Os21  1  0.500206  0.749870  0.666660  1
  Os  Os22  1  0.000232  0.248772  0.832536  1
  Os  Os23  1  0.000232  0.751226  0.832536  1
