# generated using pymatgen
data_Tb9YCuRhPb6
_symmetry_space_group_name_H-M   'P 1'
_cell_length_a   9.26353700
_cell_length_b   9.26353643
_cell_length_c   6.77053700
_cell_angle_alpha   90.00000000
_cell_angle_beta   90.00000000
_cell_angle_gamma   119.99999847
_symmetry_Int_Tables_number   1
_chemical_formula_structural   Tb9YCuRhPb6
_chemical_formula_sum   'Tb9 Y1 Cu1 Rh1 Pb6'
_cell_volume   503.16150607
_cell_formula_units_Z   1
loop_
 _symmetry_equiv_pos_site_id
 _symmetry_equiv_pos_as_xyz
  1  'x, y, z'
loop_
 _atom_site_type_symbol
 _atom_site_label
 _atom_site_symmetry_multiplicity
 _atom_site_fract_x
 _atom_site_fract_y
 _atom_site_fract_z
 _atom_site_occupancy
  Tb  Tb0  1  0.999937  0.753860  0.761658  1
  Tb  Tb1  1  0.333333  0.666667  0.500000  1
  Tb  Tb2  1  0.333333  0.666667  0.000000  1
  Tb  Tb3  1  0.753922  0.753860  0.238342  1
  Tb  Tb4  1  0.246140  0.246078  0.761658  1
  Tb  Tb5  1  0.999937  0.246078  0.238342  1
  Tb  Tb6  1  0.666667  0.333333  0.500000  1
  Tb  Tb7  1  0.246140  0.000063  0.238342  1
  Tb  Tb8  1  0.753922  0.000063  0.761658  1
  Y  Y9  1  0.666667  0.333333  0.000000  1
  Cu  Cu10  1  0.000000  0.000000  0.500000  1
  Rh  Rh11  1  0.000000  0.000000  0.000000  1
  Pb  Pb12  1  0.395575  0.000141  0.748335  1
  Pb  Pb13  1  0.395575  0.395434  0.251665  1
  Pb  Pb14  1  0.604566  0.604425  0.748335  1
  Pb  Pb15  1  0.999859  0.604425  0.251665  1
  Pb  Pb16  1  0.999859  0.395434  0.748335  1
  Pb  Pb17  1  0.604566  0.000141  0.251665  1
