# generated using pymatgen
data_Tb2Ce3SiPb3
_symmetry_space_group_name_H-M   'P 1'
_cell_length_a   9.55244900
_cell_length_b   9.57315465
_cell_length_c   6.38766500
_cell_angle_alpha   90.00000000
_cell_angle_beta   90.00000000
_cell_angle_gamma   119.92847459
_symmetry_Int_Tables_number   1
_chemical_formula_structural   Tb2Ce3SiPb3
_chemical_formula_sum   'Tb4 Ce6 Si2 Pb6'
_cell_volume   506.23844906
_cell_formula_units_Z   2
loop_
 _symmetry_equiv_pos_site_id
 _symmetry_equiv_pos_as_xyz
  1  'x, y, z'
loop_
 _atom_site_type_symbol
 _atom_site_label
 _atom_site_symmetry_multiplicity
 _atom_site_fract_x
 _atom_site_fract_y
 _atom_site_fract_z
 _atom_site_occupancy
  Tb  Tb0  1  0.002557  0.251861  0.250000  1
  Tb  Tb1  1  0.997443  0.748139  0.750000  1
  Tb  Tb2  1  0.750697  0.748139  0.250000  1
  Tb  Tb3  1  0.249303  0.251861  0.750000  1
  Ce  Ce4  1  0.252699  0.000000  0.250000  1
  Ce  Ce5  1  0.747301  0.000000  0.750000  1
  Ce  Ce6  1  0.334034  0.668069  0.000000  1
  Ce  Ce7  1  0.665966  0.331931  0.000000  1
  Ce  Ce8  1  0.665966  0.331931  0.500000  1
  Ce  Ce9  1  0.334034  0.668069  0.500000  1
  Si  Si10  1  0.000000  0.000000  0.000000  1
  Si  Si11  1  0.000000  0.000000  0.500000  1
  Pb  Pb12  1  0.619747  0.000000  0.250000  1
  Pb  Pb13  1  0.380253  0.000000  0.750000  1
  Pb  Pb14  1  0.999348  0.611999  0.250000  1
  Pb  Pb15  1  0.000652  0.388001  0.750000  1
  Pb  Pb16  1  0.387350  0.388001  0.250000  1
  Pb  Pb17  1  0.612650  0.611999  0.750000  1
