# generated using pymatgen
data_VTcWS6
_symmetry_space_group_name_H-M   'P 1'
_cell_length_a   5.46597483
_cell_length_b   5.46620208
_cell_length_c   6.94222116
_cell_angle_alpha   82.46310146
_cell_angle_beta   82.47661205
_cell_angle_gamma   120.00186942
_symmetry_Int_Tables_number   1
_chemical_formula_structural   VTcWS6
_chemical_formula_sum   'V1 Tc1 W1 S6'
_cell_volume   173.34825751
_cell_formula_units_Z   1
loop_
 _symmetry_equiv_pos_site_id
 _symmetry_equiv_pos_as_xyz
  1  'x, y, z'
loop_
 _atom_site_type_symbol
 _atom_site_label
 _atom_site_symmetry_multiplicity
 _atom_site_fract_x
 _atom_site_fract_y
 _atom_site_fract_z
 _atom_site_occupancy
  V  V0  1  0.499969  0.833317  0.500004  1
  Tc  Tc1  1  0.833345  0.499979  0.499976  1
  W  W2  1  0.166707  0.166665  0.499955  1
  S  S3  1  0.578639  0.238078  0.270843  1
  S  S4  1  0.247823  0.583598  0.270811  1
  S  S5  1  0.902323  0.907291  0.270745  1
  S  S6  1  0.749721  0.754586  0.729295  1
  S  S7  1  0.426117  0.085478  0.729360  1
  S  S8  1  0.095258  0.430912  0.729308  1
