# generated using pymatgen
data_Tm4ScOsRh2
_symmetry_space_group_name_H-M   'P 1'
_cell_length_a   10.62866600
_cell_length_b   10.62866600
_cell_length_c   6.26700900
_cell_angle_alpha   90.00000000
_cell_angle_beta   90.00000000
_cell_angle_gamma   90.00000000
_symmetry_Int_Tables_number   1
_chemical_formula_structural   Tm4ScOsRh2
_chemical_formula_sum   'Tm16 Sc4 Os4 Rh8'
_cell_volume   707.97486279
_cell_formula_units_Z   4
loop_
 _symmetry_equiv_pos_site_id
 _symmetry_equiv_pos_as_xyz
  1  'x, y, z'
loop_
 _atom_site_type_symbol
 _atom_site_label
 _atom_site_symmetry_multiplicity
 _atom_site_fract_x
 _atom_site_fract_y
 _atom_site_fract_z
 _atom_site_occupancy
  Tm  Tm0  1  0.291348  0.084741  0.374782  1
  Tm  Tm1  1  0.291348  0.915259  0.874782  1
  Tm  Tm2  1  0.708652  0.084741  0.874782  1
  Tm  Tm3  1  0.708652  0.915259  0.374782  1
  Tm  Tm4  1  0.584741  0.791348  0.874782  1
  Tm  Tm5  1  0.584741  0.208652  0.374782  1
  Tm  Tm6  1  0.415259  0.791348  0.374782  1
  Tm  Tm7  1  0.415259  0.208652  0.874782  1
  Tm  Tm8  1  0.208652  0.415259  0.625218  1
  Tm  Tm9  1  0.208652  0.584741  0.125218  1
  Tm  Tm10  1  0.791348  0.415259  0.125218  1
  Tm  Tm11  1  0.791348  0.584741  0.625218  1
  Tm  Tm12  1  0.915259  0.708652  0.125218  1
  Tm  Tm13  1  0.915259  0.291348  0.625218  1
  Tm  Tm14  1  0.084741  0.708652  0.625218  1
  Tm  Tm15  1  0.084741  0.291348  0.125218  1
  Sc  Sc16  1  0.000000  0.000000  0.500000  1
  Sc  Sc17  1  0.000000  0.000000  0.000000  1
  Sc  Sc18  1  0.500000  0.500000  0.000000  1
  Sc  Sc19  1  0.500000  0.500000  0.500000  1
  Os  Os20  1  0.500000  0.000000  0.124127  1
  Os  Os21  1  0.500000  0.000000  0.624127  1
  Os  Os22  1  0.000000  0.500000  0.875873  1
  Os  Os23  1  0.000000  0.500000  0.375873  1
  Rh  Rh24  1  0.852540  0.147460  0.250000  1
  Rh  Rh25  1  0.852540  0.852540  0.750000  1
  Rh  Rh26  1  0.147460  0.147460  0.750000  1
  Rh  Rh27  1  0.147460  0.852540  0.250000  1
  Rh  Rh28  1  0.647460  0.352540  0.750000  1
  Rh  Rh29  1  0.647460  0.647460  0.250000  1
  Rh  Rh30  1  0.352540  0.352540  0.250000  1
  Rh  Rh31  1  0.352540  0.647460  0.750000  1
