# generated using pymatgen
data_La5(Yb2Rh3)2
_symmetry_space_group_name_H-M   'P 1'
_cell_length_a   7.54477300
_cell_length_b   7.58692733
_cell_length_c   7.57509562
_cell_angle_alpha   70.80275968
_cell_angle_beta   71.02282352
_cell_angle_gamma   71.27801354
_symmetry_Int_Tables_number   1
_chemical_formula_structural   La5(Yb2Rh3)2
_chemical_formula_sum   'La5 Yb4 Rh6'
_cell_volume   375.95472627
_cell_formula_units_Z   1
loop_
 _symmetry_equiv_pos_site_id
 _symmetry_equiv_pos_as_xyz
  1  'x, y, z'
loop_
 _atom_site_type_symbol
 _atom_site_label
 _atom_site_symmetry_multiplicity
 _atom_site_fract_x
 _atom_site_fract_y
 _atom_site_fract_z
 _atom_site_occupancy
  La  La0  1  0.673819  0.155870  0.392887  1
  La  La1  1  0.391984  0.676887  0.150856  1
  La  La2  1  0.852737  0.606317  0.325248  1
  La  La3  1  0.320702  0.846700  0.609850  1
  La  La4  1  0.608704  0.318534  0.844037  1
  Yb  Yb5  1  0.002289  0.006283  0.995832  1
  Yb  Yb6  1  0.805417  0.798804  0.800342  1
  Yb  Yb7  1  0.196504  0.196561  0.197552  1
  Yb  Yb8  1  0.151616  0.396178  0.678268  1
  Rh  Rh9  1  0.950241  0.169930  0.588521  1
  Rh  Rh10  1  0.584448  0.954614  0.172153  1
  Rh  Rh11  1  0.170297  0.581935  0.957138  1
  Rh  Rh12  1  0.045497  0.833968  0.412674  1
  Rh  Rh13  1  0.416442  0.040770  0.827596  1
  Rh  Rh14  1  0.829303  0.416650  0.047045  1
