# generated using pymatgen
data_Na2Nb3Ni9P7
_symmetry_space_group_name_H-M   'P 1'
_cell_length_a   9.31665700
_cell_length_b   9.31665720
_cell_length_c   3.67548500
_cell_angle_alpha   90.00000000
_cell_angle_beta   90.00000000
_cell_angle_gamma   120.00000996
_symmetry_Int_Tables_number   1
_chemical_formula_structural   Na2Nb3Ni9P7
_chemical_formula_sum   'Na2 Nb3 Ni9 P7'
_cell_volume   276.29019041
_cell_formula_units_Z   1
loop_
 _symmetry_equiv_pos_site_id
 _symmetry_equiv_pos_as_xyz
  1  'x, y, z'
loop_
 _atom_site_type_symbol
 _atom_site_label
 _atom_site_symmetry_multiplicity
 _atom_site_fract_x
 _atom_site_fract_y
 _atom_site_fract_z
 _atom_site_occupancy
  Na  Na0  1  0.666667  0.333333  0.500000  1
  Na  Na1  1  0.333333  0.666667  0.000000  1
  Nb  Nb2  1  0.876496  0.775285  0.500000  1
  Nb  Nb3  1  0.898787  0.123504  0.500000  1
  Nb  Nb4  1  0.224715  0.101213  0.500000  1
  Ni  Ni5  1  0.711790  0.873502  0.000000  1
  Ni  Ni6  1  0.161711  0.288210  0.000000  1
  Ni  Ni7  1  0.126498  0.838289  0.000000  1
  Ni  Ni8  1  0.627529  0.566720  0.000000  1
  Ni  Ni9  1  0.939192  0.372471  0.000000  1
  Ni  Ni10  1  0.433280  0.060808  0.000000  1
  Ni  Ni11  1  0.557262  0.945593  0.500000  1
  Ni  Ni12  1  0.388331  0.442738  0.500000  1
  Ni  Ni13  1  0.054407  0.611669  0.500000  1
  P  P14  1  0.584855  0.709209  0.500000  1
  P  P15  1  0.124354  0.415145  0.500000  1
  P  P16  1  0.290791  0.875646  0.500000  1
  P  P17  1  0.000000  0.000000  0.000000  1
  P  P18  1  0.887345  0.583262  0.000000  1
  P  P19  1  0.695916  0.112655  0.000000  1
  P  P20  1  0.416738  0.304084  0.000000  1
