# generated using pymatgen
data_Li2Er2As6Ir7
_symmetry_space_group_name_H-M   'P 1'
_cell_length_a   7.17701106
_cell_length_b   7.09891144
_cell_length_c   7.17701168
_cell_angle_alpha   109.26112239
_cell_angle_beta   110.33029141
_cell_angle_gamma   109.26112457
_symmetry_Int_Tables_number   1
_chemical_formula_structural   Li2Er2As6Ir7
_chemical_formula_sum   'Li2 Er2 As6 Ir7'
_cell_volume   279.92682193
_cell_formula_units_Z   1
loop_
 _symmetry_equiv_pos_site_id
 _symmetry_equiv_pos_as_xyz
  1  'x, y, z'
loop_
 _atom_site_type_symbol
 _atom_site_label
 _atom_site_symmetry_multiplicity
 _atom_site_fract_x
 _atom_site_fract_y
 _atom_site_fract_z
 _atom_site_occupancy
  Li  Li0  1  0.000000  0.000000  0.500000  1
  Li  Li1  1  0.500000  0.000000  0.000000  1
  Er  Er2  1  0.000000  0.500000  0.000000  1
  Er  Er3  1  0.500000  0.500000  0.500000  1
  As  As4  1  0.685206  0.698839  0.013633  1
  As  As5  1  0.314794  0.301161  0.986367  1
  As  As6  1  0.013633  0.698839  0.685206  1
  As  As7  1  0.986367  0.301161  0.314794  1
  As  As8  1  0.685288  0.000000  0.685288  1
  As  As9  1  0.314712  0.000000  0.314712  1
  Ir  Ir10  1  0.000000  0.000000  0.000000  1
  Ir  Ir11  1  0.250000  0.500000  0.750000  1
  Ir  Ir12  1  0.749279  0.247378  0.498099  1
  Ir  Ir13  1  0.498099  0.247378  0.749279  1
  Ir  Ir14  1  0.501901  0.752622  0.250721  1
  Ir  Ir15  1  0.750000  0.500000  0.250000  1
  Ir  Ir16  1  0.250721  0.752622  0.501901  1
