# generated using pymatgen
data_Ho3MgFeSb3O14
_symmetry_space_group_name_H-M   'P 1'
_cell_length_a   7.19802860
_cell_length_b   7.17945717
_cell_length_c   7.16822604
_cell_angle_alpha   117.93669427
_cell_angle_beta   62.14942432
_cell_angle_gamma   117.78795104
_symmetry_Int_Tables_number   1
_chemical_formula_structural   Ho3MgFeSb3O14
_chemical_formula_sum   'Ho3 Mg1 Fe1 Sb3 O14'
_cell_volume   274.47372892
_cell_formula_units_Z   1
loop_
 _symmetry_equiv_pos_site_id
 _symmetry_equiv_pos_as_xyz
  1  'x, y, z'
loop_
 _atom_site_type_symbol
 _atom_site_label
 _atom_site_symmetry_multiplicity
 _atom_site_fract_x
 _atom_site_fract_y
 _atom_site_fract_z
 _atom_site_occupancy
  Ho  Ho0  1  0.000074  0.500026  0.999988  1
  Ho  Ho1  1  0.499971  0.999925  0.999970  1
  Ho  Ho2  1  0.499975  0.500030  0.500073  1
  Mg  Mg3  1  0.000028  0.000003  0.500021  1
  Fe  Fe4  1  0.500022  0.499987  0.999964  1
  Sb  Sb5  1  0.499993  0.000020  0.499980  1
  Sb  Sb6  1  0.999993  0.500004  0.499992  1
  Sb  Sb7  1  0.999982  0.000014  0.000000  1
  O  O8  1  0.619662  0.382387  0.116851  1
  O  O9  1  0.380410  0.617552  0.883198  1
  O  O10  1  0.074427  0.324967  0.174479  1
  O  O11  1  0.674416  0.920005  0.173019  1
  O  O12  1  0.673803  0.327044  0.583302  1
  O  O13  1  0.925540  0.675033  0.825530  1
  O  O14  1  0.325571  0.079982  0.826966  1
  O  O15  1  0.326193  0.672967  0.416704  1
  O  O16  1  0.651122  0.906689  0.592401  1
  O  O17  1  0.093142  0.347193  0.590905  1
  O  O18  1  0.092170  0.909121  0.153826  1
  O  O19  1  0.348858  0.093346  0.407574  1
  O  O20  1  0.906842  0.652809  0.409090  1
  O  O21  1  0.907805  0.090897  0.846168  1
