# generated using pymatgen
data_Zr24As3PSe8
_symmetry_space_group_name_H-M   'P 1'
_cell_length_a   3.73403700
_cell_length_b   12.63748647
_cell_length_c   15.63161800
_cell_angle_alpha   89.85321368
_cell_angle_beta   90.00000000
_cell_angle_gamma   90.00000000
_symmetry_Int_Tables_number   1
_chemical_formula_structural   Zr24As3PSe8
_chemical_formula_sum   'Zr24 As3 P1 Se8'
_cell_volume   737.63553247
_cell_formula_units_Z   1
loop_
 _symmetry_equiv_pos_site_id
 _symmetry_equiv_pos_as_xyz
  1  'x, y, z'
loop_
 _atom_site_type_symbol
 _atom_site_label
 _atom_site_symmetry_multiplicity
 _atom_site_fract_x
 _atom_site_fract_y
 _atom_site_fract_z
 _atom_site_occupancy
  Zr  Zr0  1  0.000000  0.347712  0.479302  1
  Zr  Zr1  1  0.000000  0.659039  0.516593  1
  Zr  Zr2  1  0.500000  0.152625  0.979174  1
  Zr  Zr3  1  0.500000  0.847415  0.021203  1
  Zr  Zr4  1  0.000000  0.084112  0.577061  1
  Zr  Zr5  1  0.000000  0.909906  0.422429  1
  Zr  Zr6  1  0.500000  0.416223  0.077770  1
  Zr  Zr7  1  0.500000  0.584100  0.922883  1
  Zr  Zr8  1  0.000000  0.694964  0.298478  1
  Zr  Zr9  1  0.000000  0.307050  0.704381  1
  Zr  Zr10  1  0.500000  0.806472  0.794604  1
  Zr  Zr11  1  0.500000  0.192609  0.205208  1
  Zr  Zr12  1  0.000000  0.030246  0.109366  1
  Zr  Zr13  1  0.000000  0.969448  0.890969  1
  Zr  Zr14  1  0.500000  0.470013  0.608129  1
  Zr  Zr15  1  0.500000  0.533156  0.391893  1
  Zr  Zr16  1  0.000000  0.618565  0.077552  1
  Zr  Zr17  1  0.000000  0.381722  0.923039  1
  Zr  Zr18  1  0.500000  0.880505  0.575468  1
  Zr  Zr19  1  0.500000  0.116986  0.422701  1
  Zr  Zr20  1  0.000000  0.412100  0.243305  1
  Zr  Zr21  1  0.000000  0.588602  0.756731  1
  Zr  Zr22  1  0.500000  0.088396  0.743004  1
  Zr  Zr23  1  0.500000  0.909781  0.258668  1
  As  As24  1  0.000000  0.256391  0.086192  1
  As  As25  1  0.000000  0.743724  0.914014  1
  As  As26  1  0.500000  0.243389  0.586040  1
  P  P27  1  0.500000  0.756001  0.412692  1
  Se  Se28  1  0.000000  0.814633  0.151635  1
  Se  Se29  1  0.000000  0.185465  0.848938  1
  Se  Se30  1  0.500000  0.684641  0.649786  1
  Se  Se31  1  0.500000  0.315037  0.349400  1
  Se  Se32  1  0.000000  0.067910  0.293404  1
  Se  Se33  1  0.000000  0.930079  0.707166  1
  Se  Se34  1  0.500000  0.430495  0.792057  1
  Se  Se35  1  0.500000  0.570490  0.208767  1
