# generated using pymatgen
data_TbLu4(Cd2Pt)2
_symmetry_space_group_name_H-M   'P 1'
_cell_length_a   3.60756700
_cell_length_b   7.85916300
_cell_length_c   18.26202800
_cell_angle_alpha   90.00000000
_cell_angle_beta   90.00000000
_cell_angle_gamma   90.00000000
_symmetry_Int_Tables_number   1
_chemical_formula_structural   TbLu4(Cd2Pt)2
_chemical_formula_sum   'Tb2 Lu8 Cd8 Pt4'
_cell_volume   517.77336518
_cell_formula_units_Z   2
loop_
 _symmetry_equiv_pos_site_id
 _symmetry_equiv_pos_as_xyz
  1  'x, y, z'
loop_
 _atom_site_type_symbol
 _atom_site_label
 _atom_site_symmetry_multiplicity
 _atom_site_fract_x
 _atom_site_fract_y
 _atom_site_fract_z
 _atom_site_occupancy
  Tb  Tb0  1  0.000000  0.000000  0.000000  1
  Tb  Tb1  1  0.000000  0.500000  0.500000  1
  Lu  Lu2  1  0.000000  0.116143  0.414070  1
  Lu  Lu3  1  0.000000  0.883857  0.585930  1
  Lu  Lu4  1  0.000000  0.383857  0.914070  1
  Lu  Lu5  1  0.000000  0.616143  0.085930  1
  Lu  Lu6  1  0.000000  0.244131  0.220403  1
  Lu  Lu7  1  0.000000  0.755869  0.779597  1
  Lu  Lu8  1  0.000000  0.255869  0.720403  1
  Lu  Lu9  1  0.000000  0.744131  0.279597  1
  Cd  Cd10  1  0.500000  0.426884  0.351493  1
  Cd  Cd11  1  0.500000  0.573116  0.648507  1
  Cd  Cd12  1  0.500000  0.073116  0.851493  1
  Cd  Cd13  1  0.500000  0.926884  0.148507  1
  Cd  Cd14  1  0.500000  0.292964  0.066302  1
  Cd  Cd15  1  0.500000  0.707036  0.933698  1
  Cd  Cd16  1  0.500000  0.207036  0.566302  1
  Cd  Cd17  1  0.500000  0.792964  0.433698  1
  Pt  Pt18  1  0.500000  0.026617  0.304345  1
  Pt  Pt19  1  0.500000  0.973383  0.695655  1
  Pt  Pt20  1  0.500000  0.473383  0.804345  1
  Pt  Pt21  1  0.500000  0.526617  0.195655  1
