# generated using pymatgen
data_SmBi3(SeO5)2
_symmetry_space_group_name_H-M   'P 1'
_cell_length_a   8.84070958
_cell_length_b   8.84070836
_cell_length_c   11.50460400
_cell_angle_alpha   90.00000000
_cell_angle_beta   90.00000000
_cell_angle_gamma   143.33830172
_symmetry_Int_Tables_number   1
_chemical_formula_structural   SmBi3(SeO5)2
_chemical_formula_sum   'Sm2 Bi6 Se4 O20'
_cell_volume   536.88955814
_cell_formula_units_Z   2
loop_
 _symmetry_equiv_pos_site_id
 _symmetry_equiv_pos_as_xyz
  1  'x, y, z'
loop_
 _atom_site_type_symbol
 _atom_site_label
 _atom_site_symmetry_multiplicity
 _atom_site_fract_x
 _atom_site_fract_y
 _atom_site_fract_z
 _atom_site_occupancy
  Sm  Sm0  1  0.734749  0.234749  0.611107  1
  Sm  Sm1  1  0.234749  0.734749  0.388893  1
  Bi  Bi2  1  0.236349  0.736349  0.866120  1
  Bi  Bi3  1  0.736349  0.236349  0.133880  1
  Bi  Bi4  1  0.891363  0.063152  0.393727  1
  Bi  Bi5  1  0.063152  0.891363  0.606273  1
  Bi  Bi6  1  0.391363  0.563152  0.606273  1
  Bi  Bi7  1  0.563152  0.391363  0.393727  1
  Se  Se8  1  0.388882  0.577670  0.146708  1
  Se  Se9  1  0.577670  0.388882  0.853292  1
  Se  Se10  1  0.888882  0.077670  0.853292  1
  Se  Se11  1  0.077670  0.888882  0.146708  1
  O  O12  1  0.145380  0.476051  0.223672  1
  O  O13  1  0.476051  0.145380  0.776328  1
  O  O14  1  0.645380  0.976051  0.776328  1
  O  O15  1  0.976051  0.645380  0.223672  1
  O  O16  1  0.568409  0.895267  0.501068  1
  O  O17  1  0.895267  0.568409  0.498932  1
  O  O18  1  0.068409  0.395267  0.498932  1
  O  O19  1  0.395267  0.068409  0.501068  1
  O  O20  1  0.115370  0.615370  0.697459  1
  O  O21  1  0.615370  0.115370  0.302541  1
  O  O22  1  0.554669  0.857558  0.080187  1
  O  O23  1  0.857558  0.554669  0.919813  1
  O  O24  1  0.174490  0.075347  0.260882  1
  O  O25  1  0.075347  0.174490  0.739118  1
  O  O26  1  0.674490  0.575347  0.739118  1
  O  O27  1  0.575347  0.674490  0.260882  1
  O  O28  1  0.247815  0.247815  0.500000  1
  O  O29  1  0.747815  0.747815  0.500000  1
  O  O30  1  0.357558  0.054669  0.080187  1
  O  O31  1  0.054669  0.357558  0.919813  1
