# generated using pymatgen
data_LaGd4HoTa2O14
_symmetry_space_group_name_H-M   'P 1'
_cell_length_a   6.55880027
_cell_length_b   6.57540650
_cell_length_c   7.60987911
_cell_angle_alpha   89.86355058
_cell_angle_beta   90.08014898
_cell_angle_gamma   108.83436857
_symmetry_Int_Tables_number   1
_chemical_formula_structural   LaGd4HoTa2O14
_chemical_formula_sum   'La1 Gd4 Ho1 Ta2 O14'
_cell_volume   310.61596250
_cell_formula_units_Z   1
loop_
 _symmetry_equiv_pos_site_id
 _symmetry_equiv_pos_as_xyz
  1  'x, y, z'
loop_
 _atom_site_type_symbol
 _atom_site_label
 _atom_site_symmetry_multiplicity
 _atom_site_fract_x
 _atom_site_fract_y
 _atom_site_fract_z
 _atom_site_occupancy
  La  La0  1  0.508188  0.508523  0.498848  1
  Gd  Gd1  1  0.463962  0.462295  0.000864  1
  Gd  Gd2  1  0.998751  0.534746  0.241617  1
  Gd  Gd3  1  0.998770  0.466799  0.745873  1
  Gd  Gd4  1  0.533289  0.998628  0.758129  1
  Ho  Ho5  1  0.466523  0.998219  0.253715  1
  Ta  Ta6  1  0.000224  0.000796  0.498907  1
  Ta  Ta7  1  0.997260  0.997857  0.000929  1
  O  O8  1  0.937335  0.061216  0.749700  1
  O  O9  1  0.066463  0.937760  0.250307  1
  O  O10  1  0.359621  0.644571  0.241260  1
  O  O11  1  0.639185  0.358644  0.758556  1
  O  O12  1  0.368222  0.631277  0.758142  1
  O  O13  1  0.627899  0.361728  0.242976  1
  O  O14  1  0.325409  0.078259  0.977702  1
  O  O15  1  0.680146  0.931697  0.468164  1
  O  O16  1  0.313958  0.060614  0.535819  1
  O  O17  1  0.695785  0.954709  0.045369  1
  O  O18  1  0.063042  0.313226  0.461322  1
  O  O19  1  0.948774  0.694516  0.959841  1
  O  O20  1  0.926506  0.679612  0.526847  1
  O  O21  1  0.080689  0.324312  0.025115  1
