# generated using pymatgen
data_SmTm3Mn4F28
_symmetry_space_group_name_H-M   'P 1'
_cell_length_a   5.40073182
_cell_length_b   8.67069591
_cell_length_c   11.65725273
_cell_angle_alpha   62.47729029
_cell_angle_beta   90.09388174
_cell_angle_gamma   90.03605740
_symmetry_Int_Tables_number   1
_chemical_formula_structural   SmTm3Mn4F28
_chemical_formula_sum   'Sm1 Tm3 Mn4 F28'
_cell_volume   484.10711355
_cell_formula_units_Z   1
loop_
 _symmetry_equiv_pos_site_id
 _symmetry_equiv_pos_as_xyz
  1  'x, y, z'
loop_
 _atom_site_type_symbol
 _atom_site_label
 _atom_site_symmetry_multiplicity
 _atom_site_fract_x
 _atom_site_fract_y
 _atom_site_fract_z
 _atom_site_occupancy
  Sm  Sm0  1  0.739432  0.812734  0.264494  1
  Tm  Tm1  1  0.761710  0.812793  0.763883  1
  Tm  Tm2  1  0.261892  0.188036  0.736283  1
  Tm  Tm3  1  0.237443  0.193411  0.235353  1
  Mn  Mn4  1  0.759388  0.276799  0.954962  1
  Mn  Mn5  1  0.258369  0.725086  0.546885  1
  Mn  Mn6  1  0.243087  0.725343  0.039371  1
  Mn  Mn7  1  0.741459  0.270199  0.458855  1
  F  F8  1  0.433172  0.705119  0.917165  1
  F  F9  1  0.934267  0.292515  0.579932  1
  F  F10  1  0.567300  0.295677  0.077514  1
  F  F11  1  0.071195  0.704148  0.423557  1
  F  F12  1  0.453981  0.278153  0.543154  1
  F  F13  1  0.952270  0.719486  0.956710  1
  F  F14  1  0.545666  0.716172  0.465044  1
  F  F15  1  0.046590  0.282120  0.040393  1
  F  F16  1  0.772195  0.515695  0.860230  1
  F  F17  1  0.269922  0.484923  0.640953  1
  F  F18  1  0.228256  0.485723  0.135990  1
  F  F19  1  0.726730  0.507855  0.363410  1
  F  F20  1  0.758641  0.039247  0.044627  1
  F  F21  1  0.259100  0.962404  0.454105  1
  F  F22  1  0.242412  0.963415  0.950499  1
  F  F23  1  0.741642  0.032645  0.549373  1
  F  F24  1  0.976544  0.728332  0.634936  1
  F  F25  1  0.479179  0.272542  0.865327  1
  F  F26  1  0.022674  0.270946  0.368543  1
  F  F27  1  0.524717  0.725655  0.127505  1
  F  F28  1  0.061052  0.739899  0.168070  1
  F  F29  1  0.550604  0.254187  0.331564  1
  F  F30  1  0.950422  0.258089  0.829035  1
  F  F31  1  0.447425  0.742972  0.673065  1
  F  F32  1  0.394513  0.975139  0.226836  1
  F  F33  1  0.907913  0.041895  0.272167  1
  F  F34  1  0.589461  0.029565  0.770935  1
  F  F35  1  0.089376  0.971080  0.729279  1
