# generated using pymatgen
data_TlIr2F12
_symmetry_space_group_name_H-M   'P 1'
_cell_length_a   5.45976103
_cell_length_b   5.81626390
_cell_length_c   9.10534600
_cell_angle_alpha   104.36967354
_cell_angle_beta   90.80735539
_cell_angle_gamma   115.44819616
_symmetry_Int_Tables_number   1
_chemical_formula_structural   TlIr2F12
_chemical_formula_sum   'Tl1 Ir2 F12'
_cell_volume   250.50062748
_cell_formula_units_Z   1
loop_
 _symmetry_equiv_pos_site_id
 _symmetry_equiv_pos_as_xyz
  1  'x, y, z'
loop_
 _atom_site_type_symbol
 _atom_site_label
 _atom_site_symmetry_multiplicity
 _atom_site_fract_x
 _atom_site_fract_y
 _atom_site_fract_z
 _atom_site_occupancy
  Tl  Tl0  1  0.500000  0.500000  0.500000  1
  Ir  Ir1  1  0.241586  0.019378  0.772789  1
  Ir  Ir2  1  0.758414  0.980622  0.227211  1
  F  F3  1  0.848671  0.768820  0.327069  1
  F  F4  1  0.151329  0.231180  0.672931  1
  F  F5  1  0.381222  0.764958  0.222380  1
  F  F6  1  0.319596  0.796818  0.864101  1
  F  F7  1  0.680404  0.203182  0.135899  1
  F  F8  1  0.859707  0.797130  0.758813  1
  F  F9  1  0.140293  0.202870  0.241187  1
  F  F10  1  0.235937  0.804242  0.573832  1
  F  F11  1  0.764063  0.195758  0.426168  1
  F  F12  1  0.241655  0.238529  0.962287  1
  F  F13  1  0.758345  0.761471  0.037713  1
  F  F14  1  0.618778  0.235042  0.777620  1
