# generated using pymatgen
data_Ba12Pr3Al8BiO30
_symmetry_space_group_name_H-M   'P 1'
_cell_length_a   6.03463698
_cell_length_b   8.02395817
_cell_length_c   18.73904000
_cell_angle_alpha   88.63945445
_cell_angle_beta   89.92639872
_cell_angle_gamma   89.99341111
_symmetry_Int_Tables_number   1
_chemical_formula_structural   Ba12Pr3Al8BiO30
_chemical_formula_sum   'Ba12 Pr3 Al8 Bi1 O30'
_cell_volume   907.11913680
_cell_formula_units_Z   1
loop_
 _symmetry_equiv_pos_site_id
 _symmetry_equiv_pos_as_xyz
  1  'x, y, z'
loop_
 _atom_site_type_symbol
 _atom_site_label
 _atom_site_symmetry_multiplicity
 _atom_site_fract_x
 _atom_site_fract_y
 _atom_site_fract_z
 _atom_site_occupancy
  Ba  Ba0  1  0.757153  0.502563  0.083796  1
  Ba  Ba1  1  0.242346  0.495818  0.916353  1
  Ba  Ba2  1  0.759803  0.498844  0.414981  1
  Ba  Ba3  1  0.242735  0.505940  0.583897  1
  Ba  Ba4  1  0.750428  0.966325  0.092289  1
  Ba  Ba5  1  0.249056  0.032781  0.907783  1
  Ba  Ba6  1  0.752134  0.032424  0.407450  1
  Ba  Ba7  1  0.249553  0.968432  0.591574  1
  Ba  Ba8  1  0.722510  0.999456  0.749731  1
  Ba  Ba9  1  0.276005  0.997023  0.251432  1
  Ba  Ba10  1  0.669224  0.499507  0.750476  1
  Ba  Ba11  1  0.330467  0.498949  0.249788  1
  Pr  Pr12  1  0.748431  0.753973  0.910396  1
  Pr  Pr13  1  0.251320  0.243935  0.089953  1
  Pr  Pr14  1  0.747968  0.247848  0.589412  1
  Al  Al15  1  0.747012  0.751917  0.558668  1
  Al  Al16  1  0.254099  0.251719  0.441557  1
  Al  Al17  1  0.746321  0.247087  0.941344  1
  Al  Al18  1  0.253169  0.751549  0.058701  1
  Al  Al19  1  0.775516  0.779029  0.265669  1
  Al  Al20  1  0.223679  0.219945  0.734303  1
  Al  Al21  1  0.775648  0.218359  0.234714  1
  Al  Al22  1  0.224451  0.780580  0.765743  1
  Bi  Bi23  1  0.253149  0.750874  0.410868  1
  O  O24  1  0.207353  0.000200  0.749856  1
  O  O25  1  0.793878  0.998739  0.251471  1
  O  O26  1  0.504331  0.761886  0.007768  1
  O  O27  1  0.495100  0.237036  0.992167  1
  O  O28  1  0.504395  0.239823  0.492041  1
  O  O29  1  0.495723  0.761018  0.507068  1
  O  O30  1  0.763512  0.939498  0.608425  1
  O  O31  1  0.230694  0.072326  0.387630  1
  O  O32  1  0.765361  0.060979  0.890321  1
  O  O33  1  0.233827  0.937752  0.109546  1
  O  O34  1  0.025437  0.763712  0.996759  1
  O  O35  1  0.973917  0.234777  0.003304  1
  O  O36  1  0.025805  0.239944  0.503056  1
  O  O37  1  0.979979  0.762603  0.498256  1
  O  O38  1  0.321390  0.697109  0.686152  1
  O  O39  1  0.680607  0.303616  0.314128  1
  O  O40  1  0.319115  0.304104  0.813874  1
  O  O41  1  0.681146  0.696682  0.185806  1
  O  O42  1  0.431237  0.753345  0.834032  1
  O  O43  1  0.568287  0.244878  0.166543  1
  O  O44  1  0.430979  0.247539  0.666035  1
  O  O45  1  0.567502  0.749630  0.333877  1
  O  O46  1  0.962778  0.728619  0.803005  1
  O  O47  1  0.036457  0.269972  0.196740  1
  O  O48  1  0.961921  0.270882  0.696839  1
  O  O49  1  0.036066  0.721984  0.302942  1
  O  O50  1  0.757624  0.545888  0.596540  1
  O  O51  1  0.243177  0.461994  0.404867  1
  O  O52  1  0.759320  0.455108  0.904733  1
  O  O53  1  0.240899  0.543473  0.095342  1
