# generated using pymatgen
data_Tb3Sm8Dy9Sn16
_symmetry_space_group_name_H-M   'P 1'
_cell_length_a   8.10210702
_cell_length_b   8.25679502
_cell_length_c   15.59124902
_cell_angle_alpha   89.99614172
_cell_angle_beta   90.00417336
_cell_angle_gamma   89.99298125
_symmetry_Int_Tables_number   1
_chemical_formula_structural   Tb3Sm8Dy9Sn16
_chemical_formula_sum   'Tb3 Sm8 Dy9 Sn16'
_cell_volume   1043.01458450
_cell_formula_units_Z   1
loop_
 _symmetry_equiv_pos_site_id
 _symmetry_equiv_pos_as_xyz
  1  'x, y, z'
loop_
 _atom_site_type_symbol
 _atom_site_label
 _atom_site_symmetry_multiplicity
 _atom_site_fract_x
 _atom_site_fract_y
 _atom_site_fract_z
 _atom_site_occupancy
  Tb  Tb0  1  0.365818  0.835861  0.877859  1
  Tb  Tb1  1  0.865816  0.664145  0.622152  1
  Tb  Tb2  1  0.634202  0.164146  0.377839  1
  Sm  Sm3  1  0.518274  0.320783  0.902411  1
  Sm  Sm4  1  0.018260  0.179200  0.597582  1
  Sm  Sm5  1  0.481733  0.679190  0.402410  1
  Sm  Sm6  1  0.981741  0.820777  0.097583  1
  Sm  Sm7  1  0.481751  0.679224  0.097623  1
  Sm  Sm8  1  0.981785  0.820763  0.402381  1
  Sm  Sm9  1  0.518208  0.320758  0.597616  1
  Sm  Sm10  1  0.018233  0.179258  0.902428  1
  Dy  Dy11  1  0.134219  0.335877  0.122180  1
  Dy  Dy12  1  0.634217  0.164079  0.122139  1
  Dy  Dy13  1  0.134235  0.335910  0.377835  1
  Dy  Dy14  1  0.365771  0.835920  0.622145  1
  Dy  Dy15  1  0.865753  0.664101  0.877847  1
  Dy  Dy16  1  0.198190  0.502710  0.749987  1
  Dy  Dy17  1  0.698190  0.997285  0.750017  1
  Dy  Dy18  1  0.801855  0.497267  0.249960  1
  Dy  Dy19  1  0.301763  0.002791  0.249980  1
  Sn  Sn20  1  0.296475  0.037784  0.041972  1
  Sn  Sn21  1  0.796586  0.462397  0.458070  1
  Sn  Sn22  1  0.703408  0.962399  0.541927  1
  Sn  Sn23  1  0.203364  0.537476  0.958178  1
  Sn  Sn24  1  0.703678  0.962400  0.958165  1
  Sn  Sn25  1  0.203672  0.537601  0.541835  1
  Sn  Sn26  1  0.296331  0.037600  0.458172  1
  Sn  Sn27  1  0.796524  0.462347  0.041861  1
  Sn  Sn28  1  0.564516  0.620875  0.750009  1
  Sn  Sn29  1  0.064519  0.879126  0.749996  1
  Sn  Sn30  1  0.435361  0.379118  0.249954  1
  Sn  Sn31  1  0.935593  0.120968  0.249944  1
  Sn  Sn32  1  0.326708  0.144209  0.749955  1
  Sn  Sn33  1  0.826693  0.355779  0.750042  1
  Sn  Sn34  1  0.673284  0.855767  0.249953  1
  Sn  Sn35  1  0.173277  0.644109  0.249994  1
