# generated using pymatgen
data_Lu4Bi2Ru
_symmetry_space_group_name_H-M   'P 1'
_cell_length_a   8.63606262
_cell_length_b   8.63552878
_cell_length_c   8.63606157
_cell_angle_alpha   96.65286351
_cell_angle_beta   96.67541629
_cell_angle_gamma   140.17073533
_symmetry_Int_Tables_number   1
_chemical_formula_structural   Lu4Bi2Ru
_chemical_formula_sum   'Lu8 Bi4 Ru2'
_cell_volume   387.83615824
_cell_formula_units_Z   2
loop_
 _symmetry_equiv_pos_site_id
 _symmetry_equiv_pos_as_xyz
  1  'x, y, z'
loop_
 _atom_site_type_symbol
 _atom_site_label
 _atom_site_symmetry_multiplicity
 _atom_site_fract_x
 _atom_site_fract_y
 _atom_site_fract_z
 _atom_site_occupancy
  Lu  Lu0  1  0.695391  0.580226  0.275570  1
  Lu  Lu1  1  0.304609  0.419774  0.724430  1
  Lu  Lu2  1  0.580253  0.304550  0.884799  1
  Lu  Lu3  1  0.080249  0.195450  0.275704  1
  Lu  Lu4  1  0.804657  0.080226  0.884834  1
  Lu  Lu5  1  0.419747  0.695450  0.115201  1
  Lu  Lu6  1  0.919751  0.804550  0.724296  1
  Lu  Lu7  1  0.195343  0.919774  0.115166  1
  Bi  Bi8  1  0.140652  0.640678  0.781285  1
  Bi  Bi9  1  0.359393  0.140678  0.500027  1
  Bi  Bi10  1  0.859348  0.359322  0.218715  1
  Bi  Bi11  1  0.640607  0.859322  0.499973  1
  Ru  Ru12  1  0.249906  0.250000  0.999906  1
  Ru  Ru13  1  0.750094  0.750000  0.000094  1
