# generated using pymatgen
data_Na4AlGa3(SiSe6)2
_symmetry_space_group_name_H-M   'P 1'
_cell_length_a   7.42441239
_cell_length_b   7.41272217
_cell_length_c   12.44286323
_cell_angle_alpha   76.26508722
_cell_angle_beta   76.26567318
_cell_angle_gamma   68.61628414
_symmetry_Int_Tables_number   1
_chemical_formula_structural   Na4AlGa3(SiSe6)2
_chemical_formula_sum   'Na4 Al1 Ga3 Si2 Se12'
_cell_volume   610.74417984
_cell_formula_units_Z   1
loop_
 _symmetry_equiv_pos_site_id
 _symmetry_equiv_pos_as_xyz
  1  'x, y, z'
loop_
 _atom_site_type_symbol
 _atom_site_label
 _atom_site_symmetry_multiplicity
 _atom_site_fract_x
 _atom_site_fract_y
 _atom_site_fract_z
 _atom_site_occupancy
  Na  Na0  1  0.196302  0.330253  0.007748  1
  Na  Na1  1  0.329634  0.196701  0.507544  1
  Na  Na2  1  0.354246  0.739708  0.167990  1
  Na  Na3  1  0.740053  0.354493  0.667962  1
  Al  Al4  1  0.800915  0.661554  0.313306  1
  Ga  Ga5  1  0.848281  0.964539  0.013205  1
  Ga  Ga6  1  0.964989  0.847831  0.513013  1
  Ga  Ga7  1  0.661137  0.801412  0.813143  1
  Si  Si8  1  0.184750  0.756168  0.764188  1
  Si  Si9  1  0.756427  0.184493  0.264210  1
  Se  Se10  1  0.047929  0.046578  0.830140  1
  Se  Se11  1  0.046570  0.048273  0.330054  1
  Se  Se12  1  0.802840  0.272891  0.073798  1
  Se  Se13  1  0.272797  0.803090  0.573701  1
  Se  Se14  1  0.016429  0.665301  0.133769  1
  Se  Se15  1  0.665443  0.018865  0.631719  1
  Se  Se16  1  0.539323  0.967439  0.975602  1
  Se  Se17  1  0.965818  0.540114  0.474084  1
  Se  Se18  1  0.466914  0.574761  0.840525  1
  Se  Se19  1  0.576965  0.468507  0.340243  1
  Se  Se20  1  0.992682  0.557113  0.813734  1
  Se  Se21  1  0.559413  0.989775  0.313862  1
