# generated using pymatgen
data_Tb7YIn3Ir
_symmetry_space_group_name_H-M   'P 1'
_cell_length_a   10.46964200
_cell_length_b   10.46964255
_cell_length_c   7.13781100
_cell_angle_alpha   90.00000000
_cell_angle_beta   90.00000000
_cell_angle_gamma   120.00000458
_symmetry_Int_Tables_number   1
_chemical_formula_structural   Tb7YIn3Ir
_chemical_formula_sum   'Tb14 Y2 In6 Ir2'
_cell_volume   677.57807081
_cell_formula_units_Z   2
loop_
 _symmetry_equiv_pos_site_id
 _symmetry_equiv_pos_as_xyz
  1  'x, y, z'
loop_
 _atom_site_type_symbol
 _atom_site_label
 _atom_site_symmetry_multiplicity
 _atom_site_fract_x
 _atom_site_fract_y
 _atom_site_fract_z
 _atom_site_occupancy
  Tb  Tb0  1  0.465636  0.534364  0.480742  1
  Tb  Tb1  1  0.068727  0.534364  0.480742  1
  Tb  Tb2  1  0.465636  0.931273  0.480742  1
  Tb  Tb3  1  0.534364  0.465636  0.980742  1
  Tb  Tb4  1  0.931273  0.465636  0.980742  1
  Tb  Tb5  1  0.534364  0.068727  0.980742  1
  Tb  Tb6  1  0.823972  0.176028  0.275453  1
  Tb  Tb7  1  0.352055  0.176028  0.275453  1
  Tb  Tb8  1  0.823972  0.647945  0.275453  1
  Tb  Tb9  1  0.176028  0.823972  0.775453  1
  Tb  Tb10  1  0.647945  0.823972  0.775453  1
  Tb  Tb11  1  0.176028  0.352055  0.775453  1
  Tb  Tb12  1  0.333333  0.666667  0.099186  1
  Tb  Tb13  1  0.666667  0.333333  0.599186  1
  Y  Y14  1  0.000000  0.000000  0.497430  1
  Y  Y15  1  0.000000  0.000000  0.997430  1
  In  In16  1  0.163009  0.836991  0.233535  1
  In  In17  1  0.673982  0.836991  0.233535  1
  In  In18  1  0.163009  0.326018  0.233535  1
  In  In19  1  0.836991  0.163009  0.733535  1
  In  In20  1  0.326018  0.163009  0.733535  1
  In  In21  1  0.836991  0.673982  0.733535  1
  Ir  Ir22  1  0.333333  0.666667  0.706474  1
  Ir  Ir23  1  0.666667  0.333333  0.206474  1
