# generated using pymatgen
data_Y5Mg2Zr(Ni4As3)4
_symmetry_space_group_name_H-M   'P 1'
_cell_length_a   12.74408615
_cell_length_b   12.71622225
_cell_length_c   3.93138100
_cell_angle_alpha   90.00000000
_cell_angle_beta   90.00000000
_cell_angle_gamma   119.92770193
_symmetry_Int_Tables_number   1
_chemical_formula_structural   Y5Mg2Zr(Ni4As3)4
_chemical_formula_sum   'Y5 Mg2 Zr1 Ni16 As12'
_cell_volume   552.15181895
_cell_formula_units_Z   1
loop_
 _symmetry_equiv_pos_site_id
 _symmetry_equiv_pos_as_xyz
  1  'x, y, z'
loop_
 _atom_site_type_symbol
 _atom_site_label
 _atom_site_symmetry_multiplicity
 _atom_site_fract_x
 _atom_site_fract_y
 _atom_site_fract_z
 _atom_site_occupancy
  Y  Y0  1  0.185826  0.185546  0.500000  1
  Y  Y1  1  0.814174  0.999720  0.500000  1
  Y  Y2  1  0.000000  0.816907  0.500000  1
  Y  Y3  1  0.334168  0.666469  0.000000  1
  Y  Y4  1  0.665832  0.332300  0.000000  1
  Mg  Mg5  1  0.564633  0.564544  0.000000  1
  Mg  Mg6  1  0.435367  0.999911  0.000000  1
  Zr  Zr7  1  0.000000  0.436134  0.000000  1
  Ni  Ni8  1  0.718407  0.718565  0.500000  1
  Ni  Ni9  1  0.281593  0.000157  0.500000  1
  Ni  Ni10  1  0.000000  0.277226  0.500000  1
  Ni  Ni11  1  0.183393  0.376266  0.000000  1
  Ni  Ni12  1  0.621567  0.803972  0.000000  1
  Ni  Ni13  1  0.196408  0.816653  0.000000  1
  Ni  Ni14  1  0.803592  0.620245  0.000000  1
  Ni  Ni15  1  0.816607  0.192873  0.000000  1
  Ni  Ni16  1  0.378433  0.182405  0.000000  1
  Ni  Ni17  1  0.363459  0.483492  0.500000  1
  Ni  Ni18  1  0.519241  0.881450  0.500000  1
  Ni  Ni19  1  0.120857  0.640011  0.500000  1
  Ni  Ni20  1  0.879143  0.519153  0.500000  1
  Ni  Ni21  1  0.636541  0.120032  0.500000  1
  Ni  Ni22  1  0.480759  0.362208  0.500000  1
  Ni  Ni23  1  0.000000  0.999941  0.000000  1
  As  As24  1  0.821851  0.822321  0.000000  1
  As  As25  1  0.178149  0.000470  0.000000  1
  As  As26  1  0.000000  0.177775  0.000000  1
  As  As27  1  0.173126  0.479853  0.500000  1
  As  As28  1  0.520944  0.693674  0.500000  1
  As  As29  1  0.308239  0.827428  0.500000  1
  As  As30  1  0.691761  0.519189  0.500000  1
  As  As31  1  0.826874  0.306728  0.500000  1
  As  As32  1  0.479056  0.172730  0.500000  1
  As  As33  1  0.358917  0.358510  0.000000  1
  As  As34  1  0.641083  0.999593  0.000000  1
  As  As35  1  0.000000  0.645549  0.000000  1
