# generated using pymatgen
data_CaPrAlIr2
_symmetry_space_group_name_H-M   'P 1'
_cell_length_a   5.74081115
_cell_length_b   5.74081145
_cell_length_c   5.74081143
_cell_angle_alpha   138.36082399
_cell_angle_beta   118.62681741
_cell_angle_gamma   76.91203652
_symmetry_Int_Tables_number   1
_chemical_formula_structural   CaPrAlIr2
_chemical_formula_sum   'Ca1 Pr1 Al1 Ir2'
_cell_volume   107.49791492
_cell_formula_units_Z   1
loop_
 _symmetry_equiv_pos_site_id
 _symmetry_equiv_pos_as_xyz
  1  'x, y, z'
loop_
 _atom_site_type_symbol
 _atom_site_label
 _atom_site_symmetry_multiplicity
 _atom_site_fract_x
 _atom_site_fract_y
 _atom_site_fract_z
 _atom_site_occupancy
  Ca  Ca0  1  0.297231  0.797230  0.499999  1
  Pr  Pr1  1  0.698034  0.198034  0.500000  1
  Al  Al2  1  0.002175  0.002175  0.000000  1
  Ir  Ir3  1  0.740140  0.501280  0.238859  1
  Ir  Ir4  1  0.262421  0.501279  0.761141  1
