# generated using pymatgen
data_Ca6Si4SnPbO18
_symmetry_space_group_name_H-M   'P 1'
_cell_length_a   7.46606639
_cell_length_b   10.27222200
_cell_length_c   10.58650757
_cell_angle_alpha   90.00000000
_cell_angle_beta   91.01073708
_cell_angle_gamma   90.00000000
_symmetry_Int_Tables_number   1
_chemical_formula_structural   Ca6Si4SnPbO18
_chemical_formula_sum   'Ca12 Si8 Sn2 Pb2 O36'
_cell_volume   811.78566517
_cell_formula_units_Z   2
loop_
 _symmetry_equiv_pos_site_id
 _symmetry_equiv_pos_as_xyz
  1  'x, y, z'
loop_
 _atom_site_type_symbol
 _atom_site_label
 _atom_site_symmetry_multiplicity
 _atom_site_fract_x
 _atom_site_fract_y
 _atom_site_fract_z
 _atom_site_occupancy
  Ca  Ca0  1  0.618483  0.670165  0.082409  1
  Ca  Ca1  1  0.128331  0.697280  0.094188  1
  Ca  Ca2  1  0.138491  0.078303  0.113192  1
  Ca  Ca3  1  0.861508  0.578302  0.386808  1
  Ca  Ca4  1  0.871669  0.197280  0.405811  1
  Ca  Ca5  1  0.381516  0.170165  0.417591  1
  Ca  Ca6  1  0.620602  0.833455  0.584557  1
  Ca  Ca7  1  0.125696  0.805179  0.595685  1
  Ca  Ca8  1  0.133343  0.419255  0.613892  1
  Ca  Ca9  1  0.866657  0.919256  0.886108  1
  Ca  Ca10  1  0.874304  0.305180  0.904315  1
  Ca  Ca11  1  0.379398  0.333455  0.915442  1
  Si  Si12  1  0.667595  0.374469  0.184808  1
  Si  Si13  1  0.098081  0.363683  0.192943  1
  Si  Si14  1  0.901920  0.863683  0.307056  1
  Si  Si15  1  0.332405  0.874469  0.315191  1
  Si  Si16  1  0.667402  0.125439  0.684632  1
  Si  Si17  1  0.097078  0.136155  0.694145  1
  Si  Si18  1  0.902923  0.636156  0.805856  1
  Si  Si19  1  0.332597  0.625439  0.815369  1
  Sn  Sn20  1  0.623280  0.440356  0.621465  1
  Sn  Sn21  1  0.376719  0.940357  0.878534  1
  Pb  Pb22  1  0.621366  0.060835  0.115691  1
  Pb  Pb23  1  0.378635  0.560834  0.384310  1
  O  O24  1  0.588292  0.879678  0.999250  1
  O  O25  1  0.853672  0.106980  0.012530  1
  O  O26  1  0.642765  0.380700  0.033260  1
  O  O27  1  0.119839  0.329897  0.044313  1
  O  O28  1  0.850710  0.737376  0.220156  1
  O  O29  1  0.882504  0.388269  0.229229  1
  O  O30  1  0.186183  0.505073  0.230537  1
  O  O31  1  0.599104  0.237984  0.248697  1
  O  O32  1  0.407203  0.007588  0.247950  1
  O  O33  1  0.592798  0.507588  0.252051  1
  O  O34  1  0.400896  0.737984  0.251302  1
  O  O35  1  0.813816  0.005073  0.269463  1
  O  O36  1  0.117495  0.888268  0.270772  1
  O  O37  1  0.149289  0.237376  0.279844  1
  O  O38  1  0.880161  0.829896  0.455688  1
  O  O39  1  0.357236  0.880700  0.466740  1
  O  O40  1  0.146327  0.606980  0.487469  1
  O  O41  1  0.411707  0.379679  0.500749  1
  O  O42  1  0.601137  0.616267  0.514975  1
  O  O43  1  0.841018  0.391130  0.518720  1
  O  O44  1  0.643187  0.110120  0.533681  1
  O  O45  1  0.118596  0.168652  0.545214  1
  O  O46  1  0.856416  0.765316  0.721062  1
  O  O47  1  0.882255  0.105641  0.729170  1
  O  O48  1  0.192834  0.998569  0.735161  1
  O  O49  1  0.608360  0.268212  0.741661  1
  O  O50  1  0.416864  0.497973  0.743605  1
  O  O51  1  0.583136  0.997973  0.756394  1
  O  O52  1  0.391640  0.768212  0.758340  1
  O  O53  1  0.807166  0.498570  0.764839  1
  O  O54  1  0.117744  0.605642  0.770829  1
  O  O55  1  0.143583  0.265316  0.778938  1
  O  O56  1  0.881404  0.668653  0.954785  1
  O  O57  1  0.356813  0.610121  0.966319  1
  O  O58  1  0.158982  0.891131  0.981280  1
  O  O59  1  0.398862  0.116267  0.985026  1
