# generated using pymatgen
data_KAu(Se2O7)2
_symmetry_space_group_name_H-M   'P 1'
_cell_length_a   6.45666750
_cell_length_b   7.66855314
_cell_length_c   9.82971238
_cell_angle_alpha   106.94356366
_cell_angle_beta   96.73207719
_cell_angle_gamma   99.87026434
_symmetry_Int_Tables_number   1
_chemical_formula_structural   KAu(Se2O7)2
_chemical_formula_sum   'K1 Au1 Se4 O14'
_cell_volume   451.40878400
_cell_formula_units_Z   1
loop_
 _symmetry_equiv_pos_site_id
 _symmetry_equiv_pos_as_xyz
  1  'x, y, z'
loop_
 _atom_site_type_symbol
 _atom_site_label
 _atom_site_symmetry_multiplicity
 _atom_site_fract_x
 _atom_site_fract_y
 _atom_site_fract_z
 _atom_site_occupancy
  K  K0  1  0.500000  0.000000  0.000000  1
  Au  Au1  1  0.500000  0.500000  0.500000  1
  Se  Se2  1  0.919385  0.719667  0.748278  1
  Se  Se3  1  0.080615  0.280333  0.251722  1
  Se  Se4  1  0.667338  0.322688  0.742160  1
  Se  Se5  1  0.332662  0.677312  0.257840  1
  O  O6  1  0.814057  0.627687  0.564501  1
  O  O7  1  0.185943  0.372313  0.435499  1
  O  O8  1  0.478391  0.436338  0.684874  1
  O  O9  1  0.521609  0.563662  0.315126  1
  O  O10  1  0.173206  0.800453  0.762765  1
  O  O11  1  0.826794  0.199547  0.237235  1
  O  O12  1  0.775417  0.848703  0.839553  1
  O  O13  1  0.224583  0.151297  0.160447  1
  O  O14  1  0.605563  0.287713  0.888903  1
  O  O15  1  0.394437  0.712287  0.111097  1
  O  O16  1  0.909995  0.513527  0.805913  1
  O  O17  1  0.090005  0.486473  0.194087  1
  O  O18  1  0.722166  0.160759  0.612737  1
  O  O19  1  0.277834  0.839241  0.387263  1
