# generated using pymatgen
data_DyNb2B2Ru5
_symmetry_space_group_name_H-M   'P 1'
_cell_length_a   9.57180428
_cell_length_b   9.57180428
_cell_length_c   3.08994800
_cell_angle_alpha   90.00000000
_cell_angle_beta   90.00000000
_cell_angle_gamma   90.75957925
_symmetry_Int_Tables_number   1
_chemical_formula_structural   DyNb2B2Ru5
_chemical_formula_sum   'Dy2 Nb4 B4 Ru10'
_cell_volume   283.07441950
_cell_formula_units_Z   2
loop_
 _symmetry_equiv_pos_site_id
 _symmetry_equiv_pos_as_xyz
  1  'x, y, z'
loop_
 _atom_site_type_symbol
 _atom_site_label
 _atom_site_symmetry_multiplicity
 _atom_site_fract_x
 _atom_site_fract_y
 _atom_site_fract_z
 _atom_site_occupancy
  Dy  Dy0  1  0.823877  0.676123  0.000000  1
  Dy  Dy1  1  0.176123  0.323877  0.000000  1
  Nb  Nb2  1  0.324433  0.824433  0.000000  1
  Nb  Nb3  1  0.675567  0.175567  0.000000  1
  Nb  Nb4  1  0.500000  0.500000  0.000000  1
  Nb  Nb5  1  0.000000  0.000000  0.000000  1
  B  B6  1  0.620504  0.879496  0.000000  1
  B  B7  1  0.379496  0.120504  0.000000  1
  B  B8  1  0.121270  0.621270  0.000000  1
  B  B9  1  0.878730  0.378730  0.000000  1
  Ru  Ru10  1  0.559695  0.723003  0.500000  1
  Ru  Ru11  1  0.440305  0.276997  0.500000  1
  Ru  Ru12  1  0.081501  0.784879  0.500000  1
  Ru  Ru13  1  0.918499  0.215121  0.500000  1
  Ru  Ru14  1  0.284879  0.581501  0.500000  1
  Ru  Ru15  1  0.715121  0.418499  0.500000  1
  Ru  Ru16  1  0.223003  0.059695  0.500000  1
  Ru  Ru17  1  0.776997  0.940305  0.500000  1
  Ru  Ru18  1  0.500000  0.000000  0.500000  1
  Ru  Ru19  1  0.000000  0.500000  0.500000  1
