# generated using pymatgen
data_MgSc2Al3Si2Pt
_symmetry_space_group_name_H-M   'P 1'
_cell_length_a   6.64801500
_cell_length_b   6.63240135
_cell_length_c   4.08336500
_cell_angle_alpha   90.00000000
_cell_angle_beta   90.00000000
_cell_angle_gamma   120.07790016
_symmetry_Int_Tables_number   1
_chemical_formula_structural   MgSc2Al3Si2Pt
_chemical_formula_sum   'Mg1 Sc2 Al3 Si2 Pt1'
_cell_volume   155.80097762
_cell_formula_units_Z   1
loop_
 _symmetry_equiv_pos_site_id
 _symmetry_equiv_pos_as_xyz
  1  'x, y, z'
loop_
 _atom_site_type_symbol
 _atom_site_label
 _atom_site_symmetry_multiplicity
 _atom_site_fract_x
 _atom_site_fract_y
 _atom_site_fract_z
 _atom_site_occupancy
  Mg  Mg0  1  0.416879  0.000000  0.000000  1
  Sc  Sc1  1  0.000854  0.423340  0.000000  1
  Sc  Sc2  1  0.577513  0.576660  0.000000  1
  Al  Al3  1  0.757406  0.000000  0.500000  1
  Al  Al4  1  0.241901  0.247018  0.500000  1
  Al  Al5  1  0.994885  0.752982  0.500000  1
  Si  Si6  1  0.670550  0.336350  0.500000  1
  Si  Si7  1  0.334200  0.663650  0.500000  1
  Pt  Pt8  1  0.005809  0.000000  0.000000  1
