# generated using pymatgen
data_Sr4NpSbO10
_symmetry_space_group_name_H-M   'P 1'
_cell_length_a   5.70082100
_cell_length_b   7.97101838
_cell_length_c   11.86734638
_cell_angle_alpha   70.52264561
_cell_angle_beta   90.00000000
_cell_angle_gamma   90.00000000
_symmetry_Int_Tables_number   1
_chemical_formula_structural   Sr4NpSbO10
_chemical_formula_sum   'Sr8 Np2 Sb2 O20'
_cell_volume   508.40771525
_cell_formula_units_Z   2
loop_
 _symmetry_equiv_pos_site_id
 _symmetry_equiv_pos_as_xyz
  1  'x, y, z'
loop_
 _atom_site_type_symbol
 _atom_site_label
 _atom_site_symmetry_multiplicity
 _atom_site_fract_x
 _atom_site_fract_y
 _atom_site_fract_z
 _atom_site_occupancy
  Sr  Sr0  1  0.931378  0.144612  0.685413  1
  Sr  Sr1  1  0.431378  0.855388  0.814587  1
  Sr  Sr2  1  0.068622  0.855388  0.314587  1
  Sr  Sr3  1  0.568622  0.144612  0.185413  1
  Sr  Sr4  1  0.497926  0.313433  0.868013  1
  Sr  Sr5  1  0.997926  0.686567  0.631987  1
  Sr  Sr6  1  0.502074  0.686567  0.131987  1
  Sr  Sr7  1  0.002074  0.313433  0.368013  1
  Np  Np8  1  0.000000  0.500000  0.000000  1
  Np  Np9  1  0.500000  0.500000  0.500000  1
  Sb  Sb10  1  0.000000  0.000000  0.000000  1
  Sb  Sb11  1  0.500000  0.000000  0.500000  1
  O  O12  1  0.624170  0.248742  0.500235  1
  O  O13  1  0.124170  0.751258  0.999765  1
  O  O14  1  0.375830  0.751258  0.499765  1
  O  O15  1  0.875830  0.248742  0.000235  1
  O  O16  1  0.767648  0.016596  0.387001  1
  O  O17  1  0.267648  0.983404  0.112999  1
  O  O18  1  0.232352  0.983404  0.612999  1
  O  O19  1  0.732352  0.016596  0.887001  1
  O  O20  1  0.795417  0.596589  0.425307  1
  O  O21  1  0.295417  0.403411  0.074693  1
  O  O22  1  0.204583  0.403411  0.574693  1
  O  O23  1  0.704583  0.596589  0.925307  1
  O  O24  1  0.664327  0.445306  0.660945  1
  O  O25  1  0.164327  0.554694  0.839055  1
  O  O26  1  0.335673  0.554694  0.339055  1
  O  O27  1  0.835673  0.445306  0.160945  1
  O  O28  1  0.701451  0.894647  0.643211  1
  O  O29  1  0.201451  0.105353  0.856789  1
  O  O30  1  0.298549  0.105353  0.356789  1
  O  O31  1  0.798549  0.894647  0.143211  1
