# generated using pymatgen
data_Tm5Lu(Al3Ru)8
_symmetry_space_group_name_H-M   'P 1'
_cell_length_a   8.76336218
_cell_length_b   8.76336203
_cell_length_c   9.56239000
_cell_angle_alpha   90.00000000
_cell_angle_beta   90.00000000
_cell_angle_gamma   120.02350422
_symmetry_Int_Tables_number   1
_chemical_formula_structural   Tm5Lu(Al3Ru)8
_chemical_formula_sum   'Tm5 Lu1 Al24 Ru8'
_cell_volume   635.82220356
_cell_formula_units_Z   1
loop_
 _symmetry_equiv_pos_site_id
 _symmetry_equiv_pos_as_xyz
  1  'x, y, z'
loop_
 _atom_site_type_symbol
 _atom_site_label
 _atom_site_symmetry_multiplicity
 _atom_site_fract_x
 _atom_site_fract_y
 _atom_site_fract_z
 _atom_site_occupancy
  Tm  Tm0  1  0.194184  0.805816  0.250000  1
  Tm  Tm1  1  0.388079  0.194014  0.750000  1
  Tm  Tm2  1  0.611877  0.805877  0.250000  1
  Tm  Tm3  1  0.805986  0.611921  0.750000  1
  Tm  Tm4  1  0.194123  0.388123  0.250000  1
  Lu  Lu5  1  0.804993  0.195007  0.750000  1
  Al  Al6  1  0.666741  0.333259  0.979827  1
  Al  Al7  1  0.333383  0.666617  0.019674  1
  Al  Al8  1  0.333383  0.666617  0.480326  1
  Al  Al9  1  0.666741  0.333259  0.520173  1
  Al  Al10  1  0.837200  0.162800  0.422724  1
  Al  Al11  1  0.162879  0.837121  0.577811  1
  Al  Al12  1  0.325807  0.162851  0.422424  1
  Al  Al13  1  0.162879  0.837121  0.922189  1
  Al  Al14  1  0.674500  0.837441  0.577876  1
  Al  Al15  1  0.837200  0.162800  0.077276  1
  Al  Al16  1  0.837149  0.674193  0.422424  1
  Al  Al17  1  0.674500  0.837441  0.922124  1
  Al  Al18  1  0.162559  0.325500  0.577876  1
  Al  Al19  1  0.325807  0.162851  0.077576  1
  Al  Al20  1  0.162559  0.325500  0.922124  1
  Al  Al21  1  0.837149  0.674193  0.077576  1
  Al  Al22  1  0.438691  0.561309  0.750000  1
  Al  Al23  1  0.561381  0.438619  0.250000  1
  Al  Al24  1  0.122297  0.560940  0.750000  1
  Al  Al25  1  0.877425  0.438572  0.250000  1
  Al  Al26  1  0.439060  0.877703  0.750000  1
  Al  Al27  1  0.561428  0.122575  0.250000  1
  Al  Al28  1  0.999307  0.000693  0.750000  1
  Al  Al29  1  0.000080  0.999920  0.250000  1
  Ru  Ru30  1  0.500036  0.499964  0.999966  1
  Ru  Ru31  1  0.999910  0.499743  0.999810  1
  Ru  Ru32  1  0.500036  0.499964  0.500034  1
  Ru  Ru33  1  0.500257  0.000090  0.999810  1
  Ru  Ru34  1  0.999910  0.499743  0.500190  1
  Ru  Ru35  1  0.500257  0.000090  0.500190  1
  Ru  Ru36  1  0.000122  0.999878  0.999992  1
  Ru  Ru37  1  0.000122  0.999878  0.500008  1
