# generated using pymatgen
data_La10Co2Br15
_symmetry_space_group_name_H-M   'P 1'
_cell_length_a   9.49543955
_cell_length_b   10.47659966
_cell_length_c   11.34545700
_cell_angle_alpha   93.11209276
_cell_angle_beta   113.20258929
_cell_angle_gamma   109.22508874
_symmetry_Int_Tables_number   1
_chemical_formula_structural   La10Co2Br15
_chemical_formula_sum   'La10 Co2 Br15'
_cell_volume   957.23361814
_cell_formula_units_Z   1
loop_
 _symmetry_equiv_pos_site_id
 _symmetry_equiv_pos_as_xyz
  1  'x, y, z'
loop_
 _atom_site_type_symbol
 _atom_site_label
 _atom_site_symmetry_multiplicity
 _atom_site_fract_x
 _atom_site_fract_y
 _atom_site_fract_z
 _atom_site_occupancy
  La  La0  1  0.228326  0.589286  0.058029  1
  La  La1  1  0.771674  0.410714  0.941971  1
  La  La2  1  0.315016  0.917839  0.281766  1
  La  La3  1  0.684984  0.082161  0.718234  1
  La  La4  1  0.092965  0.534899  0.341384  1
  La  La5  1  0.907035  0.465101  0.658616  1
  La  La6  1  0.833510  0.747459  0.173226  1
  La  La7  1  0.166490  0.252541  0.826774  1
  La  La8  1  0.972798  0.805513  0.893981  1
  La  La9  1  0.027202  0.194487  0.106019  1
  Co  Co10  1  0.033541  0.678936  0.124252  1
  Co  Co11  1  0.966459  0.321064  0.875748  1
  Br  Br12  1  0.338533  0.442309  0.296153  1
  Br  Br13  1  0.661467  0.557691  0.703847  1
  Br  Br14  1  0.211764  0.733234  0.817751  1
  Br  Br15  1  0.788236  0.266766  0.182249  1
  Br  Br16  1  0.141487  0.383246  0.584756  1
  Br  Br17  1  0.858513  0.616754  0.415244  1
  Br  Br18  1  0.385324  0.801348  0.527040  1
  Br  Br19  1  0.614676  0.198652  0.472960  1
  Br  Br20  1  0.271965  0.088595  0.055324  1
  Br  Br21  1  0.728035  0.911405  0.944676  1
  Br  Br22  1  0.566941  0.842951  0.226665  1
  Br  Br23  1  0.433059  0.157049  0.773335  1
  Br  Br24  1  0.089395  0.035509  0.336997  1
  Br  Br25  1  0.910605  0.964491  0.663003  1
  Br  Br26  1  0.500000  0.500000  0.000000  1
