# generated using pymatgen
data_Ta10Ga5GeC
_symmetry_space_group_name_H-M   'P 1'
_cell_length_a   7.73161637
_cell_length_b   7.73807704
_cell_length_c   5.29620628
_cell_angle_alpha   90.07976010
_cell_angle_beta   89.96008459
_cell_angle_gamma   120.02764254
_symmetry_Int_Tables_number   1
_chemical_formula_structural   Ta10Ga5GeC
_chemical_formula_sum   'Ta10 Ga5 Ge1 C1'
_cell_volume   274.33259467
_cell_formula_units_Z   1
loop_
 _symmetry_equiv_pos_site_id
 _symmetry_equiv_pos_as_xyz
  1  'x, y, z'
loop_
 _atom_site_type_symbol
 _atom_site_label
 _atom_site_symmetry_multiplicity
 _atom_site_fract_x
 _atom_site_fract_y
 _atom_site_fract_z
 _atom_site_occupancy
  Ta  Ta0  1  0.330487  0.664926  0.500283  1
  Ta  Ta1  1  0.669513  0.334438  0.500283  1
  Ta  Ta2  1  0.667591  0.333414  0.999717  1
  Ta  Ta3  1  0.332409  0.665824  0.999717  1
  Ta  Ta4  1  0.000000  0.765733  0.252863  1
  Ta  Ta5  1  0.233828  0.233318  0.250271  1
  Ta  Ta6  1  0.766172  0.999490  0.250271  1
  Ta  Ta7  1  0.000000  0.235915  0.747232  1
  Ta  Ta8  1  0.766208  0.766205  0.750009  1
  Ta  Ta9  1  0.233792  0.999997  0.750009  1
  Ga  Ga10  1  0.597530  0.597798  0.246429  1
  Ga  Ga11  1  0.402470  0.000268  0.246429  1
  Ga  Ga12  1  0.000000  0.600152  0.753844  1
  Ga  Ga13  1  0.402714  0.401674  0.753828  1
  Ga  Ga14  1  0.597286  0.998960  0.753828  1
  Ge  Ge15  1  0.000000  0.402081  0.244288  1
  C  C16  1  0.000000  0.999808  0.500699  1
