# generated using pymatgen
data_Ta3ReSi2C
_symmetry_space_group_name_H-M   'P 1'
_cell_length_a   8.20921188
_cell_length_b   8.20921175
_cell_length_c   8.20921100
_cell_angle_alpha   59.99999898
_cell_angle_beta   59.99999952
_cell_angle_gamma   59.99999448
_symmetry_Int_Tables_number   1
_chemical_formula_structural   Ta3ReSi2C
_chemical_formula_sum   'Ta12 Re4 Si8 C4'
_cell_volume   391.19141968
_cell_formula_units_Z   4
loop_
 _symmetry_equiv_pos_site_id
 _symmetry_equiv_pos_as_xyz
  1  'x, y, z'
loop_
 _atom_site_type_symbol
 _atom_site_label
 _atom_site_symmetry_multiplicity
 _atom_site_fract_x
 _atom_site_fract_y
 _atom_site_fract_z
 _atom_site_occupancy
  Ta  Ta0  1  0.558230  0.941770  0.558230  1
  Ta  Ta1  1  0.308230  0.691770  0.691770  1
  Ta  Ta2  1  0.691770  0.308230  0.308230  1
  Ta  Ta3  1  0.308230  0.691770  0.308230  1
  Ta  Ta4  1  0.691770  0.691770  0.308230  1
  Ta  Ta5  1  0.308230  0.308230  0.691770  1
  Ta  Ta6  1  0.558230  0.558230  0.941770  1
  Ta  Ta7  1  0.941770  0.558230  0.558230  1
  Ta  Ta8  1  0.558230  0.941770  0.941770  1
  Ta  Ta9  1  0.941770  0.941770  0.558230  1
  Ta  Ta10  1  0.691770  0.308230  0.691770  1
  Ta  Ta11  1  0.941770  0.558230  0.941770  1
  Re  Re12  1  0.125000  0.125000  0.125000  1
  Re  Re13  1  0.625000  0.125000  0.125000  1
  Re  Re14  1  0.125000  0.625000  0.125000  1
  Re  Re15  1  0.125000  0.125000  0.625000  1
  Si  Si16  1  0.913600  0.913600  0.913600  1
  Si  Si17  1  0.990798  0.336400  0.336400  1
  Si  Si18  1  0.336400  0.990798  0.336400  1
  Si  Si19  1  0.336400  0.336400  0.990798  1
  Si  Si20  1  0.913600  0.259202  0.913600  1
  Si  Si21  1  0.913600  0.913600  0.259202  1
  Si  Si22  1  0.259202  0.913600  0.913600  1
  Si  Si23  1  0.336400  0.336400  0.336400  1
  C  C24  1  0.625000  0.625000  0.625000  1
  C  C25  1  0.125000  0.625000  0.625000  1
  C  C26  1  0.625000  0.125000  0.625000  1
  C  C27  1  0.625000  0.625000  0.125000  1
