# generated using pymatgen
data_Ti4Al2PtRh9
_symmetry_space_group_name_H-M   'P 1'
_cell_length_a   4.03288700
_cell_length_b   5.39792362
_cell_length_c   10.61578254
_cell_angle_alpha   90.56771694
_cell_angle_beta   90.00000000
_cell_angle_gamma   90.00000000
_symmetry_Int_Tables_number   1
_chemical_formula_structural   Ti4Al2PtRh9
_chemical_formula_sum   'Ti4 Al2 Pt1 Rh9'
_cell_volume   231.08591883
_cell_formula_units_Z   1
loop_
 _symmetry_equiv_pos_site_id
 _symmetry_equiv_pos_as_xyz
  1  'x, y, z'
loop_
 _atom_site_type_symbol
 _atom_site_label
 _atom_site_symmetry_multiplicity
 _atom_site_fract_x
 _atom_site_fract_y
 _atom_site_fract_z
 _atom_site_occupancy
  Ti  Ti0  1  0.500000  0.333929  0.136564  1
  Ti  Ti1  1  0.500000  0.676478  0.859175  1
  Ti  Ti2  1  0.500000  0.817836  0.363804  1
  Ti  Ti3  1  0.500000  0.173636  0.640523  1
  Al  Al4  1  0.000000  0.002324  0.999174  1
  Al  Al5  1  0.000000  0.497732  0.500671  1
  Pt  Pt6  1  0.000000  0.075691  0.243553  1
  Rh  Rh7  1  0.000000  0.998313  0.501001  1
  Rh  Rh8  1  0.000000  0.504762  0.998866  1
  Rh  Rh9  1  0.000000  0.922410  0.756413  1
  Rh  Rh10  1  0.000000  0.576068  0.256556  1
  Rh  Rh11  1  0.000000  0.421536  0.743589  1
  Rh  Rh12  1  0.500000  0.309204  0.390430  1
  Rh  Rh13  1  0.500000  0.686831  0.609749  1
  Rh  Rh14  1  0.500000  0.813235  0.108950  1
  Rh  Rh15  1  0.500000  0.190014  0.890981  1
