# generated using pymatgen
data_Hf18Re2NiMo6Ir
_symmetry_space_group_name_H-M   'P 1'
_cell_length_a   8.69899572
_cell_length_b   8.70510382
_cell_length_c   8.51777700
_cell_angle_alpha   90.00000000
_cell_angle_beta   90.00000000
_cell_angle_gamma   120.02323120
_symmetry_Int_Tables_number   1
_chemical_formula_structural   Hf18Re2NiMo6Ir
_chemical_formula_sum   'Hf18 Re2 Ni1 Mo6 Ir1'
_cell_volume   558.46795287
_cell_formula_units_Z   1
loop_
 _symmetry_equiv_pos_site_id
 _symmetry_equiv_pos_as_xyz
  1  'x, y, z'
loop_
 _atom_site_type_symbol
 _atom_site_label
 _atom_site_symmetry_multiplicity
 _atom_site_fract_x
 _atom_site_fract_y
 _atom_site_fract_z
 _atom_site_occupancy
  Hf  Hf0  1  0.197095  0.803192  0.445226  1
  Hf  Hf1  1  0.197095  0.393901  0.445226  1
  Hf  Hf2  1  0.605854  0.802926  0.447845  1
  Hf  Hf3  1  0.800051  0.199740  0.558283  1
  Hf  Hf4  1  0.800051  0.600314  0.558283  1
  Hf  Hf5  1  0.399656  0.199829  0.556022  1
  Hf  Hf6  1  0.800051  0.199740  0.941717  1
  Hf  Hf7  1  0.800051  0.600314  0.941717  1
  Hf  Hf8  1  0.399656  0.199829  0.943978  1
  Hf  Hf9  1  0.197095  0.803192  0.054774  1
  Hf  Hf10  1  0.197095  0.393901  0.054774  1
  Hf  Hf11  1  0.605854  0.802926  0.052155  1
  Hf  Hf12  1  0.541610  0.456245  0.250000  1
  Hf  Hf13  1  0.541610  0.085366  0.250000  1
  Hf  Hf14  1  0.913629  0.456815  0.250000  1
  Hf  Hf15  1  0.458917  0.542647  0.750000  1
  Hf  Hf16  1  0.458917  0.916269  0.750000  1
  Hf  Hf17  1  0.083866  0.541932  0.750000  1
  Re  Re18  1  0.226564  0.113281  0.250000  1
  Re  Re19  1  0.775097  0.887549  0.750000  1
  Ni  Ni20  1  0.665969  0.332984  0.750000  1
  Mo  Mo21  1  0.889478  0.112225  0.250000  1
  Mo  Mo22  1  0.889478  0.777251  0.250000  1
  Mo  Mo23  1  0.110070  0.888453  0.750000  1
  Mo  Mo24  1  0.110070  0.221619  0.750000  1
  Mo  Mo25  1  0.000141  0.000071  0.499834  1
  Mo  Mo26  1  0.000141  0.000071  0.000166  1
  Ir  Ir27  1  0.334836  0.667418  0.250000  1
