# generated using pymatgen
data_Ca2(Si2Pd7)3
_symmetry_space_group_name_H-M   'P 1'
_cell_length_a   8.68440805
_cell_length_b   8.68440774
_cell_length_c   8.68440700
_cell_angle_alpha   59.99999902
_cell_angle_beta   60.00000018
_cell_angle_gamma   59.99999676
_symmetry_Int_Tables_number   1
_chemical_formula_structural   Ca2(Si2Pd7)3
_chemical_formula_sum   'Ca2 Si6 Pd21'
_cell_volume   463.13284795
_cell_formula_units_Z   1
loop_
 _symmetry_equiv_pos_site_id
 _symmetry_equiv_pos_as_xyz
  1  'x, y, z'
loop_
 _atom_site_type_symbol
 _atom_site_label
 _atom_site_symmetry_multiplicity
 _atom_site_fract_x
 _atom_site_fract_y
 _atom_site_fract_z
 _atom_site_occupancy
  Ca  Ca0  1  0.750000  0.750000  0.750000  1
  Ca  Ca1  1  0.250000  0.250000  0.250000  1
  Si  Si2  1  0.733669  0.733669  0.266331  1
  Si  Si3  1  0.266331  0.733669  0.266331  1
  Si  Si4  1  0.733669  0.266331  0.266331  1
  Si  Si5  1  0.266331  0.266331  0.733669  1
  Si  Si6  1  0.733669  0.266331  0.733669  1
  Si  Si7  1  0.266331  0.733669  0.733669  1
  Pd  Pd8  1  0.000000  0.000000  0.000000  1
  Pd  Pd9  1  0.615189  0.615189  0.154434  1
  Pd  Pd10  1  0.615189  0.154434  0.615189  1
  Pd  Pd11  1  0.154434  0.615189  0.615189  1
  Pd  Pd12  1  0.615189  0.615189  0.615189  1
  Pd  Pd13  1  0.384811  0.384811  0.845566  1
  Pd  Pd14  1  0.384811  0.845566  0.384811  1
  Pd  Pd15  1  0.845566  0.384811  0.384811  1
  Pd  Pd16  1  0.384811  0.384811  0.384811  1
  Pd  Pd17  1  0.000000  0.000000  0.343019  1
  Pd  Pd18  1  0.656981  0.000000  0.343019  1
  Pd  Pd19  1  0.000000  0.656981  0.343019  1
  Pd  Pd20  1  0.656981  0.343019  0.000000  1
  Pd  Pd21  1  0.000000  0.343019  0.000000  1
  Pd  Pd22  1  0.000000  0.343019  0.656981  1
  Pd  Pd23  1  0.343019  0.656981  0.000000  1
  Pd  Pd24  1  0.343019  0.000000  0.656981  1
  Pd  Pd25  1  0.343019  0.000000  0.000000  1
  Pd  Pd26  1  0.000000  0.000000  0.656981  1
  Pd  Pd27  1  0.000000  0.656981  0.000000  1
  Pd  Pd28  1  0.656981  0.000000  0.000000  1
