# generated using pymatgen
data_Nb12Al3Ga(AuN)4
_symmetry_space_group_name_H-M   'P 1'
_cell_length_a   7.11406718
_cell_length_b   7.11406718
_cell_length_c   7.11406718
_cell_angle_alpha   90.08778574
_cell_angle_beta   89.91221426
_cell_angle_gamma   89.91221426
_symmetry_Int_Tables_number   1
_chemical_formula_structural   Nb12Al3Ga(AuN)4
_chemical_formula_sum   'Nb12 Al3 Ga1 Au4 N4'
_cell_volume   360.04132802
_cell_formula_units_Z   1
loop_
 _symmetry_equiv_pos_site_id
 _symmetry_equiv_pos_as_xyz
  1  'x, y, z'
loop_
 _atom_site_type_symbol
 _atom_site_label
 _atom_site_symmetry_multiplicity
 _atom_site_fract_x
 _atom_site_fract_y
 _atom_site_fract_z
 _atom_site_occupancy
  Nb  Nb0  1  0.785395  0.956323  0.376557  1
  Nb  Nb1  1  0.713988  0.043695  0.876809  1
  Nb  Nb2  1  0.214335  0.456565  0.123889  1
  Nb  Nb3  1  0.285962  0.543392  0.623115  1
  Nb  Nb4  1  0.956305  0.376809  0.786012  1
  Nb  Nb5  1  0.043677  0.876557  0.714605  1
  Nb  Nb6  1  0.456608  0.123115  0.214038  1
  Nb  Nb7  1  0.543435  0.623889  0.285665  1
  Nb  Nb8  1  0.376111  0.785665  0.956565  1
  Nb  Nb9  1  0.876885  0.714038  0.043392  1
  Nb  Nb10  1  0.123443  0.214605  0.456323  1
  Nb  Nb11  1  0.623191  0.286012  0.543695  1
  Al  Al12  1  0.427774  0.927766  0.572015  1
  Al  Al13  1  0.927985  0.572226  0.427766  1
  Al  Al14  1  0.072234  0.072015  0.072226  1
  Ga  Ga15  1  0.571328  0.428672  0.928672  1
  Au  Au16  1  0.179143  0.820857  0.320857  1
  Au  Au17  1  0.319072  0.177476  0.820100  1
  Au  Au18  1  0.822524  0.320100  0.180928  1
  Au  Au19  1  0.679900  0.680928  0.677476  1
  N  N20  1  0.877048  0.122952  0.622952  1
  N  N21  1  0.622784  0.876763  0.122362  1
  N  N22  1  0.123237  0.622362  0.877216  1
  N  N23  1  0.377638  0.377216  0.376763  1
