# generated using pymatgen
data_KZrFeF7
_symmetry_space_group_name_H-M   'P 1'
_cell_length_a   6.43479326
_cell_length_b   6.43479372
_cell_length_c   8.30384800
_cell_angle_alpha   90.00000000
_cell_angle_beta   90.00000000
_cell_angle_gamma   117.56553102
_symmetry_Int_Tables_number   1
_chemical_formula_structural   KZrFeF7
_chemical_formula_sum   'K2 Zr2 Fe2 F14'
_cell_volume   304.80255764
_cell_formula_units_Z   2
loop_
 _symmetry_equiv_pos_site_id
 _symmetry_equiv_pos_as_xyz
  1  'x, y, z'
loop_
 _atom_site_type_symbol
 _atom_site_label
 _atom_site_symmetry_multiplicity
 _atom_site_fract_x
 _atom_site_fract_y
 _atom_site_fract_z
 _atom_site_occupancy
  K  K0  1  0.500000  0.500000  0.500000  1
  K  K1  1  0.500000  0.500000  0.000000  1
  Zr  Zr2  1  0.808950  0.191050  0.250000  1
  Zr  Zr3  1  0.191050  0.808950  0.750000  1
  Fe  Fe4  1  0.191914  0.808086  0.250000  1
  Fe  Fe5  1  0.808086  0.191914  0.750000  1
  F  F6  1  0.836294  0.552305  0.750000  1
  F  F7  1  0.163706  0.447695  0.250000  1
  F  F8  1  0.163587  0.462693  0.750000  1
  F  F9  1  0.799652  0.200348  0.496445  1
  F  F10  1  0.447695  0.163706  0.750000  1
  F  F11  1  0.799652  0.200348  0.003555  1
  F  F12  1  0.200348  0.799652  0.996445  1
  F  F13  1  0.836413  0.537307  0.250000  1
  F  F14  1  0.552305  0.836294  0.250000  1
  F  F15  1  0.995241  0.004759  0.250000  1
  F  F16  1  0.004759  0.995241  0.750000  1
  F  F17  1  0.200348  0.799652  0.503555  1
  F  F18  1  0.537307  0.836413  0.750000  1
  F  F19  1  0.462693  0.163587  0.250000  1
