# generated using pymatgen
data_Mn6Co2MoW3
_symmetry_space_group_name_H-M   'P 1'
_cell_length_a   4.66322100
_cell_length_b   4.66322001
_cell_length_c   7.85786400
_cell_angle_alpha   90.00000000
_cell_angle_beta   90.00000000
_cell_angle_gamma   119.99999990
_symmetry_Int_Tables_number   1
_chemical_formula_structural   Mn6Co2MoW3
_chemical_formula_sum   'Mn6 Co2 Mo1 W3'
_cell_volume   147.98137028
_cell_formula_units_Z   1
loop_
 _symmetry_equiv_pos_site_id
 _symmetry_equiv_pos_as_xyz
  1  'x, y, z'
loop_
 _atom_site_type_symbol
 _atom_site_label
 _atom_site_symmetry_multiplicity
 _atom_site_fract_x
 _atom_site_fract_y
 _atom_site_fract_z
 _atom_site_occupancy
  Mn  Mn0  1  0.827313  0.172687  0.750198  1
  Mn  Mn1  1  0.827313  0.654624  0.750198  1
  Mn  Mn2  1  0.345376  0.172687  0.750198  1
  Mn  Mn3  1  0.172237  0.827763  0.250152  1
  Mn  Mn4  1  0.172237  0.344476  0.250152  1
  Mn  Mn5  1  0.655524  0.827763  0.250152  1
  Co  Co6  1  0.000000  0.000000  0.000010  1
  Co  Co7  1  0.000000  0.000000  0.500350  1
  Mo  Mo8  1  0.333333  0.666667  0.932805  1
  W  W9  1  0.666667  0.333333  0.065603  1
  W  W10  1  0.666667  0.333333  0.433970  1
  W  W11  1  0.333333  0.666667  0.566213  1
