# generated using pymatgen
data_AlReSeO8
_symmetry_space_group_name_H-M   'P 1'
_cell_length_a   5.23337300
_cell_length_b   5.23337365
_cell_length_c   6.87564500
_cell_angle_alpha   90.00000000
_cell_angle_beta   90.00000000
_cell_angle_gamma   119.99998960
_symmetry_Int_Tables_number   1
_chemical_formula_structural   AlReSeO8
_chemical_formula_sum   'Al1 Re1 Se1 O8'
_cell_volume   163.08257309
_cell_formula_units_Z   1
loop_
 _symmetry_equiv_pos_site_id
 _symmetry_equiv_pos_as_xyz
  1  'x, y, z'
loop_
 _atom_site_type_symbol
 _atom_site_label
 _atom_site_symmetry_multiplicity
 _atom_site_fract_x
 _atom_site_fract_y
 _atom_site_fract_z
 _atom_site_occupancy
  Al  Al0  1  0.000000  0.000000  0.978369  1
  Re  Re1  1  0.333333  0.666667  0.247666  1
  Se  Se2  1  0.666667  0.333333  0.752627  1
  O  O3  1  0.337903  0.266988  0.841778  1
  O  O4  1  0.245118  0.929994  0.160965  1
  O  O5  1  0.070006  0.315122  0.160965  1
  O  O6  1  0.666667  0.333333  0.516377  1
  O  O7  1  0.333333  0.666667  0.496730  1
  O  O8  1  0.929086  0.662097  0.841778  1
  O  O9  1  0.733012  0.070914  0.841778  1
  O  O10  1  0.684878  0.754882  0.160965  1
