# generated using pymatgen
data_Er3Tm5(InIr)2
_symmetry_space_group_name_H-M   'P 1'
_cell_length_a   9.56514018
_cell_length_b   9.56518141
_cell_length_c   9.56517758
_cell_angle_alpha   59.91898221
_cell_angle_beta   59.91903300
_cell_angle_gamma   59.91876983
_symmetry_Int_Tables_number   1
_chemical_formula_structural   Er3Tm5(InIr)2
_chemical_formula_sum   'Er6 Tm10 In4 Ir4'
_cell_volume   617.67947780
_cell_formula_units_Z   2
loop_
 _symmetry_equiv_pos_site_id
 _symmetry_equiv_pos_as_xyz
  1  'x, y, z'
loop_
 _atom_site_type_symbol
 _atom_site_label
 _atom_site_symmetry_multiplicity
 _atom_site_fract_x
 _atom_site_fract_y
 _atom_site_fract_z
 _atom_site_occupancy
  Er  Er0  1  0.190002  0.810421  0.810415  1
  Er  Er1  1  0.810443  0.190983  0.190973  1
  Er  Er2  1  0.810402  0.189997  0.810449  1
  Er  Er3  1  0.190981  0.810422  0.190978  1
  Er  Er4  1  0.810415  0.810433  0.189997  1
  Er  Er5  1  0.190995  0.190993  0.810425  1
  Tm  Tm6  1  0.597606  0.597606  0.597604  1
  Tm  Tm7  1  0.600546  0.600539  0.202567  1
  Tm  Tm8  1  0.600556  0.202565  0.600533  1
  Tm  Tm9  1  0.202551  0.600563  0.600547  1
  Tm  Tm10  1  0.057731  0.440677  0.440679  1
  Tm  Tm11  1  0.439466  0.058778  0.058785  1
  Tm  Tm12  1  0.440674  0.057732  0.440684  1
  Tm  Tm13  1  0.058779  0.439465  0.058784  1
  Tm  Tm14  1  0.440673  0.440678  0.057735  1
  Tm  Tm15  1  0.058779  0.058780  0.439473  1
  In  In16  1  0.833349  0.833274  0.833321  1
  In  In17  1  0.832857  0.832887  0.500958  1
  In  In18  1  0.832874  0.500967  0.832859  1
  In  In19  1  0.500964  0.832873  0.832876  1
  Ir  Ir20  1  0.391046  0.391052  0.391051  1
  Ir  Ir21  1  0.390764  0.390770  0.826772  1
  Ir  Ir22  1  0.390767  0.826776  0.390769  1
  Ir  Ir23  1  0.826776  0.390765  0.390761  1
