# generated using pymatgen
data_NpBi6(TeO9)2
_symmetry_space_group_name_H-M   'P 1'
_cell_length_a   9.36997800
_cell_length_b   9.36997715
_cell_length_c   5.46492700
_cell_angle_alpha   90.00000000
_cell_angle_beta   90.00000000
_cell_angle_gamma   120.00000300
_symmetry_Int_Tables_number   1
_chemical_formula_structural   NpBi6(TeO9)2
_chemical_formula_sum   'Np1 Bi6 Te2 O18'
_cell_volume   415.52014769
_cell_formula_units_Z   1
loop_
 _symmetry_equiv_pos_site_id
 _symmetry_equiv_pos_as_xyz
  1  'x, y, z'
loop_
 _atom_site_type_symbol
 _atom_site_label
 _atom_site_symmetry_multiplicity
 _atom_site_fract_x
 _atom_site_fract_y
 _atom_site_fract_z
 _atom_site_occupancy
  Np  Np0  1  0.666667  0.333333  0.988904  1
  Bi  Bi1  1  0.006763  0.379080  0.501081  1
  Bi  Bi2  1  0.280393  0.283854  0.004668  1
  Bi  Bi3  1  0.003461  0.719607  0.004668  1
  Bi  Bi4  1  0.620920  0.627683  0.501081  1
  Bi  Bi5  1  0.372317  0.993237  0.501081  1
  Bi  Bi6  1  0.716146  0.996539  0.004668  1
  Te  Te7  1  0.000000  0.000000  0.498104  1
  Te  Te8  1  0.333333  0.666667  0.011170  1
  O  O9  1  0.082181  0.198120  0.699666  1
  O  O10  1  0.227090  0.469843  0.220070  1
  O  O11  1  0.139401  0.600409  0.805286  1
  O  O12  1  0.399591  0.538993  0.805286  1
  O  O13  1  0.242753  0.772910  0.220070  1
  O  O14  1  0.115937  0.917819  0.699666  1
  O  O15  1  0.530157  0.757247  0.220070  1
  O  O16  1  0.193580  0.061537  0.291349  1
  O  O17  1  0.461007  0.860599  0.805286  1
  O  O18  1  0.801880  0.884063  0.699666  1
  O  O19  1  0.456498  0.224866  0.770692  1
  O  O20  1  0.586678  0.126704  0.207796  1
  O  O21  1  0.540026  0.413322  0.207796  1
  O  O22  1  0.775134  0.231633  0.770692  1
  O  O23  1  0.938463  0.132044  0.291349  1
  O  O24  1  0.768367  0.543502  0.770692  1
  O  O25  1  0.873296  0.459974  0.207796  1
  O  O26  1  0.867956  0.806420  0.291349  1
