# generated using pymatgen
data_TbPr2Pa(Al3Rh)6
_symmetry_space_group_name_H-M   'P 1'
_cell_length_a   7.62167651
_cell_length_b   7.61823901
_cell_length_c   9.50893100
_cell_angle_alpha   90.00000000
_cell_angle_beta   90.00000000
_cell_angle_gamma   119.42351157
_symmetry_Int_Tables_number   1
_chemical_formula_structural   TbPr2Pa(Al3Rh)6
_chemical_formula_sum   'Tb1 Pr2 Pa1 Al18 Rh6'
_cell_volume   480.90698639
_cell_formula_units_Z   1
loop_
 _symmetry_equiv_pos_site_id
 _symmetry_equiv_pos_as_xyz
  1  'x, y, z'
loop_
 _atom_site_type_symbol
 _atom_site_label
 _atom_site_symmetry_multiplicity
 _atom_site_fract_x
 _atom_site_fract_y
 _atom_site_fract_z
 _atom_site_occupancy
  Tb  Tb0  1  0.328956  0.004853  0.750000  1
  Pr  Pr1  1  0.006200  0.329191  0.750000  1
  Pr  Pr2  1  0.671811  0.994302  0.250000  1
  Pa  Pa3  1  0.996015  0.672047  0.250000  1
  Al  Al4  1  0.134335  0.129754  0.250000  1
  Al  Al5  1  0.872498  0.870898  0.750000  1
  Al  Al6  1  0.003420  0.336044  0.076014  1
  Al  Al7  1  0.998944  0.666912  0.923638  1
  Al  Al8  1  0.998944  0.666912  0.576362  1
  Al  Al9  1  0.335671  0.002764  0.426319  1
  Al  Al10  1  0.003420  0.336044  0.423986  1
  Al  Al11  1  0.662047  0.997358  0.577090  1
  Al  Al12  1  0.662047  0.997358  0.922910  1
  Al  Al13  1  0.335671  0.002764  0.073681  1
  Al  Al14  1  0.334488  0.332487  0.551251  1
  Al  Al15  1  0.664499  0.664294  0.452780  1
  Al  Al16  1  0.664499  0.664294  0.047220  1
  Al  Al17  1  0.334488  0.332487  0.948749  1
  Al  Al18  1  0.336383  0.545818  0.250000  1
  Al  Al19  1  0.656628  0.448812  0.750000  1
  Al  Al20  1  0.548913  0.344921  0.250000  1
  Al  Al21  1  0.452120  0.662024  0.750000  1
  Rh  Rh22  1  0.672567  0.330660  0.002280  1
  Rh  Rh23  1  0.326618  0.671837  0.002276  1
  Rh  Rh24  1  0.326618  0.671837  0.497724  1
  Rh  Rh25  1  0.672567  0.330660  0.497720  1
  Rh  Rh26  1  0.999815  0.996337  0.003019  1
  Rh  Rh27  1  0.999815  0.996337  0.496981  1
