# generated using pymatgen
data_ErTm15(CoAg)4
_symmetry_space_group_name_H-M   'P 1'
_cell_length_a   9.28353815
_cell_length_b   9.28382900
_cell_length_c   9.28348304
_cell_angle_alpha   59.99788052
_cell_angle_beta   59.99643430
_cell_angle_gamma   59.99831303
_symmetry_Int_Tables_number   1
_chemical_formula_structural   ErTm15(CoAg)4
_chemical_formula_sum   'Er1 Tm15 Co4 Ag4'
_cell_volume   565.73417091
_cell_formula_units_Z   1
loop_
 _symmetry_equiv_pos_site_id
 _symmetry_equiv_pos_as_xyz
  1  'x, y, z'
loop_
 _atom_site_type_symbol
 _atom_site_label
 _atom_site_symmetry_multiplicity
 _atom_site_fract_x
 _atom_site_fract_y
 _atom_site_fract_z
 _atom_site_occupancy
  Er  Er0  1  0.347920  0.347834  0.347979  1
  Tm  Tm1  1  0.347915  0.347868  0.956334  1
  Tm  Tm2  1  0.347881  0.956353  0.347909  1
  Tm  Tm3  1  0.956334  0.347858  0.347927  1
  Tm  Tm4  1  0.811438  0.188580  0.188577  1
  Tm  Tm5  1  0.188618  0.811428  0.811350  1
  Tm  Tm6  1  0.188579  0.811463  0.188575  1
  Tm  Tm7  1  0.811404  0.188617  0.811377  1
  Tm  Tm8  1  0.188577  0.188577  0.811427  1
  Tm  Tm9  1  0.811360  0.811413  0.188618  1
  Tm  Tm10  1  0.937424  0.562537  0.562538  1
  Tm  Tm11  1  0.562539  0.937489  0.937481  1
  Tm  Tm12  1  0.562535  0.937419  0.562551  1
  Tm  Tm13  1  0.937492  0.562535  0.937491  1
  Tm  Tm14  1  0.562546  0.562555  0.937411  1
  Tm  Tm15  1  0.937498  0.937503  0.562531  1
  Co  Co16  1  0.141282  0.141283  0.141279  1
  Co  Co17  1  0.141171  0.141175  0.576262  1
  Co  Co18  1  0.141170  0.576270  0.141168  1
  Co  Co19  1  0.576264  0.141179  0.141168  1
  Ag  Ag20  1  0.581759  0.581767  0.581757  1
  Ag  Ag21  1  0.581796  0.581805  0.254694  1
  Ag  Ag22  1  0.581793  0.254696  0.581800  1
  Ag  Ag23  1  0.254705  0.581795  0.581795  1
