# generated using pymatgen
data_Sm2B10Rh
_symmetry_space_group_name_H-M   'P 1'
_cell_length_a   4.18943700
_cell_length_b   5.71226200
_cell_length_c   11.38582900
_cell_angle_alpha   90.00000000
_cell_angle_beta   90.00000000
_cell_angle_gamma   90.00000000
_symmetry_Int_Tables_number   1
_chemical_formula_structural   Sm2B10Rh
_chemical_formula_sum   'Sm4 B20 Rh2'
_cell_volume   272.47611576
_cell_formula_units_Z   2
loop_
 _symmetry_equiv_pos_site_id
 _symmetry_equiv_pos_as_xyz
  1  'x, y, z'
loop_
 _atom_site_type_symbol
 _atom_site_label
 _atom_site_symmetry_multiplicity
 _atom_site_fract_x
 _atom_site_fract_y
 _atom_site_fract_z
 _atom_site_occupancy
  Sm  Sm0  1  0.500000  0.202796  0.364691  1
  Sm  Sm1  1  0.500000  0.797204  0.635309  1
  Sm  Sm2  1  0.500000  0.297204  0.864691  1
  Sm  Sm3  1  0.500000  0.702796  0.135309  1
  B  B4  1  0.000000  0.381630  0.042940  1
  B  B5  1  0.000000  0.618370  0.957060  1
  B  B6  1  0.000000  0.118370  0.542940  1
  B  B7  1  0.000000  0.881630  0.457060  1
  B  B8  1  0.000000  0.361465  0.197479  1
  B  B9  1  0.000000  0.638535  0.802521  1
  B  B10  1  0.000000  0.138535  0.697479  1
  B  B11  1  0.000000  0.861465  0.302521  1
  B  B12  1  0.000000  0.054853  0.192651  1
  B  B13  1  0.000000  0.945147  0.807349  1
  B  B14  1  0.000000  0.445147  0.692651  1
  B  B15  1  0.000000  0.554853  0.307349  1
  B  B16  1  0.301144  0.218431  0.118708  1
  B  B17  1  0.698856  0.781569  0.881292  1
  B  B18  1  0.301144  0.781569  0.881292  1
  B  B19  1  0.698856  0.281569  0.618708  1
  B  B20  1  0.698856  0.218431  0.118708  1
  B  B21  1  0.301144  0.718431  0.381292  1
  B  B22  1  0.698856  0.718431  0.381292  1
  B  B23  1  0.301144  0.281569  0.618708  1
  Rh  Rh24  1  0.000000  0.000000  0.000000  1
  Rh  Rh25  1  0.000000  0.500000  0.500000  1
