# generated using pymatgen
data_LaPm(PPd)2
_symmetry_space_group_name_H-M   'P 1'
_cell_length_a   5.70319109
_cell_length_b   5.70319128
_cell_length_c   5.70319100
_cell_angle_alpha   136.81929451
_cell_angle_beta   99.89606852
_cell_angle_gamma   95.67811017
_symmetry_Int_Tables_number   1
_chemical_formula_structural   LaPm(PPd)2
_chemical_formula_sum   'La1 Pm1 P2 Pd2'
_cell_volume   117.92944702
_cell_formula_units_Z   1
loop_
 _symmetry_equiv_pos_site_id
 _symmetry_equiv_pos_as_xyz
  1  'x, y, z'
loop_
 _atom_site_type_symbol
 _atom_site_label
 _atom_site_symmetry_multiplicity
 _atom_site_fract_x
 _atom_site_fract_y
 _atom_site_fract_z
 _atom_site_occupancy
  La  La0  1  0.499712  0.500000  0.999712  1
  Pm  Pm1  1  0.998946  0.000000  0.998946  1
  P  P2  1  0.919274  0.252581  0.666693  1
  P  P3  1  0.414110  0.747418  0.666692  1
  Pd  Pd4  1  0.585276  0.251299  0.333978  1
  Pd  Pd5  1  0.082680  0.748700  0.333978  1
