# generated using pymatgen
data_Ca4AsBr5
_symmetry_space_group_name_H-M   'P 1'
_cell_length_a   9.47710494
_cell_length_b   9.47710364
_cell_length_c   8.47873038
_cell_angle_alpha   77.35709115
_cell_angle_beta   77.35709362
_cell_angle_gamma   26.14869824
_symmetry_Int_Tables_number   1
_chemical_formula_structural   Ca4AsBr5
_chemical_formula_sum   'Ca4 As1 Br5'
_cell_volume   327.02226297
_cell_formula_units_Z   1
loop_
 _symmetry_equiv_pos_site_id
 _symmetry_equiv_pos_as_xyz
  1  'x, y, z'
loop_
 _atom_site_type_symbol
 _atom_site_label
 _atom_site_symmetry_multiplicity
 _atom_site_fract_x
 _atom_site_fract_y
 _atom_site_fract_z
 _atom_site_occupancy
  Ca  Ca0  1  0.839669  0.839669  0.093541  1
  Ca  Ca1  1  0.160331  0.160331  0.906459  1
  Ca  Ca2  1  0.500040  0.500040  0.235107  1
  Ca  Ca3  1  0.499960  0.499960  0.764893  1
  As  As4  1  0.000000  0.000000  0.000000  1
  Br  Br5  1  0.671525  0.671525  0.148263  1
  Br  Br6  1  0.328475  0.328475  0.851737  1
  Br  Br7  1  0.663700  0.663700  0.675716  1
  Br  Br8  1  0.336300  0.336300  0.324284  1
  Br  Br9  1  0.000000  0.000000  0.500000  1
