# generated using pymatgen
data_NdCoOs2C
_symmetry_space_group_name_H-M   'P 1'
_cell_length_a   5.65005054
_cell_length_b   5.65004895
_cell_length_c   7.54229500
_cell_angle_alpha   90.00000000
_cell_angle_beta   90.00000000
_cell_angle_gamma   139.67217842
_symmetry_Int_Tables_number   1
_chemical_formula_structural   NdCoOs2C
_chemical_formula_sum   'Nd2 Co2 Os4 C2'
_cell_volume   155.81876217
_cell_formula_units_Z   2
loop_
 _symmetry_equiv_pos_site_id
 _symmetry_equiv_pos_as_xyz
  1  'x, y, z'
loop_
 _atom_site_type_symbol
 _atom_site_label
 _atom_site_symmetry_multiplicity
 _atom_site_fract_x
 _atom_site_fract_y
 _atom_site_fract_z
 _atom_site_occupancy
  Nd  Nd0  1  0.535984  0.464016  0.250000  1
  Nd  Nd1  1  0.464016  0.535984  0.750000  1
  Co  Co2  1  0.263736  0.736264  0.250000  1
  Co  Co3  1  0.736264  0.263736  0.750000  1
  Os  Os4  1  0.824634  0.175366  0.060650  1
  Os  Os5  1  0.175366  0.824634  0.939350  1
  Os  Os6  1  0.175366  0.824634  0.560650  1
  Os  Os7  1  0.824634  0.175366  0.439350  1
  C  C8  1  0.000000  0.000000  0.000000  1
  C  C9  1  0.000000  0.000000  0.500000  1
