# generated using pymatgen
data_Dy8Hf11Si16Ir
_symmetry_space_group_name_H-M   'P 1'
_cell_length_a   7.25772011
_cell_length_b   7.25771919
_cell_length_c   13.21818603
_cell_angle_alpha   89.74543202
_cell_angle_beta   90.25456502
_cell_angle_gamma   89.94461437
_symmetry_Int_Tables_number   1
_chemical_formula_structural   Dy8Hf11Si16Ir
_chemical_formula_sum   'Dy8 Hf11 Si16 Ir1'
_cell_volume   696.24718384
_cell_formula_units_Z   1
loop_
 _symmetry_equiv_pos_site_id
 _symmetry_equiv_pos_as_xyz
  1  'x, y, z'
loop_
 _atom_site_type_symbol
 _atom_site_label
 _atom_site_symmetry_multiplicity
 _atom_site_fract_x
 _atom_site_fract_y
 _atom_site_fract_z
 _atom_site_occupancy
  Dy  Dy0  1  0.997750  0.345455  0.211025  1
  Dy  Dy1  1  0.005801  0.652915  0.717295  1
  Dy  Dy2  1  0.155264  0.493902  0.465030  1
  Dy  Dy3  1  0.502161  0.848567  0.032811  1
  Dy  Dy4  1  0.848567  0.502161  0.967189  1
  Dy  Dy5  1  0.493902  0.155264  0.534970  1
  Dy  Dy6  1  0.345455  0.997750  0.788975  1
  Dy  Dy7  1  0.652915  0.005801  0.282705  1
  Hf  Hf8  1  0.824449  0.824449  0.500000  1
  Hf  Hf9  1  0.322528  0.676482  0.247860  1
  Hf  Hf10  1  0.676482  0.322528  0.752140  1
  Hf  Hf11  1  0.145896  0.997780  0.371572  1
  Hf  Hf12  1  0.854134  0.003128  0.878546  1
  Hf  Hf13  1  0.502322  0.647006  0.626035  1
  Hf  Hf14  1  0.354209  0.496630  0.877464  1
  Hf  Hf15  1  0.496630  0.354209  0.122536  1
  Hf  Hf16  1  0.647006  0.502322  0.373965  1
  Hf  Hf17  1  0.997780  0.145896  0.628428  1
  Hf  Hf18  1  0.003128  0.854134  0.121454  1
  Si  Si19  1  0.358652  0.295999  0.314792  1
  Si  Si20  1  0.640354  0.704867  0.818667  1
  Si  Si21  1  0.206059  0.860997  0.567255  1
  Si  Si22  1  0.136830  0.789720  0.930974  1
  Si  Si23  1  0.789720  0.136830  0.069026  1
  Si  Si24  1  0.860997  0.206059  0.432745  1
  Si  Si25  1  0.295999  0.358652  0.685208  1
  Si  Si26  1  0.704867  0.640354  0.181333  1
  Si  Si27  1  0.291534  0.057103  0.179924  1
  Si  Si28  1  0.704155  0.949776  0.685966  1
  Si  Si29  1  0.449330  0.795969  0.434651  1
  Si  Si30  1  0.208279  0.554190  0.063334  1
  Si  Si31  1  0.554190  0.208279  0.936666  1
  Si  Si32  1  0.795969  0.449330  0.565349  1
  Si  Si33  1  0.057103  0.291534  0.820076  1
  Si  Si34  1  0.949776  0.704155  0.314034  1
  Ir  Ir35  1  0.169806  0.169806  0.000000  1
