# generated using pymatgen
data_NdYFe3Co9P7
_symmetry_space_group_name_H-M   'P 1'
_cell_length_a   9.01932500
_cell_length_b   9.01932598
_cell_length_c   3.62780500
_cell_angle_alpha   90.00000000
_cell_angle_beta   90.00000000
_cell_angle_gamma   119.99999908
_symmetry_Int_Tables_number   1
_chemical_formula_structural   NdYFe3Co9P7
_chemical_formula_sum   'Nd1 Y1 Fe3 Co9 P7'
_cell_volume   255.57754321
_cell_formula_units_Z   1
loop_
 _symmetry_equiv_pos_site_id
 _symmetry_equiv_pos_as_xyz
  1  'x, y, z'
loop_
 _atom_site_type_symbol
 _atom_site_label
 _atom_site_symmetry_multiplicity
 _atom_site_fract_x
 _atom_site_fract_y
 _atom_site_fract_z
 _atom_site_occupancy
  Nd  Nd0  1  0.666667  0.333333  0.000000  1
  Y  Y1  1  0.333333  0.666667  0.500000  1
  Fe  Fe2  1  0.094333  0.878966  0.500000  1
  Fe  Fe3  1  0.784633  0.905667  0.500000  1
  Fe  Fe4  1  0.121034  0.215367  0.500000  1
  Co  Co5  1  0.061480  0.631512  0.000000  1
  Co  Co6  1  0.570032  0.938520  0.000000  1
  Co  Co7  1  0.368488  0.429968  0.000000  1
  Co  Co8  1  0.272777  0.116326  0.000000  1
  Co  Co9  1  0.843549  0.727223  0.000000  1
  Co  Co10  1  0.883674  0.156451  0.000000  1
  Co  Co11  1  0.431281  0.045437  0.500000  1
  Co  Co12  1  0.614156  0.568719  0.500000  1
  Co  Co13  1  0.954563  0.385844  0.500000  1
  P  P14  1  0.298318  0.888311  0.000000  1
  P  P15  1  0.589993  0.701682  0.000000  1
  P  P16  1  0.111689  0.410007  0.000000  1
  P  P17  1  0.396765  0.289219  0.500000  1
  P  P18  1  0.892454  0.603235  0.500000  1
  P  P19  1  0.710781  0.107546  0.500000  1
  P  P20  1  0.000000  0.000000  0.000000  1
