# generated using pymatgen
data_RbSb(CO3)2
_symmetry_space_group_name_H-M   'P 1'
_cell_length_a   6.96611771
_cell_length_b   6.96611000
_cell_length_c   7.55996545
_cell_angle_alpha   105.31261301
_cell_angle_beta   105.31304583
_cell_angle_gamma   97.67708277
_symmetry_Int_Tables_number   1
_chemical_formula_structural   RbSb(CO3)2
_chemical_formula_sum   'Rb2 Sb2 C4 O12'
_cell_volume   333.02241665
_cell_formula_units_Z   2
loop_
 _symmetry_equiv_pos_site_id
 _symmetry_equiv_pos_as_xyz
  1  'x, y, z'
loop_
 _atom_site_type_symbol
 _atom_site_label
 _atom_site_symmetry_multiplicity
 _atom_site_fract_x
 _atom_site_fract_y
 _atom_site_fract_z
 _atom_site_occupancy
  Rb  Rb0  1  0.875134  0.124858  0.250005  1
  Rb  Rb1  1  0.124861  0.875134  0.750004  1
  Sb  Sb2  1  0.436093  0.563921  0.250006  1
  Sb  Sb3  1  0.563917  0.436092  0.750004  1
  C  C4  1  0.401084  0.174087  0.234345  1
  C  C5  1  0.825902  0.598913  0.265658  1
  C  C6  1  0.174088  0.401084  0.734346  1
  C  C7  1  0.598914  0.825905  0.765655  1
  O  O8  1  0.662842  0.471911  0.118853  1
  O  O9  1  0.272834  0.233377  0.107015  1
  O  O10  1  0.413044  0.995772  0.222531  1
  O  O11  1  0.004239  0.586960  0.277463  1
  O  O12  1  0.766621  0.727156  0.392982  1
  O  O13  1  0.528087  0.337159  0.381151  1
  O  O14  1  0.471911  0.662844  0.618851  1
  O  O15  1  0.233375  0.272836  0.607017  1
  O  O16  1  0.995770  0.413042  0.722534  1
  O  O17  1  0.586965  0.004239  0.777455  1
  O  O18  1  0.727159  0.766623  0.892980  1
  O  O19  1  0.337158  0.528088  0.881149  1
