# generated using pymatgen
data_PuAl7ZnCu4
_symmetry_space_group_name_H-M   'P 1'
_cell_length_a   6.89467445
_cell_length_b   6.89467389
_cell_length_c   6.89467400
_cell_angle_alpha   98.71873917
_cell_angle_beta   98.42174113
_cell_angle_gamma   134.58427133
_symmetry_Int_Tables_number   1
_chemical_formula_structural   PuAl7ZnCu4
_chemical_formula_sum   'Pu1 Al7 Zn1 Cu4'
_cell_volume   215.33371036
_cell_formula_units_Z   1
loop_
 _symmetry_equiv_pos_site_id
 _symmetry_equiv_pos_as_xyz
  1  'x, y, z'
loop_
 _atom_site_type_symbol
 _atom_site_label
 _atom_site_symmetry_multiplicity
 _atom_site_fract_x
 _atom_site_fract_y
 _atom_site_fract_z
 _atom_site_occupancy
  Pu  Pu0  1  0.000000  0.000419  0.000419  1
  Al  Al1  1  0.346522  0.000166  0.346688  1
  Al  Al2  1  0.653478  0.000166  0.653643  1
  Al  Al3  1  0.000000  0.653173  0.653173  1
  Al  Al4  1  0.500000  0.721091  0.221091  1
  Al  Al5  1  0.722934  0.499226  0.222159  1
  Al  Al6  1  0.277066  0.499226  0.776291  1
  Al  Al7  1  0.500000  0.280255  0.780255  1
  Zn  Zn8  1  0.000000  0.348916  0.348916  1
  Cu  Cu9  1  0.000680  0.998368  0.500995  1
  Cu  Cu10  1  0.999320  0.500315  0.997687  1
  Cu  Cu11  1  0.497371  0.998368  0.997687  1
  Cu  Cu12  1  0.502629  0.500315  0.500995  1
