# generated using pymatgen
data_Dy2Er2ReB12Ir
_symmetry_space_group_name_H-M   'P 1'
_cell_length_a   3.65795000
_cell_length_b   9.13495241
_cell_length_c   11.52869105
_cell_angle_alpha   90.30654357
_cell_angle_beta   90.00000000
_cell_angle_gamma   90.00000000
_symmetry_Int_Tables_number   1
_chemical_formula_structural   Dy2Er2ReB12Ir
_chemical_formula_sum   'Dy4 Er4 Re2 B24 Ir2'
_cell_volume   385.22799398
_cell_formula_units_Z   2
loop_
 _symmetry_equiv_pos_site_id
 _symmetry_equiv_pos_as_xyz
  1  'x, y, z'
loop_
 _atom_site_type_symbol
 _atom_site_label
 _atom_site_symmetry_multiplicity
 _atom_site_fract_x
 _atom_site_fract_y
 _atom_site_fract_z
 _atom_site_occupancy
  Dy  Dy0  1  0.000000  0.317052  0.409899  1
  Dy  Dy1  1  0.000000  0.682948  0.590101  1
  Dy  Dy2  1  0.000000  0.826228  0.082503  1
  Dy  Dy3  1  0.000000  0.173772  0.917497  1
  Er  Er4  1  0.000000  0.946047  0.372354  1
  Er  Er5  1  0.000000  0.053953  0.627646  1
  Er  Er6  1  0.000000  0.441652  0.125823  1
  Er  Er7  1  0.000000  0.558348  0.874177  1
  Re  Re8  1  0.000000  0.138339  0.180090  1
  Re  Re9  1  0.000000  0.861661  0.819910  1
  B  B10  1  0.500000  0.554139  0.433882  1
  B  B11  1  0.500000  0.445861  0.566118  1
  B  B12  1  0.500000  0.053263  0.067405  1
  B  B13  1  0.500000  0.946737  0.932595  1
  B  B14  1  0.500000  0.749654  0.421131  1
  B  B15  1  0.500000  0.250346  0.578869  1
  B  B16  1  0.500000  0.248161  0.080839  1
  B  B17  1  0.500000  0.751839  0.919161  1
  B  B18  1  0.500000  0.790986  0.266225  1
  B  B19  1  0.500000  0.209014  0.733775  1
  B  B20  1  0.500000  0.292283  0.234220  1
  B  B21  1  0.500000  0.707717  0.765780  1
  B  B22  1  0.500000  0.631282  0.183979  1
  B  B23  1  0.500000  0.368718  0.816021  1
  B  B24  1  0.500000  0.131234  0.314844  1
  B  B25  1  0.500000  0.868766  0.685156  1
  B  B26  1  0.500000  0.982532  0.213411  1
  B  B27  1  0.500000  0.017468  0.786589  1
  B  B28  1  0.500000  0.482260  0.287057  1
  B  B29  1  0.500000  0.517740  0.712943  1
  B  B30  1  0.500000  0.605904  0.029745  1
  B  B31  1  0.500000  0.394096  0.970255  1
  B  B32  1  0.500000  0.106633  0.471070  1
  B  B33  1  0.500000  0.893367  0.528930  1
  Ir  Ir34  1  0.000000  0.636740  0.322096  1
  Ir  Ir35  1  0.000000  0.363260  0.677904  1
