# generated using pymatgen
data_Y3Ni4P6Ru5
_symmetry_space_group_name_H-M   'P 1'
_cell_length_a   3.89274100
_cell_length_b   10.68413413
_cell_length_c   12.64070829
_cell_angle_alpha   89.52838973
_cell_angle_beta   89.99931654
_cell_angle_gamma   90.00025161
_symmetry_Int_Tables_number   1
_chemical_formula_structural   Y3Ni4P6Ru5
_chemical_formula_sum   'Y6 Ni8 P12 Ru10'
_cell_volume   525.71641519
_cell_formula_units_Z   2
loop_
 _symmetry_equiv_pos_site_id
 _symmetry_equiv_pos_as_xyz
  1  'x, y, z'
loop_
 _atom_site_type_symbol
 _atom_site_label
 _atom_site_symmetry_multiplicity
 _atom_site_fract_x
 _atom_site_fract_y
 _atom_site_fract_z
 _atom_site_occupancy
  Y  Y0  1  0.751864  0.999644  0.477151  1
  Y  Y1  1  0.251891  0.499745  0.523662  1
  Y  Y2  1  0.251804  0.680542  0.797810  1
  Y  Y3  1  0.251830  0.319225  0.796814  1
  Y  Y4  1  0.751837  0.812387  0.201039  1
  Y  Y5  1  0.751854  0.185521  0.203893  1
  Ni  Ni6  1  0.251697  0.498681  0.980730  1
  Ni  Ni7  1  0.751776  0.126739  0.716622  1
  Ni  Ni8  1  0.251735  0.171798  0.011631  1
  Ni  Ni9  1  0.251688  0.830616  0.008485  1
  Ni  Ni10  1  0.751658  0.329326  0.987341  1
  Ni  Ni11  1  0.751640  0.670378  0.987888  1
  Ni  Ni12  1  0.251747  0.998819  0.299523  1
  Ni  Ni13  1  0.751728  0.499866  0.701877  1
  P  P14  1  0.251925  0.184227  0.386125  1
  P  P15  1  0.251858  0.811895  0.383593  1
  P  P16  1  0.751866  0.315834  0.619124  1
  P  P17  1  0.751857  0.685956  0.618386  1
  P  P18  1  0.251766  0.999406  0.124336  1
  P  P19  1  0.751748  0.501084  0.877523  1
  P  P20  1  0.251835  0.646997  0.101833  1
  P  P21  1  0.251855  0.351603  0.103538  1
  P  P22  1  0.751765  0.846299  0.893531  1
  P  P23  1  0.751860  0.155812  0.891893  1
  P  P24  1  0.251857  0.996841  0.657039  1
  P  P25  1  0.751890  0.498933  0.340959  1
  Ru  Ru26  1  0.751744  0.000911  0.016137  1
  Ru  Ru27  1  0.251869  0.198597  0.577347  1
  Ru  Ru28  1  0.251849  0.796336  0.571825  1
  Ru  Ru29  1  0.751968  0.294803  0.433310  1
  Ru  Ru30  1  0.751894  0.701811  0.429456  1
  Ru  Ru31  1  0.251895  0.623740  0.283034  1
  Ru  Ru32  1  0.251906  0.373328  0.284760  1
  Ru  Ru33  1  0.751913  0.881630  0.715195  1
  Ru  Ru34  1  0.251837  0.011598  0.845732  1
  Ru  Ru35  1  0.751896  0.499073  0.150858  1
