# generated using pymatgen
data_Zr2Cr2Co10As7
_symmetry_space_group_name_H-M   'P 1'
_cell_length_a   3.70478000
_cell_length_b   9.31637537
_cell_length_c   9.34869863
_cell_angle_alpha   119.80155378
_cell_angle_beta   90.00000000
_cell_angle_gamma   90.00000000
_symmetry_Int_Tables_number   1
_chemical_formula_structural   Zr2Cr2Co10As7
_chemical_formula_sum   'Zr2 Cr2 Co10 As7'
_cell_volume   279.99880194
_cell_formula_units_Z   1
loop_
 _symmetry_equiv_pos_site_id
 _symmetry_equiv_pos_as_xyz
  1  'x, y, z'
loop_
 _atom_site_type_symbol
 _atom_site_label
 _atom_site_symmetry_multiplicity
 _atom_site_fract_x
 _atom_site_fract_y
 _atom_site_fract_z
 _atom_site_occupancy
  Zr  Zr0  1  0.000000  0.672162  0.336646  1
  Zr  Zr1  1  0.500000  0.333439  0.666687  1
  Cr  Cr2  1  0.500000  0.777759  0.894425  1
  Cr  Cr3  1  0.500000  0.121735  0.222396  1
  Co  Co4  1  0.000000  0.563886  0.936834  1
  Co  Co5  1  0.000000  0.370609  0.433070  1
  Co  Co6  1  0.000000  0.061314  0.628842  1
  Co  Co7  1  0.500000  0.092634  0.875461  1
  Co  Co8  1  0.000000  0.879864  0.161190  1
  Co  Co9  1  0.000000  0.283662  0.123761  1
  Co  Co10  1  0.000000  0.840572  0.719387  1
  Co  Co11  1  0.500000  0.948274  0.385955  1
  Co  Co12  1  0.500000  0.436810  0.050351  1
  Co  Co13  1  0.500000  0.613578  0.561909  1
  As  As14  1  0.000000  0.002201  0.998957  1
  As  As15  1  0.500000  0.709427  0.120265  1
  As  As16  1  0.500000  0.415918  0.290615  1
  As  As17  1  0.500000  0.881742  0.592539  1
  As  As18  1  0.000000  0.583679  0.701985  1
  As  As19  1  0.000000  0.117581  0.415955  1
  As  As20  1  0.000000  0.293151  0.882770  1
