# generated using pymatgen
data_NaPr6PtI12
_symmetry_space_group_name_H-M   'P 1'
_cell_length_a   10.15241145
_cell_length_b   10.15241254
_cell_length_c   10.15241264
_cell_angle_alpha   107.23505918
_cell_angle_beta   107.23506547
_cell_angle_gamma   107.23505754
_symmetry_Int_Tables_number   1
_chemical_formula_structural   NaPr6PtI12
_chemical_formula_sum   'Na1 Pr6 Pt1 I12'
_cell_volume   865.82317199
_cell_formula_units_Z   1
loop_
 _symmetry_equiv_pos_site_id
 _symmetry_equiv_pos_as_xyz
  1  'x, y, z'
loop_
 _atom_site_type_symbol
 _atom_site_label
 _atom_site_symmetry_multiplicity
 _atom_site_fract_x
 _atom_site_fract_y
 _atom_site_fract_z
 _atom_site_occupancy
  Na  Na0  1  0.500000  0.500000  0.500000  1
  Pr  Pr1  1  0.972217  0.897193  0.689034  1
  Pr  Pr2  1  0.027783  0.102807  0.310966  1
  Pr  Pr3  1  0.102807  0.310966  0.027783  1
  Pr  Pr4  1  0.310966  0.027783  0.102807  1
  Pr  Pr5  1  0.897193  0.689034  0.972217  1
  Pr  Pr6  1  0.689034  0.972217  0.897193  1
  Pt  Pt7  1  0.000000  0.000000  0.000000  1
  I  I8  1  0.545635  0.625146  0.851272  1
  I  I9  1  0.454365  0.374854  0.148728  1
  I  I10  1  0.318475  0.925622  0.775419  1
  I  I11  1  0.374854  0.148728  0.454365  1
  I  I12  1  0.925622  0.775419  0.318475  1
  I  I13  1  0.681525  0.074378  0.224581  1
  I  I14  1  0.074378  0.224581  0.681525  1
  I  I15  1  0.775419  0.318475  0.925622  1
  I  I16  1  0.224581  0.681525  0.074378  1
  I  I17  1  0.851272  0.545635  0.625146  1
  I  I18  1  0.148728  0.454365  0.374854  1
  I  I19  1  0.625146  0.851272  0.545635  1
