# generated using pymatgen
data_La5Si2Ir
_symmetry_space_group_name_H-M   'P 1'
_cell_length_a   8.13542300
_cell_length_b   8.98578600
_cell_length_c   12.58826900
_cell_angle_alpha   90.00000000
_cell_angle_beta   90.00000000
_cell_angle_gamma   90.00000000
_symmetry_Int_Tables_number   1
_chemical_formula_structural   La5Si2Ir
_chemical_formula_sum   'La20 Si8 Ir4'
_cell_volume   920.24236994
_cell_formula_units_Z   4
loop_
 _symmetry_equiv_pos_site_id
 _symmetry_equiv_pos_as_xyz
  1  'x, y, z'
loop_
 _atom_site_type_symbol
 _atom_site_label
 _atom_site_symmetry_multiplicity
 _atom_site_fract_x
 _atom_site_fract_y
 _atom_site_fract_z
 _atom_site_occupancy
  La  La0  1  0.672067  0.750000  0.715224  1
  La  La1  1  0.327933  0.250000  0.284776  1
  La  La2  1  0.172067  0.250000  0.784776  1
  La  La3  1  0.827933  0.750000  0.215224  1
  La  La4  1  0.149203  0.750000  0.795111  1
  La  La5  1  0.850797  0.250000  0.204889  1
  La  La6  1  0.649203  0.250000  0.704889  1
  La  La7  1  0.350797  0.750000  0.295111  1
  La  La8  1  0.542291  0.750000  0.999560  1
  La  La9  1  0.457709  0.250000  0.000440  1
  La  La10  1  0.042291  0.250000  0.500440  1
  La  La11  1  0.957709  0.750000  0.499560  1
  La  La12  1  0.817295  0.464833  0.925865  1
  La  La13  1  0.182705  0.535167  0.074135  1
  La  La14  1  0.317295  0.535167  0.574135  1
  La  La15  1  0.182705  0.964833  0.074135  1
  La  La16  1  0.682705  0.464833  0.425865  1
  La  La17  1  0.817295  0.035167  0.925865  1
  La  La18  1  0.682705  0.035167  0.425865  1
  La  La19  1  0.317295  0.964833  0.574135  1
  Si  Si20  1  0.942654  0.005290  0.671790  1
  Si  Si21  1  0.057346  0.994710  0.328210  1
  Si  Si22  1  0.442654  0.994710  0.828210  1
  Si  Si23  1  0.057346  0.505290  0.328210  1
  Si  Si24  1  0.557346  0.005290  0.171790  1
  Si  Si25  1  0.942654  0.494710  0.671790  1
  Si  Si26  1  0.557346  0.494710  0.171790  1
  Si  Si27  1  0.442654  0.505290  0.828210  1
  Ir  Ir28  1  0.925274  0.750000  0.983215  1
  Ir  Ir29  1  0.074726  0.250000  0.016785  1
  Ir  Ir30  1  0.425274  0.250000  0.516785  1
  Ir  Ir31  1  0.574726  0.750000  0.483215  1
