# generated using pymatgen
data_Pr8MgInIrOs
_symmetry_space_group_name_H-M   'P 1'
_cell_length_a   10.06819641
_cell_length_b   10.06828605
_cell_length_c   10.15084600
_cell_angle_alpha   59.72900105
_cell_angle_beta   59.72803313
_cell_angle_gamma   59.69944465
_symmetry_Int_Tables_number   1
_chemical_formula_structural   Pr8MgInIrOs
_chemical_formula_sum   'Pr16 Mg2 In2 Ir2 Os2'
_cell_volume   722.95631103
_cell_formula_units_Z   2
loop_
 _symmetry_equiv_pos_site_id
 _symmetry_equiv_pos_as_xyz
  1  'x, y, z'
loop_
 _atom_site_type_symbol
 _atom_site_label
 _atom_site_symmetry_multiplicity
 _atom_site_fract_x
 _atom_site_fract_y
 _atom_site_fract_z
 _atom_site_occupancy
  Pr  Pr0  1  0.346917  0.346920  0.346450  1
  Pr  Pr1  1  0.346914  0.346918  0.959709  1
  Pr  Pr2  1  0.347847  0.958846  0.346649  1
  Pr  Pr3  1  0.958869  0.347849  0.346636  1
  Pr  Pr4  1  0.810559  0.190111  0.192220  1
  Pr  Pr5  1  0.190111  0.810567  0.807099  1
  Pr  Pr6  1  0.190111  0.810560  0.192212  1
  Pr  Pr7  1  0.810564  0.190113  0.807108  1
  Pr  Pr8  1  0.187371  0.187372  0.812625  1
  Pr  Pr9  1  0.802009  0.802011  0.197985  1
  Pr  Pr10  1  0.940902  0.556654  0.561865  1
  Pr  Pr11  1  0.556650  0.940900  0.940576  1
  Pr  Pr12  1  0.556650  0.940906  0.561866  1
  Pr  Pr13  1  0.940902  0.556652  0.940571  1
  Pr  Pr14  1  0.559855  0.559856  0.940143  1
  Pr  Pr15  1  0.941136  0.941139  0.558858  1
  Mg  Mg16  1  0.577365  0.269633  0.576500  1
  Mg  Mg17  1  0.269632  0.577367  0.576497  1
  In  In18  1  0.579690  0.579690  0.584459  1
  In  In19  1  0.579672  0.579654  0.256266  1
  Ir  Ir20  1  0.143000  0.579737  0.138629  1
  Ir  Ir21  1  0.579734  0.143002  0.138627  1
  Os  Os22  1  0.141770  0.141769  0.137183  1
  Os  Os23  1  0.141771  0.141775  0.579268  1
