# generated using pymatgen
data_Ho12Th4Cd4Ir3Ru
_symmetry_space_group_name_H-M   'P 1'
_cell_length_a   9.73021922
_cell_length_b   9.73021999
_cell_length_c   9.73021847
_cell_angle_alpha   59.74024838
_cell_angle_beta   59.74024577
_cell_angle_gamma   59.74024869
_symmetry_Int_Tables_number   1
_chemical_formula_structural   Ho12Th4Cd4Ir3Ru
_chemical_formula_sum   'Ho12 Th4 Cd4 Ir3 Ru1'
_cell_volume   647.56517206
_cell_formula_units_Z   1
loop_
 _symmetry_equiv_pos_site_id
 _symmetry_equiv_pos_as_xyz
  1  'x, y, z'
loop_
 _atom_site_type_symbol
 _atom_site_label
 _atom_site_symmetry_multiplicity
 _atom_site_fract_x
 _atom_site_fract_y
 _atom_site_fract_z
 _atom_site_occupancy
  Ho  Ho0  1  0.063009  0.437879  0.437879  1
  Ho  Ho1  1  0.435365  0.062796  0.062796  1
  Ho  Ho2  1  0.437879  0.063009  0.437879  1
  Ho  Ho3  1  0.062796  0.435365  0.062796  1
  Ho  Ho4  1  0.437879  0.437879  0.063009  1
  Ho  Ho5  1  0.062796  0.062796  0.435365  1
  Ho  Ho6  1  0.185582  0.815643  0.815643  1
  Ho  Ho7  1  0.814402  0.184877  0.184877  1
  Ho  Ho8  1  0.815643  0.185582  0.815643  1
  Ho  Ho9  1  0.184877  0.814402  0.184877  1
  Ho  Ho10  1  0.815643  0.815643  0.185582  1
  Ho  Ho11  1  0.184877  0.184877  0.814402  1
  Th  Th12  1  0.599279  0.599279  0.599279  1
  Th  Th13  1  0.598515  0.598515  0.202484  1
  Th  Th14  1  0.598515  0.202484  0.598515  1
  Th  Th15  1  0.202484  0.598515  0.598515  1
  Cd  Cd16  1  0.831876  0.831876  0.831876  1
  Cd  Cd17  1  0.831258  0.831258  0.501994  1
  Cd  Cd18  1  0.831258  0.501994  0.831258  1
  Cd  Cd19  1  0.501994  0.831258  0.831258  1
  Ir  Ir20  1  0.393530  0.393530  0.822389  1
  Ir  Ir21  1  0.393530  0.822389  0.393530  1
  Ir  Ir22  1  0.822389  0.393530  0.393530  1
  Ru  Ru23  1  0.394624  0.394624  0.394624  1
