# generated using pymatgen
data_NdPaHgRh2
_symmetry_space_group_name_H-M   'P 1'
_cell_length_a   7.80321000
_cell_length_b   7.80891500
_cell_length_c   3.66481400
_cell_angle_alpha   90.00000000
_cell_angle_beta   90.00000000
_cell_angle_gamma   90.00000000
_symmetry_Int_Tables_number   1
_chemical_formula_structural   NdPaHgRh2
_chemical_formula_sum   'Nd2 Pa2 Hg2 Rh4'
_cell_volume   223.31398842
_cell_formula_units_Z   2
loop_
 _symmetry_equiv_pos_site_id
 _symmetry_equiv_pos_as_xyz
  1  'x, y, z'
loop_
 _atom_site_type_symbol
 _atom_site_label
 _atom_site_symmetry_multiplicity
 _atom_site_fract_x
 _atom_site_fract_y
 _atom_site_fract_z
 _atom_site_occupancy
  Nd  Nd0  1  0.672576  0.172069  0.500000  1
  Nd  Nd1  1  0.172576  0.327931  0.500000  1
  Pa  Pa2  1  0.823281  0.667944  0.500000  1
  Pa  Pa3  1  0.323281  0.832056  0.500000  1
  Hg  Hg4  1  0.991850  0.007044  0.000000  1
  Hg  Hg5  1  0.491850  0.492956  0.000000  1
  Rh  Rh6  1  0.863492  0.416700  0.000000  1
  Rh  Rh7  1  0.363492  0.083300  0.000000  1
  Rh  Rh8  1  0.648800  0.847285  0.000000  1
  Rh  Rh9  1  0.148800  0.652715  0.000000  1
