# generated using pymatgen
data_DyEr3Co2(Sn2Ru)2
_symmetry_space_group_name_H-M   'P 1'
_cell_length_a   4.66781200
_cell_length_b   7.28574125
_cell_length_c   7.33214731
_cell_angle_alpha   90.31005079
_cell_angle_beta   90.00000000
_cell_angle_gamma   90.00000000
_symmetry_Int_Tables_number   1
_chemical_formula_structural   DyEr3Co2(Sn2Ru)2
_chemical_formula_sum   'Dy1 Er3 Co2 Sn4 Ru2'
_cell_volume   249.35146410
_cell_formula_units_Z   1
loop_
 _symmetry_equiv_pos_site_id
 _symmetry_equiv_pos_as_xyz
  1  'x, y, z'
loop_
 _atom_site_type_symbol
 _atom_site_label
 _atom_site_symmetry_multiplicity
 _atom_site_fract_x
 _atom_site_fract_y
 _atom_site_fract_z
 _atom_site_occupancy
  Dy  Dy0  1  0.250000  0.482094  0.696747  1
  Er  Er1  1  0.250000  0.971117  0.799691  1
  Er  Er2  1  0.750000  0.029412  0.200829  1
  Er  Er3  1  0.750000  0.518646  0.301554  1
  Co  Co4  1  0.750000  0.345214  0.948479  1
  Co  Co5  1  0.250000  0.655109  0.052563  1
  Sn  Sn6  1  0.750000  0.700280  0.897369  1
  Sn  Sn7  1  0.250000  0.790642  0.381462  1
  Sn  Sn8  1  0.250000  0.300687  0.103784  1
  Sn  Sn9  1  0.750000  0.208412  0.618206  1
  Ru  Ru10  1  0.750000  0.842260  0.557501  1
  Ru  Ru11  1  0.250000  0.156127  0.441816  1
