# generated using pymatgen
data_Dy2Er3Ni19
_symmetry_space_group_name_H-M   'P 1'
_cell_length_a   4.88640605
_cell_length_b   4.88640699
_cell_length_c   16.37511800
_cell_angle_alpha   81.41930040
_cell_angle_beta   81.41929873
_cell_angle_gamma   60.00000477
_symmetry_Int_Tables_number   1
_chemical_formula_structural   Dy2Er3Ni19
_chemical_formula_sum   'Dy2 Er3 Ni19'
_cell_volume   333.54265176
_cell_formula_units_Z   1
loop_
 _symmetry_equiv_pos_site_id
 _symmetry_equiv_pos_as_xyz
  1  'x, y, z'
loop_
 _atom_site_type_symbol
 _atom_site_label
 _atom_site_symmetry_multiplicity
 _atom_site_fract_x
 _atom_site_fract_y
 _atom_site_fract_z
 _atom_site_occupancy
  Dy  Dy0  1  0.921673  0.921673  0.235059  1
  Dy  Dy1  1  0.078327  0.078327  0.764941  1
  Er  Er2  1  0.000000  0.000000  0.000000  1
  Er  Er3  1  0.848095  0.848095  0.455534  1
  Er  Er4  1  0.151905  0.151905  0.544466  1
  Ni  Ni5  1  0.500000  0.500000  0.500000  1
  Ni  Ni6  1  0.749580  0.749581  0.751275  1
  Ni  Ni7  1  0.250419  0.250419  0.248726  1
  Ni  Ni8  1  0.666807  0.666807  0.999808  1
  Ni  Ni9  1  0.333193  0.333193  0.000192  1
  Ni  Ni10  1  0.583998  0.583998  0.248164  1
  Ni  Ni11  1  0.416002  0.416002  0.751836  1
  Ni  Ni12  1  0.375414  0.375414  0.372152  1
  Ni  Ni13  1  0.876968  0.375373  0.372181  1
  Ni  Ni14  1  0.375373  0.876968  0.372181  1
  Ni  Ni15  1  0.624586  0.624586  0.627848  1
  Ni  Ni16  1  0.123032  0.624627  0.627819  1
  Ni  Ni17  1  0.624627  0.123032  0.627819  1
  Ni  Ni18  1  0.458987  0.458987  0.123030  1
  Ni  Ni19  1  0.959070  0.458848  0.123013  1
  Ni  Ni20  1  0.458848  0.959070  0.123013  1
  Ni  Ni21  1  0.541013  0.541013  0.876970  1
  Ni  Ni22  1  0.040930  0.541152  0.876987  1
  Ni  Ni23  1  0.541152  0.040930  0.876987  1
