# generated using pymatgen
data_ScNbBRh6
_symmetry_space_group_name_H-M   'P 1'
_cell_length_a   5.66019778
_cell_length_b   5.66019791
_cell_length_c   5.66019800
_cell_angle_alpha   59.99999948
_cell_angle_beta   59.99999869
_cell_angle_gamma   59.99999317
_symmetry_Int_Tables_number   1
_chemical_formula_structural   ScNbBRh6
_chemical_formula_sum   'Sc1 Nb1 B1 Rh6'
_cell_volume   128.22710002
_cell_formula_units_Z   1
loop_
 _symmetry_equiv_pos_site_id
 _symmetry_equiv_pos_as_xyz
  1  'x, y, z'
loop_
 _atom_site_type_symbol
 _atom_site_label
 _atom_site_symmetry_multiplicity
 _atom_site_fract_x
 _atom_site_fract_y
 _atom_site_fract_z
 _atom_site_occupancy
  Sc  Sc0  1  0.750000  0.750000  0.750000  1
  Nb  Nb1  1  0.250000  0.250000  0.250000  1
  B  B2  1  0.500000  0.500000  0.500000  1
  Rh  Rh3  1  0.757747  0.757747  0.242253  1
  Rh  Rh4  1  0.757747  0.242253  0.242253  1
  Rh  Rh5  1  0.242253  0.757747  0.242253  1
  Rh  Rh6  1  0.242253  0.242253  0.757747  1
  Rh  Rh7  1  0.757747  0.242253  0.757747  1
  Rh  Rh8  1  0.242253  0.757747  0.757747  1
