# generated using pymatgen
data_Ba2GaSbPt2
_symmetry_space_group_name_H-M   'P 1'
_cell_length_a   6.98665900
_cell_length_b   7.02448061
_cell_length_c   7.11715469
_cell_angle_alpha   90.94375503
_cell_angle_beta   90.00000000
_cell_angle_gamma   90.00000000
_symmetry_Int_Tables_number   1
_chemical_formula_structural   Ba2GaSbPt2
_chemical_formula_sum   'Ba4 Ga2 Sb2 Pt4'
_cell_volume   349.24584837
_cell_formula_units_Z   2
loop_
 _symmetry_equiv_pos_site_id
 _symmetry_equiv_pos_as_xyz
  1  'x, y, z'
loop_
 _atom_site_type_symbol
 _atom_site_label
 _atom_site_symmetry_multiplicity
 _atom_site_fract_x
 _atom_site_fract_y
 _atom_site_fract_z
 _atom_site_occupancy
  Ba  Ba0  1  0.641711  0.362323  0.855112  1
  Ba  Ba1  1  0.349887  0.861756  0.638480  1
  Ba  Ba2  1  0.141711  0.137677  0.144888  1
  Ba  Ba3  1  0.849887  0.638244  0.361520  1
  Ga  Ga4  1  0.159500  0.346123  0.653898  1
  Ga  Ga5  1  0.659500  0.153877  0.346102  1
  Sb  Sb6  1  0.336751  0.655407  0.174427  1
  Sb  Sb7  1  0.836751  0.844593  0.825573  1
  Pt  Pt8  1  0.589221  0.921824  0.093714  1
  Pt  Pt9  1  0.089221  0.578176  0.906286  1
  Pt  Pt10  1  0.422929  0.401670  0.429832  1
  Pt  Pt11  1  0.922929  0.098330  0.570168  1
