# generated using pymatgen
data_Nd4ErLu3(Si3Rh)4
_symmetry_space_group_name_H-M   'P 1'
_cell_length_a   8.21162800
_cell_length_b   8.21139436
_cell_length_c   7.99839400
_cell_angle_alpha   90.00000000
_cell_angle_beta   90.00000000
_cell_angle_gamma   119.99894100
_symmetry_Int_Tables_number   1
_chemical_formula_structural   Nd4ErLu3(Si3Rh)4
_chemical_formula_sum   'Nd4 Er1 Lu3 Si12 Rh4'
_cell_volume   467.07243386
_cell_formula_units_Z   1
loop_
 _symmetry_equiv_pos_site_id
 _symmetry_equiv_pos_as_xyz
  1  'x, y, z'
loop_
 _atom_site_type_symbol
 _atom_site_label
 _atom_site_symmetry_multiplicity
 _atom_site_fract_x
 _atom_site_fract_y
 _atom_site_fract_z
 _atom_site_occupancy
  Nd  Nd0  1  0.499435  0.998868  0.750000  1
  Nd  Nd1  1  0.001090  0.500551  0.750000  1
  Nd  Nd2  1  0.499434  0.500563  0.750000  1
  Nd  Nd3  1  0.999990  0.999995  0.750000  1
  Er  Er4  1  0.000016  0.000006  0.250000  1
  Lu  Lu5  1  0.997608  0.498804  0.250000  1
  Lu  Lu6  1  0.501193  0.498805  0.250000  1
  Lu  Lu7  1  0.501189  0.002392  0.250000  1
  Si  Si8  1  0.166798  0.833164  0.489815  1
  Si  Si9  1  0.166768  0.333624  0.489715  1
  Si  Si10  1  0.666404  0.833227  0.489647  1
  Si  Si11  1  0.332675  0.166312  0.009494  1
  Si  Si12  1  0.833699  0.667302  0.490610  1
  Si  Si13  1  0.833667  0.166376  0.009271  1
  Si  Si14  1  0.833699  0.667302  0.009390  1
  Si  Si15  1  0.166768  0.333624  0.010285  1
  Si  Si16  1  0.666404  0.833227  0.010353  1
  Si  Si17  1  0.332675  0.166312  0.490506  1
  Si  Si18  1  0.833667  0.166376  0.490729  1
  Si  Si19  1  0.166798  0.833164  0.010185  1
  Rh  Rh20  1  0.333338  0.666670  0.039618  1
  Rh  Rh21  1  0.666674  0.333333  0.034921  1
  Rh  Rh22  1  0.666674  0.333333  0.465079  1
  Rh  Rh23  1  0.333338  0.666670  0.460382  1
