# generated using pymatgen
data_Pr6Nd10Cd4IrRu3
_symmetry_space_group_name_H-M   'P 1'
_cell_length_a   9.94208469
_cell_length_b   9.93336871
_cell_length_c   9.93336900
_cell_angle_alpha   60.00000236
_cell_angle_beta   60.02899833
_cell_angle_gamma   60.02899835
_symmetry_Int_Tables_number   1
_chemical_formula_structural   Pr6Nd10Cd4IrRu3
_chemical_formula_sum   'Pr6 Nd10 Cd4 Ir1 Ru3'
_cell_volume   693.97817052
_cell_formula_units_Z   1
loop_
 _symmetry_equiv_pos_site_id
 _symmetry_equiv_pos_as_xyz
  1  'x, y, z'
loop_
 _atom_site_type_symbol
 _atom_site_label
 _atom_site_symmetry_multiplicity
 _atom_site_fract_x
 _atom_site_fract_y
 _atom_site_fract_z
 _atom_site_occupancy
  Pr  Pr0  1  0.939632  0.560613  0.560613  1
  Pr  Pr1  1  0.559812  0.939252  0.939252  1
  Pr  Pr2  1  0.559812  0.939252  0.561685  1
  Pr  Pr3  1  0.939632  0.560613  0.939141  1
  Pr  Pr4  1  0.559812  0.561685  0.939252  1
  Pr  Pr5  1  0.939632  0.939141  0.560613  1
  Nd  Nd6  1  0.345907  0.347919  0.347919  1
  Nd  Nd7  1  0.345907  0.347919  0.958254  1
  Nd  Nd8  1  0.345907  0.958254  0.347919  1
  Nd  Nd9  1  0.957779  0.347407  0.347407  1
  Nd  Nd10  1  0.812391  0.189892  0.189892  1
  Nd  Nd11  1  0.189706  0.810808  0.810808  1
  Nd  Nd12  1  0.189706  0.810808  0.188678  1
  Nd  Nd13  1  0.812391  0.189892  0.807826  1
  Nd  Nd14  1  0.189706  0.188678  0.810808  1
  Nd  Nd15  1  0.812391  0.807826  0.189892  1
  Cd  Cd16  1  0.579451  0.579642  0.579642  1
  Cd  Cd17  1  0.579451  0.579642  0.261263  1
  Cd  Cd18  1  0.579451  0.261263  0.579642  1
  Cd  Cd19  1  0.261411  0.579529  0.579529  1
  Ir  Ir20  1  0.580047  0.139985  0.139985  1
  Ru  Ru21  1  0.140021  0.137825  0.137825  1
  Ru  Ru22  1  0.140021  0.137825  0.584331  1
  Ru  Ru23  1  0.140021  0.584331  0.137825  1
