# generated using pymatgen
data_CeTh7(ZnIr)8
_symmetry_space_group_name_H-M   'P 1'
_cell_length_a   3.93909100
_cell_length_b   7.50827688
_cell_length_c   16.55872300
_cell_angle_alpha   89.81325345
_cell_angle_beta   90.00000000
_cell_angle_gamma   90.00000000
_symmetry_Int_Tables_number   1
_chemical_formula_structural   CeTh7(ZnIr)8
_chemical_formula_sum   'Ce1 Th7 Zn8 Ir8'
_cell_volume   489.73464473
_cell_formula_units_Z   1
loop_
 _symmetry_equiv_pos_site_id
 _symmetry_equiv_pos_as_xyz
  1  'x, y, z'
loop_
 _atom_site_type_symbol
 _atom_site_label
 _atom_site_symmetry_multiplicity
 _atom_site_fract_x
 _atom_site_fract_y
 _atom_site_fract_z
 _atom_site_occupancy
  Ce  Ce0  1  0.750000  0.938075  0.285088  1
  Th  Th1  1  0.750000  0.328450  0.439152  1
  Th  Th2  1  0.250000  0.062421  0.715089  1
  Th  Th3  1  0.250000  0.561851  0.784904  1
  Th  Th4  1  0.250000  0.674477  0.559362  1
  Th  Th5  1  0.750000  0.824724  0.060998  1
  Th  Th6  1  0.250000  0.171373  0.940312  1
  Th  Th7  1  0.750000  0.438904  0.215496  1
  Zn  Zn8  1  0.250000  0.107937  0.155270  1
  Zn  Zn9  1  0.250000  0.996813  0.438713  1
  Zn  Zn10  1  0.750000  0.888518  0.846984  1
  Zn  Zn11  1  0.750000  0.005620  0.558691  1
  Zn  Zn12  1  0.250000  0.493239  0.059184  1
  Zn  Zn13  1  0.750000  0.390226  0.652807  1
  Zn  Zn14  1  0.750000  0.502635  0.941177  1
  Zn  Zn15  1  0.250000  0.615303  0.346528  1
  Ir  Ir16  1  0.750000  0.261161  0.814614  1
  Ir  Ir17  1  0.250000  0.241225  0.314191  1
  Ir  Ir18  1  0.250000  0.754007  0.936921  1
  Ir  Ir19  1  0.250000  0.256261  0.562998  1
  Ir  Ir20  1  0.250000  0.737278  0.185671  1
  Ir  Ir21  1  0.750000  0.746996  0.436408  1
  Ir  Ir22  1  0.750000  0.241006  0.063794  1
  Ir  Ir23  1  0.750000  0.761497  0.685648  1
