# generated using pymatgen
data_HoThInCo2
_symmetry_space_group_name_H-M   'P 1'
_cell_length_a   7.41732557
_cell_length_b   7.41732557
_cell_length_c   3.77931500
_cell_angle_alpha   90.00000000
_cell_angle_beta   90.00000000
_cell_angle_gamma   149.56395373
_symmetry_Int_Tables_number   1
_chemical_formula_structural   HoThInCo2
_chemical_formula_sum   'Ho1 Th1 In1 Co2'
_cell_volume   105.33013423
_cell_formula_units_Z   1
loop_
 _symmetry_equiv_pos_site_id
 _symmetry_equiv_pos_as_xyz
  1  'x, y, z'
loop_
 _atom_site_type_symbol
 _atom_site_label
 _atom_site_symmetry_multiplicity
 _atom_site_fract_x
 _atom_site_fract_y
 _atom_site_fract_z
 _atom_site_occupancy
  Ho  Ho0  1  0.635894  0.364106  0.500000  1
  Th  Th1  1  0.354395  0.645605  0.500000  1
  In  In2  1  0.004359  0.995641  0.000000  1
  Co  Co3  1  0.203255  0.796745  0.000000  1
  Co  Co4  1  0.802097  0.197903  0.000000  1
