# generated using pymatgen
data_TbY3Al15(GaIr2)3
_symmetry_space_group_name_H-M   'P 1'
_cell_length_a   7.54271764
_cell_length_b   7.54164587
_cell_length_c   9.53554200
_cell_angle_alpha   90.00000000
_cell_angle_beta   90.00000000
_cell_angle_gamma   119.44111979
_symmetry_Int_Tables_number   1
_chemical_formula_structural   TbY3Al15(GaIr2)3
_chemical_formula_sum   'Tb1 Y3 Al15 Ga3 Ir6'
_cell_volume   472.37657157
_cell_formula_units_Z   1
loop_
 _symmetry_equiv_pos_site_id
 _symmetry_equiv_pos_as_xyz
  1  'x, y, z'
loop_
 _atom_site_type_symbol
 _atom_site_label
 _atom_site_symmetry_multiplicity
 _atom_site_fract_x
 _atom_site_fract_y
 _atom_site_fract_z
 _atom_site_occupancy
  Tb  Tb0  1  0.329586  0.008994  0.750000  1
  Y  Y1  1  0.994072  0.673968  0.250000  1
  Y  Y2  1  0.002585  0.325631  0.750000  1
  Y  Y3  1  0.674594  0.995793  0.250000  1
  Al  Al4  1  0.001518  0.335764  0.073176  1
  Al  Al5  1  0.998603  0.664538  0.927884  1
  Al  Al6  1  0.998603  0.664538  0.572116  1
  Al  Al7  1  0.335549  0.000724  0.427035  1
  Al  Al8  1  0.001518  0.335764  0.426824  1
  Al  Al9  1  0.664085  0.997132  0.572458  1
  Al  Al10  1  0.664085  0.997132  0.927542  1
  Al  Al11  1  0.335549  0.000724  0.072965  1
  Al  Al12  1  0.333738  0.334232  0.550832  1
  Al  Al13  1  0.665834  0.665844  0.444836  1
  Al  Al14  1  0.665834  0.665844  0.055164  1
  Al  Al15  1  0.333738  0.334232  0.949168  1
  Al  Al16  1  0.337506  0.549144  0.250000  1
  Al  Al17  1  0.548920  0.337776  0.250000  1
  Al  Al18  1  0.450315  0.660531  0.750000  1
  Ga  Ga19  1  0.134692  0.134926  0.250000  1
  Ga  Ga20  1  0.868332  0.867415  0.750000  1
  Ga  Ga21  1  0.660591  0.453749  0.750000  1
  Ir  Ir22  1  0.671535  0.327433  0.002251  1
  Ir  Ir23  1  0.328671  0.670862  0.999708  1
  Ir  Ir24  1  0.328671  0.670862  0.500292  1
  Ir  Ir25  1  0.671535  0.327433  0.497749  1
  Ir  Ir26  1  0.999869  0.999509  0.000037  1
  Ir  Ir27  1  0.999869  0.999509  0.499963  1
