# generated using pymatgen
data_Zn3Fe4(AsO4)6
_symmetry_space_group_name_H-M   'P 1'
_cell_length_a   8.13253002
_cell_length_b   9.79039294
_cell_length_c   6.67962259
_cell_angle_alpha   107.95630444
_cell_angle_beta   101.32883536
_cell_angle_gamma   104.32739336
_symmetry_Int_Tables_number   1
_chemical_formula_structural   Zn3Fe4(AsO4)6
_chemical_formula_sum   'Zn3 Fe4 As6 O24'
_cell_volume   468.24442738
_cell_formula_units_Z   1
loop_
 _symmetry_equiv_pos_site_id
 _symmetry_equiv_pos_as_xyz
  1  'x, y, z'
loop_
 _atom_site_type_symbol
 _atom_site_label
 _atom_site_symmetry_multiplicity
 _atom_site_fract_x
 _atom_site_fract_y
 _atom_site_fract_z
 _atom_site_occupancy
  Zn  Zn0  1  0.000000  0.000000  0.000000  1
  Zn  Zn1  1  0.803835  0.288819  0.282947  1
  Zn  Zn2  1  0.196164  0.711181  0.717053  1
  Fe  Fe3  1  0.720830  0.523203  0.046552  1
  Fe  Fe4  1  0.454088  0.113002  0.383152  1
  Fe  Fe5  1  0.545911  0.886998  0.616848  1
  Fe  Fe6  1  0.279169  0.476797  0.953448  1
  As  As7  1  0.596443  0.833363  0.092997  1
  As  As8  1  0.148773  0.773134  0.230895  1
  As  As9  1  0.225016  0.371260  0.393520  1
  As  As10  1  0.774984  0.628740  0.606480  1
  As  As11  1  0.851228  0.226865  0.769105  1
  As  As12  1  0.403558  0.166637  0.907003  1
  O  O13  1  0.197004  0.659867  0.008672  1
  O  O14  1  0.546367  0.643269  0.062134  1
  O  O15  1  0.808349  0.925695  0.126717  1
  O  O16  1  0.540157  0.154381  0.132003  1
  O  O17  1  0.932968  0.701988  0.214102  1
  O  O18  1  0.199509  0.956279  0.227652  1
  O  O19  1  0.274538  0.476458  0.239960  1
  O  O20  1  0.019574  0.231206  0.262242  1
  O  O21  1  0.530940  0.917125  0.321748  1
  O  O22  1  0.766011  0.497450  0.356956  1
  O  O23  1  0.376510  0.284522  0.447546  1
  O  O24  1  0.273606  0.776847  0.475397  1
  O  O25  1  0.726394  0.223153  0.524603  1
  O  O26  1  0.623491  0.715479  0.552454  1
  O  O27  1  0.233989  0.502550  0.643044  1
  O  O28  1  0.469061  0.082875  0.678252  1
  O  O29  1  0.980426  0.768794  0.737757  1
  O  O30  1  0.725463  0.523541  0.760040  1
  O  O31  1  0.800491  0.043721  0.772348  1
  O  O32  1  0.067032  0.298013  0.785898  1
  O  O33  1  0.459844  0.845619  0.867997  1
  O  O34  1  0.191651  0.074306  0.873282  1
  O  O35  1  0.453632  0.356731  0.937866  1
  O  O36  1  0.802996  0.340133  0.991328  1
