# generated using pymatgen
data_LiDy3As6Rh7
_symmetry_space_group_name_H-M   'P 1'
_cell_length_a   7.21110919
_cell_length_b   7.26371108
_cell_length_c   7.21111000
_cell_angle_alpha   109.61906083
_cell_angle_beta   109.32299053
_cell_angle_gamma   109.61904434
_symmetry_Int_Tables_number   1
_chemical_formula_structural   LiDy3As6Rh7
_chemical_formula_sum   'Li1 Dy3 As6 Rh7'
_cell_volume   290.23195829
_cell_formula_units_Z   1
loop_
 _symmetry_equiv_pos_site_id
 _symmetry_equiv_pos_as_xyz
  1  'x, y, z'
loop_
 _atom_site_type_symbol
 _atom_site_label
 _atom_site_symmetry_multiplicity
 _atom_site_fract_x
 _atom_site_fract_y
 _atom_site_fract_z
 _atom_site_occupancy
  Li  Li0  1  0.000000  0.500000  0.000000  1
  Dy  Dy1  1  0.000000  0.000000  0.500000  1
  Dy  Dy2  1  0.500000  0.000000  0.000000  1
  Dy  Dy3  1  0.500000  0.500000  0.500000  1
  As  As4  1  0.686459  0.677031  0.000000  1
  As  As5  1  0.313541  0.322969  0.000000  1
  As  As6  1  0.000000  0.677031  0.686459  1
  As  As7  1  0.000000  0.322969  0.313541  1
  As  As8  1  0.686459  0.009428  0.686459  1
  As  As9  1  0.313541  0.990572  0.313541  1
  Rh  Rh10  1  0.000000  0.000000  0.000000  1
  Rh  Rh11  1  0.248974  0.500000  0.751026  1
  Rh  Rh12  1  0.751026  0.251026  0.502051  1
  Rh  Rh13  1  0.502051  0.251026  0.751026  1
  Rh  Rh14  1  0.497949  0.748974  0.248974  1
  Rh  Rh15  1  0.751026  0.500000  0.248974  1
  Rh  Rh16  1  0.248974  0.748974  0.497949  1
