# generated using pymatgen
data_La3Pr9Ga8IrRh7
_symmetry_space_group_name_H-M   'P 1'
_cell_length_a   5.74759010
_cell_length_b   8.30020535
_cell_length_c   13.72677271
_cell_angle_alpha   89.99508735
_cell_angle_beta   89.95878503
_cell_angle_gamma   89.78216605
_symmetry_Int_Tables_number   1
_chemical_formula_structural   La3Pr9Ga8IrRh7
_chemical_formula_sum   'La3 Pr9 Ga8 Ir1 Rh7'
_cell_volume   654.84695897
_cell_formula_units_Z   1
loop_
 _symmetry_equiv_pos_site_id
 _symmetry_equiv_pos_as_xyz
  1  'x, y, z'
loop_
 _atom_site_type_symbol
 _atom_site_label
 _atom_site_symmetry_multiplicity
 _atom_site_fract_x
 _atom_site_fract_y
 _atom_site_fract_z
 _atom_site_occupancy
  La  La0  1  0.151510  0.098025  0.594224  1
  La  La1  1  0.151743  0.100583  0.903636  1
  La  La2  1  0.850457  0.901614  0.096293  1
  Pr  Pr3  1  0.633652  0.258109  0.250492  1
  Pr  Pr4  1  0.364046  0.739655  0.749546  1
  Pr  Pr5  1  0.363837  0.758205  0.249758  1
  Pr  Pr6  1  0.638419  0.243701  0.749556  1
  Pr  Pr7  1  0.145963  0.398136  0.099391  1
  Pr  Pr8  1  0.853245  0.599757  0.901450  1
  Pr  Pr9  1  0.854285  0.601569  0.597771  1
  Pr  Pr10  1  0.851898  0.896966  0.401553  1
  Pr  Pr11  1  0.145866  0.400484  0.401388  1
  Ga  Ga12  1  0.137848  0.110290  0.251498  1
  Ga  Ga13  1  0.857774  0.888756  0.750205  1
  Ga  Ga14  1  0.861202  0.608835  0.250200  1
  Ga  Ga15  1  0.139447  0.390809  0.749418  1
  Ga  Ga16  1  0.627077  0.252990  0.000855  1
  Ga  Ga17  1  0.372241  0.748047  0.000740  1
  Ga  Ga18  1  0.372198  0.748423  0.499177  1
  Ga  Ga19  1  0.630942  0.251094  0.498710  1
  Ir  Ir20  1  0.357966  0.030253  0.091776  1
  Rh  Rh21  1  0.640310  0.970479  0.909865  1
  Rh  Rh22  1  0.638279  0.970049  0.591716  1
  Rh  Rh23  1  0.640720  0.531234  0.408773  1
  Rh  Rh24  1  0.358340  0.031495  0.410321  1
  Rh  Rh25  1  0.360717  0.469040  0.591368  1
  Rh  Rh26  1  0.358365  0.470004  0.908706  1
  Rh  Rh27  1  0.641649  0.531396  0.091616  1
