# generated using pymatgen
data_Yb3Ru4PbO14
_symmetry_space_group_name_H-M   'P 1'
_cell_length_a   7.18547107
_cell_length_b   7.28493839
_cell_length_c   7.28493800
_cell_angle_alpha   59.99999270
_cell_angle_beta   59.54100880
_cell_angle_gamma   59.54101367
_symmetry_Int_Tables_number   1
_chemical_formula_structural   Yb3Ru4PbO14
_chemical_formula_sum   'Yb3 Ru4 Pb1 O14'
_cell_volume   267.75889127
_cell_formula_units_Z   1
loop_
 _symmetry_equiv_pos_site_id
 _symmetry_equiv_pos_as_xyz
  1  'x, y, z'
loop_
 _atom_site_type_symbol
 _atom_site_label
 _atom_site_symmetry_multiplicity
 _atom_site_fract_x
 _atom_site_fract_y
 _atom_site_fract_z
 _atom_site_occupancy
  Yb  Yb0  1  0.125000  0.125000  0.125000  1
  Yb  Yb1  1  0.125000  0.125000  0.625000  1
  Yb  Yb2  1  0.125000  0.625000  0.125000  1
  Ru  Ru3  1  0.625000  0.625000  0.625000  1
  Ru  Ru4  1  0.125000  0.625000  0.625000  1
  Ru  Ru5  1  0.625000  0.625000  0.125000  1
  Ru  Ru6  1  0.625000  0.125000  0.625000  1
  Pb  Pb7  1  0.625000  0.125000  0.125000  1
  O  O8  1  0.995366  0.001545  0.001545  1
  O  O9  1  0.254634  0.248455  0.248455  1
  O  O10  1  0.302026  0.300266  0.698854  1
  O  O11  1  0.552058  0.545315  0.951314  1
  O  O12  1  0.697942  0.298686  0.704685  1
  O  O13  1  0.697942  0.298686  0.298686  1
  O  O14  1  0.302026  0.698854  0.698854  1
  O  O15  1  0.302026  0.698854  0.300266  1
  O  O16  1  0.697942  0.704685  0.298686  1
  O  O17  1  0.947974  0.551146  0.551146  1
  O  O18  1  0.552058  0.951314  0.951314  1
  O  O19  1  0.947974  0.949734  0.551146  1
  O  O20  1  0.947974  0.551146  0.949734  1
  O  O21  1  0.552058  0.951314  0.545315  1
