# generated using pymatgen
data_Lu8Si(Pd3Pt)6
_symmetry_space_group_name_H-M   'P 1'
_cell_length_a   8.23780700
_cell_length_b   8.23574604
_cell_length_c   8.23653600
_cell_angle_alpha   90.00000000
_cell_angle_beta   90.00000000
_cell_angle_gamma   90.00534295
_symmetry_Int_Tables_number   1
_chemical_formula_structural   Lu8Si(Pd3Pt)6
_chemical_formula_sum   'Lu8 Si1 Pd18 Pt6'
_cell_volume   558.80355174
_cell_formula_units_Z   1
loop_
 _symmetry_equiv_pos_site_id
 _symmetry_equiv_pos_as_xyz
  1  'x, y, z'
loop_
 _atom_site_type_symbol
 _atom_site_label
 _atom_site_symmetry_multiplicity
 _atom_site_fract_x
 _atom_site_fract_y
 _atom_site_fract_z
 _atom_site_occupancy
  Lu  Lu0  1  0.253711  0.254470  0.253113  1
  Lu  Lu1  1  0.746870  0.745845  0.746343  1
  Lu  Lu2  1  0.746870  0.745845  0.253657  1
  Lu  Lu3  1  0.746354  0.254033  0.747085  1
  Lu  Lu4  1  0.253711  0.254470  0.746887  1
  Lu  Lu5  1  0.253203  0.745385  0.253824  1
  Lu  Lu6  1  0.253203  0.745385  0.746176  1
  Lu  Lu7  1  0.746354  0.254033  0.252915  1
  Si  Si8  1  0.000207  0.000390  0.000000  1
  Pd  Pd9  1  0.500104  0.743207  0.000000  1
  Pd  Pd10  1  0.500102  0.999990  0.257357  1
  Pd  Pd11  1  0.257435  0.999946  0.500000  1
  Pd  Pd12  1  0.500102  0.999990  0.742643  1
  Pd  Pd13  1  0.742564  0.999987  0.500000  1
  Pd  Pd14  1  0.999617  0.500051  0.256321  1
  Pd  Pd15  1  0.999617  0.500051  0.743679  1
  Pd  Pd16  1  0.747770  0.500003  0.500000  1
  Pd  Pd17  1  0.500008  0.252376  0.500000  1
  Pd  Pd18  1  0.500024  0.747694  0.500000  1
  Pd  Pd19  1  0.500182  0.500243  0.252789  1
  Pd  Pd20  1  0.500182  0.500243  0.747211  1
  Pd  Pd21  1  0.279879  0.999276  0.000000  1
  Pd  Pd22  1  0.720431  0.999311  0.000000  1
  Pd  Pd23  1  0.999836  0.279288  0.000000  1
  Pd  Pd24  1  0.999902  0.721108  0.000000  1
  Pd  Pd25  1  0.999887  0.000075  0.279433  1
  Pd  Pd26  1  0.999887  0.000075  0.720567  1
  Pt  Pt27  1  0.257185  0.500178  0.000000  1
  Pt  Pt28  1  0.742687  0.500238  0.000000  1
  Pt  Pt29  1  0.999962  0.257017  0.500000  1
  Pt  Pt30  1  0.500090  0.256707  0.000000  1
  Pt  Pt31  1  0.999938  0.743109  0.500000  1
  Pt  Pt32  1  0.252128  0.499981  0.500000  1
