# generated using pymatgen
data_Sr2Si3(PPd7)3
_symmetry_space_group_name_H-M   'P 1'
_cell_length_a   8.71949510
_cell_length_b   8.71949473
_cell_length_c   8.70672668
_cell_angle_alpha   59.95147678
_cell_angle_beta   59.95147690
_cell_angle_gamma   59.99999193
_symmetry_Int_Tables_number   1
_chemical_formula_structural   Sr2Si3(PPd7)3
_chemical_formula_sum   'Sr2 Si3 P3 Pd21'
_cell_volume   467.73905227
_cell_formula_units_Z   1
loop_
 _symmetry_equiv_pos_site_id
 _symmetry_equiv_pos_as_xyz
  1  'x, y, z'
loop_
 _atom_site_type_symbol
 _atom_site_label
 _atom_site_symmetry_multiplicity
 _atom_site_fract_x
 _atom_site_fract_y
 _atom_site_fract_z
 _atom_site_occupancy
  Sr  Sr0  1  0.749687  0.749687  0.750940  1
  Sr  Sr1  1  0.249713  0.249713  0.250862  1
  Si  Si2  1  0.263334  0.263334  0.738007  1
  Si  Si3  1  0.735326  0.263334  0.738007  1
  Si  Si4  1  0.263334  0.735326  0.738007  1
  P  P5  1  0.735827  0.735827  0.265728  1
  P  P6  1  0.262617  0.735827  0.265728  1
  P  P7  1  0.735827  0.262617  0.265728  1
  Pd  Pd8  1  0.001371  0.001371  0.995886  1
  Pd  Pd9  1  0.612027  0.612027  0.163918  1
  Pd  Pd10  1  0.613959  0.160960  0.611122  1
  Pd  Pd11  1  0.160960  0.613959  0.611122  1
  Pd  Pd12  1  0.613959  0.613959  0.611122  1
  Pd  Pd13  1  0.386645  0.386645  0.840065  1
  Pd  Pd14  1  0.388241  0.837734  0.385783  1
  Pd  Pd15  1  0.837734  0.388241  0.385783  1
  Pd  Pd16  1  0.388241  0.388241  0.385783  1
  Pd  Pd17  1  0.000798  0.000798  0.340207  1
  Pd  Pd18  1  0.658197  0.000798  0.340207  1
  Pd  Pd19  1  0.000798  0.658197  0.340207  1
  Pd  Pd20  1  0.657503  0.343677  0.001842  1
  Pd  Pd21  1  0.996978  0.343677  0.001842  1
  Pd  Pd22  1  0.000285  0.344519  0.654910  1
  Pd  Pd23  1  0.343677  0.657503  0.001842  1
  Pd  Pd24  1  0.344519  0.000285  0.654910  1
  Pd  Pd25  1  0.343677  0.996978  0.001842  1
  Pd  Pd26  1  0.000285  0.000285  0.654910  1
  Pd  Pd27  1  0.996978  0.657503  0.001842  1
  Pd  Pd28  1  0.657503  0.996978  0.001842  1
