# generated using pymatgen
data_PrHo4(In2Pt)2
_symmetry_space_group_name_H-M   'P 1'
_cell_length_a   3.63610100
_cell_length_b   8.19957900
_cell_length_c   18.39130500
_cell_angle_alpha   90.00000000
_cell_angle_beta   90.00000000
_cell_angle_gamma   90.00000000
_symmetry_Int_Tables_number   1
_chemical_formula_structural   PrHo4(In2Pt)2
_chemical_formula_sum   'Pr2 Ho8 In8 Pt4'
_cell_volume   548.32751513
_cell_formula_units_Z   2
loop_
 _symmetry_equiv_pos_site_id
 _symmetry_equiv_pos_as_xyz
  1  'x, y, z'
loop_
 _atom_site_type_symbol
 _atom_site_label
 _atom_site_symmetry_multiplicity
 _atom_site_fract_x
 _atom_site_fract_y
 _atom_site_fract_z
 _atom_site_occupancy
  Pr  Pr0  1  0.000000  0.000000  0.000000  1
  Pr  Pr1  1  0.000000  0.500000  0.500000  1
  Ho  Ho2  1  0.000000  0.117582  0.413833  1
  Ho  Ho3  1  0.000000  0.882418  0.586167  1
  Ho  Ho4  1  0.000000  0.382418  0.913833  1
  Ho  Ho5  1  0.000000  0.617582  0.086167  1
  Ho  Ho6  1  0.000000  0.243060  0.220135  1
  Ho  Ho7  1  0.000000  0.756940  0.779865  1
  Ho  Ho8  1  0.000000  0.256940  0.720135  1
  Ho  Ho9  1  0.000000  0.743060  0.279865  1
  In  In10  1  0.500000  0.422429  0.348605  1
  In  In11  1  0.500000  0.577571  0.651395  1
  In  In12  1  0.500000  0.077571  0.848605  1
  In  In13  1  0.500000  0.922429  0.151395  1
  In  In14  1  0.500000  0.298040  0.067878  1
  In  In15  1  0.500000  0.701960  0.932122  1
  In  In16  1  0.500000  0.201960  0.567878  1
  In  In17  1  0.500000  0.798040  0.432122  1
  Pt  Pt18  1  0.500000  0.024315  0.303468  1
  Pt  Pt19  1  0.500000  0.975685  0.696532  1
  Pt  Pt20  1  0.500000  0.475685  0.803468  1
  Pt  Pt21  1  0.500000  0.524315  0.196532  1
