# generated using pymatgen
data_CaCd(AgO2)4
_symmetry_space_group_name_H-M   'P 1'
_cell_length_a   6.63176192
_cell_length_b   6.63176223
_cell_length_c   6.63176170
_cell_angle_alpha   126.00294787
_cell_angle_beta   126.00294649
_cell_angle_gamma   79.88329742
_symmetry_Int_Tables_number   1
_chemical_formula_structural   CaCd(AgO2)4
_chemical_formula_sum   'Ca1 Cd1 Ag4 O8'
_cell_volume   184.34067573
_cell_formula_units_Z   1
loop_
 _symmetry_equiv_pos_site_id
 _symmetry_equiv_pos_as_xyz
  1  'x, y, z'
loop_
 _atom_site_type_symbol
 _atom_site_label
 _atom_site_symmetry_multiplicity
 _atom_site_fract_x
 _atom_site_fract_y
 _atom_site_fract_z
 _atom_site_occupancy
  Ca  Ca0  1  0.000000  0.000000  0.000000  1
  Cd  Cd1  1  0.750000  0.250000  0.500000  1
  Ag  Ag2  1  0.374839  0.125542  0.750650  1
  Ag  Ag3  1  0.374892  0.624189  0.249350  1
  Ag  Ag4  1  0.874458  0.625108  0.249297  1
  Ag  Ag5  1  0.375811  0.625161  0.750703  1
  O  O6  1  0.044287  0.998021  0.644494  1
  O  O7  1  0.600207  0.955713  0.953734  1
  O  O8  1  0.001979  0.646473  0.046266  1
  O  O9  1  0.399987  0.849898  0.146143  1
  O  O10  1  0.746156  0.600013  0.449911  1
  O  O11  1  0.150102  0.296245  0.550089  1
  O  O12  1  0.353527  0.399793  0.355506  1
  O  O13  1  0.703755  0.253844  0.853857  1
