# generated using pymatgen
data_Tb4Y7(Lu3Bi4)3
_symmetry_space_group_name_H-M   'P 1'
_cell_length_a   8.20494497
_cell_length_b   9.44733829
_cell_length_c   12.01116003
_cell_angle_alpha   89.98784369
_cell_angle_beta   90.08691034
_cell_angle_gamma   89.98693779
_symmetry_Int_Tables_number   1
_chemical_formula_structural   Tb4Y7(Lu3Bi4)3
_chemical_formula_sum   'Tb4 Y7 Lu9 Bi12'
_cell_volume   931.04264057
_cell_formula_units_Z   1
loop_
 _symmetry_equiv_pos_site_id
 _symmetry_equiv_pos_as_xyz
  1  'x, y, z'
loop_
 _atom_site_type_symbol
 _atom_site_label
 _atom_site_symmetry_multiplicity
 _atom_site_fract_x
 _atom_site_fract_y
 _atom_site_fract_z
 _atom_site_occupancy
  Tb  Tb0  1  0.185368  0.749505  0.718939  1
  Tb  Tb1  1  0.685497  0.749478  0.781681  1
  Tb  Tb2  1  0.814597  0.249579  0.281353  1
  Tb  Tb3  1  0.314019  0.249828  0.218938  1
  Y  Y4  1  0.192585  0.939327  0.439969  1
  Y  Y5  1  0.309244  0.061493  0.941557  1
  Y  Y6  1  0.806945  0.439356  0.559925  1
  Y  Y7  1  0.354750  0.749407  0.215463  1
  Y  Y8  1  0.851877  0.748222  0.282838  1
  Y  Y9  1  0.645934  0.249193  0.784148  1
  Y  Y10  1  0.146805  0.248956  0.716376  1
  Lu  Lu11  1  0.022094  0.749319  0.989380  1
  Lu  Lu12  1  0.523325  0.749980  0.510727  1
  Lu  Lu13  1  0.976624  0.249294  0.010555  1
  Lu  Lu14  1  0.476663  0.249657  0.489205  1
  Lu  Lu15  1  0.308317  0.431041  0.941208  1
  Lu  Lu16  1  0.808830  0.069318  0.559184  1
  Lu  Lu17  1  0.690995  0.931485  0.058290  1
  Lu  Lu18  1  0.191394  0.569262  0.440790  1
  Lu  Lu19  1  0.693034  0.565424  0.059197  1
  Bi  Bi20  1  0.434500  0.003220  0.671833  1
  Bi  Bi21  1  0.934528  0.495438  0.828578  1
  Bi  Bi22  1  0.565761  0.503359  0.327975  1
  Bi  Bi23  1  0.065451  0.995398  0.171612  1
  Bi  Bi24  1  0.567167  0.995770  0.328449  1
  Bi  Bi25  1  0.066070  0.503473  0.170881  1
  Bi  Bi26  1  0.433121  0.495694  0.671428  1
  Bi  Bi27  1  0.933058  0.003439  0.828819  1
  Bi  Bi28  1  0.404210  0.743938  0.957352  1
  Bi  Bi29  1  0.904630  0.755650  0.541930  1
  Bi  Bi30  1  0.597262  0.249848  0.043641  1
  Bi  Bi31  1  0.095343  0.255652  0.457777  1
