# generated using pymatgen
data_ScTa2Be2Rh5
_symmetry_space_group_name_H-M   'P 1'
_cell_length_a   9.26429900
_cell_length_b   9.26991200
_cell_length_c   3.33555200
_cell_angle_alpha   90.00000000
_cell_angle_beta   90.00000000
_cell_angle_gamma   90.00000000
_symmetry_Int_Tables_number   1
_chemical_formula_structural   ScTa2Be2Rh5
_chemical_formula_sum   'Sc2 Ta4 Be4 Rh10'
_cell_volume   286.45465897
_cell_formula_units_Z   2
loop_
 _symmetry_equiv_pos_site_id
 _symmetry_equiv_pos_as_xyz
  1  'x, y, z'
loop_
 _atom_site_type_symbol
 _atom_site_label
 _atom_site_symmetry_multiplicity
 _atom_site_fract_x
 _atom_site_fract_y
 _atom_site_fract_z
 _atom_site_occupancy
  Sc  Sc0  1  0.674264  0.825397  0.000000  1
  Sc  Sc1  1  0.174264  0.674603  0.000000  1
  Ta  Ta2  1  0.826188  0.327946  0.000000  1
  Ta  Ta3  1  0.326188  0.172054  0.000000  1
  Ta  Ta4  1  0.999155  0.999058  0.000000  1
  Ta  Ta5  1  0.499155  0.500942  0.000000  1
  Be  Be6  1  0.620303  0.123402  0.000000  1
  Be  Be7  1  0.120303  0.376598  0.000000  1
  Be  Be8  1  0.879101  0.617325  0.000000  1
  Be  Be9  1  0.379101  0.882675  0.000000  1
  Rh  Rh10  1  0.072097  0.209904  0.500000  1
  Rh  Rh11  1  0.212833  0.936025  0.500000  1
  Rh  Rh12  1  0.790005  0.081300  0.500000  1
  Rh  Rh13  1  0.928402  0.787436  0.500000  1
  Rh  Rh14  1  0.428402  0.712564  0.500000  1
  Rh  Rh15  1  0.572097  0.290096  0.500000  1
  Rh  Rh16  1  0.712833  0.563975  0.500000  1
  Rh  Rh17  1  0.290005  0.418700  0.500000  1
  Rh  Rh18  1  0.497653  0.005970  0.500000  1
  Rh  Rh19  1  0.997653  0.494030  0.500000  1
