# generated using pymatgen
data_Y10In2HgOs
_symmetry_space_group_name_H-M   'P 1'
_cell_length_a   9.75347500
_cell_length_b   9.75347613
_cell_length_c   9.66775300
_cell_angle_alpha   90.00000000
_cell_angle_beta   90.00000000
_cell_angle_gamma   120.28326308
_symmetry_Int_Tables_number   1
_chemical_formula_structural   Y10In2HgOs
_chemical_formula_sum   'Y20 In4 Hg2 Os2'
_cell_volume   794.19703486
_cell_formula_units_Z   2
loop_
 _symmetry_equiv_pos_site_id
 _symmetry_equiv_pos_as_xyz
  1  'x, y, z'
loop_
 _atom_site_type_symbol
 _atom_site_label
 _atom_site_symmetry_multiplicity
 _atom_site_fract_x
 _atom_site_fract_y
 _atom_site_fract_z
 _atom_site_occupancy
  Y  Y0  1  0.995776  0.004225  0.514427  1
  Y  Y1  1  0.995776  0.004225  0.985573  1
  Y  Y2  1  0.540059  0.459941  0.250000  1
  Y  Y3  1  0.536724  0.074082  0.250000  1
  Y  Y4  1  0.925918  0.463277  0.250000  1
  Y  Y5  1  0.463696  0.536305  0.750000  1
  Y  Y6  1  0.465843  0.918899  0.750000  1
  Y  Y7  1  0.081101  0.534156  0.750000  1
  Y  Y8  1  0.208304  0.791695  0.441253  1
  Y  Y9  1  0.210090  0.418384  0.438536  1
  Y  Y10  1  0.581617  0.789911  0.438537  1
  Y  Y11  1  0.789824  0.210175  0.560415  1
  Y  Y12  1  0.793694  0.583546  0.561465  1
  Y  Y13  1  0.416454  0.206307  0.561464  1
  Y  Y14  1  0.789824  0.210175  0.939585  1
  Y  Y15  1  0.793694  0.583546  0.938535  1
  Y  Y16  1  0.416454  0.206307  0.938536  1
  Y  Y17  1  0.208304  0.791695  0.058747  1
  Y  Y18  1  0.210090  0.418384  0.061464  1
  Y  Y19  1  0.581617  0.789911  0.061463  1
  In  In20  1  0.885517  0.114484  0.250000  1
  In  In21  1  0.887940  0.774833  0.250000  1
  In  In22  1  0.225159  0.112058  0.250000  1
  In  In23  1  0.120522  0.879479  0.750000  1
  Hg  Hg24  1  0.123086  0.243744  0.750000  1
  Hg  Hg25  1  0.756256  0.876915  0.750000  1
  Os  Os26  1  0.331160  0.668836  0.250000  1
  Os  Os27  1  0.665497  0.334504  0.750000  1
