# generated using pymatgen
data_Ca3TiFeC6
_symmetry_space_group_name_H-M   'P 1'
_cell_length_a   8.21914200
_cell_length_b   8.21914120
_cell_length_c   5.17596400
_cell_angle_alpha   90.00000000
_cell_angle_beta   90.00000000
_cell_angle_gamma   119.99998712
_symmetry_Int_Tables_number   1
_chemical_formula_structural   Ca3TiFeC6
_chemical_formula_sum   'Ca6 Ti2 Fe2 C12'
_cell_volume   302.81324014
_cell_formula_units_Z   2
loop_
 _symmetry_equiv_pos_site_id
 _symmetry_equiv_pos_as_xyz
  1  'x, y, z'
loop_
 _atom_site_type_symbol
 _atom_site_label
 _atom_site_symmetry_multiplicity
 _atom_site_fract_x
 _atom_site_fract_y
 _atom_site_fract_z
 _atom_site_occupancy
  Ca  Ca0  1  0.602756  0.677812  0.750000  1
  Ca  Ca1  1  0.924945  0.602756  0.250000  1
  Ca  Ca2  1  0.677812  0.075055  0.250000  1
  Ca  Ca3  1  0.322188  0.924945  0.750000  1
  Ca  Ca4  1  0.075055  0.397244  0.750000  1
  Ca  Ca5  1  0.397244  0.322188  0.250000  1
  Ti  Ti6  1  0.000000  0.000000  0.500000  1
  Ti  Ti7  1  0.000000  0.000000  0.000000  1
  Fe  Fe8  1  0.666667  0.333333  0.750000  1
  Fe  Fe9  1  0.333333  0.666667  0.250000  1
  C  C10  1  0.953237  0.760272  0.750000  1
  C  C11  1  0.192963  0.953237  0.250000  1
  C  C12  1  0.760272  0.807037  0.250000  1
  C  C13  1  0.239728  0.192963  0.750000  1
  C  C14  1  0.807037  0.046763  0.750000  1
  C  C15  1  0.046763  0.239728  0.250000  1
  C  C16  1  0.852450  0.572714  0.750000  1
  C  C17  1  0.279734  0.852450  0.250000  1
  C  C18  1  0.572714  0.720266  0.250000  1
  C  C19  1  0.427286  0.279734  0.750000  1
  C  C20  1  0.147550  0.427286  0.250000  1
  C  C21  1  0.720266  0.147550  0.750000  1
