# generated using pymatgen
data_V9Si6Tc
_symmetry_space_group_name_H-M   'P 1'
_cell_length_a   7.06073109
_cell_length_b   7.06073074
_cell_length_c   7.04473821
_cell_angle_alpha   96.47806952
_cell_angle_beta   96.51113183
_cell_angle_gamma   140.74100317
_symmetry_Int_Tables_number   1
_chemical_formula_structural   V9Si6Tc
_chemical_formula_sum   'V9 Si6 Tc1'
_cell_volume   209.27685504
_cell_formula_units_Z   1
loop_
 _symmetry_equiv_pos_site_id
 _symmetry_equiv_pos_as_xyz
  1  'x, y, z'
loop_
 _atom_site_type_symbol
 _atom_site_label
 _atom_site_symmetry_multiplicity
 _atom_site_fract_x
 _atom_site_fract_y
 _atom_site_fract_z
 _atom_site_occupancy
  V  V0  1  0.248388  0.747628  0.498247  1
  V  V1  1  0.075509  0.227617  0.303126  1
  V  V2  1  0.923206  0.773230  0.696436  1
  V  V3  1  0.750618  0.249858  0.498247  1
  V  V4  1  0.727490  0.576878  0.304368  1
  V  V5  1  0.426258  0.723225  0.149482  1
  V  V6  1  0.776774  0.072387  0.849162  1
  V  V7  1  0.271841  0.426470  0.698311  1
  V  V8  1  0.226229  0.925935  0.152162  1
  Si  Si9  1  0.167495  0.667338  0.834834  1
  Si  Si10  1  0.250164  0.250264  0.001717  1
  Si  Si11  1  0.665564  0.834578  0.500143  1
  Si  Si12  1  0.832826  0.332946  0.165772  1
  Si  Si13  1  0.751453  0.751553  0.001717  1
  Si  Si14  1  0.332901  0.164679  0.497580  1
  Tc  Tc15  1  0.573283  0.275413  0.848697  1
