# generated using pymatgen
data_Tb4ErIn3Br
_symmetry_space_group_name_H-M   'P 1'
_cell_length_a   9.23863500
_cell_length_b   9.23863422
_cell_length_c   6.72873000
_cell_angle_alpha   90.00000000
_cell_angle_beta   90.00000000
_cell_angle_gamma   119.99999919
_symmetry_Int_Tables_number   1
_chemical_formula_structural   Tb4ErIn3Br
_chemical_formula_sum   'Tb8 Er2 In6 Br2'
_cell_volume   497.36969441
_cell_formula_units_Z   2
loop_
 _symmetry_equiv_pos_site_id
 _symmetry_equiv_pos_as_xyz
  1  'x, y, z'
loop_
 _atom_site_type_symbol
 _atom_site_label
 _atom_site_symmetry_multiplicity
 _atom_site_fract_x
 _atom_site_fract_y
 _atom_site_fract_z
 _atom_site_occupancy
  Tb  Tb0  1  0.733915  0.733915  0.251496  1
  Tb  Tb1  1  0.000000  0.733915  0.748504  1
  Tb  Tb2  1  0.733915  0.000000  0.748504  1
  Tb  Tb3  1  0.266085  0.266085  0.748504  1
  Tb  Tb4  1  0.000000  0.266085  0.251496  1
  Tb  Tb5  1  0.266085  0.000000  0.251496  1
  Tb  Tb6  1  0.333333  0.666667  0.000000  1
  Tb  Tb7  1  0.666667  0.333333  0.000000  1
  Er  Er8  1  0.333333  0.666667  0.500000  1
  Er  Er9  1  0.666667  0.333333  0.500000  1
  In  In10  1  0.392759  0.000000  0.747697  1
  In  In11  1  0.000000  0.607241  0.252303  1
  In  In12  1  0.607241  0.000000  0.252303  1
  In  In13  1  0.000000  0.392759  0.747697  1
  In  In14  1  0.392759  0.392759  0.252303  1
  In  In15  1  0.607241  0.607241  0.747697  1
  Br  Br16  1  0.000000  0.000000  0.500000  1
  Br  Br17  1  0.000000  0.000000  0.000000  1
