# generated using pymatgen
data_Sm2ZnIr6
_symmetry_space_group_name_H-M   'P 1'
_cell_length_a   5.38653175
_cell_length_b   5.38653266
_cell_length_c   13.29402227
_cell_angle_alpha   78.31141374
_cell_angle_beta   78.31141217
_cell_angle_gamma   60.00000017
_symmetry_Int_Tables_number   1
_chemical_formula_structural   Sm2ZnIr6
_chemical_formula_sum   'Sm4 Zn2 Ir12'
_cell_volume   324.77656475
_cell_formula_units_Z   2
loop_
 _symmetry_equiv_pos_site_id
 _symmetry_equiv_pos_as_xyz
  1  'x, y, z'
loop_
 _atom_site_type_symbol
 _atom_site_label
 _atom_site_symmetry_multiplicity
 _atom_site_fract_x
 _atom_site_fract_y
 _atom_site_fract_z
 _atom_site_occupancy
  Sm  Sm0  1  0.950133  0.950133  0.149603  1
  Sm  Sm1  1  0.049867  0.049867  0.850397  1
  Sm  Sm2  1  0.853413  0.853413  0.439761  1
  Sm  Sm3  1  0.146587  0.146587  0.560239  1
  Zn  Zn4  1  0.721244  0.721244  0.836267  1
  Zn  Zn5  1  0.278756  0.278756  0.163733  1
  Ir  Ir6  1  0.500000  0.500000  0.500000  1
  Ir  Ir7  1  0.611114  0.611114  0.166657  1
  Ir  Ir8  1  0.388886  0.388886  0.833343  1
  Ir  Ir9  1  0.000000  0.500000  0.000000  1
  Ir  Ir10  1  0.500000  0.000000  0.000000  1
  Ir  Ir11  1  0.500000  0.500000  0.000000  1
  Ir  Ir12  1  0.386731  0.386731  0.331646  1
  Ir  Ir13  1  0.894892  0.386731  0.331646  1
  Ir  Ir14  1  0.386731  0.894892  0.331646  1
  Ir  Ir15  1  0.613269  0.613269  0.668354  1
  Ir  Ir16  1  0.105108  0.613269  0.668354  1
  Ir  Ir17  1  0.613269  0.105108  0.668354  1
