# generated using pymatgen
data_Hf3InF15
_symmetry_space_group_name_H-M   'P 1'
_cell_length_a   7.94985169
_cell_length_b   7.94985187
_cell_length_c   7.94985125
_cell_angle_alpha   99.90725336
_cell_angle_beta   99.90725528
_cell_angle_gamma   99.90726078
_symmetry_Int_Tables_number   1
_chemical_formula_structural   Hf3InF15
_chemical_formula_sum   'Hf6 In2 F30'
_cell_volume   476.91490331
_cell_formula_units_Z   2
loop_
 _symmetry_equiv_pos_site_id
 _symmetry_equiv_pos_as_xyz
  1  'x, y, z'
loop_
 _atom_site_type_symbol
 _atom_site_label
 _atom_site_symmetry_multiplicity
 _atom_site_fract_x
 _atom_site_fract_y
 _atom_site_fract_z
 _atom_site_occupancy
  Hf  Hf0  1  0.680121  0.819879  0.250000  1
  Hf  Hf1  1  0.750000  0.319879  0.180121  1
  Hf  Hf2  1  0.819879  0.250000  0.680121  1
  Hf  Hf3  1  0.180121  0.750000  0.319879  1
  Hf  Hf4  1  0.250000  0.680121  0.819879  1
  Hf  Hf5  1  0.319879  0.180121  0.750000  1
  In  In6  1  0.750000  0.750000  0.750000  1
  In  In7  1  0.250000  0.250000  0.250000  1
  F  F8  1  0.962438  0.537562  0.250000  1
  F  F9  1  0.284400  0.522450  0.279094  1
  F  F10  1  0.150317  0.675577  0.048393  1
  F  F11  1  0.750000  0.037562  0.462438  1
  F  F12  1  0.779094  0.022450  0.784400  1
  F  F13  1  0.548393  0.175577  0.650317  1
  F  F14  1  0.977550  0.215600  0.220906  1
  F  F15  1  0.215600  0.220906  0.977550  1
  F  F16  1  0.675577  0.048393  0.150317  1
  F  F17  1  0.824423  0.349683  0.451607  1
  F  F18  1  0.537562  0.250000  0.962438  1
  F  F19  1  0.048393  0.150317  0.675577  1
  F  F20  1  0.349683  0.451607  0.824423  1
  F  F21  1  0.522450  0.279094  0.284400  1
  F  F22  1  0.279094  0.284400  0.522450  1
  F  F23  1  0.720906  0.715600  0.477550  1
  F  F24  1  0.477550  0.720906  0.715600  1
  F  F25  1  0.650317  0.548393  0.175577  1
  F  F26  1  0.951607  0.849683  0.324423  1
  F  F27  1  0.462438  0.750000  0.037562  1
  F  F28  1  0.175577  0.650317  0.548393  1
  F  F29  1  0.324423  0.951607  0.849683  1
  F  F30  1  0.784400  0.779094  0.022450  1
  F  F31  1  0.022450  0.784400  0.779094  1
  F  F32  1  0.451607  0.824423  0.349683  1
  F  F33  1  0.220906  0.977550  0.215600  1
  F  F34  1  0.250000  0.962438  0.537562  1
  F  F35  1  0.849683  0.324423  0.951607  1
  F  F36  1  0.715600  0.477550  0.720906  1
  F  F37  1  0.037562  0.462438  0.750000  1
