# generated using pymatgen
data_YbDy3(Si5Pt3)2
_symmetry_space_group_name_H-M   'P 1'
_cell_length_a   8.18024610
_cell_length_b   8.16963389
_cell_length_c   8.16963422
_cell_angle_alpha   136.77613649
_cell_angle_beta   104.23847885
_cell_angle_gamma   91.43289347
_symmetry_Int_Tables_number   1
_chemical_formula_structural   YbDy3(Si5Pt3)2
_chemical_formula_sum   'Yb1 Dy3 Si10 Pt6'
_cell_volume   344.84445892
_cell_formula_units_Z   1
loop_
 _symmetry_equiv_pos_site_id
 _symmetry_equiv_pos_as_xyz
  1  'x, y, z'
loop_
 _atom_site_type_symbol
 _atom_site_label
 _atom_site_symmetry_multiplicity
 _atom_site_fract_x
 _atom_site_fract_y
 _atom_site_fract_z
 _atom_site_occupancy
  Yb  Yb0  1  0.896943  0.129284  0.767658  1
  Dy  Dy1  1  0.641476  0.371430  0.270046  1
  Dy  Dy2  1  0.358881  0.628961  0.729920  1
  Dy  Dy3  1  0.100224  0.870373  0.229851  1
  Si  Si4  1  0.270901  0.520435  0.248129  1
  Si  Si5  1  0.729701  0.478744  0.751177  1
  Si  Si6  1  0.729701  0.978525  0.250957  1
  Si  Si7  1  0.270901  0.022771  0.750465  1
  Si  Si8  1  0.460393  0.111286  0.349106  1
  Si  Si9  1  0.539114  0.887970  0.651145  1
  Si  Si10  1  0.763821  0.611463  0.152358  1
  Si  Si11  1  0.237330  0.388639  0.848691  1
  Si  Si12  1  0.999334  0.248387  0.247849  1
  Si  Si13  1  0.999334  0.751486  0.750947  1
  Pt  Pt14  1  0.252869  0.137646  0.115223  1
  Pt  Pt15  1  0.747748  0.862199  0.885549  1
  Pt  Pt16  1  0.024184  0.637250  0.386935  1
  Pt  Pt17  1  0.977358  0.363074  0.614284  1
  Pt  Pt18  1  0.499895  0.250102  0.749921  1
  Pt  Pt19  1  0.499895  0.749974  0.249792  1
