# generated using pymatgen
data_Tb2Pr3(Er5Bi4)3
_symmetry_space_group_name_H-M   'P 1'
_cell_length_a   8.32008364
_cell_length_b   9.55170936
_cell_length_c   12.13306600
_cell_angle_alpha   89.88668256
_cell_angle_beta   90.10749743
_cell_angle_gamma   90.11043463
_symmetry_Int_Tables_number   1
_chemical_formula_structural   Tb2Pr3(Er5Bi4)3
_chemical_formula_sum   'Tb2 Pr3 Er15 Bi12'
_cell_volume   964.22177309
_cell_formula_units_Z   1
loop_
 _symmetry_equiv_pos_site_id
 _symmetry_equiv_pos_as_xyz
  1  'x, y, z'
loop_
 _atom_site_type_symbol
 _atom_site_label
 _atom_site_symmetry_multiplicity
 _atom_site_fract_x
 _atom_site_fract_y
 _atom_site_fract_z
 _atom_site_occupancy
  Tb  Tb0  1  0.685121  0.751363  0.783285  1
  Tb  Tb1  1  0.184869  0.751138  0.718492  1
  Pr  Pr2  1  0.189835  0.559608  0.439199  1
  Pr  Pr3  1  0.317314  0.250747  0.219649  1
  Pr  Pr4  1  0.819018  0.249595  0.279981  1
  Er  Er5  1  0.356799  0.750243  0.215936  1
  Er  Er6  1  0.851674  0.751112  0.282539  1
  Er  Er7  1  0.646250  0.251167  0.781388  1
  Er  Er8  1  0.147182  0.253261  0.719528  1
  Er  Er9  1  0.691202  0.566187  0.059920  1
  Er  Er10  1  0.191569  0.931506  0.438328  1
  Er  Er11  1  0.307767  0.065441  0.939027  1
  Er  Er12  1  0.809944  0.434197  0.560685  1
  Er  Er13  1  0.308850  0.435874  0.938871  1
  Er  Er14  1  0.803519  0.063296  0.563187  1
  Er  Er15  1  0.691876  0.935079  0.059913  1
  Er  Er16  1  0.476604  0.250823  0.489961  1
  Er  Er17  1  0.976617  0.251065  0.009148  1
  Er  Er18  1  0.523739  0.749702  0.513723  1
  Er  Er19  1  0.023049  0.750753  0.985879  1
  Bi  Bi20  1  0.404656  0.750750  0.958795  1
  Bi  Bi21  1  0.901690  0.752449  0.542375  1
  Bi  Bi22  1  0.596501  0.250491  0.035545  1
  Bi  Bi23  1  0.093080  0.238048  0.466670  1
  Bi  Bi24  1  0.565731  0.991237  0.329632  1
  Bi  Bi25  1  0.064944  0.510371  0.167927  1
  Bi  Bi26  1  0.434670  0.495723  0.675580  1
  Bi  Bi27  1  0.933652  0.006829  0.826243  1
  Bi  Bi28  1  0.433179  0.005900  0.673989  1
  Bi  Bi29  1  0.932294  0.496106  0.826338  1
  Bi  Bi30  1  0.570556  0.509609  0.328893  1
  Bi  Bi31  1  0.066251  0.990330  0.169372  1
