# generated using pymatgen
data_Ce10CoBi6Ir
_symmetry_space_group_name_H-M   'P 1'
_cell_length_a   6.55908502
_cell_length_b   9.57549569
_cell_length_c   9.57342400
_cell_angle_alpha   120.00717311
_cell_angle_beta   89.99598175
_cell_angle_gamma   90.00804700
_symmetry_Int_Tables_number   1
_chemical_formula_structural   Ce10CoBi6Ir
_chemical_formula_sum   'Ce10 Co1 Bi6 Ir1'
_cell_volume   520.68018561
_cell_formula_units_Z   1
loop_
 _symmetry_equiv_pos_site_id
 _symmetry_equiv_pos_as_xyz
  1  'x, y, z'
loop_
 _atom_site_type_symbol
 _atom_site_label
 _atom_site_symmetry_multiplicity
 _atom_site_fract_x
 _atom_site_fract_y
 _atom_site_fract_z
 _atom_site_occupancy
  Ce  Ce0  1  0.500240  0.333089  0.666487  1
  Ce  Ce1  1  0.500240  0.666602  0.333513  1
  Ce  Ce2  1  0.999961  0.666489  0.333547  1
  Ce  Ce3  1  0.999961  0.332942  0.666453  1
  Ce  Ce4  1  0.755991  0.239250  0.000000  1
  Ce  Ce5  1  0.755893  0.761479  0.761497  1
  Ce  Ce6  1  0.755893  0.999982  0.238503  1
  Ce  Ce7  1  0.243866  0.761137  0.000000  1
  Ce  Ce8  1  0.243928  0.238905  0.238759  1
  Ce  Ce9  1  0.243928  0.000148  0.761241  1
  Co  Co10  1  0.999396  0.000119  0.000000  1
  Bi  Bi11  1  0.749358  0.606755  0.000000  1
  Bi  Bi12  1  0.749305  0.392981  0.392926  1
  Bi  Bi13  1  0.749305  0.000056  0.607074  1
  Bi  Bi14  1  0.250966  0.393080  0.000000  1
  Bi  Bi15  1  0.250769  0.606902  0.607063  1
  Bi  Bi16  1  0.250769  0.999837  0.392937  1
  Ir  Ir17  1  0.500231  0.000246  0.000000  1
