# generated using pymatgen
data_ScIr6Ru
_symmetry_space_group_name_H-M   'P 1'
_cell_length_a   5.51365449
_cell_length_b   5.51365435
_cell_length_c   5.51365500
_cell_angle_alpha   60.00000209
_cell_angle_beta   60.00000295
_cell_angle_gamma   60.00000111
_symmetry_Int_Tables_number   1
_chemical_formula_structural   ScIr6Ru
_chemical_formula_sum   'Sc1 Ir6 Ru1'
_cell_volume   118.52328913
_cell_formula_units_Z   1
loop_
 _symmetry_equiv_pos_site_id
 _symmetry_equiv_pos_as_xyz
  1  'x, y, z'
loop_
 _atom_site_type_symbol
 _atom_site_label
 _atom_site_symmetry_multiplicity
 _atom_site_fract_x
 _atom_site_fract_y
 _atom_site_fract_z
 _atom_site_occupancy
  Sc  Sc0  1  0.500000  0.500000  0.500000  1
  Ir  Ir1  1  0.500000  0.000000  0.000000  1
  Ir  Ir2  1  0.000000  0.500000  0.000000  1
  Ir  Ir3  1  0.500000  0.500000  0.000000  1
  Ir  Ir4  1  0.000000  0.000000  0.500000  1
  Ir  Ir5  1  0.500000  0.000000  0.500000  1
  Ir  Ir6  1  0.000000  0.500000  0.500000  1
  Ru  Ru7  1  0.000000  0.000000  0.000000  1
