# generated using pymatgen
data_Lu8Zr9Si16Mo3
_symmetry_space_group_name_H-M   'P 1'
_cell_length_a   6.91994209
_cell_length_b   7.13252905
_cell_length_c   13.69187400
_cell_angle_alpha   90.00000000
_cell_angle_beta   90.00000000
_cell_angle_gamma   90.06105735
_symmetry_Int_Tables_number   1
_chemical_formula_structural   Lu8Zr9Si16Mo3
_chemical_formula_sum   'Lu8 Zr9 Si16 Mo3'
_cell_volume   675.78516908
_cell_formula_units_Z   1
loop_
 _symmetry_equiv_pos_site_id
 _symmetry_equiv_pos_as_xyz
  1  'x, y, z'
loop_
 _atom_site_type_symbol
 _atom_site_label
 _atom_site_symmetry_multiplicity
 _atom_site_fract_x
 _atom_site_fract_y
 _atom_site_fract_z
 _atom_site_occupancy
  Lu  Lu0  1  0.511971  0.322219  0.099333  1
  Lu  Lu1  1  0.011190  0.179231  0.401080  1
  Lu  Lu2  1  0.486295  0.675180  0.595236  1
  Lu  Lu3  1  0.988412  0.821056  0.903852  1
  Lu  Lu4  1  0.486295  0.675180  0.904764  1
  Lu  Lu5  1  0.988412  0.821056  0.596148  1
  Lu  Lu6  1  0.511971  0.322219  0.400667  1
  Lu  Lu7  1  0.011190  0.179231  0.098920  1
  Zr  Zr8  1  0.828340  0.326915  0.624595  1
  Zr  Zr9  1  0.325142  0.177222  0.875917  1
  Zr  Zr10  1  0.175052  0.674601  0.126300  1
  Zr  Zr11  1  0.673590  0.825783  0.372904  1
  Zr  Zr12  1  0.175052  0.674601  0.373700  1
  Zr  Zr13  1  0.673590  0.825783  0.127096  1
  Zr  Zr14  1  0.828340  0.326915  0.875405  1
  Zr  Zr15  1  0.325142  0.177222  0.624083  1
  Zr  Zr16  1  0.653923  0.001056  0.750000  1
  Si  Si17  1  0.658382  0.031195  0.538754  1
  Si  Si18  1  0.156841  0.469330  0.958545  1
  Si  Si19  1  0.342730  0.971548  0.044440  1
  Si  Si20  1  0.841041  0.531339  0.456765  1
  Si  Si21  1  0.342730  0.971548  0.455560  1
  Si  Si22  1  0.841041  0.531339  0.043235  1
  Si  Si23  1  0.658382  0.031195  0.961246  1
  Si  Si24  1  0.156841  0.469330  0.541455  1
  Si  Si25  1  0.522885  0.392529  0.750000  1
  Si  Si26  1  0.031119  0.113851  0.750000  1
  Si  Si27  1  0.476725  0.606839  0.250000  1
  Si  Si28  1  0.976515  0.891108  0.250000  1
  Si  Si29  1  0.788786  0.631085  0.750000  1
  Si  Si30  1  0.277832  0.859583  0.750000  1
  Si  Si31  1  0.213488  0.362808  0.250000  1
  Si  Si32  1  0.714307  0.136996  0.250000  1
  Mo  Mo33  1  0.152839  0.493934  0.750000  1
  Mo  Mo34  1  0.346288  0.994039  0.250000  1
  Mo  Mo35  1  0.847322  0.504937  0.250000  1
