# generated using pymatgen
data_Cs4CuPdSe32
_symmetry_space_group_name_H-M   'P 1'
_cell_length_a   13.00472300
_cell_length_b   13.00472300
_cell_length_c   7.29748900
_cell_angle_alpha   90.00000000
_cell_angle_beta   90.00000000
_cell_angle_gamma   90.00000000
_symmetry_Int_Tables_number   1
_chemical_formula_structural   Cs4CuPdSe32
_chemical_formula_sum   'Cs4 Cu1 Pd1 Se32'
_cell_volume   1234.17192084
_cell_formula_units_Z   1
loop_
 _symmetry_equiv_pos_site_id
 _symmetry_equiv_pos_as_xyz
  1  'x, y, z'
loop_
 _atom_site_type_symbol
 _atom_site_label
 _atom_site_symmetry_multiplicity
 _atom_site_fract_x
 _atom_site_fract_y
 _atom_site_fract_z
 _atom_site_occupancy
  Cs  Cs0  1  0.500000  0.000000  0.998969  1
  Cs  Cs1  1  0.000000  0.500000  0.001031  1
  Cs  Cs2  1  0.500000  0.500000  0.500000  1
  Cs  Cs3  1  0.000000  0.000000  0.500000  1
  Cu  Cu4  1  0.000000  0.000000  0.000000  1
  Pd  Pd5  1  0.500000  0.500000  0.000000  1
  Se  Se6  1  0.190844  0.423378  0.582918  1
  Se  Se7  1  0.809156  0.576622  0.582918  1
  Se  Se8  1  0.576622  0.190844  0.417082  1
  Se  Se9  1  0.423378  0.809156  0.417082  1
  Se  Se10  1  0.309231  0.922262  0.583285  1
  Se  Se11  1  0.077738  0.309231  0.416715  1
  Se  Se12  1  0.819256  0.963041  0.952511  1
  Se  Se13  1  0.036959  0.819256  0.047489  1
  Se  Se14  1  0.963041  0.180744  0.047489  1
  Se  Se15  1  0.180744  0.036959  0.952511  1
  Se  Se16  1  0.533404  0.686419  0.031675  1
  Se  Se17  1  0.466596  0.313581  0.031675  1
  Se  Se18  1  0.686419  0.466596  0.968325  1
  Se  Se19  1  0.313581  0.533404  0.968325  1
  Se  Se20  1  0.787529  0.204813  0.130056  1
  Se  Se21  1  0.795187  0.787529  0.869944  1
  Se  Se22  1  0.204813  0.212471  0.869944  1
  Se  Se23  1  0.212471  0.795187  0.130056  1
  Se  Se24  1  0.294809  0.709148  0.878048  1
  Se  Se25  1  0.705191  0.290852  0.878048  1
  Se  Se26  1  0.709148  0.705191  0.121952  1
  Se  Se27  1  0.290852  0.294809  0.121952  1
  Se  Se28  1  0.920093  0.308424  0.584905  1
  Se  Se29  1  0.691576  0.920093  0.415095  1
  Se  Se30  1  0.308424  0.079907  0.415095  1
  Se  Se31  1  0.079907  0.691576  0.584905  1
  Se  Se32  1  0.191139  0.581003  0.412942  1
  Se  Se33  1  0.808861  0.418997  0.412942  1
  Se  Se34  1  0.581003  0.808861  0.587058  1
  Se  Se35  1  0.418997  0.191139  0.587058  1
  Se  Se36  1  0.690769  0.077738  0.583285  1
  Se  Se37  1  0.922262  0.690769  0.416715  1
