# generated using pymatgen
data_YbNp2O8
_symmetry_space_group_name_H-M   'P 1'
_cell_length_a   6.66859039
_cell_length_b   6.66859032
_cell_length_c   6.66859127
_cell_angle_alpha   132.74549430
_cell_angle_beta   132.74549787
_cell_angle_gamma   69.05411122
_symmetry_Int_Tables_number   1
_chemical_formula_structural   YbNp2O8
_chemical_formula_sum   'Yb1 Np2 O8'
_cell_volume   156.97751344
_cell_formula_units_Z   1
loop_
 _symmetry_equiv_pos_site_id
 _symmetry_equiv_pos_as_xyz
  1  'x, y, z'
loop_
 _atom_site_type_symbol
 _atom_site_label
 _atom_site_symmetry_multiplicity
 _atom_site_fract_x
 _atom_site_fract_y
 _atom_site_fract_z
 _atom_site_occupancy
  Yb  Yb0  1  0.000000  0.000000  0.000000  1
  Np  Np1  1  0.750000  0.250000  0.500000  1
  Np  Np2  1  0.250000  0.750000  0.500000  1
  O  O3  1  0.682074  0.164712  0.119396  1
  O  O4  1  0.437322  0.954685  0.119396  1
  O  O5  1  0.835289  0.317926  0.880604  1
  O  O6  1  0.317926  0.437322  0.482637  1
  O  O7  1  0.045315  0.562678  0.880604  1
  O  O8  1  0.562678  0.682074  0.517363  1
  O  O9  1  0.164712  0.045315  0.482637  1
  O  O10  1  0.954685  0.835289  0.517363  1
