# generated using pymatgen
data_Y5ErIn2F20
_symmetry_space_group_name_H-M   'P 1'
_cell_length_a   8.29200236
_cell_length_b   8.29202862
_cell_length_c   8.32448900
_cell_angle_alpha   59.86988883
_cell_angle_beta   59.86957873
_cell_angle_gamma   60.25869806
_symmetry_Int_Tables_number   1
_chemical_formula_structural   Y5ErIn2F20
_chemical_formula_sum   'Y5 Er1 In2 F20'
_cell_volume   404.70949692
_cell_formula_units_Z   1
loop_
 _symmetry_equiv_pos_site_id
 _symmetry_equiv_pos_as_xyz
  1  'x, y, z'
loop_
 _atom_site_type_symbol
 _atom_site_label
 _atom_site_symmetry_multiplicity
 _atom_site_fract_x
 _atom_site_fract_y
 _atom_site_fract_z
 _atom_site_occupancy
  Y  Y0  1  0.241677  0.759194  0.240811  1
  Y  Y1  1  0.759189  0.241676  0.240813  1
  Y  Y2  1  0.241678  0.759190  0.758319  1
  Y  Y3  1  0.241022  0.241018  0.758980  1
  Y  Y4  1  0.759190  0.241672  0.758326  1
  Er  Er5  1  0.760035  0.760028  0.239962  1
  In  In6  1  0.750756  0.750755  0.749243  1
  In  In7  1  0.250756  0.250751  0.249249  1
  F  F8  1  0.829600  0.170490  0.499953  1
  F  F9  1  0.499734  0.170889  0.829107  1
  F  F10  1  0.826985  0.502703  0.173011  1
  F  F11  1  0.499729  0.170881  0.500274  1
  F  F12  1  0.826996  0.502699  0.497301  1
  F  F13  1  0.170891  0.499723  0.829110  1
  F  F14  1  0.502691  0.827001  0.497305  1
  F  F15  1  0.500046  0.500052  0.170388  1
  F  F16  1  0.889161  0.331952  0.889443  1
  F  F17  1  0.110556  0.110552  0.668048  1
  F  F18  1  0.668934  0.107402  0.111828  1
  F  F19  1  0.110563  0.110559  0.110839  1
  F  F20  1  0.331957  0.889151  0.889448  1
  F  F21  1  0.888174  0.888175  0.892591  1
  F  F22  1  0.888176  0.888180  0.331054  1
  F  F23  1  0.107398  0.668940  0.111830  1
  F  F24  1  0.170482  0.829609  0.499957  1
  F  F25  1  0.502694  0.826985  0.173018  1
  F  F26  1  0.170885  0.499729  0.500271  1
  F  F27  1  0.500046  0.500042  0.829522  1
