# generated using pymatgen
data_Np5Pa3(B6W)4
_symmetry_space_group_name_H-M   'P 1'
_cell_length_a   3.70209200
_cell_length_b   9.30307500
_cell_length_c   11.36086600
_cell_angle_alpha   90.00148206
_cell_angle_beta   90.00000000
_cell_angle_gamma   90.00000000
_symmetry_Int_Tables_number   1
_chemical_formula_structural   Np5Pa3(B6W)4
_chemical_formula_sum   'Np5 Pa3 B24 W4'
_cell_volume   391.27776280
_cell_formula_units_Z   1
loop_
 _symmetry_equiv_pos_site_id
 _symmetry_equiv_pos_as_xyz
  1  'x, y, z'
loop_
 _atom_site_type_symbol
 _atom_site_label
 _atom_site_symmetry_multiplicity
 _atom_site_fract_x
 _atom_site_fract_y
 _atom_site_fract_z
 _atom_site_occupancy
  Np  Np0  1  0.000000  0.162758  0.906565  1
  Np  Np1  1  0.000000  0.958796  0.399792  1
  Np  Np2  1  0.000000  0.041515  0.600808  1
  Np  Np3  1  0.000000  0.458026  0.100111  1
  Np  Np4  1  0.000000  0.540482  0.899966  1
  Pa  Pa5  1  0.000000  0.335148  0.407448  1
  Pa  Pa6  1  0.000000  0.664859  0.592728  1
  Pa  Pa7  1  0.000000  0.836130  0.091943  1
  B  B8  1  0.500000  0.551555  0.432013  1
  B  B9  1  0.500000  0.448459  0.568114  1
  B  B10  1  0.500000  0.052122  0.067087  1
  B  B11  1  0.500000  0.949666  0.932135  1
  B  B12  1  0.500000  0.745666  0.423617  1
  B  B13  1  0.500000  0.254300  0.576729  1
  B  B14  1  0.500000  0.245028  0.075484  1
  B  B15  1  0.500000  0.754895  0.923831  1
  B  B16  1  0.500000  0.805936  0.273897  1
  B  B17  1  0.500000  0.193820  0.726752  1
  B  B18  1  0.500000  0.305798  0.225703  1
  B  B19  1  0.500000  0.694446  0.774146  1
  B  B20  1  0.500000  0.645259  0.187118  1
  B  B21  1  0.500000  0.354009  0.813232  1
  B  B22  1  0.500000  0.145184  0.312819  1
  B  B23  1  0.500000  0.855271  0.687331  1
  B  B24  1  0.500000  0.987977  0.220406  1
  B  B25  1  0.500000  0.013161  0.779614  1
  B  B26  1  0.500000  0.487836  0.279394  1
  B  B27  1  0.500000  0.512285  0.720885  1
  B  B28  1  0.500000  0.638690  0.038455  1
  B  B29  1  0.500000  0.359049  0.960940  1
  B  B30  1  0.500000  0.139040  0.461580  1
  B  B31  1  0.500000  0.860927  0.538617  1
  W  W32  1  0.000000  0.646987  0.319125  1
  W  W33  1  0.000000  0.352934  0.681895  1
  W  W34  1  0.000000  0.147782  0.180348  1
  W  W35  1  0.000000  0.854202  0.819371  1
