# generated using pymatgen
data_TbY3Ho3CoI12
_symmetry_space_group_name_H-M   'P 1'
_cell_length_a   9.74985476
_cell_length_b   9.75135259
_cell_length_c   9.74766220
_cell_angle_alpha   106.76097425
_cell_angle_beta   106.87183368
_cell_angle_gamma   106.80594948
_symmetry_Int_Tables_number   1
_chemical_formula_structural   TbY3Ho3CoI12
_chemical_formula_sum   'Tb1 Y3 Ho3 Co1 I12'
_cell_volume   775.71237315
_cell_formula_units_Z   1
loop_
 _symmetry_equiv_pos_site_id
 _symmetry_equiv_pos_as_xyz
  1  'x, y, z'
loop_
 _atom_site_type_symbol
 _atom_site_label
 _atom_site_symmetry_multiplicity
 _atom_site_fract_x
 _atom_site_fract_y
 _atom_site_fract_z
 _atom_site_occupancy
  Tb  Tb0  1  0.710889  0.978513  0.907284  1
  Y  Y1  1  0.500476  0.499909  0.500158  1
  Y  Y2  1  0.021424  0.091648  0.288099  1
  Y  Y3  1  0.092678  0.287968  0.021024  1
  Ho  Ho4  1  0.285093  0.020593  0.090870  1
  Ho  Ho5  1  0.978553  0.908295  0.714099  1
  Ho  Ho6  1  0.909103  0.714307  0.978910  1
  Co  Co7  1  0.999415  0.999359  0.999297  1
  I  I8  1  0.160579  0.462267  0.385273  1
  I  I9  1  0.462619  0.384704  0.160570  1
  I  I10  1  0.385678  0.160353  0.461992  1
  I  I11  1  0.839960  0.538384  0.615133  1
  I  I12  1  0.538240  0.613374  0.839623  1
  I  I13  1  0.614934  0.838634  0.536017  1
  I  I14  1  0.676754  0.071190  0.225437  1
  I  I15  1  0.070552  0.223041  0.676214  1
  I  I16  1  0.223915  0.676964  0.070530  1
  I  I17  1  0.321981  0.929104  0.776175  1
  I  I18  1  0.929637  0.775972  0.323246  1
  I  I19  1  0.777520  0.325423  0.930050  1
