# generated using pymatgen
data_Lu16Cd4Co3Os
_symmetry_space_group_name_H-M   'P 1'
_cell_length_a   9.37457175
_cell_length_b   9.37457224
_cell_length_c   9.37457095
_cell_angle_alpha   59.48901968
_cell_angle_beta   59.48901617
_cell_angle_gamma   59.48902164
_symmetry_Int_Tables_number   1
_chemical_formula_structural   Lu16Cd4Co3Os
_chemical_formula_sum   'Lu16 Cd4 Co3 Os1'
_cell_volume   575.78777001
_cell_formula_units_Z   1
loop_
 _symmetry_equiv_pos_site_id
 _symmetry_equiv_pos_as_xyz
  1  'x, y, z'
loop_
 _atom_site_type_symbol
 _atom_site_label
 _atom_site_symmetry_multiplicity
 _atom_site_fract_x
 _atom_site_fract_y
 _atom_site_fract_z
 _atom_site_occupancy
  Lu  Lu0  1  0.437974  0.437974  0.057719  1
  Lu  Lu1  1  0.595643  0.595643  0.595643  1
  Lu  Lu2  1  0.187197  0.812787  0.812787  1
  Lu  Lu3  1  0.061680  0.061680  0.437361  1
  Lu  Lu4  1  0.437361  0.061680  0.061680  1
  Lu  Lu5  1  0.812787  0.187197  0.812787  1
  Lu  Lu6  1  0.437974  0.057719  0.437974  1
  Lu  Lu7  1  0.600798  0.208699  0.600798  1
  Lu  Lu8  1  0.812787  0.812787  0.187197  1
  Lu  Lu9  1  0.208699  0.600798  0.600798  1
  Lu  Lu10  1  0.805221  0.190844  0.190844  1
  Lu  Lu11  1  0.057719  0.437974  0.437974  1
  Lu  Lu12  1  0.190844  0.805221  0.190844  1
  Lu  Lu13  1  0.600798  0.600798  0.208699  1
  Lu  Lu14  1  0.190844  0.190844  0.805221  1
  Lu  Lu15  1  0.061680  0.437361  0.061680  1
  Cd  Cd16  1  0.830339  0.830339  0.507205  1
  Cd  Cd17  1  0.830780  0.830780  0.830780  1
  Cd  Cd18  1  0.507205  0.830339  0.830339  1
  Cd  Cd19  1  0.830339  0.507205  0.830339  1
  Co  Co20  1  0.828511  0.390551  0.390551  1
  Co  Co21  1  0.390551  0.828511  0.390551  1
  Co  Co22  1  0.390551  0.390551  0.828511  1
  Os  Os23  1  0.391721  0.391721  0.391721  1
