# generated using pymatgen
data_Dy3Lu9Os4
_symmetry_space_group_name_H-M   'P 1'
_cell_length_a   7.34972888
_cell_length_b   8.84476500
_cell_length_c   6.21795559
_cell_angle_alpha   90.00000000
_cell_angle_beta   89.91800431
_cell_angle_gamma   90.00000000
_symmetry_Int_Tables_number   1
_chemical_formula_structural   Dy3Lu9Os4
_chemical_formula_sum   'Dy3 Lu9 Os4'
_cell_volume   404.20789209
_cell_formula_units_Z   1
loop_
 _symmetry_equiv_pos_site_id
 _symmetry_equiv_pos_as_xyz
  1  'x, y, z'
loop_
 _atom_site_type_symbol
 _atom_site_label
 _atom_site_symmetry_multiplicity
 _atom_site_fract_x
 _atom_site_fract_y
 _atom_site_fract_z
 _atom_site_occupancy
  Dy  Dy0  1  0.539331  0.250000  0.872563  1
  Dy  Dy1  1  0.039394  0.250000  0.627654  1
  Dy  Dy2  1  0.460514  0.750000  0.127782  1
  Lu  Lu3  1  0.675416  0.062098  0.334947  1
  Lu  Lu4  1  0.173749  0.438120  0.165796  1
  Lu  Lu5  1  0.324805  0.562967  0.664684  1
  Lu  Lu6  1  0.825614  0.936737  0.833614  1
  Lu  Lu7  1  0.324805  0.937033  0.664684  1
  Lu  Lu8  1  0.825614  0.563263  0.833614  1
  Lu  Lu9  1  0.675416  0.437902  0.334947  1
  Lu  Lu10  1  0.173749  0.061880  0.165796  1
  Lu  Lu11  1  0.960322  0.750000  0.371978  1
  Os  Os12  1  0.883455  0.250000  0.043110  1
  Os  Os13  1  0.383155  0.250000  0.456722  1
  Os  Os14  1  0.115746  0.750000  0.960601  1
  Os  Os15  1  0.618915  0.750000  0.541509  1
