# generated using pymatgen
data_SrVTeO6
_symmetry_space_group_name_H-M   'P 1'
_cell_length_a   5.23840901
_cell_length_b   5.23797217
_cell_length_c   5.41070501
_cell_angle_alpha   90.00694030
_cell_angle_beta   89.99653535
_cell_angle_gamma   119.99724276
_symmetry_Int_Tables_number   1
_chemical_formula_structural   SrVTeO6
_chemical_formula_sum   'Sr1 V1 Te1 O6'
_cell_volume   128.57577249
_cell_formula_units_Z   1
loop_
 _symmetry_equiv_pos_site_id
 _symmetry_equiv_pos_as_xyz
  1  'x, y, z'
loop_
 _atom_site_type_symbol
 _atom_site_label
 _atom_site_symmetry_multiplicity
 _atom_site_fract_x
 _atom_site_fract_y
 _atom_site_fract_z
 _atom_site_occupancy
  Sr  Sr0  1  0.999998  0.999999  0.000000  1
  V  V1  1  0.333292  0.666647  0.500000  1
  Te  Te2  1  0.666702  0.333352  0.500000  1
  O  O3  1  0.614328  0.001798  0.296963  1
  O  O4  1  0.387436  0.385689  0.296971  1
  O  O5  1  0.998241  0.612556  0.296954  1
  O  O6  1  0.387437  0.001747  0.703030  1
  O  O7  1  0.998241  0.385683  0.703047  1
  O  O8  1  0.614327  0.612529  0.703038  1
