# generated using pymatgen
data_SiCl8
_symmetry_space_group_name_H-M   'P 1'
_cell_length_a   6.46982708
_cell_length_b   9.77340840
_cell_length_c   10.56064666
_cell_angle_alpha   126.85679503
_cell_angle_beta   122.51332937
_cell_angle_gamma   53.74229522
_symmetry_Int_Tables_number   1
_chemical_formula_structural   SiCl8
_chemical_formula_sum   'Si1 Cl8'
_cell_volume   413.20445378
_cell_formula_units_Z   1
loop_
 _symmetry_equiv_pos_site_id
 _symmetry_equiv_pos_as_xyz
  1  'x, y, z'
loop_
 _atom_site_type_symbol
 _atom_site_label
 _atom_site_symmetry_multiplicity
 _atom_site_fract_x
 _atom_site_fract_y
 _atom_site_fract_z
 _atom_site_occupancy
  Si  Si0  1  0.464297  0.412778  0.290348  1
  Cl  Cl1  1  0.439920  0.503158  0.514024  1
  Cl  Cl2  1  0.304467  0.141898  0.493766  1
  Cl  Cl3  1  0.744687  0.145138  0.221331  1
  Cl  Cl4  1  0.655779  0.145354  0.662099  1
  Cl  Cl5  1  0.568587  0.580448  0.302331  1
  Cl  Cl6  1  0.106056  0.414989  0.117773  1
  Cl  Cl7  1  0.094377  0.651948  0.863505  1
  Cl  Cl8  1  0.911221  0.847201  0.779821  1
