# generated using pymatgen
data_Ti6Si2Ge(POs2)3
_symmetry_space_group_name_H-M   'P 1'
_cell_length_a   6.45810785
_cell_length_b   7.21501672
_cell_length_c   7.33637719
_cell_angle_alpha   119.23611212
_cell_angle_beta   115.85220965
_cell_angle_gamma   90.21757356
_symmetry_Int_Tables_number   1
_chemical_formula_structural   Ti6Si2Ge(POs2)3
_chemical_formula_sum   'Ti6 Si2 Ge1 P3 Os6'
_cell_volume   258.01266647
_cell_formula_units_Z   1
loop_
 _symmetry_equiv_pos_site_id
 _symmetry_equiv_pos_as_xyz
  1  'x, y, z'
loop_
 _atom_site_type_symbol
 _atom_site_label
 _atom_site_symmetry_multiplicity
 _atom_site_fract_x
 _atom_site_fract_y
 _atom_site_fract_z
 _atom_site_occupancy
  Ti  Ti0  1  0.240842  0.489690  0.449459  1
  Ti  Ti1  1  0.801512  0.533970  0.551203  1
  Ti  Ti2  1  0.674247  0.754817  0.002427  1
  Ti  Ti3  1  0.665813  0.252744  0.010736  1
  Ti  Ti4  1  0.850468  0.048989  0.599696  1
  Ti  Ti5  1  0.225697  0.941647  0.384921  1
  Si  Si6  1  0.301801  0.279731  0.068987  1
  Si  Si7  1  0.209156  0.717936  0.946850  1
  Ge  Ge8  1  0.577240  0.329244  0.661358  1
  P  P9  1  0.582070  0.845181  0.669228  1
  P  P10  1  0.918561  0.168210  0.336178  1
  P  P11  1  0.906225  0.671442  0.327902  1
  Os  Os12  1  0.996902  0.014448  0.998766  1
  Os  Os13  1  0.001824  0.479028  0.012160  1
  Os  Os14  1  0.504011  0.660025  0.257401  1
  Os  Os15  1  0.238259  0.339710  0.747185  1
  Os  Os16  1  0.241101  0.894953  0.737446  1
  Os  Os17  1  0.504672  0.078237  0.238096  1
