# generated using pymatgen
data_Nd8Y12Si15Ag
_symmetry_space_group_name_H-M   'P 1'
_cell_length_a   7.77697412
_cell_length_b   7.80290742
_cell_length_c   14.48514979
_cell_angle_alpha   89.59500530
_cell_angle_beta   89.88642356
_cell_angle_gamma   90.10516303
_symmetry_Int_Tables_number   1
_chemical_formula_structural   Nd8Y12Si15Ag
_chemical_formula_sum   'Nd8 Y12 Si15 Ag1'
_cell_volume   878.97728695
_cell_formula_units_Z   1
loop_
 _symmetry_equiv_pos_site_id
 _symmetry_equiv_pos_as_xyz
  1  'x, y, z'
loop_
 _atom_site_type_symbol
 _atom_site_label
 _atom_site_symmetry_multiplicity
 _atom_site_fract_x
 _atom_site_fract_y
 _atom_site_fract_z
 _atom_site_occupancy
  Nd  Nd0  1  0.644660  0.989166  0.456320  1
  Nd  Nd1  1  0.365460  0.008498  0.956673  1
  Nd  Nd2  1  0.984572  0.631419  0.541787  1
  Nd  Nd3  1  0.491393  0.861549  0.206177  1
  Nd  Nd4  1  0.515623  0.146809  0.711437  1
  Nd  Nd5  1  0.863973  0.494883  0.796340  1
  Nd  Nd6  1  0.136538  0.505707  0.292349  1
  Nd  Nd7  1  0.010089  0.362881  0.044117  1
  Y  Y8  1  0.487748  0.361292  0.123891  1
  Y  Y9  1  0.980657  0.147329  0.631412  1
  Y  Y10  1  0.863064  0.010552  0.874990  1
  Y  Y11  1  0.134128  0.983109  0.372288  1
  Y  Y12  1  0.513652  0.631508  0.624005  1
  Y  Y13  1  0.364602  0.490263  0.877239  1
  Y  Y14  1  0.638038  0.507698  0.373914  1
  Y  Y15  1  0.011151  0.864991  0.124489  1
  Y  Y16  1  0.310212  0.317216  0.500147  1
  Y  Y17  1  0.188629  0.822158  0.750557  1
  Y  Y18  1  0.815813  0.183897  0.250459  1
  Y  Y19  1  0.684462  0.685724  0.000478  1
  Si  Si20  1  0.711831  0.066675  0.061489  1
  Si  Si21  1  0.935063  0.287014  0.437935  1
  Si  Si22  1  0.432386  0.209440  0.311197  1
  Si  Si23  1  0.567005  0.789623  0.810905  1
  Si  Si24  1  0.211145  0.436654  0.690340  1
  Si  Si25  1  0.787905  0.566264  0.187474  1
  Si  Si26  1  0.067244  0.710863  0.938669  1
  Si  Si27  1  0.798798  0.844098  0.690942  1
  Si  Si28  1  0.201012  0.155461  0.191353  1
  Si  Si29  1  0.841925  0.797423  0.305673  1
  Si  Si30  1  0.345308  0.694805  0.436636  1
  Si  Si31  1  0.658027  0.299547  0.942691  1
  Si  Si32  1  0.696751  0.340496  0.555267  1
  Si  Si33  1  0.299332  0.656946  0.057897  1
  Si  Si34  1  0.156705  0.205475  0.810894  1
  Ag  Ag35  1  0.285097  0.932567  0.561568  1
