# generated using pymatgen
data_LiHo4MnC8
_symmetry_space_group_name_H-M   'P 1'
_cell_length_a   6.60657178
_cell_length_b   6.60657189
_cell_length_c   6.60657037
_cell_angle_alpha   133.96751535
_cell_angle_beta   109.85196187
_cell_angle_gamma   88.06064971
_symmetry_Int_Tables_number   1
_chemical_formula_structural   LiHo4MnC8
_chemical_formula_sum   'Li1 Ho4 Mn1 C8'
_cell_volume   186.32013431
_cell_formula_units_Z   1
loop_
 _symmetry_equiv_pos_site_id
 _symmetry_equiv_pos_as_xyz
  1  'x, y, z'
loop_
 _atom_site_type_symbol
 _atom_site_label
 _atom_site_symmetry_multiplicity
 _atom_site_fract_x
 _atom_site_fract_y
 _atom_site_fract_z
 _atom_site_occupancy
  Li  Li0  1  0.000000  0.250000  0.250000  1
  Ho  Ho1  1  0.199404  0.353617  0.842778  1
  Ho  Ho2  1  0.800596  0.643374  0.154213  1
  Ho  Ho3  1  0.510838  0.856626  0.657222  1
  Ho  Ho4  1  0.489162  0.146383  0.345787  1
  Mn  Mn5  1  0.000000  0.750000  0.750000  1
  C  C6  1  0.785931  0.130277  0.658885  1
  C  C7  1  0.214069  0.872953  0.344345  1
  C  C8  1  0.471391  0.627047  0.841115  1
  C  C9  1  0.528609  0.369723  0.155655  1
  C  C10  1  0.903582  0.025094  0.761883  1
  C  C11  1  0.096418  0.858301  0.121512  1
  C  C12  1  0.263211  0.641699  0.738117  1
  C  C13  1  0.736789  0.474906  0.378488  1
