# generated using pymatgen
data_NaYPt4
_symmetry_space_group_name_H-M   'P 1'
_cell_length_a   5.40630794
_cell_length_b   5.40630780
_cell_length_c   5.40630700
_cell_angle_alpha   59.99999879
_cell_angle_beta   59.99999964
_cell_angle_gamma   60.00000598
_symmetry_Int_Tables_number   1
_chemical_formula_structural   NaYPt4
_chemical_formula_sum   'Na1 Y1 Pt4'
_cell_volume   111.73449432
_cell_formula_units_Z   1
loop_
 _symmetry_equiv_pos_site_id
 _symmetry_equiv_pos_as_xyz
  1  'x, y, z'
loop_
 _atom_site_type_symbol
 _atom_site_label
 _atom_site_symmetry_multiplicity
 _atom_site_fract_x
 _atom_site_fract_y
 _atom_site_fract_z
 _atom_site_occupancy
  Na  Na0  1  0.250000  0.250000  0.250000  1
  Y  Y1  1  0.000000  0.000000  0.000000  1
  Pt  Pt2  1  0.624727  0.624727  0.125819  1
  Pt  Pt3  1  0.624727  0.125819  0.624727  1
  Pt  Pt4  1  0.125819  0.624727  0.624727  1
  Pt  Pt5  1  0.624727  0.624727  0.624727  1
