# generated using pymatgen
data_Ca4Ga18(IrPd)3
_symmetry_space_group_name_H-M   'P 1'
_cell_length_a   7.65395530
_cell_length_b   7.65395558
_cell_length_c   9.53899600
_cell_angle_alpha   89.96654608
_cell_angle_beta   89.96655356
_cell_angle_gamma   119.79659363
_symmetry_Int_Tables_number   1
_chemical_formula_structural   Ca4Ga18(IrPd)3
_chemical_formula_sum   'Ca4 Ga18 Ir3 Pd3'
_cell_volume   484.94375871
_cell_formula_units_Z   1
loop_
 _symmetry_equiv_pos_site_id
 _symmetry_equiv_pos_as_xyz
  1  'x, y, z'
loop_
 _atom_site_type_symbol
 _atom_site_label
 _atom_site_symmetry_multiplicity
 _atom_site_fract_x
 _atom_site_fract_y
 _atom_site_fract_z
 _atom_site_occupancy
  Ca  Ca0  1  0.997064  0.669411  0.250057  1
  Ca  Ca1  1  0.002274  0.329670  0.750143  1
  Ca  Ca2  1  0.670330  0.997726  0.249857  1
  Ca  Ca3  1  0.330589  0.002936  0.749943  1
  Ga  Ga4  1  0.130141  0.129128  0.250128  1
  Ga  Ga5  1  0.870872  0.869859  0.749872  1
  Ga  Ga6  1  0.002956  0.335972  0.080474  1
  Ga  Ga7  1  0.003016  0.666444  0.919782  1
  Ga  Ga8  1  0.000849  0.662401  0.577968  1
  Ga  Ga9  1  0.337599  0.999151  0.422032  1
  Ga  Ga10  1  0.998746  0.337409  0.420975  1
  Ga  Ga11  1  0.662591  0.001254  0.579025  1
  Ga  Ga12  1  0.664028  0.997044  0.919526  1
  Ga  Ga13  1  0.333556  0.996984  0.080218  1
  Ga  Ga14  1  0.335577  0.335953  0.562783  1
  Ga  Ga15  1  0.664047  0.664423  0.437217  1
  Ga  Ga16  1  0.663488  0.665644  0.065875  1
  Ga  Ga17  1  0.334356  0.336512  0.934125  1
  Ga  Ga18  1  0.337545  0.545751  0.250343  1
  Ga  Ga19  1  0.662692  0.456312  0.748557  1
  Ga  Ga20  1  0.543688  0.337308  0.251443  1
  Ga  Ga21  1  0.454249  0.662455  0.749657  1
  Ir  Ir22  1  0.329139  0.670861  0.000000  1
  Ir  Ir23  1  0.328837  0.671163  0.500000  1
  Ir  Ir24  1  0.670804  0.329196  0.500000  1
  Pd  Pd25  1  0.671055  0.328945  0.000000  1
  Pd  Pd26  1  0.000427  0.999573  0.000000  1
  Pd  Pd27  1  0.999488  0.000512  0.500000  1
