# generated using pymatgen
data_Sc4CdPt11
_symmetry_space_group_name_H-M   'P 1'
_cell_length_a   4.05606800
_cell_length_b   5.68020825
_cell_length_c   11.40354281
_cell_angle_alpha   88.75029742
_cell_angle_beta   90.00000000
_cell_angle_gamma   90.00000000
_symmetry_Int_Tables_number   1
_chemical_formula_structural   Sc4CdPt11
_chemical_formula_sum   'Sc4 Cd1 Pt11'
_cell_volume   262.66727550
_cell_formula_units_Z   1
loop_
 _symmetry_equiv_pos_site_id
 _symmetry_equiv_pos_as_xyz
  1  'x, y, z'
loop_
 _atom_site_type_symbol
 _atom_site_label
 _atom_site_symmetry_multiplicity
 _atom_site_fract_x
 _atom_site_fract_y
 _atom_site_fract_z
 _atom_site_occupancy
  Sc  Sc0  1  0.500000  0.753179  0.375128  1
  Sc  Sc1  1  0.500000  0.725429  0.864536  1
  Sc  Sc2  1  0.500000  0.274571  0.135464  1
  Sc  Sc3  1  0.500000  0.246821  0.624872  1
  Cd  Cd4  1  0.000000  0.000000  0.000000  1
  Pt  Pt5  1  0.000000  0.009574  0.250491  1
  Pt  Pt6  1  0.000000  0.990426  0.749509  1
  Pt  Pt7  1  0.000000  0.500000  0.000000  1
  Pt  Pt8  1  0.000000  0.500000  0.500000  1
  Pt  Pt9  1  0.000000  0.510577  0.250344  1
  Pt  Pt10  1  0.000000  0.489423  0.749656  1
  Pt  Pt11  1  0.500000  0.250872  0.377320  1
  Pt  Pt12  1  0.500000  0.240088  0.875911  1
  Pt  Pt13  1  0.500000  0.759912  0.124089  1
  Pt  Pt14  1  0.500000  0.749128  0.622680  1
  Pt  Pt15  1  0.000000  0.000000  0.500000  1
