# generated using pymatgen
data_Nd8Dy12Sn9Bi7
_symmetry_space_group_name_H-M   'P 1'
_cell_length_a   8.28758908
_cell_length_b   8.30084690
_cell_length_c   15.76934500
_cell_angle_alpha   89.92959549
_cell_angle_beta   90.02929226
_cell_angle_gamma   89.95436971
_symmetry_Int_Tables_number   1
_chemical_formula_structural   Nd8Dy12Sn9Bi7
_chemical_formula_sum   'Nd8 Dy12 Sn9 Bi7'
_cell_volume   1084.83514352
_cell_formula_units_Z   1
loop_
 _symmetry_equiv_pos_site_id
 _symmetry_equiv_pos_as_xyz
  1  'x, y, z'
loop_
 _atom_site_type_symbol
 _atom_site_label
 _atom_site_symmetry_multiplicity
 _atom_site_fract_x
 _atom_site_fract_y
 _atom_site_fract_z
 _atom_site_occupancy
  Nd  Nd0  1  0.463695  0.821640  0.895560  1
  Nd  Nd1  1  0.960278  0.675099  0.605649  1
  Nd  Nd2  1  0.539217  0.175118  0.393875  1
  Nd  Nd3  1  0.033906  0.327930  0.104405  1
  Nd  Nd4  1  0.539054  0.179727  0.105032  1
  Nd  Nd5  1  0.039171  0.325382  0.393972  1
  Nd  Nd6  1  0.460257  0.825810  0.606302  1
  Nd  Nd7  1  0.957612  0.672128  0.896033  1
  Dy  Dy8  1  0.625932  0.342619  0.877139  1
  Dy  Dy9  1  0.123907  0.160020  0.626037  1
  Dy  Dy10  1  0.376664  0.660882  0.374822  1
  Dy  Dy11  1  0.873940  0.835625  0.124060  1
  Dy  Dy12  1  0.381816  0.659108  0.124302  1
  Dy  Dy13  1  0.876918  0.839678  0.374535  1
  Dy  Dy14  1  0.623167  0.339595  0.625032  1
  Dy  Dy15  1  0.123339  0.159419  0.874934  1
  Dy  Dy16  1  0.290559  0.500549  0.750385  1
  Dy  Dy17  1  0.790316  0.998775  0.750517  1
  Dy  Dy18  1  0.709490  0.499937  0.246520  1
  Dy  Dy19  1  0.209325  0.001180  0.248961  1
  Sn  Sn20  1  0.717154  0.532543  0.044187  1
  Sn  Sn21  1  0.653723  0.642119  0.749753  1
  Sn  Sn22  1  0.153366  0.856348  0.750824  1
  Sn  Sn23  1  0.344911  0.358267  0.250231  1
  Sn  Sn24  1  0.845935  0.141780  0.249718  1
  Sn  Sn25  1  0.426651  0.128857  0.751118  1
  Sn  Sn26  1  0.925611  0.371362  0.749947  1
  Sn  Sn27  1  0.574209  0.872750  0.250353  1
  Sn  Sn28  1  0.075652  0.629011  0.250059  1
  Bi  Bi29  1  0.217320  0.967400  0.043839  1
  Bi  Bi30  1  0.716830  0.532451  0.455466  1
  Bi  Bi31  1  0.783372  0.032513  0.543872  1
  Bi  Bi32  1  0.284116  0.465992  0.956427  1
  Bi  Bi33  1  0.783236  0.032333  0.955976  1
  Bi  Bi34  1  0.282519  0.467809  0.543998  1
  Bi  Bi35  1  0.216834  0.968241  0.456159  1
