# generated using pymatgen
data_Dy2Co7(P2Ru)3
_symmetry_space_group_name_H-M   'P 1'
_cell_length_a   3.72745500
_cell_length_b   10.44858300
_cell_length_c   11.85977200
_cell_angle_alpha   90.00000000
_cell_angle_beta   90.00000000
_cell_angle_gamma   90.00000000
_symmetry_Int_Tables_number   1
_chemical_formula_structural   Dy2Co7(P2Ru)3
_chemical_formula_sum   'Dy4 Co14 P12 Ru6'
_cell_volume   461.89806831
_cell_formula_units_Z   2
loop_
 _symmetry_equiv_pos_site_id
 _symmetry_equiv_pos_as_xyz
  1  'x, y, z'
loop_
 _atom_site_type_symbol
 _atom_site_label
 _atom_site_symmetry_multiplicity
 _atom_site_fract_x
 _atom_site_fract_y
 _atom_site_fract_z
 _atom_site_occupancy
  Dy  Dy0  1  0.250000  0.586891  0.705245  1
  Dy  Dy1  1  0.250000  0.913109  0.205245  1
  Dy  Dy2  1  0.750000  0.415051  0.292227  1
  Dy  Dy3  1  0.750000  0.084949  0.792227  1
  Co  Co4  1  0.750000  0.597748  0.512855  1
  Co  Co5  1  0.750000  0.902252  0.012855  1
  Co  Co6  1  0.250000  0.224898  0.179296  1
  Co  Co7  1  0.250000  0.275102  0.679296  1
  Co  Co8  1  0.750000  0.777201  0.822375  1
  Co  Co9  1  0.750000  0.722799  0.322375  1
  Co  Co10  1  0.250000  0.884357  0.700188  1
  Co  Co11  1  0.250000  0.615643  0.200188  1
  Co  Co12  1  0.750000  0.113548  0.298707  1
  Co  Co13  1  0.750000  0.386452  0.798707  1
  Co  Co14  1  0.250000  0.465194  0.931268  1
  Co  Co15  1  0.250000  0.034806  0.431268  1
  Co  Co16  1  0.750000  0.537339  0.067789  1
  Co  Co17  1  0.750000  0.962661  0.567789  1
  P  P18  1  0.250000  0.422378  0.111828  1
  P  P19  1  0.250000  0.077622  0.611828  1
  P  P20  1  0.750000  0.579299  0.887356  1
  P  P21  1  0.750000  0.920701  0.387356  1
  P  P22  1  0.250000  0.272999  0.866545  1
  P  P23  1  0.250000  0.227001  0.366545  1
  P  P24  1  0.750000  0.729334  0.132685  1
  P  P25  1  0.750000  0.770666  0.632685  1
  P  P26  1  0.250000  0.600733  0.386980  1
  P  P27  1  0.250000  0.899267  0.886980  1
  P  P28  1  0.750000  0.402407  0.612512  1
  P  P29  1  0.750000  0.097593  0.112512  1
  Ru  Ru30  1  0.250000  0.714061  0.989773  1
  Ru  Ru31  1  0.250000  0.785939  0.489773  1
  Ru  Ru32  1  0.750000  0.290044  0.013359  1
  Ru  Ru33  1  0.750000  0.209956  0.513359  1
  Ru  Ru34  1  0.250000  0.409048  0.489011  1
  Ru  Ru35  1  0.250000  0.090952  0.989011  1
