# generated using pymatgen
data_Hf6Fe16Si5Ge2
_symmetry_space_group_name_H-M   'P 1'
_cell_length_a   8.09290427
_cell_length_b   8.06912211
_cell_length_c   8.09290431
_cell_angle_alpha   60.09715152
_cell_angle_beta   59.92581234
_cell_angle_gamma   60.09715555
_symmetry_Int_Tables_number   1
_chemical_formula_structural   Hf6Fe16Si5Ge2
_chemical_formula_sum   'Hf6 Fe16 Si5 Ge2'
_cell_volume   374.03435172
_cell_formula_units_Z   1
loop_
 _symmetry_equiv_pos_site_id
 _symmetry_equiv_pos_as_xyz
  1  'x, y, z'
loop_
 _atom_site_type_symbol
 _atom_site_label
 _atom_site_symmetry_multiplicity
 _atom_site_fract_x
 _atom_site_fract_y
 _atom_site_fract_z
 _atom_site_occupancy
  Hf  Hf0  1  0.293885  0.703777  0.706115  1
  Hf  Hf1  1  0.706115  0.703777  0.293885  1
  Hf  Hf2  1  0.293885  0.296223  0.706115  1
  Hf  Hf3  1  0.706115  0.296223  0.293885  1
  Hf  Hf4  1  0.703363  0.296637  0.703363  1
  Hf  Hf5  1  0.296637  0.703363  0.296637  1
  Fe  Fe6  1  0.877811  0.877982  0.877811  1
  Fe  Fe7  1  0.026422  0.325150  0.323276  1
  Fe  Fe8  1  0.116445  0.125415  0.632724  1
  Fe  Fe9  1  0.322237  0.028238  0.322237  1
  Fe  Fe10  1  0.322237  0.327287  0.322237  1
  Fe  Fe11  1  0.676724  0.674850  0.973578  1
  Fe  Fe12  1  0.883555  0.874585  0.367276  1
  Fe  Fe13  1  0.677763  0.672713  0.677763  1
  Fe  Fe14  1  0.677763  0.971762  0.677763  1
  Fe  Fe15  1  0.323276  0.325150  0.026422  1
  Fe  Fe16  1  0.877811  0.366397  0.877811  1
  Fe  Fe17  1  0.632724  0.125415  0.116445  1
  Fe  Fe18  1  0.122189  0.633603  0.122189  1
  Fe  Fe19  1  0.122189  0.122018  0.122189  1
  Fe  Fe20  1  0.973578  0.674850  0.676724  1
  Fe  Fe21  1  0.367276  0.874585  0.883555  1
  Si  Si22  1  0.000000  0.000000  0.500000  1
  Si  Si23  1  0.000000  0.500000  0.000000  1
  Si  Si24  1  0.000000  0.500000  0.500000  1
  Si  Si25  1  0.500000  0.000000  0.000000  1
  Si  Si26  1  0.500000  0.500000  0.000000  1
  Ge  Ge27  1  0.000000  0.000000  0.000000  1
  Ge  Ge28  1  0.500000  0.000000  0.500000  1
