# generated using pymatgen
data_YScSb5
_symmetry_space_group_name_H-M   'P 1'
_cell_length_a   4.20130300
_cell_length_b   13.07004413
_cell_length_c   14.24012980
_cell_angle_alpha   78.75912011
_cell_angle_beta   90.00000000
_cell_angle_gamma   90.00000000
_symmetry_Int_Tables_number   1
_chemical_formula_structural   YScSb5
_chemical_formula_sum   'Y4 Sc4 Sb20'
_cell_volume   766.94229775
_cell_formula_units_Z   4
loop_
 _symmetry_equiv_pos_site_id
 _symmetry_equiv_pos_as_xyz
  1  'x, y, z'
loop_
 _atom_site_type_symbol
 _atom_site_label
 _atom_site_symmetry_multiplicity
 _atom_site_fract_x
 _atom_site_fract_y
 _atom_site_fract_z
 _atom_site_occupancy
  Y  Y0  1  0.250000  0.669296  0.576430  1
  Y  Y1  1  0.750000  0.330704  0.423570  1
  Y  Y2  1  0.250000  0.953520  0.354864  1
  Y  Y3  1  0.750000  0.046480  0.645136  1
  Sc  Sc4  1  0.250000  0.396763  0.772775  1
  Sc  Sc5  1  0.750000  0.603237  0.227225  1
  Sc  Sc6  1  0.250000  0.657383  0.858745  1
  Sc  Sc7  1  0.750000  0.342617  0.141255  1
  Sb  Sb8  1  0.250000  0.148050  0.780613  1
  Sb  Sb9  1  0.750000  0.851950  0.219387  1
  Sb  Sb10  1  0.250000  0.143161  0.482954  1
  Sb  Sb11  1  0.750000  0.856839  0.517046  1
  Sb  Sb12  1  0.250000  0.162714  0.161036  1
  Sb  Sb13  1  0.750000  0.837286  0.838964  1
  Sb  Sb14  1  0.250000  0.422000  0.974888  1
  Sb  Sb15  1  0.750000  0.578000  0.025112  1
  Sb  Sb16  1  0.750000  0.028366  0.913514  1
  Sb  Sb17  1  0.250000  0.971634  0.086486  1
  Sb  Sb18  1  0.750000  0.142980  0.315648  1
  Sb  Sb19  1  0.250000  0.857020  0.684352  1
  Sb  Sb20  1  0.750000  0.280226  0.936461  1
  Sb  Sb21  1  0.250000  0.719774  0.063539  1
  Sb  Sb22  1  0.750000  0.289498  0.659247  1
  Sb  Sb23  1  0.250000  0.710502  0.340753  1
  Sb  Sb24  1  0.750000  0.572980  0.742054  1
  Sb  Sb25  1  0.250000  0.427020  0.257946  1
  Sb  Sb26  1  0.750000  0.570369  0.443628  1
  Sb  Sb27  1  0.250000  0.429631  0.556372  1
