# generated using pymatgen
data_Nd8Cd2CoPd
_symmetry_space_group_name_H-M   'P 1'
_cell_length_a   9.93802653
_cell_length_b   9.93802646
_cell_length_c   9.95149600
_cell_angle_alpha   59.95516180
_cell_angle_beta   59.95516203
_cell_angle_gamma   60.12757318
_symmetry_Int_Tables_number   1
_chemical_formula_structural   Nd8Cd2CoPd
_chemical_formula_sum   'Nd16 Cd4 Co2 Pd2'
_cell_volume   695.17702267
_cell_formula_units_Z   2
loop_
 _symmetry_equiv_pos_site_id
 _symmetry_equiv_pos_as_xyz
  1  'x, y, z'
loop_
 _atom_site_type_symbol
 _atom_site_label
 _atom_site_symmetry_multiplicity
 _atom_site_fract_x
 _atom_site_fract_y
 _atom_site_fract_z
 _atom_site_occupancy
  Nd  Nd0  1  0.345043  0.345043  0.359517  1
  Nd  Nd1  1  0.345043  0.345043  0.950397  1
  Nd  Nd2  1  0.339952  0.956789  0.351629  1
  Nd  Nd3  1  0.956789  0.339952  0.351629  1
  Nd  Nd4  1  0.820822  0.189299  0.189800  1
  Nd  Nd5  1  0.189299  0.820822  0.800079  1
  Nd  Nd6  1  0.189299  0.820822  0.189800  1
  Nd  Nd7  1  0.820822  0.189299  0.800079  1
  Nd  Nd8  1  0.188320  0.188320  0.811680  1
  Nd  Nd9  1  0.808321  0.808321  0.191679  1
  Nd  Nd10  1  0.936400  0.561632  0.564671  1
  Nd  Nd11  1  0.561632  0.936400  0.937297  1
  Nd  Nd12  1  0.561632  0.936400  0.564671  1
  Nd  Nd13  1  0.936400  0.561632  0.937297  1
  Nd  Nd14  1  0.561729  0.561729  0.938271  1
  Nd  Nd15  1  0.935700  0.935700  0.564300  1
  Cd  Cd16  1  0.579942  0.579942  0.579590  1
  Cd  Cd17  1  0.579942  0.579942  0.260528  1
  Cd  Cd18  1  0.581243  0.258502  0.580128  1
  Cd  Cd19  1  0.258502  0.581243  0.580128  1
  Co  Co20  1  0.142769  0.142769  0.141877  1
  Co  Co21  1  0.142769  0.142769  0.572584  1
  Pd  Pd22  1  0.145139  0.572492  0.141184  1
  Pd  Pd23  1  0.572492  0.145139  0.141184  1
