# generated using pymatgen
data_MgV9S16
_symmetry_space_group_name_H-M   'P 1'
_cell_length_a   6.35142100
_cell_length_b   6.35142044
_cell_length_c   12.30264500
_cell_angle_alpha   90.00000000
_cell_angle_beta   90.00000000
_cell_angle_gamma   120.00000813
_symmetry_Int_Tables_number   1
_chemical_formula_structural   MgV9S16
_chemical_formula_sum   'Mg1 V9 S16'
_cell_volume   429.80439433
_cell_formula_units_Z   1
loop_
 _symmetry_equiv_pos_site_id
 _symmetry_equiv_pos_as_xyz
  1  'x, y, z'
loop_
 _atom_site_type_symbol
 _atom_site_label
 _atom_site_symmetry_multiplicity
 _atom_site_fract_x
 _atom_site_fract_y
 _atom_site_fract_z
 _atom_site_occupancy
  Mg  Mg0  1  0.000000  0.000000  0.500000  1
  V  V1  1  0.505525  0.494475  0.762943  1
  V  V2  1  0.011051  0.505525  0.237057  1
  V  V3  1  0.494475  0.988949  0.237057  1
  V  V4  1  0.505525  0.011051  0.762943  1
  V  V5  1  0.988949  0.494475  0.762943  1
  V  V6  1  0.494475  0.505525  0.237057  1
  V  V7  1  0.000000  0.000000  0.762347  1
  V  V8  1  0.000000  0.000000  0.237653  1
  V  V9  1  0.000000  0.000000  0.000000  1
  S  S10  1  0.831737  0.168263  0.357109  1
  S  S11  1  0.831737  0.663474  0.357109  1
  S  S12  1  0.336526  0.168263  0.357109  1
  S  S13  1  0.666881  0.833441  0.881790  1
  S  S14  1  0.168263  0.336526  0.642891  1
  S  S15  1  0.166559  0.833441  0.881790  1
  S  S16  1  0.166559  0.333119  0.881790  1
  S  S17  1  0.833441  0.166559  0.118210  1
  S  S18  1  0.333119  0.166559  0.118210  1
  S  S19  1  0.663474  0.831737  0.642891  1
  S  S20  1  0.333333  0.666667  0.115619  1
  S  S21  1  0.666667  0.333333  0.640405  1
  S  S22  1  0.666667  0.333333  0.884381  1
  S  S23  1  0.333333  0.666667  0.359595  1
  S  S24  1  0.833441  0.666881  0.118210  1
  S  S25  1  0.168263  0.831737  0.642891  1
