# generated using pymatgen
data_KBa(AuO2)4
_symmetry_space_group_name_H-M   'P 1'
_cell_length_a   6.96583181
_cell_length_b   6.96583134
_cell_length_c   6.96583099
_cell_angle_alpha   123.39414600
_cell_angle_beta   123.39415132
_cell_angle_gamma   84.21528601
_symmetry_Int_Tables_number   1
_chemical_formula_structural   KBa(AuO2)4
_chemical_formula_sum   'K1 Ba1 Au4 O8'
_cell_volume   225.48463299
_cell_formula_units_Z   1
loop_
 _symmetry_equiv_pos_site_id
 _symmetry_equiv_pos_as_xyz
  1  'x, y, z'
loop_
 _atom_site_type_symbol
 _atom_site_label
 _atom_site_symmetry_multiplicity
 _atom_site_fract_x
 _atom_site_fract_y
 _atom_site_fract_z
 _atom_site_occupancy
  K  K0  1  0.750000  0.250000  0.500000  1
  Ba  Ba1  1  0.000000  0.000000  0.000000  1
  Au  Au2  1  0.375157  0.626706  0.751822  1
  Au  Au3  1  0.373294  0.125116  0.748451  1
  Au  Au4  1  0.874884  0.623335  0.248178  1
  Au  Au5  1  0.376665  0.624843  0.251549  1
  O  O6  1  0.057245  0.441940  0.091743  1
  O  O7  1  0.715305  0.301827  0.106635  1
  O  O8  1  0.195193  0.608670  0.893365  1
  O  O9  1  0.350197  0.965503  0.908257  1
  O  O10  1  0.698173  0.804807  0.413477  1
  O  O11  1  0.034497  0.942755  0.384694  1
  O  O12  1  0.391330  0.284695  0.586523  1
  O  O13  1  0.558060  0.649803  0.615306  1
