# generated using pymatgen
data_Dy2Y2AlOs7
_symmetry_space_group_name_H-M   'P 1'
_cell_length_a   5.36986300
_cell_length_b   5.36986481
_cell_length_c   8.72692800
_cell_angle_alpha   90.00000000
_cell_angle_beta   90.00000000
_cell_angle_gamma   120.00000731
_symmetry_Int_Tables_number   1
_chemical_formula_structural   Dy2Y2AlOs7
_chemical_formula_sum   'Dy2 Y2 Al1 Os7'
_cell_volume   217.93076873
_cell_formula_units_Z   1
loop_
 _symmetry_equiv_pos_site_id
 _symmetry_equiv_pos_as_xyz
  1  'x, y, z'
loop_
 _atom_site_type_symbol
 _atom_site_label
 _atom_site_symmetry_multiplicity
 _atom_site_fract_x
 _atom_site_fract_y
 _atom_site_fract_z
 _atom_site_occupancy
  Dy  Dy0  1  0.666667  0.333333  0.935750  1
  Dy  Dy1  1  0.333333  0.666667  0.064250  1
  Y  Y2  1  0.333333  0.666667  0.429062  1
  Y  Y3  1  0.666667  0.333333  0.570938  1
  Al  Al4  1  0.000000  0.000000  0.500000  1
  Os  Os5  1  0.000000  0.000000  0.000000  1
  Os  Os6  1  0.828762  0.171238  0.250177  1
  Os  Os7  1  0.828762  0.657525  0.250177  1
  Os  Os8  1  0.342475  0.171238  0.250177  1
  Os  Os9  1  0.171238  0.828762  0.749823  1
  Os  Os10  1  0.171238  0.342475  0.749823  1
  Os  Os11  1  0.657525  0.828762  0.749823  1
