# generated using pymatgen
data_K2Nd4Ag4Se9
_symmetry_space_group_name_H-M   'P 1'
_cell_length_a   7.82880938
_cell_length_b   7.82881049
_cell_length_c   17.31447570
_cell_angle_alpha   70.88961920
_cell_angle_beta   70.88961679
_cell_angle_gamma   32.43425981
_symmetry_Int_Tables_number   1
_chemical_formula_structural   K2Nd4Ag4Se9
_chemical_formula_sum   'K2 Nd4 Ag4 Se9'
_cell_volume   535.05536740
_cell_formula_units_Z   1
loop_
 _symmetry_equiv_pos_site_id
 _symmetry_equiv_pos_as_xyz
  1  'x, y, z'
loop_
 _atom_site_type_symbol
 _atom_site_label
 _atom_site_symmetry_multiplicity
 _atom_site_fract_x
 _atom_site_fract_y
 _atom_site_fract_z
 _atom_site_occupancy
  K  K0  1  0.032013  0.032013  0.730176  1
  K  K1  1  0.967987  0.967987  0.269824  1
  Nd  Nd2  1  0.231474  0.231474  0.893594  1
  Nd  Nd3  1  0.346190  0.346190  0.557268  1
  Nd  Nd4  1  0.653810  0.653810  0.442732  1
  Nd  Nd5  1  0.768526  0.768526  0.106406  1
  Ag  Ag6  1  0.422696  0.422696  0.967200  1
  Ag  Ag7  1  0.761362  0.761362  0.726670  1
  Ag  Ag8  1  0.238638  0.238638  0.273330  1
  Ag  Ag9  1  0.577304  0.577304  0.032800  1
  Se  Se10  1  0.854112  0.854112  0.920904  1
  Se  Se11  1  0.609442  0.609442  0.867765  1
  Se  Se12  1  0.365022  0.365022  0.721188  1
  Se  Se13  1  0.701283  0.701283  0.598924  1
  Se  Se14  1  0.000000  0.000000  0.500000  1
  Se  Se15  1  0.298717  0.298717  0.401076  1
  Se  Se16  1  0.634978  0.634978  0.278812  1
  Se  Se17  1  0.390558  0.390558  0.132235  1
  Se  Se18  1  0.145888  0.145888  0.079096  1
