# generated using pymatgen
data_Hf3AlSn2IrRh2
_symmetry_space_group_name_H-M   'P 1'
_cell_length_a   7.45842343
_cell_length_b   7.46351409
_cell_length_c   3.50686800
_cell_angle_alpha   90.00000000
_cell_angle_beta   90.00000000
_cell_angle_gamma   121.21428375
_symmetry_Int_Tables_number   1
_chemical_formula_structural   Hf3AlSn2IrRh2
_chemical_formula_sum   'Hf3 Al1 Sn2 Ir1 Rh2'
_cell_volume   166.95342125
_cell_formula_units_Z   1
loop_
 _symmetry_equiv_pos_site_id
 _symmetry_equiv_pos_as_xyz
  1  'x, y, z'
loop_
 _atom_site_type_symbol
 _atom_site_label
 _atom_site_symmetry_multiplicity
 _atom_site_fract_x
 _atom_site_fract_y
 _atom_site_fract_z
 _atom_site_occupancy
  Hf  Hf0  1  0.409569  0.410892  0.500000  1
  Hf  Hf1  1  0.600599  0.977572  0.500000  1
  Hf  Hf2  1  0.978545  0.600914  0.500000  1
  Al  Al3  1  0.734701  0.733471  0.000000  1
  Sn  Sn4  1  0.270170  0.001017  0.000000  1
  Sn  Sn5  1  0.996189  0.267744  0.000000  1
  Ir  Ir6  1  0.350850  0.671877  0.000000  1
  Rh  Rh7  1  0.672715  0.350096  0.000000  1
  Rh  Rh8  1  0.986660  0.986417  0.500000  1
