# generated using pymatgen
data_K8TaGaSe8
_symmetry_space_group_name_H-M   'P 1'
_cell_length_a   8.43616775
_cell_length_b   10.00658700
_cell_length_c   14.88271159
_cell_angle_alpha   90.00000000
_cell_angle_beta   91.59171569
_cell_angle_gamma   90.00000000
_symmetry_Int_Tables_number   1
_chemical_formula_structural   K8TaGaSe8
_chemical_formula_sum   'K16 Ta2 Ga2 Se16'
_cell_volume   1255.87275735
_cell_formula_units_Z   2
loop_
 _symmetry_equiv_pos_site_id
 _symmetry_equiv_pos_as_xyz
  1  'x, y, z'
loop_
 _atom_site_type_symbol
 _atom_site_label
 _atom_site_symmetry_multiplicity
 _atom_site_fract_x
 _atom_site_fract_y
 _atom_site_fract_z
 _atom_site_occupancy
  K  K0  1  0.000000  0.000000  0.000000  1
  K  K1  1  0.500000  0.000000  0.500000  1
  K  K2  1  0.000000  0.500000  0.000000  1
  K  K3  1  0.500000  0.500000  0.500000  1
  K  K4  1  0.992546  0.750000  0.442781  1
  K  K5  1  0.475191  0.250000  0.087289  1
  K  K6  1  0.007454  0.250000  0.557219  1
  K  K7  1  0.524809  0.750000  0.912711  1
  K  K8  1  0.849055  0.063148  0.280890  1
  K  K9  1  0.338982  0.963691  0.230559  1
  K  K10  1  0.150945  0.563148  0.719110  1
  K  K11  1  0.661018  0.463691  0.769441  1
  K  K12  1  0.150945  0.936852  0.719110  1
  K  K13  1  0.661018  0.036309  0.769441  1
  K  K14  1  0.849055  0.436852  0.280890  1
  K  K15  1  0.338982  0.536309  0.230559  1
  Ta  Ta16  1  0.740625  0.750000  0.164286  1
  Ta  Ta17  1  0.259375  0.250000  0.835714  1
  Ga  Ga18  1  0.759744  0.750000  0.669109  1
  Ga  Ga19  1  0.240256  0.250000  0.330891  1
  Se  Se20  1  0.972556  0.250000  0.829273  1
  Se  Se21  1  0.533387  0.250000  0.316560  1
  Se  Se22  1  0.466613  0.750000  0.683440  1
  Se  Se23  1  0.027444  0.750000  0.170727  1
  Se  Se24  1  0.647797  0.552108  0.086823  1
  Se  Se25  1  0.158248  0.451194  0.408598  1
  Se  Se26  1  0.352203  0.052108  0.913177  1
  Se  Se27  1  0.841752  0.951194  0.591402  1
  Se  Se28  1  0.352203  0.447892  0.913177  1
  Se  Se29  1  0.841752  0.548806  0.591402  1
  Se  Se30  1  0.647797  0.947892  0.086823  1
  Se  Se31  1  0.158248  0.048806  0.408598  1
  Se  Se32  1  0.635670  0.750000  0.313762  1
  Se  Se33  1  0.118361  0.250000  0.172478  1
  Se  Se34  1  0.364330  0.250000  0.686238  1
  Se  Se35  1  0.881639  0.750000  0.827522  1
