# generated using pymatgen
data_Mn3Si3(NiMo2)2
_symmetry_space_group_name_H-M   'P 1'
_cell_length_a   4.76031803
_cell_length_b   4.76031784
_cell_length_c   7.72530900
_cell_angle_alpha   90.00000000
_cell_angle_beta   90.00000000
_cell_angle_gamma   119.99745246
_symmetry_Int_Tables_number   1
_chemical_formula_structural   Mn3Si3(NiMo2)2
_chemical_formula_sum   'Mn3 Si3 Ni2 Mo4'
_cell_volume   151.61059731
_cell_formula_units_Z   1
loop_
 _symmetry_equiv_pos_site_id
 _symmetry_equiv_pos_as_xyz
  1  'x, y, z'
loop_
 _atom_site_type_symbol
 _atom_site_label
 _atom_site_symmetry_multiplicity
 _atom_site_fract_x
 _atom_site_fract_y
 _atom_site_fract_z
 _atom_site_occupancy
  Mn  Mn0  1  0.824454  0.175546  0.000000  1
  Mn  Mn1  1  0.338461  0.173068  0.000000  1
  Mn  Mn2  1  0.826932  0.661539  0.000000  1
  Si  Si3  1  0.989810  0.010190  0.249779  1
  Si  Si4  1  0.989810  0.010190  0.750221  1
  Si  Si5  1  0.187457  0.812543  0.500000  1
  Ni  Ni6  1  0.675574  0.823685  0.500000  1
  Ni  Ni7  1  0.176315  0.324426  0.500000  1
  Mo  Mo8  1  0.330335  0.669665  0.817132  1
  Mo  Mo9  1  0.665271  0.334729  0.689313  1
  Mo  Mo10  1  0.665271  0.334729  0.310687  1
  Mo  Mo11  1  0.330335  0.669665  0.182868  1
