# generated using pymatgen
data_LiY3Si2Ag2Sn
_symmetry_space_group_name_H-M   'P 1'
_cell_length_a   7.17826626
_cell_length_b   7.12768537
_cell_length_c   4.30274200
_cell_angle_alpha   90.00000000
_cell_angle_beta   90.00000000
_cell_angle_gamma   119.76717067
_symmetry_Int_Tables_number   1
_chemical_formula_structural   LiY3Si2Ag2Sn
_chemical_formula_sum   'Li1 Y3 Si2 Ag2 Sn1'
_cell_volume   191.09889044
_cell_formula_units_Z   1
loop_
 _symmetry_equiv_pos_site_id
 _symmetry_equiv_pos_as_xyz
  1  'x, y, z'
loop_
 _atom_site_type_symbol
 _atom_site_label
 _atom_site_symmetry_multiplicity
 _atom_site_fract_x
 _atom_site_fract_y
 _atom_site_fract_z
 _atom_site_occupancy
  Li  Li0  1  0.000000  0.752478  0.000000  1
  Y  Y1  1  0.000000  0.434312  0.500000  1
  Y  Y2  1  0.563136  0.564314  0.500000  1
  Y  Y3  1  0.436864  0.001178  0.500000  1
  Si  Si4  1  0.329776  0.665113  0.000000  1
  Si  Si5  1  0.670224  0.335336  0.000000  1
  Ag  Ag6  1  0.260127  0.258400  0.000000  1
  Ag  Ag7  1  0.739873  0.998272  0.000000  1
  Sn  Sn8  1  0.000000  0.990597  0.500000  1
