# generated using pymatgen
data_Ce8Fe(Si4Pt)3
_symmetry_space_group_name_H-M   'P 1'
_cell_length_a   8.22781500
_cell_length_b   8.22781578
_cell_length_c   8.36566500
_cell_angle_alpha   90.00000000
_cell_angle_beta   90.00000000
_cell_angle_gamma   119.99999283
_symmetry_Int_Tables_number   1
_chemical_formula_structural   Ce8Fe(Si4Pt)3
_chemical_formula_sum   'Ce8 Fe1 Si12 Pt3'
_cell_volume   490.45617871
_cell_formula_units_Z   1
loop_
 _symmetry_equiv_pos_site_id
 _symmetry_equiv_pos_as_xyz
  1  'x, y, z'
loop_
 _atom_site_type_symbol
 _atom_site_label
 _atom_site_symmetry_multiplicity
 _atom_site_fract_x
 _atom_site_fract_y
 _atom_site_fract_z
 _atom_site_occupancy
  Ce  Ce0  1  0.000000  0.000000  0.250276  1
  Ce  Ce1  1  0.000000  0.000000  0.749318  1
  Ce  Ce2  1  0.496429  0.503571  0.255989  1
  Ce  Ce3  1  0.496429  0.992856  0.255989  1
  Ce  Ce4  1  0.007144  0.503571  0.255989  1
  Ce  Ce5  1  0.496722  0.503278  0.744380  1
  Ce  Ce6  1  0.496722  0.993443  0.744380  1
  Ce  Ce7  1  0.006557  0.503278  0.744380  1
  Fe  Fe8  1  0.333333  0.666667  0.498868  1
  Si  Si9  1  0.170469  0.829531  0.501126  1
  Si  Si10  1  0.170469  0.340939  0.501126  1
  Si  Si11  1  0.659061  0.829531  0.501126  1
  Si  Si12  1  0.836518  0.163482  0.499382  1
  Si  Si13  1  0.836518  0.673035  0.499382  1
  Si  Si14  1  0.326965  0.163482  0.499382  1
  Si  Si15  1  0.834391  0.165609  0.000715  1
  Si  Si16  1  0.834391  0.668782  0.000715  1
  Si  Si17  1  0.331218  0.165609  0.000715  1
  Si  Si18  1  0.164491  0.835509  0.998691  1
  Si  Si19  1  0.164491  0.328984  0.998691  1
  Si  Si20  1  0.671016  0.835509  0.998691  1
  Pt  Pt21  1  0.666667  0.333333  0.501601  1
  Pt  Pt22  1  0.666667  0.333333  0.998900  1
  Pt  Pt23  1  0.333333  0.666667  0.000191  1
