# generated using pymatgen
data_Ce3PuC6
_symmetry_space_group_name_H-M   'P 1'
_cell_length_a   7.24947824
_cell_length_b   7.26215632
_cell_length_c   7.23432685
_cell_angle_alpha   109.46611637
_cell_angle_beta   109.39496795
_cell_angle_gamma   109.67245976
_symmetry_Int_Tables_number   1
_chemical_formula_structural   Ce3PuC6
_chemical_formula_sum   'Ce6 Pu2 C12'
_cell_volume   292.75364386
_cell_formula_units_Z   2
loop_
 _symmetry_equiv_pos_site_id
 _symmetry_equiv_pos_as_xyz
  1  'x, y, z'
loop_
 _atom_site_type_symbol
 _atom_site_label
 _atom_site_symmetry_multiplicity
 _atom_site_fract_x
 _atom_site_fract_y
 _atom_site_fract_z
 _atom_site_occupancy
  Ce  Ce0  1  0.599371  0.596559  0.598695  1
  Ce  Ce1  1  0.500676  0.997864  0.401305  1
  Ce  Ce2  1  0.998828  0.399747  0.500910  1
  Ce  Ce3  1  0.400411  0.502850  0.002821  1
  Ce  Ce4  1  0.997918  0.898837  0.499090  1
  Ce  Ce5  1  0.897589  0.500030  0.997179  1
  Pu  Pu6  1  0.500059  0.997779  0.894742  1
  Pu  Pu7  1  0.105316  0.103035  0.105258  1
  C  C8  1  0.799135  0.062777  0.775428  1
  C  C9  1  0.950571  0.205074  0.743867  1
  C  C10  1  0.243277  0.540204  0.295079  1
  C  C11  1  0.291027  0.226063  0.517998  1
  C  C12  1  0.749631  0.960724  0.201669  1
  C  C13  1  0.210411  0.750944  0.954232  1
  C  C14  1  0.706705  0.461207  0.256133  1
  C  C15  1  0.448197  0.245125  0.704921  1
  C  C16  1  0.523706  0.287348  0.224572  1
  C  C17  1  0.273029  0.708065  0.482002  1
  C  C18  1  0.756178  0.796712  0.045768  1
  C  C19  1  0.047962  0.759055  0.798331  1
