# generated using pymatgen
data_Eu9GdSn6
_symmetry_space_group_name_H-M   'P 1'
_cell_length_a   9.81905996
_cell_length_b   9.81906005
_cell_length_c   9.81906000
_cell_angle_alpha   129.76988019
_cell_angle_beta   129.76988063
_cell_angle_gamma   73.77491866
_symmetry_Int_Tables_number   1
_chemical_formula_structural   Eu9GdSn6
_chemical_formula_sum   'Eu9 Gd1 Sn6'
_cell_volume   545.61613566
_cell_formula_units_Z   1
loop_
 _symmetry_equiv_pos_site_id
 _symmetry_equiv_pos_as_xyz
  1  'x, y, z'
loop_
 _atom_site_type_symbol
 _atom_site_label
 _atom_site_symmetry_multiplicity
 _atom_site_fract_x
 _atom_site_fract_y
 _atom_site_fract_z
 _atom_site_occupancy
  Eu  Eu0  1  0.819946  0.318759  0.843572  1
  Eu  Eu1  1  0.180054  0.681241  0.156428  1
  Eu  Eu2  1  0.475187  0.976374  0.156428  1
  Eu  Eu3  1  0.318759  0.475187  0.498812  1
  Eu  Eu4  1  0.023626  0.180054  0.498812  1
  Eu  Eu5  1  0.524813  0.023626  0.843572  1
  Eu  Eu6  1  0.681241  0.524813  0.501188  1
  Eu  Eu7  1  0.976374  0.819946  0.501188  1
  Eu  Eu8  1  0.500000  0.500000  0.000000  1
  Gd  Gd9  1  0.000000  0.000000  0.000000  1
  Sn  Sn10  1  0.121565  0.629849  0.751416  1
  Sn  Sn11  1  0.878435  0.370151  0.248584  1
  Sn  Sn12  1  0.629849  0.878435  0.508283  1
  Sn  Sn13  1  0.370151  0.121565  0.491717  1
  Sn  Sn14  1  0.248332  0.248332  0.000000  1
  Sn  Sn15  1  0.751668  0.751668  0.000000  1
