# generated using pymatgen
data_Ta5TiCr2(Si3Ru2)2
_symmetry_space_group_name_H-M   'P 1'
_cell_length_a   7.43283266
_cell_length_b   7.41699353
_cell_length_c   7.43283301
_cell_angle_alpha   127.63522265
_cell_angle_beta   123.69691764
_cell_angle_gamma   80.53290959
_symmetry_Int_Tables_number   1
_chemical_formula_structural   Ta5TiCr2(Si3Ru2)2
_chemical_formula_sum   'Ta5 Ti1 Cr2 Si6 Ru4'
_cell_volume   260.36054141
_cell_formula_units_Z   1
loop_
 _symmetry_equiv_pos_site_id
 _symmetry_equiv_pos_as_xyz
  1  'x, y, z'
loop_
 _atom_site_type_symbol
 _atom_site_label
 _atom_site_symmetry_multiplicity
 _atom_site_fract_x
 _atom_site_fract_y
 _atom_site_fract_z
 _atom_site_occupancy
  Ta  Ta0  1  0.060610  0.522323  0.961713  1
  Ta  Ta1  1  0.538303  0.509855  0.471551  1
  Ta  Ta2  1  0.462151  0.934085  0.971935  1
  Ta  Ta3  1  0.746136  0.071990  0.825854  1
  Ta  Ta4  1  0.254289  0.080916  0.326628  1
  Ti  Ti5  1  0.941026  0.901794  0.460769  1
  Cr  Cr6  1  0.498829  0.754099  0.253866  1
  Cr  Cr7  1  0.000233  0.754099  0.755270  1
  Si  Si8  1  0.723966  0.464895  0.240929  1
  Si  Si9  1  0.276987  0.516645  0.739658  1
  Si  Si10  1  0.676113  0.172735  0.513001  1
  Si  Si11  1  0.323743  0.840609  0.502173  1
  Si  Si12  1  0.159734  0.172735  0.996622  1
  Si  Si13  1  0.838437  0.840609  0.016867  1
  Ru  Ru14  1  0.906547  0.253742  0.412656  1
  Ru  Ru15  1  0.092348  0.506463  0.347000  1
  Ru  Ru16  1  0.341087  0.253742  0.847195  1
  Ru  Ru17  1  0.659463  0.506463  0.914115  1
