# generated using pymatgen
data_Ce12Al6Tc2PdRu3
_symmetry_space_group_name_H-M   'P 1'
_cell_length_a   7.85867711
_cell_length_b   7.85867705
_cell_length_c   9.76990513
_cell_angle_alpha   90.47597472
_cell_angle_beta   90.47597535
_cell_angle_gamma   119.80063010
_symmetry_Int_Tables_number   1
_chemical_formula_structural   Ce12Al6Tc2PdRu3
_chemical_formula_sum   'Ce12 Al6 Tc2 Pd1 Ru3'
_cell_volume   523.51516273
_cell_formula_units_Z   1
loop_
 _symmetry_equiv_pos_site_id
 _symmetry_equiv_pos_as_xyz
  1  'x, y, z'
loop_
 _atom_site_type_symbol
 _atom_site_label
 _atom_site_symmetry_multiplicity
 _atom_site_fract_x
 _atom_site_fract_y
 _atom_site_fract_z
 _atom_site_occupancy
  Ce  Ce0  1  0.006720  0.577484  0.504581  1
  Ce  Ce1  1  0.577484  0.006720  0.504581  1
  Ce  Ce2  1  0.393838  0.393838  0.514605  1
  Ce  Ce3  1  0.002157  0.414982  0.001149  1
  Ce  Ce4  1  0.414982  0.002157  0.001149  1
  Ce  Ce5  1  0.591029  0.591029  0.999497  1
  Ce  Ce6  1  0.010847  0.735300  0.167311  1
  Ce  Ce7  1  0.735300  0.010847  0.167311  1
  Ce  Ce8  1  0.257251  0.257251  0.178945  1
  Ce  Ce9  1  0.997391  0.258376  0.676881  1
  Ce  Ce10  1  0.258376  0.997391  0.676881  1
  Ce  Ce11  1  0.731343  0.731343  0.673113  1
  Al  Al12  1  0.666611  0.338584  0.273209  1
  Al  Al13  1  0.338584  0.666611  0.273209  1
  Al  Al14  1  0.332026  0.665888  0.770699  1
  Al  Al15  1  0.665888  0.332026  0.770699  1
  Al  Al16  1  0.999538  0.999538  0.420418  1
  Al  Al17  1  0.000101  0.000101  0.921315  1
  Tc  Tc18  1  0.001373  0.344307  0.340011  1
  Tc  Tc19  1  0.344307  0.001373  0.340011  1
  Pd  Pd20  1  0.669024  0.669024  0.337886  1
  Ru  Ru21  1  0.000638  0.660793  0.836446  1
  Ru  Ru22  1  0.660793  0.000638  0.836446  1
  Ru  Ru23  1  0.344398  0.344398  0.842891  1
