# generated using pymatgen
data_Tm12Al2InFe2
_symmetry_space_group_name_H-M   'P 1'
_cell_length_a   8.28860384
_cell_length_b   8.28860369
_cell_length_c   8.28860399
_cell_angle_alpha   110.17820692
_cell_angle_beta   109.70081037
_cell_angle_gamma   108.53900752
_symmetry_Int_Tables_number   1
_chemical_formula_structural   Tm12Al2InFe2
_chemical_formula_sum   'Tm12 Al2 In1 Fe2'
_cell_volume   438.25666204
_cell_formula_units_Z   1
loop_
 _symmetry_equiv_pos_site_id
 _symmetry_equiv_pos_as_xyz
  1  'x, y, z'
loop_
 _atom_site_type_symbol
 _atom_site_label
 _atom_site_symmetry_multiplicity
 _atom_site_fract_x
 _atom_site_fract_y
 _atom_site_fract_z
 _atom_site_occupancy
  Tm  Tm0  1  0.302318  0.306476  0.608793  1
  Tm  Tm1  1  0.697682  0.693524  0.391207  1
  Tm  Tm2  1  0.302318  0.693524  0.995841  1
  Tm  Tm3  1  0.697682  0.306476  0.004159  1
  Tm  Tm4  1  0.446956  0.203856  0.243100  1
  Tm  Tm5  1  0.553044  0.796144  0.756900  1
  Tm  Tm6  1  0.960756  0.203856  0.756900  1
  Tm  Tm7  1  0.202735  0.952430  0.749695  1
  Tm  Tm8  1  0.039244  0.796144  0.243100  1
  Tm  Tm9  1  0.797265  0.047570  0.250305  1
  Tm  Tm10  1  0.202735  0.453040  0.250305  1
  Tm  Tm11  1  0.797265  0.546960  0.749695  1
  Al  Al12  1  0.000000  0.000000  0.000000  1
  Al  Al13  1  0.000000  0.500000  0.500000  1
  In  In14  1  0.500000  0.000000  0.500000  1
  Fe  Fe15  1  0.387107  0.387107  0.000000  1
  Fe  Fe16  1  0.612893  0.612893  0.000000  1
