# generated using pymatgen
data_Sm4Dy3Y(B6Os)4
_symmetry_space_group_name_H-M   'P 1'
_cell_length_a   3.68875000
_cell_length_b   9.21047200
_cell_length_c   11.61147500
_cell_angle_alpha   90.00120541
_cell_angle_beta   90.00000000
_cell_angle_gamma   90.00000000
_symmetry_Int_Tables_number   1
_chemical_formula_structural   Sm4Dy3Y(B6Os)4
_chemical_formula_sum   'Sm4 Dy3 Y1 B24 Os4'
_cell_volume   394.50135620
_cell_formula_units_Z   1
loop_
 _symmetry_equiv_pos_site_id
 _symmetry_equiv_pos_as_xyz
  1  'x, y, z'
loop_
 _atom_site_type_symbol
 _atom_site_label
 _atom_site_symmetry_multiplicity
 _atom_site_fract_x
 _atom_site_fract_y
 _atom_site_fract_z
 _atom_site_occupancy
  Sm  Sm0  1  0.000000  0.322620  0.413906  1
  Sm  Sm1  1  0.000000  0.677380  0.586091  1
  Sm  Sm2  1  0.000000  0.822588  0.086073  1
  Sm  Sm3  1  0.000000  0.177402  0.913931  1
  Dy  Dy4  1  0.000000  0.055866  0.627388  1
  Dy  Dy5  1  0.000000  0.444146  0.127365  1
  Dy  Dy6  1  0.000000  0.555848  0.872637  1
  Y  Y7  1  0.000000  0.944231  0.372822  1
  B  B8  1  0.500000  0.555061  0.431620  1
  B  B9  1  0.500000  0.444948  0.568386  1
  B  B10  1  0.500000  0.055048  0.068380  1
  B  B11  1  0.500000  0.944944  0.931611  1
  B  B12  1  0.500000  0.748464  0.418666  1
  B  B13  1  0.500000  0.251469  0.581395  1
  B  B14  1  0.500000  0.248542  0.081379  1
  B  B15  1  0.500000  0.751462  0.918612  1
  B  B16  1  0.500000  0.790439  0.267045  1
  B  B17  1  0.500000  0.209532  0.732878  1
  B  B18  1  0.500000  0.290474  0.232881  1
  B  B19  1  0.500000  0.709530  0.767130  1
  B  B20  1  0.500000  0.631539  0.185595  1
  B  B21  1  0.500000  0.368453  0.814397  1
  B  B22  1  0.500000  0.131639  0.314401  1
  B  B23  1  0.500000  0.868455  0.685621  1
  B  B24  1  0.500000  0.985041  0.213511  1
  B  B25  1  0.500000  0.014927  0.786413  1
  B  B26  1  0.500000  0.485060  0.286401  1
  B  B27  1  0.500000  0.514922  0.713590  1
  B  B28  1  0.500000  0.606280  0.029282  1
  B  B29  1  0.500000  0.393724  0.970712  1
  B  B30  1  0.500000  0.106331  0.470722  1
  B  B31  1  0.500000  0.893685  0.529315  1
  Os  Os32  1  0.000000  0.638305  0.320534  1
  Os  Os33  1  0.000000  0.361559  0.679428  1
  Os  Os34  1  0.000000  0.138513  0.179339  1
  Os  Os35  1  0.000000  0.861570  0.820541  1
