# generated using pymatgen
data_Zr2CrP2Pd
_symmetry_space_group_name_H-M   'P 1'
_cell_length_a   3.74581900
_cell_length_b   6.51017973
_cell_length_c   7.62005858
_cell_angle_alpha   90.27381944
_cell_angle_beta   90.00000000
_cell_angle_gamma   90.00000000
_symmetry_Int_Tables_number   1
_chemical_formula_structural   Zr2CrP2Pd
_chemical_formula_sum   'Zr4 Cr2 P4 Pd2'
_cell_volume   185.82028321
_cell_formula_units_Z   2
loop_
 _symmetry_equiv_pos_site_id
 _symmetry_equiv_pos_as_xyz
  1  'x, y, z'
loop_
 _atom_site_type_symbol
 _atom_site_label
 _atom_site_symmetry_multiplicity
 _atom_site_fract_x
 _atom_site_fract_y
 _atom_site_fract_z
 _atom_site_occupancy
  Zr  Zr0  1  0.250000  0.530022  0.171298  1
  Zr  Zr1  1  0.750000  0.469978  0.828702  1
  Zr  Zr2  1  0.750000  0.970217  0.678505  1
  Zr  Zr3  1  0.250000  0.029783  0.321495  1
  Cr  Cr4  1  0.750000  0.861767  0.058884  1
  Cr  Cr5  1  0.250000  0.138233  0.941116  1
  P  P6  1  0.250000  0.776166  0.887732  1
  P  P7  1  0.750000  0.223834  0.112268  1
  P  P8  1  0.750000  0.745737  0.357427  1
  P  P9  1  0.250000  0.254263  0.642573  1
  Pd  Pd10  1  0.250000  0.647309  0.562611  1
  Pd  Pd11  1  0.750000  0.352691  0.437389  1
