# generated using pymatgen
data_Yb2SmEr5(B6Ru)4
_symmetry_space_group_name_H-M   'P 1'
_cell_length_a   3.64457600
_cell_length_b   9.12300918
_cell_length_c   11.52025641
_cell_angle_alpha   90.00788383
_cell_angle_beta   90.00000000
_cell_angle_gamma   90.00000000
_symmetry_Int_Tables_number   1
_chemical_formula_structural   Yb2SmEr5(B6Ru)4
_chemical_formula_sum   'Yb2 Sm1 Er5 B24 Ru4'
_cell_volume   383.04276553
_cell_formula_units_Z   1
loop_
 _symmetry_equiv_pos_site_id
 _symmetry_equiv_pos_as_xyz
  1  'x, y, z'
loop_
 _atom_site_type_symbol
 _atom_site_label
 _atom_site_symmetry_multiplicity
 _atom_site_fract_x
 _atom_site_fract_y
 _atom_site_fract_z
 _atom_site_occupancy
  Yb  Yb0  1  0.000000  0.676978  0.585897  1
  Yb  Yb1  1  0.000000  0.823113  0.085255  1
  Sm  Sm2  1  0.000000  0.324205  0.414768  1
  Er  Er3  1  0.000000  0.175496  0.914913  1
  Er  Er4  1  0.000000  0.940621  0.368367  1
  Er  Er5  1  0.000000  0.056037  0.630849  1
  Er  Er6  1  0.000000  0.443675  0.129671  1
  Er  Er7  1  0.000000  0.559261  0.869348  1
  B  B8  1  0.500000  0.555725  0.432900  1
  B  B9  1  0.500000  0.445994  0.569375  1
  B  B10  1  0.500000  0.054107  0.066945  1
  B  B11  1  0.500000  0.946083  0.933105  1
  B  B12  1  0.500000  0.748658  0.417801  1
  B  B13  1  0.500000  0.250784  0.583773  1
  B  B14  1  0.500000  0.248876  0.080895  1
  B  B15  1  0.500000  0.752158  0.917943  1
  B  B16  1  0.500000  0.790154  0.264460  1
  B  B17  1  0.500000  0.208299  0.736327  1
  B  B18  1  0.500000  0.290587  0.233532  1
  B  B19  1  0.500000  0.710297  0.765137  1
  B  B20  1  0.500000  0.630970  0.184957  1
  B  B21  1  0.500000  0.368911  0.815456  1
  B  B22  1  0.500000  0.129830  0.313248  1
  B  B23  1  0.500000  0.869443  0.685630  1
  B  B24  1  0.500000  0.983064  0.210946  1
  B  B25  1  0.500000  0.016799  0.788808  1
  B  B26  1  0.500000  0.484929  0.287579  1
  B  B27  1  0.500000  0.516608  0.712560  1
  B  B28  1  0.500000  0.600695  0.027312  1
  B  B29  1  0.500000  0.398393  0.971786  1
  B  B30  1  0.500000  0.098693  0.472484  1
  B  B31  1  0.500000  0.900005  0.527151  1
  Ru  Ru32  1  0.000000  0.638463  0.319814  1
  Ru  Ru33  1  0.000000  0.359920  0.681510  1
  Ru  Ru34  1  0.000000  0.139136  0.178904  1
  Ru  Ru35  1  0.000000  0.863033  0.820591  1
