# generated using pymatgen
data_Dy2YEr3(GaCo3)2
_symmetry_space_group_name_H-M   'P 1'
_cell_length_a   5.36900054
_cell_length_b   5.36900109
_cell_length_c   12.85433807
_cell_angle_alpha   89.88951227
_cell_angle_beta   90.11048797
_cell_angle_gamma   134.58714576
_symmetry_Int_Tables_number   1
_chemical_formula_structural   Dy2YEr3(GaCo3)2
_chemical_formula_sum   'Dy2 Y1 Er3 Ga2 Co6'
_cell_volume   263.89286650
_cell_formula_units_Z   1
loop_
 _symmetry_equiv_pos_site_id
 _symmetry_equiv_pos_as_xyz
  1  'x, y, z'
loop_
 _atom_site_type_symbol
 _atom_site_label
 _atom_site_symmetry_multiplicity
 _atom_site_fract_x
 _atom_site_fract_y
 _atom_site_fract_z
 _atom_site_occupancy
  Dy  Dy0  1  0.002274  0.997726  0.250413  1
  Dy  Dy1  1  0.997391  0.002609  0.748889  1
  Y  Y2  1  0.706761  0.293239  0.897780  1
  Er  Er3  1  0.707500  0.292500  0.601715  1
  Er  Er4  1  0.292653  0.707347  0.397574  1
  Er  Er5  1  0.292655  0.707345  0.103548  1
  Ga  Ga6  1  0.999456  0.000544  0.000792  1
  Ga  Ga7  1  0.000092  0.999908  0.499645  1
  Co  Co8  1  0.700005  0.299995  0.250626  1
  Co  Co9  1  0.301657  0.698343  0.748577  1
  Co  Co10  1  0.416268  0.583732  0.593578  1
  Co  Co11  1  0.584554  0.415446  0.405283  1
  Co  Co12  1  0.583395  0.416605  0.096423  1
  Co  Co13  1  0.415340  0.584660  0.905157  1
