# generated using pymatgen
data_Dy4ReOs6W
_symmetry_space_group_name_H-M   'P 1'
_cell_length_a   5.21955638
_cell_length_b   5.21955715
_cell_length_c   9.05575000
_cell_angle_alpha   90.00000000
_cell_angle_beta   90.00000000
_cell_angle_gamma   116.05933139
_symmetry_Int_Tables_number   1
_chemical_formula_structural   Dy4ReOs6W
_chemical_formula_sum   'Dy4 Re1 Os6 W1'
_cell_volume   221.63187925
_cell_formula_units_Z   1
loop_
 _symmetry_equiv_pos_site_id
 _symmetry_equiv_pos_as_xyz
  1  'x, y, z'
loop_
 _atom_site_type_symbol
 _atom_site_label
 _atom_site_symmetry_multiplicity
 _atom_site_fract_x
 _atom_site_fract_y
 _atom_site_fract_z
 _atom_site_occupancy
  Dy  Dy0  1  0.330996  0.669004  0.437270  1
  Dy  Dy1  1  0.667510  0.332490  0.565279  1
  Dy  Dy2  1  0.667510  0.332490  0.934721  1
  Dy  Dy3  1  0.330996  0.669004  0.062730  1
  Re  Re4  1  0.165520  0.834480  0.750000  1
  Os  Os5  1  0.998341  0.001659  0.502111  1
  Os  Os6  1  0.998341  0.001659  0.997889  1
  Os  Os7  1  0.829658  0.650844  0.250000  1
  Os  Os8  1  0.349156  0.170342  0.250000  1
  Os  Os9  1  0.169953  0.346592  0.750000  1
  Os  Os10  1  0.653408  0.830047  0.750000  1
  W  W11  1  0.838611  0.161389  0.250000  1
