# generated using pymatgen
data_Tb12Cu3Si8Tc
_symmetry_space_group_name_H-M   'P 1'
_cell_length_a   4.18489400
_cell_length_b   11.33888984
_cell_length_c   11.40355324
_cell_angle_alpha   89.76185861
_cell_angle_beta   90.00000000
_cell_angle_gamma   90.00000000
_symmetry_Int_Tables_number   1
_chemical_formula_structural   Tb12Cu3Si8Tc
_chemical_formula_sum   'Tb12 Cu3 Si8 Tc1'
_cell_volume   541.11732810
_cell_formula_units_Z   1
loop_
 _symmetry_equiv_pos_site_id
 _symmetry_equiv_pos_as_xyz
  1  'x, y, z'
loop_
 _atom_site_type_symbol
 _atom_site_label
 _atom_site_symmetry_multiplicity
 _atom_site_fract_x
 _atom_site_fract_y
 _atom_site_fract_z
 _atom_site_occupancy
  Tb  Tb0  1  0.250000  0.060517  0.876744  1
  Tb  Tb1  1  0.250000  0.438154  0.378377  1
  Tb  Tb2  1  0.750000  0.937496  0.122005  1
  Tb  Tb3  1  0.750000  0.562421  0.620510  1
  Tb  Tb4  1  0.250000  0.122467  0.556381  1
  Tb  Tb5  1  0.250000  0.382739  0.059272  1
  Tb  Tb6  1  0.750000  0.878490  0.441231  1
  Tb  Tb7  1  0.750000  0.620716  0.938414  1
  Tb  Tb8  1  0.250000  0.801138  0.710957  1
  Tb  Tb9  1  0.250000  0.696804  0.207224  1
  Tb  Tb10  1  0.750000  0.195123  0.291206  1
  Tb  Tb11  1  0.750000  0.303795  0.791843  1
  Cu  Cu12  1  0.250000  0.363780  0.631096  1
  Cu  Cu13  1  0.250000  0.137246  0.130080  1
  Cu  Cu14  1  0.750000  0.634744  0.368950  1
  Si  Si15  1  0.250000  0.814957  0.978323  1
  Si  Si16  1  0.250000  0.683201  0.474036  1
  Si  Si17  1  0.750000  0.188054  0.027389  1
  Si  Si18  1  0.750000  0.315217  0.525037  1
  Si  Si19  1  0.250000  0.492222  0.805251  1
  Si  Si20  1  0.250000  0.005544  0.305752  1
  Si  Si21  1  0.750000  0.505433  0.195781  1
  Si  Si22  1  0.750000  0.995441  0.691600  1
  Tc  Tc23  1  0.750000  0.864297  0.872539  1
