# generated using pymatgen
data_La2GdSn2
_symmetry_space_group_name_H-M   'P 1'
_cell_length_a   8.28867400
_cell_length_b   8.28867400
_cell_length_c   4.74978800
_cell_angle_alpha   90.00000000
_cell_angle_beta   90.00000000
_cell_angle_gamma   90.00000000
_symmetry_Int_Tables_number   1
_chemical_formula_structural   La2GdSn2
_chemical_formula_sum   'La4 Gd2 Sn4'
_cell_volume   326.32048937
_cell_formula_units_Z   2
loop_
 _symmetry_equiv_pos_site_id
 _symmetry_equiv_pos_as_xyz
  1  'x, y, z'
loop_
 _atom_site_type_symbol
 _atom_site_label
 _atom_site_symmetry_multiplicity
 _atom_site_fract_x
 _atom_site_fract_y
 _atom_site_fract_z
 _atom_site_occupancy
  La  La0  1  0.324724  0.175275  0.500000  1
  La  La1  1  0.824724  0.324724  0.500000  1
  La  La2  1  0.175275  0.675275  0.500000  1
  La  La3  1  0.675275  0.824724  0.500000  1
  Gd  Gd4  1  0.000000  0.000000  0.000000  1
  Gd  Gd5  1  0.500000  0.500000  0.000000  1
  Sn  Sn6  1  0.626418  0.126418  0.000000  1
  Sn  Sn7  1  0.126418  0.373581  0.000000  1
  Sn  Sn8  1  0.873582  0.626418  0.000000  1
  Sn  Sn9  1  0.373581  0.873582  0.000000  1
