# generated using pymatgen
data_Er19Tm(NiBi5)2
_symmetry_space_group_name_H-M   'P 1'
_cell_length_a   8.01329100
_cell_length_b   9.32226300
_cell_length_c   11.99709700
_cell_angle_alpha   90.00099451
_cell_angle_beta   90.00145522
_cell_angle_gamma   90.00204886
_symmetry_Int_Tables_number   1
_chemical_formula_structural   Er19Tm(NiBi5)2
_chemical_formula_sum   'Er19 Tm1 Ni2 Bi10'
_cell_volume   896.20721395
_cell_formula_units_Z   1
loop_
 _symmetry_equiv_pos_site_id
 _symmetry_equiv_pos_as_xyz
  1  'x, y, z'
loop_
 _atom_site_type_symbol
 _atom_site_label
 _atom_site_symmetry_multiplicity
 _atom_site_fract_x
 _atom_site_fract_y
 _atom_site_fract_z
 _atom_site_occupancy
  Er  Er0  1  0.568232  0.822247  0.062864  1
  Er  Er1  1  0.070593  0.723813  0.436138  1
  Er  Er2  1  0.929395  0.276166  0.936135  1
  Er  Er3  1  0.070612  0.276166  0.436155  1
  Er  Er4  1  0.929394  0.723835  0.936136  1
  Er  Er5  1  0.431764  0.822323  0.562849  1
  Er  Er6  1  0.568229  0.177758  0.062867  1
  Er  Er7  1  0.574047  0.499996  0.774021  1
  Er  Er8  1  0.425945  0.500008  0.274014  1
  Er  Er9  1  0.907185  0.000004  0.202431  1
  Er  Er10  1  0.092859  0.000030  0.702413  1
  Er  Er11  1  0.260633  0.499999  0.993687  1
  Er  Er12  1  0.739378  0.499997  0.493687  1
  Er  Er13  1  0.200419  0.000007  0.998823  1
  Er  Er14  1  0.799549  0.000013  0.498838  1
  Er  Er15  1  0.089921  0.500010  0.717099  1
  Er  Er16  1  0.910064  0.500003  0.217105  1
  Er  Er17  1  0.377024  0.000012  0.305384  1
  Er  Er18  1  0.622986  0.000011  0.805315  1
  Tm  Tm19  1  0.431706  0.177632  0.562849  1
  Ni  Ni20  1  0.168557  0.000057  0.485766  1
  Ni  Ni21  1  0.831509  0.999997  0.985739  1
  Bi  Bi22  1  0.814839  0.741621  0.672845  1
  Bi  Bi23  1  0.185160  0.258387  0.172851  1
  Bi  Bi24  1  0.681076  0.241707  0.325167  1
  Bi  Bi25  1  0.318926  0.758304  0.825163  1
  Bi  Bi26  1  0.681075  0.758304  0.325167  1
  Bi  Bi27  1  0.318928  0.241696  0.825140  1
  Bi  Bi28  1  0.814813  0.258379  0.672832  1
  Bi  Bi29  1  0.185159  0.741616  0.172855  1
  Bi  Bi30  1  0.347564  0.499904  0.528838  1
  Bi  Bi31  1  0.652461  0.499996  0.028826  1
