# generated using pymatgen
data_Gd4MgMn2ZnO12
_symmetry_space_group_name_H-M   'P 1'
_cell_length_a   5.36889689
_cell_length_b   5.63445638
_cell_length_c   7.69237634
_cell_angle_alpha   89.72355777
_cell_angle_beta   90.13016250
_cell_angle_gamma   89.99314668
_symmetry_Int_Tables_number   1
_chemical_formula_structural   Gd4MgMn2ZnO12
_chemical_formula_sum   'Gd4 Mg1 Mn2 Zn1 O12'
_cell_volume   232.69734524
_cell_formula_units_Z   1
loop_
 _symmetry_equiv_pos_site_id
 _symmetry_equiv_pos_as_xyz
  1  'x, y, z'
loop_
 _atom_site_type_symbol
 _atom_site_label
 _atom_site_symmetry_multiplicity
 _atom_site_fract_x
 _atom_site_fract_y
 _atom_site_fract_z
 _atom_site_occupancy
  Gd  Gd0  1  0.515048  0.564140  0.248919  1
  Gd  Gd1  1  0.982718  0.063878  0.251007  1
  Gd  Gd2  1  0.484952  0.435860  0.751081  1
  Gd  Gd3  1  0.017282  0.936122  0.748993  1
  Mg  Mg4  1  0.000000  0.500000  0.500000  1
  Mn  Mn5  1  0.500000  0.000000  0.500000  1
  Mn  Mn6  1  0.000000  0.500000  0.000000  1
  Zn  Zn7  1  0.500000  0.000000  0.000000  1
  O  O8  1  0.397052  0.965818  0.260407  1
  O  O9  1  0.100608  0.466066  0.240996  1
  O  O10  1  0.602948  0.034182  0.739593  1
  O  O11  1  0.899392  0.533934  0.759004  1
  O  O12  1  0.816457  0.789185  0.055731  1
  O  O13  1  0.686954  0.289594  0.445227  1
  O  O14  1  0.207807  0.190088  0.550009  1
  O  O15  1  0.292888  0.687396  0.948996  1
  O  O16  1  0.183543  0.210815  0.944269  1
  O  O17  1  0.313046  0.710406  0.554773  1
  O  O18  1  0.792193  0.809912  0.449991  1
  O  O19  1  0.707112  0.312604  0.051004  1
