# generated using pymatgen
data_SrHoGe4N7
_symmetry_space_group_name_H-M   'P 1'
_cell_length_a   6.30039900
_cell_length_b   6.30039273
_cell_length_c   10.31099600
_cell_angle_alpha   90.00000000
_cell_angle_beta   90.00000000
_cell_angle_gamma   119.99925718
_symmetry_Int_Tables_number   1
_chemical_formula_structural   SrHoGe4N7
_chemical_formula_sum   'Sr2 Ho2 Ge8 N14'
_cell_volume   354.46240227
_cell_formula_units_Z   2
loop_
 _symmetry_equiv_pos_site_id
 _symmetry_equiv_pos_as_xyz
  1  'x, y, z'
loop_
 _atom_site_type_symbol
 _atom_site_label
 _atom_site_symmetry_multiplicity
 _atom_site_fract_x
 _atom_site_fract_y
 _atom_site_fract_z
 _atom_site_occupancy
  Sr  Sr0  1  0.666665  0.333331  0.583319  1
  Sr  Sr1  1  0.333335  0.666669  0.083319  1
  Ho  Ho2  1  0.666666  0.333334  0.950754  1
  Ho  Ho3  1  0.333334  0.666666  0.450754  1
  Ge  Ge4  1  0.173527  0.347060  0.760485  1
  Ge  Ge5  1  0.826468  0.173535  0.260480  1
  Ge  Ge6  1  0.347071  0.173535  0.260487  1
  Ge  Ge7  1  0.652929  0.826465  0.760487  1
  Ge  Ge8  1  0.173532  0.826465  0.760480  1
  Ge  Ge9  1  0.826473  0.652940  0.260485  1
  Ge  Ge10  1  0.999999  0.000000  0.025614  1
  Ge  Ge11  1  0.000001  0.000000  0.525614  1
  N  N12  1  0.000002  0.999995  0.833542  1
  N  N13  1  0.999998  0.000005  0.333542  1
  N  N14  1  0.840613  0.681228  0.082048  1
  N  N15  1  0.159387  0.840616  0.582049  1
  N  N16  1  0.681227  0.840613  0.582048  1
  N  N17  1  0.318773  0.159387  0.082048  1
  N  N18  1  0.840613  0.159384  0.082049  1
  N  N19  1  0.159387  0.318772  0.582048  1
  N  N20  1  0.495254  0.504739  0.817331  1
  N  N21  1  0.990511  0.495252  0.317332  1
  N  N22  1  0.504748  0.009487  0.317332  1
  N  N23  1  0.495252  0.990513  0.817332  1
  N  N24  1  0.504746  0.495261  0.317331  1
  N  N25  1  0.009489  0.504748  0.817332  1
