# generated using pymatgen
data_Li4ZnCo(SO4)4
_symmetry_space_group_name_H-M   'P 1'
_cell_length_a   5.02324531
_cell_length_b   7.60477234
_cell_length_c   8.18943893
_cell_angle_alpha   89.76107784
_cell_angle_beta   89.73265516
_cell_angle_gamma   92.89962230
_symmetry_Int_Tables_number   1
_chemical_formula_structural   Li4ZnCo(SO4)4
_chemical_formula_sum   'Li4 Zn1 Co1 S4 O16'
_cell_volume   312.43480776
_cell_formula_units_Z   1
loop_
 _symmetry_equiv_pos_site_id
 _symmetry_equiv_pos_as_xyz
  1  'x, y, z'
loop_
 _atom_site_type_symbol
 _atom_site_label
 _atom_site_symmetry_multiplicity
 _atom_site_fract_x
 _atom_site_fract_y
 _atom_site_fract_z
 _atom_site_occupancy
  Li  Li0  1  0.408906  0.399008  0.865595  1
  Li  Li1  1  0.090485  0.101207  0.364163  1
  Li  Li2  1  0.591094  0.600992  0.134405  1
  Li  Li3  1  0.909515  0.898793  0.635837  1
  Zn  Zn4  1  0.500000  0.500000  0.500000  1
  Co  Co5  1  0.000000  0.000000  0.000000  1
  S  S6  1  0.531935  0.198164  0.195143  1
  S  S7  1  0.968308  0.300616  0.695583  1
  S  S8  1  0.468065  0.801836  0.804857  1
  S  S9  1  0.031692  0.699384  0.304417  1
  O  O10  1  0.529785  0.348378  0.081292  1
  O  O11  1  0.971507  0.151975  0.581179  1
  O  O12  1  0.470215  0.651622  0.918708  1
  O  O13  1  0.028493  0.848025  0.418821  1
  O  O14  1  0.455286  0.251827  0.364152  1
  O  O15  1  0.043546  0.245154  0.864431  1
  O  O16  1  0.544714  0.748173  0.635848  1
  O  O17  1  0.956454  0.754846  0.135569  1
  O  O18  1  0.333444  0.055021  0.147256  1
  O  O19  1  0.168314  0.444453  0.648024  1
  O  O20  1  0.666556  0.944979  0.852744  1
  O  O21  1  0.831686  0.555547  0.351976  1
  O  O22  1  0.803493  0.125515  0.196972  1
  O  O23  1  0.697578  0.373916  0.698320  1
  O  O24  1  0.196507  0.874485  0.803028  1
  O  O25  1  0.302422  0.626084  0.301680  1
