# generated using pymatgen
data_Ce6PrSmF30
_symmetry_space_group_name_H-M   'P 1'
_cell_length_a   8.67815383
_cell_length_b   8.67815390
_cell_length_c   8.68578600
_cell_angle_alpha   79.65888340
_cell_angle_beta   79.65888332
_cell_angle_gamma   100.27232679
_symmetry_Int_Tables_number   1
_chemical_formula_structural   Ce6PrSmF30
_chemical_formula_sum   'Ce6 Pr1 Sm1 F30'
_cell_volume   617.88785932
_cell_formula_units_Z   1
loop_
 _symmetry_equiv_pos_site_id
 _symmetry_equiv_pos_as_xyz
  1  'x, y, z'
loop_
 _atom_site_type_symbol
 _atom_site_label
 _atom_site_symmetry_multiplicity
 _atom_site_fract_x
 _atom_site_fract_y
 _atom_site_fract_z
 _atom_site_occupancy
  Ce  Ce0  1  0.750895  0.249105  0.250000  1
  Ce  Ce1  1  0.248996  0.751004  0.750000  1
  Ce  Ce2  1  0.751404  0.678174  0.674267  1
  Ce  Ce3  1  0.321826  0.248596  0.825733  1
  Ce  Ce4  1  0.249680  0.322187  0.324121  1
  Ce  Ce5  1  0.677813  0.750320  0.175879  1
  Pr  Pr6  1  0.821890  0.178110  0.750000  1
  Sm  Sm7  1  0.177949  0.822051  0.250000  1
  F  F8  1  0.466953  0.533047  0.250000  1
  F  F9  1  0.748729  0.956337  0.970625  1
  F  F10  1  0.043663  0.251271  0.529375  1
  F  F11  1  0.250375  0.040746  0.032404  1
  F  F12  1  0.959254  0.749625  0.467596  1
  F  F13  1  0.534105  0.465895  0.750000  1
  F  F14  1  0.222265  0.492150  0.777718  1
  F  F15  1  0.223892  0.725187  0.007014  1
  F  F16  1  0.990109  0.724413  0.781373  1
  F  F17  1  0.724291  0.989898  0.281396  1
  F  F18  1  0.721328  0.225205  0.505892  1
  F  F19  1  0.492093  0.222090  0.277559  1
  F  F20  1  0.777911  0.507907  0.222441  1
  F  F21  1  0.774795  0.278672  0.994108  1
  F  F22  1  0.010102  0.275709  0.218604  1
  F  F23  1  0.275587  0.009891  0.718627  1
  F  F24  1  0.274813  0.776108  0.492986  1
  F  F25  1  0.507850  0.777735  0.722282  1
  F  F26  1  0.540635  0.154264  0.818458  1
  F  F27  1  0.187813  0.059944  0.344231  1
  F  F28  1  0.651239  0.682441  0.446360  1
  F  F29  1  0.682765  0.651482  0.946101  1
  F  F30  1  0.061775  0.186904  0.848344  1
  F  F31  1  0.157582  0.545334  0.315659  1
  F  F32  1  0.454666  0.842418  0.184341  1
  F  F33  1  0.813096  0.938225  0.651656  1
  F  F34  1  0.348518  0.317235  0.553899  1
  F  F35  1  0.317559  0.348761  0.053640  1
  F  F36  1  0.940056  0.812187  0.155769  1
  F  F37  1  0.845736  0.459365  0.681542  1
