# generated using pymatgen
data_Zr16AlCo4Ir3
_symmetry_space_group_name_H-M   'P 1'
_cell_length_a   8.72790468
_cell_length_b   8.72882907
_cell_length_c   8.72807195
_cell_angle_alpha   59.73226444
_cell_angle_beta   59.72853040
_cell_angle_gamma   59.73098320
_symmetry_Int_Tables_number   1
_chemical_formula_structural   Zr16AlCo4Ir3
_chemical_formula_sum   'Zr16 Al1 Co4 Ir3'
_cell_volume   467.30879107
_cell_formula_units_Z   1
loop_
 _symmetry_equiv_pos_site_id
 _symmetry_equiv_pos_as_xyz
  1  'x, y, z'
loop_
 _atom_site_type_symbol
 _atom_site_label
 _atom_site_symmetry_multiplicity
 _atom_site_fract_x
 _atom_site_fract_y
 _atom_site_fract_z
 _atom_site_occupancy
  Zr  Zr0  1  0.058166  0.647882  0.647979  1
  Zr  Zr1  1  0.647844  0.058264  0.647923  1
  Zr  Zr2  1  0.647917  0.647898  0.058169  1
  Zr  Zr3  1  0.646245  0.646281  0.646340  1
  Zr  Zr4  1  0.801569  0.801549  0.198789  1
  Zr  Zr5  1  0.195684  0.195670  0.801424  1
  Zr  Zr6  1  0.801588  0.198808  0.801580  1
  Zr  Zr7  1  0.195797  0.801317  0.195689  1
  Zr  Zr8  1  0.198850  0.801548  0.801561  1
  Zr  Zr9  1  0.801476  0.195697  0.195596  1
  Zr  Zr10  1  0.433992  0.433970  0.064232  1
  Zr  Zr11  1  0.062448  0.062416  0.435956  1
  Zr  Zr12  1  0.433971  0.064256  0.433966  1
  Zr  Zr13  1  0.062472  0.435932  0.062456  1
  Zr  Zr14  1  0.064203  0.433992  0.434008  1
  Zr  Zr15  1  0.435959  0.062413  0.062434  1
  Al  Al16  1  0.428067  0.428059  0.428066  1
  Co  Co17  1  0.425297  0.858709  0.858656  1
  Co  Co18  1  0.858606  0.425322  0.858661  1
  Co  Co19  1  0.858617  0.858729  0.425266  1
  Co  Co20  1  0.857526  0.857660  0.857583  1
  Ir  Ir21  1  0.757111  0.413305  0.413285  1
  Ir  Ir22  1  0.413306  0.757012  0.413313  1
  Ir  Ir23  1  0.413285  0.413309  0.757070  1
