# generated using pymatgen
data_Nb6V4Si6C
_symmetry_space_group_name_H-M   'P 1'
_cell_length_a   7.46223400
_cell_length_b   7.46223518
_cell_length_c   5.00728500
_cell_angle_alpha   90.00000000
_cell_angle_beta   90.00000000
_cell_angle_gamma   120.00000363
_symmetry_Int_Tables_number   1
_chemical_formula_structural   Nb6V4Si6C
_chemical_formula_sum   'Nb6 V4 Si6 C1'
_cell_volume   241.47419249
_cell_formula_units_Z   1
loop_
 _symmetry_equiv_pos_site_id
 _symmetry_equiv_pos_as_xyz
  1  'x, y, z'
loop_
 _atom_site_type_symbol
 _atom_site_label
 _atom_site_symmetry_multiplicity
 _atom_site_fract_x
 _atom_site_fract_y
 _atom_site_fract_z
 _atom_site_occupancy
  Nb  Nb0  1  0.000000  0.757161  0.250615  1
  Nb  Nb1  1  0.242839  0.242839  0.250615  1
  Nb  Nb2  1  0.757161  0.000000  0.250615  1
  Nb  Nb3  1  0.000000  0.242839  0.749385  1
  Nb  Nb4  1  0.757161  0.757161  0.749385  1
  Nb  Nb5  1  0.242839  0.000000  0.749385  1
  V  V6  1  0.333333  0.666667  0.500000  1
  V  V7  1  0.666667  0.333333  0.500000  1
  V  V8  1  0.666667  0.333333  0.000000  1
  V  V9  1  0.333333  0.666667  0.000000  1
  Si  Si10  1  0.000000  0.406180  0.246167  1
  Si  Si11  1  0.593820  0.593820  0.246167  1
  Si  Si12  1  0.406180  0.000000  0.246167  1
  Si  Si13  1  0.000000  0.593820  0.753833  1
  Si  Si14  1  0.406180  0.406180  0.753833  1
  Si  Si15  1  0.593820  0.000000  0.753833  1
  C  C16  1  0.000000  0.000000  0.500000  1
