# generated using pymatgen
data_Cs2FeH7
_symmetry_space_group_name_H-M   'P 1'
_cell_length_a   6.18892986
_cell_length_b   6.34150623
_cell_length_c   6.32011273
_cell_angle_alpha   95.61753235
_cell_angle_beta   116.53010484
_cell_angle_gamma   117.93044273
_symmetry_Int_Tables_number   1
_chemical_formula_structural   Cs2FeH7
_chemical_formula_sum   'Cs2 Fe1 H7'
_cell_volume   180.67379393
_cell_formula_units_Z   1
loop_
 _symmetry_equiv_pos_site_id
 _symmetry_equiv_pos_as_xyz
  1  'x, y, z'
loop_
 _atom_site_type_symbol
 _atom_site_label
 _atom_site_symmetry_multiplicity
 _atom_site_fract_x
 _atom_site_fract_y
 _atom_site_fract_z
 _atom_site_occupancy
  Cs  Cs0  1  0.110605  0.088106  0.987892  1
  Cs  Cs1  1  0.113446  0.589711  0.482684  1
  Fe  Fe2  1  0.614388  0.345470  0.742156  1
  H  H3  1  0.627292  0.171022  0.567235  1
  H  H4  1  0.963794  0.502413  0.897906  1
  H  H5  1  0.492639  0.462654  0.848561  1
  H  H6  1  0.267980  0.144156  0.543229  1
  H  H7  1  0.606706  0.164539  0.903320  1
  H  H8  1  0.619318  0.512193  0.566209  1
  H  H9  1  0.702589  0.561540  0.971146  1
