# generated using pymatgen
data_U4Ga20IrPt10
_symmetry_space_group_name_H-M   'P 1'
_cell_length_a   4.17001940
_cell_length_b   10.98434498
_cell_length_c   13.77797300
_cell_angle_alpha   82.71012560
_cell_angle_beta   81.29603234
_cell_angle_gamma   79.05793153
_symmetry_Int_Tables_number   1
_chemical_formula_structural   U4Ga20IrPt10
_chemical_formula_sum   'U4 Ga20 Ir1 Pt10'
_cell_volume   609.34834493
_cell_formula_units_Z   1
loop_
 _symmetry_equiv_pos_site_id
 _symmetry_equiv_pos_as_xyz
  1  'x, y, z'
loop_
 _atom_site_type_symbol
 _atom_site_label
 _atom_site_symmetry_multiplicity
 _atom_site_fract_x
 _atom_site_fract_y
 _atom_site_fract_z
 _atom_site_occupancy
  U  U0  1  0.122966  0.089163  0.664904  1
  U  U1  1  0.878537  0.908483  0.334443  1
  U  U2  1  0.776037  0.630105  0.817822  1
  U  U3  1  0.222379  0.371891  0.183351  1
  Ga  Ga4  1  0.009908  0.066411  0.913774  1
  Ga  Ga5  1  0.989502  0.933431  0.087565  1
  Ga  Ga6  1  0.064459  0.672229  0.198853  1
  Ga  Ga7  1  0.935133  0.324957  0.804775  1
  Ga  Ga8  1  0.101006  0.347101  0.450886  1
  Ga  Ga9  1  0.900199  0.656927  0.542677  1
  Ga  Ga10  1  0.201100  0.605950  0.991851  1
  Ga  Ga11  1  0.798415  0.393862  0.009309  1
  Ga  Ga12  1  0.261574  0.778264  0.698588  1
  Ga  Ga13  1  0.738224  0.222979  0.300573  1
  Ga  Ga14  1  0.303244  0.899799  0.493714  1
  Ga  Ga15  1  0.698475  0.098339  0.504711  1
  Ga  Ga16  1  0.389485  0.521254  0.699775  1
  Ga  Ga17  1  0.608379  0.483317  0.299925  1
  Ga  Ga18  1  0.396789  0.204291  0.002133  1
  Ga  Ga19  1  0.602752  0.796402  0.998093  1
  Ga  Ga20  1  0.543530  0.283795  0.629145  1
  Ga  Ga21  1  0.460045  0.712144  0.367767  1
  Ga  Ga22  1  0.638579  0.930483  0.792360  1
  Ga  Ga23  1  0.360534  0.070321  0.208611  1
  Ir  Ir24  1  0.026299  0.575024  0.372377  1
  Pt  Pt25  1  0.499247  0.499040  0.502467  1
  Pt  Pt26  1  0.973260  0.422821  0.630658  1
  Pt  Pt27  1  0.140633  0.831498  0.887235  1
  Pt  Pt28  1  0.859355  0.168597  0.112693  1
  Pt  Pt29  1  0.238629  0.130182  0.392558  1
  Pt  Pt30  1  0.761029  0.869981  0.607963  1
  Pt  Pt31  1  0.345146  0.416723  0.892984  1
  Pt  Pt32  1  0.655018  0.583823  0.106141  1
  Pt  Pt33  1  0.506923  0.167033  0.819124  1
  Pt  Pt34  1  0.493211  0.833383  0.180192  1
