# generated using pymatgen
data_Tb8BeZn2Si12Pt
_symmetry_space_group_name_H-M   'P 1'
_cell_length_a   8.08350600
_cell_length_b   8.08350466
_cell_length_c   8.19167100
_cell_angle_alpha   90.00000000
_cell_angle_beta   90.00000000
_cell_angle_gamma   120.00000548
_symmetry_Int_Tables_number   1
_chemical_formula_structural   Tb8BeZn2Si12Pt
_chemical_formula_sum   'Tb8 Be1 Zn2 Si12 Pt1'
_cell_volume   463.55638481
_cell_formula_units_Z   1
loop_
 _symmetry_equiv_pos_site_id
 _symmetry_equiv_pos_as_xyz
  1  'x, y, z'
loop_
 _atom_site_type_symbol
 _atom_site_label
 _atom_site_symmetry_multiplicity
 _atom_site_fract_x
 _atom_site_fract_y
 _atom_site_fract_z
 _atom_site_occupancy
  Tb  Tb0  1  0.497999  0.995998  0.246226  1
  Tb  Tb1  1  0.497490  0.994981  0.753395  1
  Tb  Tb2  1  0.004002  0.502001  0.246226  1
  Tb  Tb3  1  0.005019  0.502510  0.753395  1
  Tb  Tb4  1  0.497999  0.502001  0.246226  1
  Tb  Tb5  1  0.497490  0.502510  0.753395  1
  Tb  Tb6  1  0.000000  0.000000  0.248680  1
  Tb  Tb7  1  0.000000  0.000000  0.752187  1
  Be  Be8  1  0.333333  0.666667  0.002386  1
  Zn  Zn9  1  0.666667  0.333333  0.996670  1
  Zn  Zn10  1  0.666667  0.333333  0.499552  1
  Si  Si11  1  0.174440  0.348881  0.999119  1
  Si  Si12  1  0.835014  0.670027  0.001274  1
  Si  Si13  1  0.651119  0.825560  0.999119  1
  Si  Si14  1  0.835338  0.670677  0.501415  1
  Si  Si15  1  0.329973  0.164986  0.001274  1
  Si  Si16  1  0.167089  0.334178  0.498775  1
  Si  Si17  1  0.174440  0.825560  0.999119  1
  Si  Si18  1  0.329323  0.164662  0.501415  1
  Si  Si19  1  0.835014  0.164986  0.001274  1
  Si  Si20  1  0.665822  0.832911  0.498775  1
  Si  Si21  1  0.835338  0.164662  0.501415  1
  Si  Si22  1  0.167089  0.832911  0.498775  1
  Pt  Pt23  1  0.333333  0.666667  0.499916  1
