# generated using pymatgen
data_PIr3S7
_symmetry_space_group_name_H-M   'P 1'
_cell_length_a   5.69673446
_cell_length_b   5.69673397
_cell_length_c   5.69673518
_cell_angle_alpha   90.36940904
_cell_angle_beta   90.36941231
_cell_angle_gamma   90.36941098
_symmetry_Int_Tables_number   1
_chemical_formula_structural   PIr3S7
_chemical_formula_sum   'P1 Ir3 S7'
_cell_volume   184.86332035
_cell_formula_units_Z   1
loop_
 _symmetry_equiv_pos_site_id
 _symmetry_equiv_pos_as_xyz
  1  'x, y, z'
loop_
 _atom_site_type_symbol
 _atom_site_label
 _atom_site_symmetry_multiplicity
 _atom_site_fract_x
 _atom_site_fract_y
 _atom_site_fract_z
 _atom_site_occupancy
  P  P0  1  0.613483  0.613483  0.613483  1
  Ir  Ir1  1  0.994026  0.501191  0.501233  1
  Ir  Ir2  1  0.501233  0.994026  0.501191  1
  Ir  Ir3  1  0.501191  0.501233  0.994026  1
  S  S4  1  0.395954  0.888777  0.107491  1
  S  S5  1  0.107491  0.395954  0.888777  1
  S  S6  1  0.888777  0.107491  0.395954  1
  S  S7  1  0.605355  0.110572  0.891434  1
  S  S8  1  0.891434  0.605355  0.110572  1
  S  S9  1  0.110572  0.891434  0.605355  1
  S  S10  1  0.390484  0.390484  0.390484  1
