# generated using pymatgen
data_Ta12Al2GaPt5N4
_symmetry_space_group_name_H-M   'P 1'
_cell_length_a   7.04251223
_cell_length_b   7.04214217
_cell_length_c   7.04358973
_cell_angle_alpha   90.11713979
_cell_angle_beta   89.75065876
_cell_angle_gamma   89.86252864
_symmetry_Int_Tables_number   1
_chemical_formula_structural   Ta12Al2GaPt5N4
_chemical_formula_sum   'Ta12 Al2 Ga1 Pt5 N4'
_cell_volume   349.31736081
_cell_formula_units_Z   1
loop_
 _symmetry_equiv_pos_site_id
 _symmetry_equiv_pos_as_xyz
  1  'x, y, z'
loop_
 _atom_site_type_symbol
 _atom_site_label
 _atom_site_symmetry_multiplicity
 _atom_site_fract_x
 _atom_site_fract_y
 _atom_site_fract_z
 _atom_site_occupancy
  Ta  Ta0  1  0.790078  0.957441  0.375965  1
  Ta  Ta1  1  0.708133  0.049191  0.881847  1
  Ta  Ta2  1  0.213111  0.453689  0.124731  1
  Ta  Ta3  1  0.296084  0.540322  0.628418  1
  Ta  Ta4  1  0.950794  0.381757  0.791355  1
  Ta  Ta5  1  0.042821  0.877103  0.708910  1
  Ta  Ta6  1  0.459552  0.129330  0.204288  1
  Ta  Ta7  1  0.546052  0.624694  0.287903  1
  Ta  Ta8  1  0.375267  0.787863  0.953721  1
  Ta  Ta9  1  0.871170  0.704572  0.039959  1
  Ta  Ta10  1  0.123888  0.208934  0.458299  1
  Ta  Ta11  1  0.619149  0.291908  0.549495  1
  Al  Al12  1  0.932975  0.571523  0.426709  1
  Al  Al13  1  0.072227  0.067199  0.072420  1
  Ga  Ga14  1  0.429067  0.928495  0.565025  1
  Pt  Pt15  1  0.176217  0.819714  0.318213  1
  Pt  Pt16  1  0.308984  0.168972  0.818313  1
  Pt  Pt17  1  0.833253  0.315480  0.189254  1
  Pt  Pt18  1  0.687882  0.686744  0.667609  1
  Pt  Pt19  1  0.565597  0.434716  0.935215  1
  N  N20  1  0.871646  0.126963  0.627751  1
  N  N21  1  0.622008  0.874662  0.122798  1
  N  N22  1  0.125779  0.622345  0.876590  1
  N  N23  1  0.378270  0.376383  0.375213  1
