# generated using pymatgen
data_Sm2Y4NiRh17
_symmetry_space_group_name_H-M   'P 1'
_cell_length_a   5.29063900
_cell_length_b   5.29066506
_cell_length_c   17.37575200
_cell_angle_alpha   90.00000000
_cell_angle_beta   90.00000000
_cell_angle_gamma   119.99987749
_symmetry_Int_Tables_number   1
_chemical_formula_structural   Sm2Y4NiRh17
_chemical_formula_sum   'Sm2 Y4 Ni1 Rh17'
_cell_volume   421.20466674
_cell_formula_units_Z   1
loop_
 _symmetry_equiv_pos_site_id
 _symmetry_equiv_pos_as_xyz
  1  'x, y, z'
loop_
 _atom_site_type_symbol
 _atom_site_label
 _atom_site_symmetry_multiplicity
 _atom_site_fract_x
 _atom_site_fract_y
 _atom_site_fract_z
 _atom_site_occupancy
  Sm  Sm0  1  0.333331  0.666663  0.750000  1
  Sm  Sm1  1  0.666666  0.333332  0.250000  1
  Y  Y2  1  0.333333  0.666666  0.958789  1
  Y  Y3  1  0.666666  0.333332  0.042430  1
  Y  Y4  1  0.666666  0.333332  0.457570  1
  Y  Y5  1  0.333333  0.666666  0.541211  1
  Ni  Ni6  1  0.333340  0.666678  0.250000  1
  Rh  Rh7  1  0.168641  0.831349  0.371935  1
  Rh  Rh8  1  0.168644  0.337288  0.371935  1
  Rh  Rh9  1  0.662708  0.831350  0.371935  1
  Rh  Rh10  1  0.832986  0.167008  0.624427  1
  Rh  Rh11  1  0.832986  0.665973  0.624429  1
  Rh  Rh12  1  0.334020  0.167009  0.624427  1
  Rh  Rh13  1  0.832986  0.167008  0.875573  1
  Rh  Rh14  1  0.832986  0.665973  0.875571  1
  Rh  Rh15  1  0.334020  0.167009  0.875573  1
  Rh  Rh16  1  0.168641  0.831349  0.128065  1
  Rh  Rh17  1  0.168644  0.337288  0.128065  1
  Rh  Rh18  1  0.662708  0.831350  0.128065  1
  Rh  Rh19  1  0.666645  0.333303  0.750000  1
  Rh  Rh20  1  0.000013  0.000024  0.250000  1
  Rh  Rh21  1  0.000026  0.000039  0.750000  1
  Rh  Rh22  1  0.000006  0.000007  0.497286  1
  Rh  Rh23  1  0.000006  0.000007  0.002714  1
