# generated using pymatgen
data_Mn4VSi2Ir
_symmetry_space_group_name_H-M   'P 1'
_cell_length_a   7.04164912
_cell_length_b   7.04164970
_cell_length_c   7.04164912
_cell_angle_alpha   33.40243871
_cell_angle_beta   33.40243521
_cell_angle_gamma   33.40244557
_symmetry_Int_Tables_number   1
_chemical_formula_structural   Mn4VSi2Ir
_chemical_formula_sum   'Mn4 V1 Si2 Ir1'
_cell_volume   94.23149564
_cell_formula_units_Z   1
loop_
 _symmetry_equiv_pos_site_id
 _symmetry_equiv_pos_as_xyz
  1  'x, y, z'
loop_
 _atom_site_type_symbol
 _atom_site_label
 _atom_site_symmetry_multiplicity
 _atom_site_fract_x
 _atom_site_fract_y
 _atom_site_fract_z
 _atom_site_occupancy
  Mn  Mn0  1  0.005552  0.005552  0.005552  1
  Mn  Mn1  1  0.124402  0.124402  0.124402  1
  Mn  Mn2  1  0.876237  0.876237  0.876237  1
  Mn  Mn3  1  0.373874  0.373874  0.373874  1
  V  V4  1  0.495156  0.495156  0.495156  1
  Si  Si5  1  0.245248  0.245248  0.245248  1
  Si  Si6  1  0.754272  0.754272  0.754272  1
  Ir  Ir7  1  0.625260  0.625260  0.625260  1
