# generated using pymatgen
data_Tb16CdHg3RuRh3
_symmetry_space_group_name_H-M   'P 1'
_cell_length_a   9.64078932
_cell_length_b   9.64078835
_cell_length_c   9.66546285
_cell_angle_alpha   59.97216706
_cell_angle_beta   59.97217312
_cell_angle_gamma   59.87203614
_symmetry_Int_Tables_number   1
_chemical_formula_structural   Tb16CdHg3RuRh3
_chemical_formula_sum   'Tb16 Cd1 Hg3 Ru1 Rh3'
_cell_volume   634.34946361
_cell_formula_units_Z   1
loop_
 _symmetry_equiv_pos_site_id
 _symmetry_equiv_pos_as_xyz
  1  'x, y, z'
loop_
 _atom_site_type_symbol
 _atom_site_label
 _atom_site_symmetry_multiplicity
 _atom_site_fract_x
 _atom_site_fract_y
 _atom_site_fract_z
 _atom_site_occupancy
  Tb  Tb0  1  0.299147  0.900470  0.898927  1
  Tb  Tb1  1  0.690509  0.311147  0.685862  1
  Tb  Tb2  1  0.312967  0.687745  0.312666  1
  Tb  Tb3  1  0.062470  0.437526  0.440613  1
  Tb  Tb4  1  0.687745  0.312967  0.312666  1
  Tb  Tb5  1  0.437526  0.062470  0.440613  1
  Tb  Tb6  1  0.440796  0.059841  0.059531  1
  Tb  Tb7  1  0.899777  0.899777  0.898739  1
  Tb  Tb8  1  0.059841  0.440796  0.059531  1
  Tb  Tb9  1  0.900470  0.299147  0.898927  1
  Tb  Tb10  1  0.311147  0.690509  0.685862  1
  Tb  Tb11  1  0.898585  0.898585  0.301137  1
  Tb  Tb12  1  0.439859  0.439859  0.060869  1
  Tb  Tb13  1  0.312140  0.312140  0.686751  1
  Tb  Tb14  1  0.687034  0.687034  0.311884  1
  Tb  Tb15  1  0.060269  0.060269  0.441627  1
  Cd  Cd16  1  0.670668  0.670668  0.670204  1
  Hg  Hg17  1  0.005538  0.664290  0.664180  1
  Hg  Hg18  1  0.664290  0.005538  0.664180  1
  Hg  Hg19  1  0.664181  0.664181  0.005597  1
  Ru  Ru20  1  0.105910  0.105910  0.675498  1
  Rh  Rh21  1  0.105949  0.675517  0.107337  1
  Rh  Rh22  1  0.107663  0.107663  0.109461  1
  Rh  Rh23  1  0.675517  0.105949  0.107337  1
