# generated using pymatgen
data_Hf6Ga6Ir4PdPt
_symmetry_space_group_name_H-M   'P 1'
_cell_length_a   7.22947800
_cell_length_b   7.22947698
_cell_length_c   6.88675700
_cell_angle_alpha   90.00000000
_cell_angle_beta   90.00000000
_cell_angle_gamma   119.99999553
_symmetry_Int_Tables_number   1
_chemical_formula_structural   Hf6Ga6Ir4PdPt
_chemical_formula_sum   'Hf6 Ga6 Ir4 Pd1 Pt1'
_cell_volume   311.71609703
_cell_formula_units_Z   1
loop_
 _symmetry_equiv_pos_site_id
 _symmetry_equiv_pos_as_xyz
  1  'x, y, z'
loop_
 _atom_site_type_symbol
 _atom_site_label
 _atom_site_symmetry_multiplicity
 _atom_site_fract_x
 _atom_site_fract_y
 _atom_site_fract_z
 _atom_site_occupancy
  Hf  Hf0  1  0.605403  0.595556  0.250000  1
  Hf  Hf1  1  0.010258  0.409482  0.750000  1
  Hf  Hf2  1  0.404444  0.009848  0.250000  1
  Hf  Hf3  1  0.990152  0.394597  0.250000  1
  Hf  Hf4  1  0.399224  0.989742  0.750000  1
  Hf  Hf5  1  0.590518  0.600776  0.750000  1
  Ga  Ga6  1  0.269596  0.269639  0.501161  1
  Ga  Ga7  1  0.730361  0.999957  0.501161  1
  Ga  Ga8  1  0.000043  0.730404  0.501161  1
  Ga  Ga9  1  0.730361  0.999957  0.998839  1
  Ga  Ga10  1  0.269596  0.269639  0.998839  1
  Ga  Ga11  1  0.000043  0.730404  0.998839  1
  Ir  Ir12  1  0.333333  0.666667  0.485765  1
  Ir  Ir13  1  0.333333  0.666667  0.014235  1
  Ir  Ir14  1  0.666667  0.333333  0.513524  1
  Ir  Ir15  1  0.666667  0.333333  0.986476  1
  Pd  Pd16  1  0.000000  0.000000  0.750000  1
  Pt  Pt17  1  0.000000  0.000000  0.250000  1
