# generated using pymatgen
data_Nd3MgCd2Ag2Ir
_symmetry_space_group_name_H-M   'P 1'
_cell_length_a   7.98002454
_cell_length_b   8.04756860
_cell_length_c   3.95524600
_cell_angle_alpha   90.00000000
_cell_angle_beta   90.00000000
_cell_angle_gamma   119.68778159
_symmetry_Int_Tables_number   1
_chemical_formula_structural   Nd3MgCd2Ag2Ir
_chemical_formula_sum   'Nd3 Mg1 Cd2 Ag2 Ir1'
_cell_volume   220.66365585
_cell_formula_units_Z   1
loop_
 _symmetry_equiv_pos_site_id
 _symmetry_equiv_pos_as_xyz
  1  'x, y, z'
loop_
 _atom_site_type_symbol
 _atom_site_label
 _atom_site_symmetry_multiplicity
 _atom_site_fract_x
 _atom_site_fract_y
 _atom_site_fract_z
 _atom_site_occupancy
  Nd  Nd0  1  0.581172  0.971551  0.000000  1
  Nd  Nd1  1  0.022916  0.597149  0.000000  1
  Nd  Nd2  1  0.397183  0.434533  0.000000  1
  Mg  Mg3  1  0.255010  0.998360  0.500000  1
  Cd  Cd4  1  0.998700  0.256349  0.500000  1
  Cd  Cd5  1  0.746372  0.738409  0.500000  1
  Ag  Ag6  1  0.657672  0.325384  0.500000  1
  Ag  Ag7  1  0.009600  0.001004  0.000000  1
  Ir  Ir8  1  0.331377  0.677259  0.500000  1
