# generated using pymatgen
data_Dy6P12Ir5Ru13
_symmetry_space_group_name_H-M   'P 1'
_cell_length_a   3.97553600
_cell_length_b   11.25426110
_cell_length_c   12.56406544
_cell_angle_alpha   89.72516357
_cell_angle_beta   90.00000000
_cell_angle_gamma   90.00000000
_symmetry_Int_Tables_number   1
_chemical_formula_structural   Dy6P12Ir5Ru13
_chemical_formula_sum   'Dy6 P12 Ir5 Ru13'
_cell_volume   562.13143266
_cell_formula_units_Z   1
loop_
 _symmetry_equiv_pos_site_id
 _symmetry_equiv_pos_as_xyz
  1  'x, y, z'
loop_
 _atom_site_type_symbol
 _atom_site_label
 _atom_site_symmetry_multiplicity
 _atom_site_fract_x
 _atom_site_fract_y
 _atom_site_fract_z
 _atom_site_occupancy
  Dy  Dy0  1  0.000000  0.498813  0.523943  1
  Dy  Dy1  1  0.500000  0.001928  0.476823  1
  Dy  Dy2  1  0.500000  0.818671  0.204055  1
  Dy  Dy3  1  0.500000  0.180397  0.204400  1
  Dy  Dy4  1  0.000000  0.681842  0.795521  1
  Dy  Dy5  1  0.000000  0.319411  0.795813  1
  P  P6  1  0.500000  0.501050  0.881727  1
  P  P7  1  0.000000  0.999297  0.118440  1
  P  P8  1  0.500000  0.499903  0.344198  1
  P  P9  1  0.000000  0.993910  0.658043  1
  P  P10  1  0.500000  0.305697  0.615598  1
  P  P11  1  0.500000  0.697195  0.617070  1
  P  P12  1  0.000000  0.193651  0.384849  1
  P  P13  1  0.000000  0.804064  0.383182  1
  P  P14  1  0.500000  0.845734  0.894155  1
  P  P15  1  0.500000  0.157008  0.897779  1
  P  P16  1  0.000000  0.656700  0.102529  1
  P  P17  1  0.000000  0.343052  0.102814  1
  Ir  Ir18  1  0.500000  0.500231  0.693523  1
  Ir  Ir19  1  0.000000  0.999323  0.306655  1
  Ir  Ir20  1  0.500000  0.126068  0.716361  1
  Ir  Ir21  1  0.000000  0.623334  0.284514  1
  Ir  Ir22  1  0.000000  0.374744  0.284556  1
  Ru  Ru23  1  0.500000  0.500243  0.159212  1
  Ru  Ru24  1  0.000000  0.000854  0.842424  1
  Ru  Ru25  1  0.000000  0.500561  0.987596  1
  Ru  Ru26  1  0.500000  0.999655  0.013238  1
  Ru  Ru27  1  0.500000  0.333158  0.991764  1
  Ru  Ru28  1  0.500000  0.668332  0.990553  1
  Ru  Ru29  1  0.000000  0.167282  0.008977  1
  Ru  Ru30  1  0.000000  0.832748  0.008956  1
  Ru  Ru31  1  0.500000  0.298318  0.428516  1
  Ru  Ru32  1  0.500000  0.700449  0.428176  1
  Ru  Ru33  1  0.000000  0.199771  0.572150  1
  Ru  Ru34  1  0.000000  0.796740  0.569528  1
  Ru  Ru35  1  0.500000  0.879864  0.712362  1
