# generated using pymatgen
data_Tb2DyTaO7
_symmetry_space_group_name_H-M   'P 1'
_cell_length_a   6.51976852
_cell_length_b   6.51976900
_cell_length_c   7.49536031
_cell_angle_alpha   90.01878977
_cell_angle_beta   90.01879695
_cell_angle_gamma   108.58358656
_symmetry_Int_Tables_number   1
_chemical_formula_structural   Tb2DyTaO7
_chemical_formula_sum   'Tb4 Dy2 Ta2 O14'
_cell_volume   301.99580461
_cell_formula_units_Z   2
loop_
 _symmetry_equiv_pos_site_id
 _symmetry_equiv_pos_as_xyz
  1  'x, y, z'
loop_
 _atom_site_type_symbol
 _atom_site_label
 _atom_site_symmetry_multiplicity
 _atom_site_fract_x
 _atom_site_fract_y
 _atom_site_fract_z
 _atom_site_occupancy
  Tb  Tb0  1  0.999784  0.535251  0.241576  1
  Tb  Tb1  1  0.464749  0.000216  0.258424  1
  Tb  Tb2  1  0.462014  0.462338  0.999626  1
  Tb  Tb3  1  0.537662  0.537986  0.500374  1
  Dy  Dy4  1  0.999853  0.464743  0.741468  1
  Dy  Dy5  1  0.535257  0.000147  0.758532  1
  Ta  Ta6  1  0.002419  0.002420  0.500608  1
  Ta  Ta7  1  0.997580  0.997581  0.999392  1
  O  O8  1  0.931746  0.068254  0.750000  1
  O  O9  1  0.640326  0.359674  0.750000  1
  O  O10  1  0.306287  0.047307  0.544679  1
  O  O11  1  0.952693  0.693713  0.955321  1
  O  O12  1  0.629033  0.370967  0.250000  1
  O  O13  1  0.918147  0.672713  0.525133  1
  O  O14  1  0.327287  0.081853  0.974867  1
  O  O15  1  0.082097  0.327215  0.023613  1
  O  O16  1  0.672785  0.917903  0.476387  1
  O  O17  1  0.370568  0.629432  0.750000  1
  O  O18  1  0.693072  0.950688  0.042640  1
  O  O19  1  0.049312  0.306928  0.457360  1
  O  O20  1  0.360714  0.639286  0.250000  1
  O  O21  1  0.066611  0.933389  0.250000  1
