# generated using pymatgen
data_Sc8AlIr3Ru4
_symmetry_space_group_name_H-M   'P 1'
_cell_length_a   6.43714800
_cell_length_b   4.59803300
_cell_length_c   9.19633800
_cell_angle_alpha   90.00000000
_cell_angle_beta   89.99773302
_cell_angle_gamma   90.00000000
_symmetry_Int_Tables_number   1
_chemical_formula_structural   Sc8AlIr3Ru4
_chemical_formula_sum   'Sc8 Al1 Ir3 Ru4'
_cell_volume   272.19522537
_cell_formula_units_Z   1
loop_
 _symmetry_equiv_pos_site_id
 _symmetry_equiv_pos_as_xyz
  1  'x, y, z'
loop_
 _atom_site_type_symbol
 _atom_site_label
 _atom_site_symmetry_multiplicity
 _atom_site_fract_x
 _atom_site_fract_y
 _atom_site_fract_z
 _atom_site_occupancy
  Sc  Sc0  1  0.010388  0.750000  0.125005  1
  Sc  Sc1  1  0.489424  0.750000  0.125008  1
  Sc  Sc2  1  0.004507  0.250000  0.380670  1
  Sc  Sc3  1  0.495301  0.250000  0.380666  1
  Sc  Sc4  1  0.501026  0.750000  0.624988  1
  Sc  Sc5  1  0.999189  0.750000  0.625006  1
  Sc  Sc6  1  0.495505  0.250000  0.869320  1
  Sc  Sc7  1  0.004670  0.250000  0.869360  1
  Al  Al8  1  0.749916  0.250000  0.125041  1
  Ir  Ir9  1  0.249933  0.750000  0.375828  1
  Ir  Ir10  1  0.750063  0.250000  0.624990  1
  Ir  Ir11  1  0.250062  0.750000  0.874231  1
  Ru  Ru12  1  0.249966  0.250000  0.124939  1
  Ru  Ru13  1  0.749966  0.750000  0.369508  1
  Ru  Ru14  1  0.250037  0.250000  0.624949  1
  Ru  Ru15  1  0.750048  0.750000  0.880485  1
