# generated using pymatgen
data_Ho2MgAl3SiAu2
_symmetry_space_group_name_H-M   'P 1'
_cell_length_a   6.84897039
_cell_length_b   7.04457153
_cell_length_c   4.21039900
_cell_angle_alpha   90.00000000
_cell_angle_beta   90.00000000
_cell_angle_gamma   120.33612111
_symmetry_Int_Tables_number   1
_chemical_formula_structural   Ho2MgAl3SiAu2
_chemical_formula_sum   'Ho2 Mg1 Al3 Si1 Au2'
_cell_volume   175.32862399
_cell_formula_units_Z   1
loop_
 _symmetry_equiv_pos_site_id
 _symmetry_equiv_pos_as_xyz
  1  'x, y, z'
loop_
 _atom_site_type_symbol
 _atom_site_label
 _atom_site_symmetry_multiplicity
 _atom_site_fract_x
 _atom_site_fract_y
 _atom_site_fract_z
 _atom_site_occupancy
  Ho  Ho0  1  0.427689  0.423684  0.500000  1
  Ho  Ho1  1  0.580141  0.007761  0.500000  1
  Mg  Mg2  1  0.002900  0.583635  0.500000  1
  Al  Al3  1  0.752629  0.757988  0.000000  1
  Al  Al4  1  0.244242  0.998742  0.000000  1
  Al  Al5  1  0.004079  0.244980  0.000000  1
  Si  Si6  1  0.669070  0.334208  0.000000  1
  Au  Au7  1  0.319851  0.663444  0.000000  1
  Au  Au8  1  0.999399  0.985560  0.500000  1
