# generated using pymatgen
data_Tm2MnBe2Rh5
_symmetry_space_group_name_H-M   'P 1'
_cell_length_a   9.58309300
_cell_length_b   9.58309300
_cell_length_c   3.21789200
_cell_angle_alpha   90.00000000
_cell_angle_beta   90.00000000
_cell_angle_gamma   90.00000000
_symmetry_Int_Tables_number   1
_chemical_formula_structural   Tm2MnBe2Rh5
_chemical_formula_sum   'Tm4 Mn2 Be4 Rh10'
_cell_volume   295.51727246
_cell_formula_units_Z   2
loop_
 _symmetry_equiv_pos_site_id
 _symmetry_equiv_pos_as_xyz
  1  'x, y, z'
loop_
 _atom_site_type_symbol
 _atom_site_label
 _atom_site_symmetry_multiplicity
 _atom_site_fract_x
 _atom_site_fract_y
 _atom_site_fract_z
 _atom_site_occupancy
  Tm  Tm0  1  0.823515  0.323515  0.000000  1
  Tm  Tm1  1  0.323515  0.176485  0.000000  1
  Tm  Tm2  1  0.676485  0.823515  0.000000  1
  Tm  Tm3  1  0.176485  0.676485  0.000000  1
  Mn  Mn4  1  0.000000  0.000000  0.000000  1
  Mn  Mn5  1  0.500000  0.500000  0.000000  1
  Be  Be6  1  0.622163  0.122163  0.000000  1
  Be  Be7  1  0.122163  0.377837  0.000000  1
  Be  Be8  1  0.877837  0.622163  0.000000  1
  Be  Be9  1  0.377837  0.877837  0.000000  1
  Rh  Rh10  1  0.067945  0.211891  0.500000  1
  Rh  Rh11  1  0.211891  0.932055  0.500000  1
  Rh  Rh12  1  0.788109  0.067945  0.500000  1
  Rh  Rh13  1  0.932055  0.788109  0.500000  1
  Rh  Rh14  1  0.432055  0.711891  0.500000  1
  Rh  Rh15  1  0.567945  0.288109  0.500000  1
  Rh  Rh16  1  0.711891  0.567945  0.500000  1
  Rh  Rh17  1  0.288109  0.432055  0.500000  1
  Rh  Rh18  1  0.500000  0.000000  0.500000  1
  Rh  Rh19  1  0.000000  0.500000  0.500000  1
