# generated using pymatgen
data_Ca4Nd15YSn16
_symmetry_space_group_name_H-M   'P 1'
_cell_length_a   8.12266696
_cell_length_b   8.51403784
_cell_length_c   16.21406600
_cell_angle_alpha   90.14659703
_cell_angle_beta   89.83678864
_cell_angle_gamma   90.04830499
_symmetry_Int_Tables_number   1
_chemical_formula_structural   Ca4Nd15YSn16
_chemical_formula_sum   'Ca4 Nd15 Y1 Sn16'
_cell_volume   1121.30258688
_cell_formula_units_Z   1
loop_
 _symmetry_equiv_pos_site_id
 _symmetry_equiv_pos_as_xyz
  1  'x, y, z'
loop_
 _atom_site_type_symbol
 _atom_site_label
 _atom_site_symmetry_multiplicity
 _atom_site_fract_x
 _atom_site_fract_y
 _atom_site_fract_z
 _atom_site_occupancy
  Ca  Ca0  1  0.169261  0.494499  0.749997  1
  Ca  Ca1  1  0.669913  0.005367  0.750017  1
  Ca  Ca2  1  0.831011  0.504745  0.250251  1
  Ca  Ca3  1  0.331136  0.993601  0.249482  1
  Nd  Nd4  1  0.840169  0.671442  0.625539  1
  Nd  Nd5  1  0.658271  0.171097  0.375535  1
  Nd  Nd6  1  0.162142  0.327431  0.122545  1
  Nd  Nd7  1  0.662973  0.171230  0.123298  1
  Nd  Nd8  1  0.159246  0.328157  0.375567  1
  Nd  Nd9  1  0.341988  0.829143  0.625408  1
  Nd  Nd10  1  0.839206  0.673473  0.876254  1
  Nd  Nd11  1  0.494615  0.319651  0.904193  1
  Nd  Nd12  1  0.996286  0.182243  0.597437  1
  Nd  Nd13  1  0.505214  0.683385  0.404245  1
  Nd  Nd14  1  0.006229  0.815078  0.095645  1
  Nd  Nd15  1  0.504283  0.680984  0.094557  1
  Nd  Nd16  1  0.004703  0.818305  0.404079  1
  Nd  Nd17  1  0.495234  0.317011  0.597257  1
  Nd  Nd18  1  0.993842  0.183629  0.903708  1
  Y  Y19  1  0.336299  0.828766  0.874328  1
  Sn  Sn20  1  0.322402  0.034534  0.034351  1
  Sn  Sn21  1  0.819792  0.462116  0.463737  1
  Sn  Sn22  1  0.683675  0.961307  0.536606  1
  Sn  Sn23  1  0.182310  0.541081  0.961468  1
  Sn  Sn24  1  0.668234  0.962447  0.960543  1
  Sn  Sn25  1  0.180350  0.538435  0.537185  1
  Sn  Sn26  1  0.318049  0.039094  0.464310  1
  Sn  Sn27  1  0.822092  0.462610  0.036676  1
  Sn  Sn28  1  0.535369  0.607765  0.752044  1
  Sn  Sn29  1  0.038965  0.895448  0.752572  1
  Sn  Sn30  1  0.462958  0.395025  0.249666  1
  Sn  Sn31  1  0.963419  0.103260  0.249432  1
  Sn  Sn32  1  0.299723  0.139234  0.752136  1
  Sn  Sn33  1  0.796984  0.360391  0.751531  1
  Sn  Sn34  1  0.701928  0.858188  0.249269  1
  Sn  Sn35  1  0.201733  0.639832  0.249132  1
