# generated using pymatgen
data_Na16ZrTiP8
_symmetry_space_group_name_H-M   'P 1'
_cell_length_a   9.60843269
_cell_length_b   9.60843227
_cell_length_c   9.60843300
_cell_angle_alpha   60.00000094
_cell_angle_beta   60.00000238
_cell_angle_gamma   59.99999816
_symmetry_Int_Tables_number   1
_chemical_formula_structural   Na16ZrTiP8
_chemical_formula_sum   'Na16 Zr1 Ti1 P8'
_cell_volume   627.25287223
_cell_formula_units_Z   1
loop_
 _symmetry_equiv_pos_site_id
 _symmetry_equiv_pos_as_xyz
  1  'x, y, z'
loop_
 _atom_site_type_symbol
 _atom_site_label
 _atom_site_symmetry_multiplicity
 _atom_site_fract_x
 _atom_site_fract_y
 _atom_site_fract_z
 _atom_site_occupancy
  Na  Na0  1  0.469575  0.030425  0.030425  1
  Na  Na1  1  0.030425  0.469575  0.030425  1
  Na  Na2  1  0.469575  0.469575  0.030426  1
  Na  Na3  1  0.626700  0.626700  0.119900  1
  Na  Na4  1  0.780618  0.219382  0.219382  1
  Na  Na5  1  0.219382  0.780618  0.219382  1
  Na  Na6  1  0.780618  0.780618  0.219381  1
  Na  Na7  1  0.030425  0.030425  0.469575  1
  Na  Na8  1  0.469575  0.030426  0.469575  1
  Na  Na9  1  0.030426  0.469575  0.469575  1
  Na  Na10  1  0.626700  0.119900  0.626700  1
  Na  Na11  1  0.119900  0.626700  0.626700  1
  Na  Na12  1  0.626700  0.626700  0.626700  1
  Na  Na13  1  0.219382  0.219382  0.780618  1
  Na  Na14  1  0.780618  0.219381  0.780618  1
  Na  Na15  1  0.219381  0.780618  0.780618  1
  Zr  Zr16  1  0.500000  0.500000  0.500000  1
  Ti  Ti17  1  0.750000  0.750000  0.750000  1
  P  P18  1  0.823420  0.392193  0.392193  1
  P  P19  1  0.392193  0.823420  0.392193  1
  P  P20  1  0.392193  0.392193  0.392193  1
  P  P21  1  0.853320  0.853320  0.440043  1
  P  P22  1  0.392193  0.392193  0.823420  1
  P  P23  1  0.853320  0.440043  0.853320  1
  P  P24  1  0.853320  0.853320  0.853320  1
  P  P25  1  0.440043  0.853320  0.853320  1
