# generated using pymatgen
data_Ho3Lu3Al17Si7Os8
_symmetry_space_group_name_H-M   'P 1'
_cell_length_a   8.67596202
_cell_length_b   8.66463971
_cell_length_c   9.45778700
_cell_angle_alpha   90.00000000
_cell_angle_beta   90.00000000
_cell_angle_gamma   120.09916048
_symmetry_Int_Tables_number   1
_chemical_formula_structural   Ho3Lu3Al17Si7Os8
_chemical_formula_sum   'Ho3 Lu3 Al17 Si7 Os8'
_cell_volume   615.11100060
_cell_formula_units_Z   1
loop_
 _symmetry_equiv_pos_site_id
 _symmetry_equiv_pos_as_xyz
  1  'x, y, z'
loop_
 _atom_site_type_symbol
 _atom_site_label
 _atom_site_symmetry_multiplicity
 _atom_site_fract_x
 _atom_site_fract_y
 _atom_site_fract_z
 _atom_site_occupancy
  Ho  Ho0  1  0.807008  0.614091  0.750000  1
  Ho  Ho1  1  0.387807  0.190985  0.750000  1
  Ho  Ho2  1  0.802710  0.191493  0.750000  1
  Lu  Lu3  1  0.194271  0.391567  0.250000  1
  Lu  Lu4  1  0.607646  0.805776  0.250000  1
  Lu  Lu5  1  0.197384  0.803718  0.250000  1
  Al  Al6  1  0.164437  0.329745  0.577794  1
  Al  Al7  1  0.834473  0.671649  0.419947  1
  Al  Al8  1  0.671207  0.835023  0.577340  1
  Al  Al9  1  0.834473  0.671649  0.080053  1
  Al  Al10  1  0.329202  0.165662  0.421126  1
  Al  Al11  1  0.164437  0.329745  0.922206  1
  Al  Al12  1  0.163786  0.834289  0.576278  1
  Al  Al13  1  0.329202  0.165662  0.078874  1
  Al  Al14  1  0.835651  0.163782  0.420411  1
  Al  Al15  1  0.671207  0.835023  0.922660  1
  Al  Al16  1  0.835651  0.163782  0.079589  1
  Al  Al17  1  0.163786  0.834289  0.923722  1
  Al  Al18  1  0.125815  0.565449  0.750000  1
  Al  Al19  1  0.564146  0.435585  0.250000  1
  Al  Al20  1  0.438633  0.566246  0.750000  1
  Al  Al21  1  0.999568  0.999472  0.250000  1
  Al  Al22  1  0.999821  0.000703  0.750000  1
  Si  Si23  1  0.333448  0.664748  0.041180  1
  Si  Si24  1  0.666503  0.335670  0.960087  1
  Si  Si25  1  0.666503  0.335670  0.539913  1
  Si  Si26  1  0.333448  0.664748  0.458820  1
  Si  Si27  1  0.564115  0.123422  0.250000  1
  Si  Si28  1  0.436497  0.873118  0.750000  1
  Si  Si29  1  0.875501  0.435355  0.250000  1
  Os  Os30  1  0.500549  0.000249  0.001968  1
  Os  Os31  1  0.999311  0.499787  0.007572  1
  Os  Os32  1  0.500549  0.000249  0.498032  1
  Os  Os33  1  0.500320  0.500528  0.001223  1
  Os  Os34  1  0.999311  0.499787  0.492428  1
  Os  Os35  1  0.500320  0.500528  0.498777  1
  Os  Os36  1  0.000654  0.000376  0.999861  1
  Os  Os37  1  0.000654  0.000376  0.500139  1
