# generated using pymatgen
data_Rb2Y2Zr3Se10
_symmetry_space_group_name_H-M   'P 1'
_cell_length_a   6.79625406
_cell_length_b   11.47529482
_cell_length_c   9.15833000
_cell_angle_alpha   59.72757630
_cell_angle_beta   68.37486335
_cell_angle_gamma   90.07202710
_symmetry_Int_Tables_number   1
_chemical_formula_structural   Rb2Y2Zr3Se10
_chemical_formula_sum   'Rb2 Y2 Zr3 Se10'
_cell_volume   557.65721759
_cell_formula_units_Z   1
loop_
 _symmetry_equiv_pos_site_id
 _symmetry_equiv_pos_as_xyz
  1  'x, y, z'
loop_
 _atom_site_type_symbol
 _atom_site_label
 _atom_site_symmetry_multiplicity
 _atom_site_fract_x
 _atom_site_fract_y
 _atom_site_fract_z
 _atom_site_occupancy
  Rb  Rb0  1  0.784697  0.073845  0.427231  1
  Rb  Rb1  1  0.010669  0.525722  0.974848  1
  Y  Y2  1  0.799060  0.601540  0.403789  1
  Y  Y3  1  0.203274  0.398125  0.592953  1
  Zr  Zr4  1  0.398735  0.797350  0.201012  1
  Zr  Zr5  1  0.599984  0.202277  0.805139  1
  Zr  Zr6  1  0.999993  0.999168  0.997759  1
  Se  Se7  1  0.006139  0.847047  0.340440  1
  Se  Se8  1  0.594713  0.035850  0.149285  1
  Se  Se9  1  0.190642  0.229919  0.960386  1
  Se  Se10  1  0.774198  0.426756  0.769239  1
  Se  Se11  1  0.383836  0.649517  0.542112  1
  Se  Se12  1  0.402369  0.964454  0.854374  1
  Se  Se13  1  0.995886  0.151026  0.659216  1
  Se  Se14  1  0.621559  0.349680  0.454934  1
  Se  Se15  1  0.228036  0.574269  0.228921  1
  Se  Se16  1  0.806209  0.773455  0.038361  1
