# generated using pymatgen
data_ErTmMoOs3
_symmetry_space_group_name_H-M   'P 1'
_cell_length_a   5.44566104
_cell_length_b   5.44519138
_cell_length_c   8.54497600
_cell_angle_alpha   89.99955739
_cell_angle_beta   90.00037711
_cell_angle_gamma   120.00615491
_symmetry_Int_Tables_number   1
_chemical_formula_structural   ErTmMoOs3
_chemical_formula_sum   'Er2 Tm2 Mo2 Os6'
_cell_volume   219.42105252
_cell_formula_units_Z   2
loop_
 _symmetry_equiv_pos_site_id
 _symmetry_equiv_pos_as_xyz
  1  'x, y, z'
loop_
 _atom_site_type_symbol
 _atom_site_label
 _atom_site_symmetry_multiplicity
 _atom_site_fract_x
 _atom_site_fract_y
 _atom_site_fract_z
 _atom_site_occupancy
  Er  Er0  1  0.666674  0.333336  0.565115  1
  Er  Er1  1  0.333326  0.666664  0.434885  1
  Tm  Tm2  1  0.333331  0.666665  0.064723  1
  Tm  Tm3  1  0.666669  0.333335  0.935277  1
  Mo  Mo4  1  0.000000  0.000000  0.500000  1
  Mo  Mo5  1  0.000000  0.000000  0.000000  1
  Os  Os6  1  0.172894  0.345789  0.750437  1
  Os  Os7  1  0.172861  0.827142  0.750433  1
  Os  Os8  1  0.654215  0.827109  0.750437  1
  Os  Os9  1  0.827106  0.654211  0.249563  1
  Os  Os10  1  0.827139  0.172858  0.249567  1
  Os  Os11  1  0.345785  0.172891  0.249563  1
