# generated using pymatgen
data_K8Yb3GdF20
_symmetry_space_group_name_H-M   'P 1'
_cell_length_a   6.78650628
_cell_length_b   7.28735700
_cell_length_c   11.20969200
_cell_angle_alpha   90.00000000
_cell_angle_beta   90.30992103
_cell_angle_gamma   90.00000000
_symmetry_Int_Tables_number   1
_chemical_formula_structural   K8Yb3GdF20
_chemical_formula_sum   'K8 Yb3 Gd1 F20'
_cell_volume   554.37498781
_cell_formula_units_Z   1
loop_
 _symmetry_equiv_pos_site_id
 _symmetry_equiv_pos_as_xyz
  1  'x, y, z'
loop_
 _atom_site_type_symbol
 _atom_site_label
 _atom_site_symmetry_multiplicity
 _atom_site_fract_x
 _atom_site_fract_y
 _atom_site_fract_z
 _atom_site_occupancy
  K  K0  1  0.541652  0.997100  0.825262  1
  K  K1  1  0.458519  0.499780  0.174966  1
  K  K2  1  0.969339  0.998523  0.326054  1
  K  K3  1  0.030382  0.497885  0.674097  1
  K  K4  1  0.541652  0.502900  0.825262  1
  K  K5  1  0.458519  0.000220  0.174966  1
  K  K6  1  0.969339  0.501477  0.326054  1
  K  K7  1  0.030382  0.002115  0.674097  1
  Yb  Yb8  1  0.451416  0.750000  0.495998  1
  Yb  Yb9  1  0.960390  0.250000  0.007540  1
  Yb  Yb10  1  0.037722  0.750000  0.992454  1
  Gd  Gd11  1  0.559092  0.250000  0.501520  1
  F  F12  1  0.852514  0.750000  0.828280  1
  F  F13  1  0.143434  0.250000  0.172866  1
  F  F14  1  0.637460  0.750000  0.330489  1
  F  F15  1  0.372983  0.250000  0.667162  1
  F  F16  1  0.857465  0.250000  0.815109  1
  F  F17  1  0.140394  0.750000  0.185238  1
  F  F18  1  0.658749  0.250000  0.310762  1
  F  F19  1  0.324631  0.750000  0.683693  1
  F  F20  1  0.644700  0.971293  0.581518  1
  F  F21  1  0.357547  0.467130  0.420432  1
  F  F22  1  0.837387  0.973903  0.072280  1
  F  F23  1  0.160950  0.473563  0.926260  1
  F  F24  1  0.373054  0.750000  0.979796  1
  F  F25  1  0.624639  0.250000  0.018390  1
  F  F26  1  0.112372  0.750000  0.498973  1
  F  F27  1  0.892733  0.250000  0.509990  1
  F  F28  1  0.160950  0.026437  0.926260  1
  F  F29  1  0.837387  0.526097  0.072280  1
  F  F30  1  0.357547  0.032870  0.420432  1
  F  F31  1  0.644700  0.528707  0.581518  1
