# generated using pymatgen
data_LiHo3In3Au2
_symmetry_space_group_name_H-M   'P 1'
_cell_length_a   7.89969200
_cell_length_b   7.89969241
_cell_length_c   3.76795200
_cell_angle_alpha   90.00000000
_cell_angle_beta   90.00000000
_cell_angle_gamma   119.99998993
_symmetry_Int_Tables_number   1
_chemical_formula_structural   LiHo3In3Au2
_chemical_formula_sum   'Li1 Ho3 In3 Au2'
_cell_volume   203.63685341
_cell_formula_units_Z   1
loop_
 _symmetry_equiv_pos_site_id
 _symmetry_equiv_pos_as_xyz
  1  'x, y, z'
loop_
 _atom_site_type_symbol
 _atom_site_label
 _atom_site_symmetry_multiplicity
 _atom_site_fract_x
 _atom_site_fract_y
 _atom_site_fract_z
 _atom_site_occupancy
  Li  Li0  1  0.000000  0.000000  0.500000  1
  Ho  Ho1  1  0.407024  0.407024  0.500000  1
  Ho  Ho2  1  0.592976  0.000000  0.500000  1
  Ho  Ho3  1  0.000000  0.592976  0.500000  1
  In  In4  1  0.747289  0.747289  0.000000  1
  In  In5  1  0.252711  0.000000  0.000000  1
  In  In6  1  0.000000  0.252711  0.000000  1
  Au  Au7  1  0.666667  0.333333  0.000000  1
  Au  Au8  1  0.333333  0.666667  0.000000  1
