# generated using pymatgen
data_Dy3LuTh6(Sn3C)2
_symmetry_space_group_name_H-M   'P 1'
_cell_length_a   9.22479300
_cell_length_b   9.22479231
_cell_length_c   6.48764200
_cell_angle_alpha   90.00000000
_cell_angle_beta   90.00000000
_cell_angle_gamma   120.00000605
_symmetry_Int_Tables_number   1
_chemical_formula_structural   Dy3LuTh6(Sn3C)2
_chemical_formula_sum   'Dy3 Lu1 Th6 Sn6 C2'
_cell_volume   478.11317204
_cell_formula_units_Z   1
loop_
 _symmetry_equiv_pos_site_id
 _symmetry_equiv_pos_as_xyz
  1  'x, y, z'
loop_
 _atom_site_type_symbol
 _atom_site_label
 _atom_site_symmetry_multiplicity
 _atom_site_fract_x
 _atom_site_fract_y
 _atom_site_fract_z
 _atom_site_occupancy
  Dy  Dy0  1  0.333333  0.666667  0.500000  1
  Dy  Dy1  1  0.333333  0.666667  0.000000  1
  Dy  Dy2  1  0.666667  0.333333  0.000000  1
  Lu  Lu3  1  0.666667  0.333333  0.500000  1
  Th  Th4  1  0.777265  0.777575  0.250124  1
  Th  Th5  1  0.222425  0.999689  0.250124  1
  Th  Th6  1  0.000311  0.222735  0.250124  1
  Th  Th7  1  0.222425  0.222735  0.749876  1
  Th  Th8  1  0.777265  0.999689  0.749876  1
  Th  Th9  1  0.000311  0.777575  0.749876  1
  Sn  Sn10  1  0.406740  0.405064  0.251742  1
  Sn  Sn11  1  0.594936  0.001676  0.251742  1
  Sn  Sn12  1  0.998324  0.593260  0.251742  1
  Sn  Sn13  1  0.594936  0.593260  0.748258  1
  Sn  Sn14  1  0.406740  0.001676  0.748258  1
  Sn  Sn15  1  0.998324  0.405064  0.748258  1
  C  C16  1  0.000000  0.000000  0.500000  1
  C  C17  1  0.000000  0.000000  0.000000  1
