# generated using pymatgen
data_Dy4TmLu(Si3Ru)8
_symmetry_space_group_name_H-M   'P 1'
_cell_length_a   10.09859775
_cell_length_b   10.09859797
_cell_length_c   8.13598126
_cell_angle_alpha   90.02569362
_cell_angle_beta   90.02569275
_cell_angle_gamma   132.53114012
_symmetry_Int_Tables_number   1
_chemical_formula_structural   Dy4TmLu(Si3Ru)8
_chemical_formula_sum   'Dy4 Tm1 Lu1 Si24 Ru8'
_cell_volume   611.42938075
_cell_formula_units_Z   1
loop_
 _symmetry_equiv_pos_site_id
 _symmetry_equiv_pos_as_xyz
  1  'x, y, z'
loop_
 _atom_site_type_symbol
 _atom_site_label
 _atom_site_symmetry_multiplicity
 _atom_site_fract_x
 _atom_site_fract_y
 _atom_site_fract_z
 _atom_site_occupancy
  Dy  Dy0  1  0.502607  0.002293  0.749442  1
  Dy  Dy1  1  0.997707  0.497393  0.250558  1
  Dy  Dy2  1  0.497393  0.997707  0.250558  1
  Dy  Dy3  1  0.002293  0.502607  0.749442  1
  Tm  Tm4  1  0.000000  0.000000  0.000000  1
  Lu  Lu5  1  0.500000  0.500000  0.500000  1
  Si  Si6  1  0.794294  0.205706  0.500000  1
  Si  Si7  1  0.294907  0.705093  0.000000  1
  Si  Si8  1  0.205706  0.794294  0.500000  1
  Si  Si9  1  0.705093  0.294907  0.000000  1
  Si  Si10  1  0.331561  0.331561  0.833480  1
  Si  Si11  1  0.668439  0.668439  0.166520  1
  Si  Si12  1  0.167099  0.167099  0.332647  1
  Si  Si13  1  0.832901  0.832901  0.667353  1
  Si  Si14  1  0.121354  0.886836  0.728255  1
  Si  Si15  1  0.113164  0.878646  0.271745  1
  Si  Si16  1  0.610974  0.376915  0.228915  1
  Si  Si17  1  0.623085  0.389026  0.771085  1
  Si  Si18  1  0.878646  0.113164  0.271745  1
  Si  Si19  1  0.886836  0.121354  0.728255  1
  Si  Si20  1  0.389026  0.623085  0.771085  1
  Si  Si21  1  0.376915  0.610974  0.228915  1
  Si  Si22  1  0.345161  0.111621  0.504867  1
  Si  Si23  1  0.888379  0.654839  0.495133  1
  Si  Si24  1  0.387219  0.154222  0.005203  1
  Si  Si25  1  0.845778  0.612781  0.994797  1
  Si  Si26  1  0.654839  0.888379  0.495133  1
  Si  Si27  1  0.111621  0.345161  0.504867  1
  Si  Si28  1  0.612781  0.845778  0.994797  1
  Si  Si29  1  0.154222  0.387219  0.005203  1
  Ru  Ru30  1  0.668038  0.331962  0.500000  1
  Ru  Ru31  1  0.169001  0.830999  0.000000  1
  Ru  Ru32  1  0.331962  0.668038  0.500000  1
  Ru  Ru33  1  0.830999  0.169001  0.000000  1
  Ru  Ru34  1  0.126791  0.126791  0.625993  1
  Ru  Ru35  1  0.873209  0.873209  0.374007  1
  Ru  Ru36  1  0.374369  0.374369  0.128528  1
  Ru  Ru37  1  0.625631  0.625631  0.871472  1
