# generated using pymatgen
data_Sr6Co4PbO15
_symmetry_space_group_name_H-M   'P 1'
_cell_length_a   7.00521756
_cell_length_b   7.00521706
_cell_length_c   7.00521711
_cell_angle_alpha   86.67663509
_cell_angle_beta   86.67663455
_cell_angle_gamma   86.67663477
_symmetry_Int_Tables_number   1
_chemical_formula_structural   Sr6Co4PbO15
_chemical_formula_sum   'Sr6 Co4 Pb1 O15'
_cell_volume   342.09749758
_cell_formula_units_Z   1
loop_
 _symmetry_equiv_pos_site_id
 _symmetry_equiv_pos_as_xyz
  1  'x, y, z'
loop_
 _atom_site_type_symbol
 _atom_site_label
 _atom_site_symmetry_multiplicity
 _atom_site_fract_x
 _atom_site_fract_y
 _atom_site_fract_z
 _atom_site_occupancy
  Sr  Sr0  1  0.500000  0.862068  0.137932  1
  Sr  Sr1  1  0.137932  0.500000  0.862068  1
  Sr  Sr2  1  0.862068  0.137932  0.500000  1
  Sr  Sr3  1  0.000000  0.669848  0.330152  1
  Sr  Sr4  1  0.330152  0.000000  0.669848  1
  Sr  Sr5  1  0.669848  0.330152  0.000000  1
  Co  Co6  1  0.716509  0.716509  0.716509  1
  Co  Co7  1  0.283491  0.283491  0.283491  1
  Co  Co8  1  0.904475  0.904475  0.904475  1
  Co  Co9  1  0.095525  0.095525  0.095525  1
  Pb  Pb10  1  0.500000  0.500000  0.500000  1
  O  O11  1  0.359149  0.541750  0.222626  1
  O  O12  1  0.222626  0.359149  0.541750  1
  O  O13  1  0.541750  0.222626  0.359149  1
  O  O14  1  0.640851  0.777374  0.458250  1
  O  O15  1  0.458250  0.640851  0.777374  1
  O  O16  1  0.777374  0.458250  0.640851  1
  O  O17  1  0.195157  0.022681  0.336374  1
  O  O18  1  0.336374  0.195157  0.022681  1
  O  O19  1  0.022681  0.336374  0.195157  1
  O  O20  1  0.804843  0.663626  0.977319  1
  O  O21  1  0.977319  0.804843  0.663626  1
  O  O22  1  0.150742  0.849258  0.000000  1
  O  O23  1  0.849258  0.000000  0.150742  1
  O  O24  1  0.000000  0.150742  0.849258  1
  O  O25  1  0.663626  0.977319  0.804843  1
