# generated using pymatgen
data_Y3U(BRu)16
_symmetry_space_group_name_H-M   'P 1'
_cell_length_a   9.21860260
_cell_length_b   7.48827491
_cell_length_c   7.48827493
_cell_angle_alpha   89.80423431
_cell_angle_beta   114.05025949
_cell_angle_gamma   114.05026558
_symmetry_Int_Tables_number   1
_chemical_formula_structural   Y3U(BRu)16
_chemical_formula_sum   'Y3 U1 B16 Ru16'
_cell_volume   422.79044532
_cell_formula_units_Z   1
loop_
 _symmetry_equiv_pos_site_id
 _symmetry_equiv_pos_as_xyz
  1  'x, y, z'
loop_
 _atom_site_type_symbol
 _atom_site_label
 _atom_site_symmetry_multiplicity
 _atom_site_fract_x
 _atom_site_fract_y
 _atom_site_fract_z
 _atom_site_occupancy
  Y  Y0  1  0.749999  0.875000  0.125000  1
  Y  Y1  1  0.250000  0.625000  0.375000  1
  Y  Y2  1  0.749999  0.375000  0.625000  1
  U  U3  1  0.250000  0.125000  0.875000  1
  B  B4  1  0.913622  0.622599  0.064202  1
  B  B5  1  0.415278  0.849319  0.127475  1
  B  B6  1  0.084721  0.872525  0.150681  1
  B  B7  1  0.590117  0.435733  0.213340  1
  B  B8  1  0.418207  0.347370  0.291502  1
  B  B9  1  0.913622  0.291022  0.349420  1
  B  B10  1  0.586378  0.935798  0.377401  1
  B  B11  1  0.084721  0.212197  0.434041  1
  B  B12  1  0.909883  0.786660  0.564267  1
  B  B13  1  0.418207  0.070837  0.626706  1
  B  B14  1  0.081792  0.708498  0.652630  1
  B  B15  1  0.586378  0.650580  0.708977  1
  B  B16  1  0.415278  0.565959  0.787803  1
  B  B17  1  0.909883  0.123223  0.845616  1
  B  B18  1  0.590117  0.154384  0.876777  1
  B  B19  1  0.081792  0.373294  0.929163  1
  Ru  Ru20  1  0.875579  0.322290  0.041974  1
  Ru  Ru21  1  0.371536  0.527592  0.048361  1
  Ru  Ru22  1  0.128464  0.176824  0.156056  1
  Ru  Ru23  1  0.623991  0.165951  0.176643  1
  Ru  Ru24  1  0.369903  0.036032  0.320169  1
  Ru  Ru25  1  0.875579  0.553290  0.333605  1
  Ru  Ru26  1  0.624421  0.666395  0.446710  1
  Ru  Ru27  1  0.128464  0.951639  0.472407  1
  Ru  Ru28  1  0.876009  0.052653  0.541961  1
  Ru  Ru29  1  0.369903  0.333870  0.549734  1
  Ru  Ru30  1  0.130097  0.450266  0.666129  1
  Ru  Ru31  1  0.624421  0.958026  0.677710  1
  Ru  Ru32  1  0.371536  0.843943  0.823176  1
  Ru  Ru33  1  0.876009  0.823357  0.834049  1
  Ru  Ru34  1  0.623991  0.458039  0.947347  1
  Ru  Ru35  1  0.130097  0.679831  0.963967  1
