# generated using pymatgen
data_Sr4Al6SeO16
_symmetry_space_group_name_H-M   'P 1'
_cell_length_a   8.28124115
_cell_length_b   8.28123977
_cell_length_c   8.28124024
_cell_angle_alpha   109.63164448
_cell_angle_beta   109.63163544
_cell_angle_gamma   109.15085416
_symmetry_Int_Tables_number   1
_chemical_formula_structural   Sr4Al6SeO16
_chemical_formula_sum   'Sr4 Al6 Se1 O16'
_cell_volume   437.17379113
_cell_formula_units_Z   1
loop_
 _symmetry_equiv_pos_site_id
 _symmetry_equiv_pos_as_xyz
  1  'x, y, z'
loop_
 _atom_site_type_symbol
 _atom_site_label
 _atom_site_symmetry_multiplicity
 _atom_site_fract_x
 _atom_site_fract_y
 _atom_site_fract_z
 _atom_site_occupancy
  Sr  Sr0  1  0.506081  0.006081  0.012162  1
  Sr  Sr1  1  0.993919  0.006081  0.500000  1
  Sr  Sr2  1  0.993919  0.493919  0.987838  1
  Sr  Sr3  1  0.506081  0.493919  0.500000  1
  Al  Al4  1  0.497735  0.247156  0.749422  1
  Al  Al5  1  0.750000  0.250000  0.500000  1
  Al  Al6  1  0.251688  0.502265  0.749422  1
  Al  Al7  1  0.250000  0.750000  0.500000  1
  Al  Al8  1  0.497735  0.748312  0.250578  1
  Al  Al9  1  0.752844  0.502265  0.250578  1
  Se  Se10  1  0.000000  0.000000  0.000000  1
  O  O11  1  0.655396  0.998799  0.343404  1
  O  O12  1  0.325365  0.663113  0.662253  1
  O  O13  1  0.660269  0.339731  0.000000  1
  O  O14  1  0.336887  0.999141  0.662253  1
  O  O15  1  0.001201  0.344604  0.656596  1
  O  O16  1  0.660269  0.660269  0.320538  1
  O  O17  1  0.655396  0.311991  0.656596  1
  O  O18  1  0.000859  0.663113  0.337747  1
  O  O19  1  0.339731  0.660269  0.000000  1
  O  O20  1  0.336887  0.674635  0.337747  1
  O  O21  1  0.688009  0.344604  0.343404  1
  O  O22  1  0.339731  0.339731  0.679462  1
  O  O23  1  0.897446  0.753650  0.856205  1
  O  O24  1  0.958760  0.102554  0.856205  1
  O  O25  1  0.246350  0.102554  0.143795  1
  O  O26  1  0.897446  0.041240  0.143795  1
