# generated using pymatgen
data_Ho2TmIn3Cu2Ir
_symmetry_space_group_name_H-M   'P 1'
_cell_length_a   7.52001510
_cell_length_b   7.53238674
_cell_length_c   3.88122300
_cell_angle_alpha   90.00000000
_cell_angle_beta   90.00000000
_cell_angle_gamma   119.96481658
_symmetry_Int_Tables_number   1
_chemical_formula_structural   Ho2TmIn3Cu2Ir
_chemical_formula_sum   'Ho2 Tm1 In3 Cu2 Ir1'
_cell_volume   190.46027750
_cell_formula_units_Z   1
loop_
 _symmetry_equiv_pos_site_id
 _symmetry_equiv_pos_as_xyz
  1  'x, y, z'
loop_
 _atom_site_type_symbol
 _atom_site_label
 _atom_site_symmetry_multiplicity
 _atom_site_fract_x
 _atom_site_fract_y
 _atom_site_fract_z
 _atom_site_occupancy
  Ho  Ho0  1  0.400663  0.418900  0.500000  1
  Ho  Ho1  1  0.580749  0.981972  0.500000  1
  Tm  Tm2  1  0.019493  0.600067  0.500000  1
  In  In3  1  0.751381  0.742083  0.000000  1
  In  In4  1  0.991480  0.249515  0.000000  1
  In  In5  1  0.257012  0.007833  0.000000  1
  Cu  Cu6  1  0.000048  0.999453  0.500000  1
  Cu  Cu7  1  0.667762  0.334117  0.000000  1
  Ir  Ir8  1  0.331412  0.666060  0.000000  1
