# generated using pymatgen
data_Sr4Mn2CoO10
_symmetry_space_group_name_H-M   'P 1'
_cell_length_a   6.84181877
_cell_length_b   6.84181693
_cell_length_c   12.75177300
_cell_angle_alpha   90.00000000
_cell_angle_beta   90.00000000
_cell_angle_gamma   132.25418925
_symmetry_Int_Tables_number   1
_chemical_formula_structural   Sr4Mn2CoO10
_chemical_formula_sum   'Sr8 Mn4 Co2 O20'
_cell_volume   441.81907275
_cell_formula_units_Z   2
loop_
 _symmetry_equiv_pos_site_id
 _symmetry_equiv_pos_as_xyz
  1  'x, y, z'
loop_
 _atom_site_type_symbol
 _atom_site_label
 _atom_site_symmetry_multiplicity
 _atom_site_fract_x
 _atom_site_fract_y
 _atom_site_fract_z
 _atom_site_occupancy
  Sr  Sr0  1  0.763554  0.236446  0.887672  1
  Sr  Sr1  1  0.263554  0.736446  0.612328  1
  Sr  Sr2  1  0.736446  0.263554  0.387672  1
  Sr  Sr3  1  0.029273  0.970727  0.359227  1
  Sr  Sr4  1  0.236446  0.763554  0.112328  1
  Sr  Sr5  1  0.470727  0.529273  0.859227  1
  Sr  Sr6  1  0.970727  0.029273  0.640773  1
  Sr  Sr7  1  0.529273  0.470727  0.140773  1
  Mn  Mn8  1  0.131276  0.868724  0.849319  1
  Mn  Mn9  1  0.868724  0.131276  0.150681  1
  Mn  Mn10  1  0.368724  0.631276  0.349319  1
  Mn  Mn11  1  0.631276  0.368724  0.650681  1
  Co  Co12  1  0.000000  0.000000  0.000000  1
  Co  Co13  1  0.500000  0.500000  0.500000  1
  O  O14  1  0.777115  0.222885  0.654294  1
  O  O15  1  0.222885  0.777115  0.345706  1
  O  O16  1  0.381458  0.162913  0.535620  1
  O  O17  1  0.337087  0.118542  0.964380  1
  O  O18  1  0.277115  0.722885  0.845706  1
  O  O19  1  0.162913  0.381458  0.464380  1
  O  O20  1  0.662913  0.881458  0.035620  1
  O  O21  1  0.837087  0.618542  0.535620  1
  O  O22  1  0.635472  0.864528  0.250000  1
  O  O23  1  0.035723  0.964277  0.142553  1
  O  O24  1  0.881458  0.662913  0.964380  1
  O  O25  1  0.118542  0.337087  0.035620  1
  O  O26  1  0.722885  0.277115  0.154294  1
  O  O27  1  0.364528  0.135472  0.750000  1
  O  O28  1  0.464277  0.535723  0.642553  1
  O  O29  1  0.964277  0.035723  0.857447  1
  O  O30  1  0.135472  0.364528  0.250000  1
  O  O31  1  0.535723  0.464277  0.357447  1
  O  O32  1  0.618542  0.837087  0.464380  1
  O  O33  1  0.864528  0.635472  0.750000  1
