# generated using pymatgen
data_ReTc5Pd2
_symmetry_space_group_name_H-M   'P 1'
_cell_length_a   5.54869422
_cell_length_b   5.54869487
_cell_length_c   4.41242900
_cell_angle_alpha   90.00000000
_cell_angle_beta   90.00000000
_cell_angle_gamma   119.92403501
_symmetry_Int_Tables_number   1
_chemical_formula_structural   ReTc5Pd2
_chemical_formula_sum   'Re1 Tc5 Pd2'
_cell_volume   117.73943017
_cell_formula_units_Z   1
loop_
 _symmetry_equiv_pos_site_id
 _symmetry_equiv_pos_as_xyz
  1  'x, y, z'
loop_
 _atom_site_type_symbol
 _atom_site_label
 _atom_site_symmetry_multiplicity
 _atom_site_fract_x
 _atom_site_fract_y
 _atom_site_fract_z
 _atom_site_occupancy
  Re  Re0  1  0.841997  0.158003  0.750000  1
  Tc  Tc1  1  0.316317  0.158015  0.750000  1
  Tc  Tc2  1  0.841985  0.683683  0.750000  1
  Tc  Tc3  1  0.158124  0.841876  0.250000  1
  Tc  Tc4  1  0.683571  0.841471  0.250000  1
  Tc  Tc5  1  0.158529  0.316429  0.250000  1
  Pd  Pd6  1  0.666287  0.333713  0.250000  1
  Pd  Pd7  1  0.333191  0.666809  0.750000  1
