# generated using pymatgen
data_Lu10CuHg3
_symmetry_space_group_name_H-M   'P 1'
_cell_length_a   9.49253400
_cell_length_b   9.49253435
_cell_length_c   9.31122100
_cell_angle_alpha   90.00000000
_cell_angle_beta   90.00000000
_cell_angle_gamma   119.99999876
_symmetry_Int_Tables_number   1
_chemical_formula_structural   Lu10CuHg3
_chemical_formula_sum   'Lu20 Cu2 Hg6'
_cell_volume   726.61040179
_cell_formula_units_Z   2
loop_
 _symmetry_equiv_pos_site_id
 _symmetry_equiv_pos_as_xyz
  1  'x, y, z'
loop_
 _atom_site_type_symbol
 _atom_site_label
 _atom_site_symmetry_multiplicity
 _atom_site_fract_x
 _atom_site_fract_y
 _atom_site_fract_z
 _atom_site_occupancy
  Lu  Lu0  1  0.000000  0.000000  0.500000  1
  Lu  Lu1  1  0.000000  0.000000  0.000000  1
  Lu  Lu2  1  0.543552  0.456448  0.250000  1
  Lu  Lu3  1  0.543552  0.087104  0.250000  1
  Lu  Lu4  1  0.912896  0.456448  0.250000  1
  Lu  Lu5  1  0.456448  0.543552  0.750000  1
  Lu  Lu6  1  0.456448  0.912896  0.750000  1
  Lu  Lu7  1  0.087104  0.543552  0.750000  1
  Lu  Lu8  1  0.208546  0.791454  0.439402  1
  Lu  Lu9  1  0.208546  0.417093  0.439402  1
  Lu  Lu10  1  0.582907  0.791454  0.439402  1
  Lu  Lu11  1  0.791454  0.208546  0.560598  1
  Lu  Lu12  1  0.791454  0.582907  0.560598  1
  Lu  Lu13  1  0.417093  0.208546  0.560598  1
  Lu  Lu14  1  0.791454  0.208546  0.939402  1
  Lu  Lu15  1  0.791454  0.582907  0.939402  1
  Lu  Lu16  1  0.417093  0.208546  0.939402  1
  Lu  Lu17  1  0.208546  0.791454  0.060598  1
  Lu  Lu18  1  0.208546  0.417093  0.060598  1
  Lu  Lu19  1  0.582907  0.791454  0.060598  1
  Cu  Cu20  1  0.333333  0.666667  0.250000  1
  Cu  Cu21  1  0.666667  0.333333  0.750000  1
  Hg  Hg22  1  0.878420  0.121580  0.250000  1
  Hg  Hg23  1  0.878420  0.756841  0.250000  1
  Hg  Hg24  1  0.243159  0.121580  0.250000  1
  Hg  Hg25  1  0.121580  0.878420  0.750000  1
  Hg  Hg26  1  0.121580  0.243159  0.750000  1
  Hg  Hg27  1  0.756841  0.878420  0.750000  1
