# generated using pymatgen
data_Tb8Dy8CdHg3Rh4
_symmetry_space_group_name_H-M   'P 1'
_cell_length_a   9.63659160
_cell_length_b   9.62785844
_cell_length_c   9.63464711
_cell_angle_alpha   59.90997564
_cell_angle_beta   59.92459976
_cell_angle_gamma   59.91900365
_symmetry_Int_Tables_number   1
_chemical_formula_structural   Tb8Dy8CdHg3Rh4
_chemical_formula_sum   'Tb8 Dy8 Cd1 Hg3 Rh4'
_cell_volume   630.90501597
_cell_formula_units_Z   1
loop_
 _symmetry_equiv_pos_site_id
 _symmetry_equiv_pos_as_xyz
  1  'x, y, z'
loop_
 _atom_site_type_symbol
 _atom_site_label
 _atom_site_symmetry_multiplicity
 _atom_site_fract_x
 _atom_site_fract_y
 _atom_site_fract_z
 _atom_site_occupancy
  Tb  Tb0  1  0.562252  0.564275  0.936783  1
  Tb  Tb1  1  0.148198  0.554663  0.147657  1
  Tb  Tb2  1  0.689170  0.311309  0.311235  1
  Tb  Tb3  1  0.937139  0.564245  0.562287  1
  Tb  Tb4  1  0.936778  0.563833  0.936108  1
  Tb  Tb5  1  0.689167  0.689807  0.311844  1
  Tb  Tb6  1  0.562574  0.937480  0.935967  1
  Tb  Tb7  1  0.150537  0.149274  0.150172  1
  Dy  Dy8  1  0.310107  0.690265  0.311004  1
  Dy  Dy9  1  0.551689  0.148267  0.149045  1
  Dy  Dy10  1  0.310849  0.311798  0.689303  1
  Dy  Dy11  1  0.311289  0.689620  0.689361  1
  Dy  Dy12  1  0.149137  0.147842  0.552230  1
  Dy  Dy13  1  0.688739  0.312366  0.689107  1
  Dy  Dy14  1  0.936576  0.937344  0.562322  1
  Dy  Dy15  1  0.562868  0.937777  0.562889  1
  Cd  Cd16  1  0.919577  0.241346  0.919541  1
  Hg  Hg17  1  0.914816  0.917085  0.914369  1
  Hg  Hg18  1  0.254937  0.916609  0.913952  1
  Hg  Hg19  1  0.913999  0.916570  0.255313  1
  Rh  Rh20  1  0.357355  0.356871  0.927388  1
  Rh  Rh21  1  0.357404  0.357128  0.357568  1
  Rh  Rh22  1  0.928092  0.356393  0.357365  1
  Rh  Rh23  1  0.356748  0.927832  0.357185  1
