# generated using pymatgen
data_Rb4Y6SiI18
_symmetry_space_group_name_H-M   'P 1'
_cell_length_a   11.73102938
_cell_length_b   11.97761127
_cell_length_c   12.09269400
_cell_angle_alpha   118.46090798
_cell_angle_beta   100.28166288
_cell_angle_gamma   103.95735029
_symmetry_Int_Tables_number   1
_chemical_formula_structural   Rb4Y6SiI18
_chemical_formula_sum   'Rb4 Y6 Si1 I18'
_cell_volume   1361.24814424
_cell_formula_units_Z   1
loop_
 _symmetry_equiv_pos_site_id
 _symmetry_equiv_pos_as_xyz
  1  'x, y, z'
loop_
 _atom_site_type_symbol
 _atom_site_label
 _atom_site_symmetry_multiplicity
 _atom_site_fract_x
 _atom_site_fract_y
 _atom_site_fract_z
 _atom_site_occupancy
  Rb  Rb0  1  0.656031  0.538130  0.228781  1
  Rb  Rb1  1  0.343969  0.461870  0.771219  1
  Rb  Rb2  1  0.693135  0.228392  0.566570  1
  Rb  Rb3  1  0.306865  0.771608  0.433430  1
  Y  Y4  1  0.166597  0.062001  0.253059  1
  Y  Y5  1  0.833403  0.937999  0.746941  1
  Y  Y6  1  0.846788  0.138781  0.145915  1
  Y  Y7  1  0.153212  0.861219  0.854085  1
  Y  Y8  1  0.160563  0.262446  0.049531  1
  Y  Y9  1  0.839437  0.737554  0.950469  1
  Si  Si10  1  0.000000  0.000000  0.000000  1
  I  I11  1  0.009115  0.415506  0.199707  1
  I  I12  1  0.990885  0.584494  0.800293  1
  I  I13  1  0.335639  0.338960  0.316064  1
  I  I14  1  0.664361  0.661040  0.683936  1
  I  I15  1  0.332377  0.534271  0.103516  1
  I  I16  1  0.667623  0.465729  0.896484  1
  I  I17  1  0.004550  0.793111  0.212758  1
  I  I18  1  0.995450  0.206889  0.787242  1
  I  I19  1  0.694442  0.281086  0.294637  1
  I  I20  1  0.305558  0.718914  0.705363  1
  I  I21  1  0.322448  0.130119  0.902079  1
  I  I22  1  0.677552  0.869881  0.097921  1
  I  I23  1  0.016336  0.207279  0.413793  1
  I  I24  1  0.983664  0.792721  0.586207  1
  I  I25  1  0.326069  0.921094  0.111941  1
  I  I26  1  0.673931  0.078906  0.888059  1
  I  I27  1  0.344600  0.125126  0.513982  1
  I  I28  1  0.655400  0.874874  0.486018  1
