# generated using pymatgen
data_Zr6AlIn5IrPt5
_symmetry_space_group_name_H-M   'P 1'
_cell_length_a   7.51937277
_cell_length_b   7.50122270
_cell_length_c   7.23256422
_cell_angle_alpha   89.69414373
_cell_angle_beta   90.26944251
_cell_angle_gamma   120.45189062
_symmetry_Int_Tables_number   1
_chemical_formula_structural   Zr6AlIn5IrPt5
_chemical_formula_sum   'Zr6 Al1 In5 Ir1 Pt5'
_cell_volume   351.66860970
_cell_formula_units_Z   1
loop_
 _symmetry_equiv_pos_site_id
 _symmetry_equiv_pos_as_xyz
  1  'x, y, z'
loop_
 _atom_site_type_symbol
 _atom_site_label
 _atom_site_symmetry_multiplicity
 _atom_site_fract_x
 _atom_site_fract_y
 _atom_site_fract_z
 _atom_site_occupancy
  Zr  Zr0  1  0.017654  0.611614  0.749845  1
  Zr  Zr1  1  0.979250  0.591386  0.252926  1
  Zr  Zr2  1  0.606220  0.006326  0.252133  1
  Zr  Zr3  1  0.589329  0.972953  0.744168  1
  Zr  Zr4  1  0.408994  0.398141  0.258295  1
  Zr  Zr5  1  0.391181  0.414496  0.740603  1
  Al  Al6  1  0.733027  0.733301  0.499431  1
  In  In7  1  0.998120  0.273803  0.498076  1
  In  In8  1  0.728951  0.726761  0.999242  1
  In  In9  1  0.000441  0.262892  0.999922  1
  In  In10  1  0.275335  0.001109  0.499745  1
  In  In11  1  0.267723  0.006805  0.999633  1
  Ir  Ir12  1  0.353995  0.671677  0.478209  1
  Pt  Pt13  1  0.672752  0.353162  0.530657  1
  Pt  Pt14  1  0.670809  0.333785  0.962916  1
  Pt  Pt15  1  0.987474  0.985742  0.261919  1
  Pt  Pt16  1  0.986902  0.987231  0.736750  1
  Pt  Pt17  1  0.331846  0.668816  0.035530  1
