# generated using pymatgen
data_Ho4Tm6OsRu3
_symmetry_space_group_name_H-M   'P 1'
_cell_length_a   6.27937782
_cell_length_b   7.24737478
_cell_length_c   8.35543739
_cell_angle_alpha   96.82527836
_cell_angle_beta   112.15287293
_cell_angle_gamma   90.02577003
_symmetry_Int_Tables_number   1
_chemical_formula_structural   Ho4Tm6OsRu3
_chemical_formula_sum   'Ho4 Tm6 Os1 Ru3'
_cell_volume   349.25852100
_cell_formula_units_Z   1
loop_
 _symmetry_equiv_pos_site_id
 _symmetry_equiv_pos_as_xyz
  1  'x, y, z'
loop_
 _atom_site_type_symbol
 _atom_site_label
 _atom_site_symmetry_multiplicity
 _atom_site_fract_x
 _atom_site_fract_y
 _atom_site_fract_z
 _atom_site_occupancy
  Ho  Ho0  1  0.790849  0.082684  0.812640  1
  Ho  Ho1  1  0.975511  0.415810  0.183958  1
  Ho  Ho2  1  0.208798  0.915759  0.186968  1
  Ho  Ho3  1  0.024036  0.583923  0.813480  1
  Tm  Tm4  1  0.206142  0.184407  0.566158  1
  Tm  Tm5  1  0.639499  0.317198  0.436233  1
  Tm  Tm6  1  0.794929  0.816175  0.434133  1
  Tm  Tm7  1  0.359497  0.683477  0.564941  1
  Tm  Tm8  1  0.420399  0.249933  0.999357  1
  Tm  Tm9  1  0.580007  0.750329  0.999986  1
  Os  Os10  1  0.601057  0.423659  0.780635  1
  Ru  Ru11  1  0.822717  0.076768  0.221655  1
  Ru  Ru12  1  0.398565  0.576701  0.220759  1
  Ru  Ru13  1  0.177995  0.923177  0.779099  1
