# generated using pymatgen
data_HoZr2Fe8Os
_symmetry_space_group_name_H-M   'P 1'
_cell_length_a   8.62387949
_cell_length_b   8.62388004
_cell_length_c   8.62388069
_cell_angle_alpha   33.72972882
_cell_angle_beta   33.72972395
_cell_angle_gamma   33.72972648
_symmetry_Int_Tables_number   1
_chemical_formula_structural   HoZr2Fe8Os
_chemical_formula_sum   'Ho1 Zr2 Fe8 Os1'
_cell_volume   176.19447047
_cell_formula_units_Z   1
loop_
 _symmetry_equiv_pos_site_id
 _symmetry_equiv_pos_as_xyz
  1  'x, y, z'
loop_
 _atom_site_type_symbol
 _atom_site_label
 _atom_site_symmetry_multiplicity
 _atom_site_fract_x
 _atom_site_fract_y
 _atom_site_fract_z
 _atom_site_occupancy
  Ho  Ho0  1  0.000000  0.000000  0.000000  1
  Zr  Zr1  1  0.142395  0.142395  0.142395  1
  Zr  Zr2  1  0.857605  0.857605  0.857605  1
  Fe  Fe3  1  0.333304  0.333304  0.333304  1
  Fe  Fe4  1  0.666696  0.666696  0.666696  1
  Fe  Fe5  1  0.077571  0.584696  0.584696  1
  Fe  Fe6  1  0.584696  0.584696  0.077571  1
  Fe  Fe7  1  0.584696  0.077571  0.584696  1
  Fe  Fe8  1  0.415304  0.922429  0.415304  1
  Fe  Fe9  1  0.922429  0.415304  0.415304  1
  Fe  Fe10  1  0.415304  0.415304  0.922429  1
  Os  Os11  1  0.500000  0.500000  0.500000  1
