# generated using pymatgen
data_CeSm2Co8MoP6
_symmetry_space_group_name_H-M   'P 1'
_cell_length_a   3.76043600
_cell_length_b   10.67475000
_cell_length_c   12.31567000
_cell_angle_alpha   90.00000000
_cell_angle_beta   90.00000000
_cell_angle_gamma   90.00000000
_symmetry_Int_Tables_number   1
_chemical_formula_structural   CeSm2Co8MoP6
_chemical_formula_sum   'Ce2 Sm4 Co16 Mo2 P12'
_cell_volume   494.37210521
_cell_formula_units_Z   2
loop_
 _symmetry_equiv_pos_site_id
 _symmetry_equiv_pos_as_xyz
  1  'x, y, z'
loop_
 _atom_site_type_symbol
 _atom_site_label
 _atom_site_symmetry_multiplicity
 _atom_site_fract_x
 _atom_site_fract_y
 _atom_site_fract_z
 _atom_site_occupancy
  Ce  Ce0  1  0.000000  0.500000  0.528287  1
  Ce  Ce1  1  0.500000  0.000000  0.471713  1
  Sm  Sm2  1  0.500000  0.817110  0.204583  1
  Sm  Sm3  1  0.500000  0.182890  0.204583  1
  Sm  Sm4  1  0.000000  0.682890  0.795417  1
  Sm  Sm5  1  0.000000  0.317110  0.795417  1
  Co  Co6  1  0.500000  0.500000  0.697850  1
  Co  Co7  1  0.000000  0.000000  0.302150  1
  Co  Co8  1  0.000000  0.500000  0.986459  1
  Co  Co9  1  0.500000  0.000000  0.013541  1
  Co  Co10  1  0.500000  0.332613  0.991101  1
  Co  Co11  1  0.500000  0.667387  0.991101  1
  Co  Co12  1  0.000000  0.167387  0.008899  1
  Co  Co13  1  0.000000  0.832613  0.008899  1
  Co  Co14  1  0.500000  0.297620  0.431866  1
  Co  Co15  1  0.500000  0.702380  0.431866  1
  Co  Co16  1  0.000000  0.202380  0.568134  1
  Co  Co17  1  0.000000  0.797620  0.568134  1
  Co  Co18  1  0.500000  0.880716  0.707600  1
  Co  Co19  1  0.500000  0.119284  0.707600  1
  Co  Co20  1  0.000000  0.619284  0.292400  1
  Co  Co21  1  0.000000  0.380716  0.292400  1
  Mo  Mo22  1  0.500000  0.500000  0.154582  1
  Mo  Mo23  1  0.000000  0.000000  0.845418  1
  P  P24  1  0.500000  0.500000  0.882062  1
  P  P25  1  0.000000  0.000000  0.117938  1
  P  P26  1  0.500000  0.500000  0.347179  1
  P  P27  1  0.000000  0.000000  0.652821  1
  P  P28  1  0.500000  0.306294  0.615064  1
  P  P29  1  0.500000  0.693706  0.615064  1
  P  P30  1  0.000000  0.193706  0.384936  1
  P  P31  1  0.000000  0.806294  0.384936  1
  P  P32  1  0.500000  0.846019  0.894813  1
  P  P33  1  0.500000  0.153981  0.894813  1
  P  P34  1  0.000000  0.653981  0.105187  1
  P  P35  1  0.000000  0.346019  0.105187  1
