# generated using pymatgen
data_ErAgAuO4
_symmetry_space_group_name_H-M   'P 1'
_cell_length_a   6.51090744
_cell_length_b   6.51090796
_cell_length_c   6.67318867
_cell_angle_alpha   126.48896248
_cell_angle_beta   124.90249361
_cell_angle_gamma   78.70080328
_symmetry_Int_Tables_number   1
_chemical_formula_structural   ErAgAuO4
_chemical_formula_sum   'Er2 Ag2 Au2 O8'
_cell_volume   182.00225186
_cell_formula_units_Z   2
loop_
 _symmetry_equiv_pos_site_id
 _symmetry_equiv_pos_as_xyz
  1  'x, y, z'
loop_
 _atom_site_type_symbol
 _atom_site_label
 _atom_site_symmetry_multiplicity
 _atom_site_fract_x
 _atom_site_fract_y
 _atom_site_fract_z
 _atom_site_occupancy
  Er  Er0  1  0.749557  0.249557  0.500000  1
  Er  Er1  1  0.000443  0.000443  0.000000  1
  Ag  Ag2  1  0.375000  0.625000  0.250000  1
  Ag  Ag3  1  0.375000  0.125000  0.750000  1
  Au  Au4  1  0.375000  0.625000  0.750000  1
  Au  Au5  1  0.875000  0.625000  0.250000  1
  O  O6  1  0.124492  0.594866  0.828478  1
  O  O7  1  0.766388  0.296015  0.171522  1
  O  O8  1  0.365725  0.009717  0.996079  1
  O  O9  1  0.736362  0.880355  0.496079  1
  O  O10  1  0.013638  0.369645  0.003921  1
  O  O11  1  0.384275  0.240283  0.503921  1
  O  O12  1  0.983612  0.953985  0.328478  1
  O  O13  1  0.625508  0.655134  0.671522  1
