# generated using pymatgen
data_VOsCl10
_symmetry_space_group_name_H-M   'P 1'
_cell_length_a   7.29078276
_cell_length_b   7.56465199
_cell_length_c   14.15561134
_cell_angle_alpha   90.57309195
_cell_angle_beta   92.12428622
_cell_angle_gamma   106.63901221
_symmetry_Int_Tables_number   1
_chemical_formula_structural   VOsCl10
_chemical_formula_sum   'V2 Os2 Cl20'
_cell_volume   747.33605825
_cell_formula_units_Z   2
loop_
 _symmetry_equiv_pos_site_id
 _symmetry_equiv_pos_as_xyz
  1  'x, y, z'
loop_
 _atom_site_type_symbol
 _atom_site_label
 _atom_site_symmetry_multiplicity
 _atom_site_fract_x
 _atom_site_fract_y
 _atom_site_fract_z
 _atom_site_occupancy
  V  V0  1  0.382155  0.592889  0.761691  1
  V  V1  1  0.617845  0.407111  0.238309  1
  Os  Os2  1  0.000000  0.000000  0.500000  1
  Os  Os3  1  0.000000  0.000000  0.000000  1
  Cl  Cl4  1  0.287682  0.076802  0.925051  1
  Cl  Cl5  1  0.712318  0.923198  0.074949  1
  Cl  Cl6  1  0.109471  0.262446  0.095654  1
  Cl  Cl7  1  0.890529  0.737554  0.904346  1
  Cl  Cl8  1  0.123071  0.833541  0.108460  1
  Cl  Cl9  1  0.876929  0.166459  0.891540  1
  Cl  Cl10  1  0.222554  0.283460  0.479733  1
  Cl  Cl11  1  0.777446  0.716540  0.520267  1
  Cl  Cl12  1  0.224824  0.850889  0.461150  1
  Cl  Cl13  1  0.775176  0.149111  0.538850  1
  Cl  Cl14  1  0.096977  0.006557  0.657642  1
  Cl  Cl15  1  0.903023  0.993443  0.342358  1
  Cl  Cl16  1  0.662489  0.407330  0.093002  1
  Cl  Cl17  1  0.337511  0.592670  0.906998  1
  Cl  Cl18  1  0.883040  0.481474  0.312707  1
  Cl  Cl19  1  0.116960  0.518526  0.687293  1
  Cl  Cl20  1  0.463738  0.143504  0.279924  1
  Cl  Cl21  1  0.536262  0.856496  0.720076  1
  Cl  Cl22  1  0.469758  0.597967  0.274571  1
  Cl  Cl23  1  0.530242  0.402033  0.725429  1
