# generated using pymatgen
data_Ba3NdHo2TmO9
_symmetry_space_group_name_H-M   'P 1'
_cell_length_a   9.25724283
_cell_length_b   9.25724334
_cell_length_c   9.25724365
_cell_angle_alpha   38.89885656
_cell_angle_beta   38.89885952
_cell_angle_gamma   38.89885829
_symmetry_Int_Tables_number   1
_chemical_formula_structural   Ba3NdHo2TmO9
_chemical_formula_sum   'Ba3 Nd1 Ho2 Tm1 O9'
_cell_volume   281.26871449
_cell_formula_units_Z   1
loop_
 _symmetry_equiv_pos_site_id
 _symmetry_equiv_pos_as_xyz
  1  'x, y, z'
loop_
 _atom_site_type_symbol
 _atom_site_label
 _atom_site_symmetry_multiplicity
 _atom_site_fract_x
 _atom_site_fract_y
 _atom_site_fract_z
 _atom_site_occupancy
  Ba  Ba0  1  0.001199  0.001199  0.001199  1
  Ba  Ba1  1  0.833069  0.833069  0.833069  1
  Ba  Ba2  1  0.403313  0.403313  0.403313  1
  Nd  Nd3  1  0.574214  0.574214  0.574214  1
  Ho  Ho4  1  0.135851  0.135851  0.135851  1
  Ho  Ho5  1  0.261505  0.261505  0.261505  1
  Tm  Tm6  1  0.701097  0.701097  0.701097  1
  O  O7  1  0.521410  0.441958  0.972016  1
  O  O8  1  0.441958  0.972016  0.521410  1
  O  O9  1  0.972016  0.521410  0.441958  1
  O  O10  1  0.431672  0.265791  0.895191  1
  O  O11  1  0.265791  0.895191  0.431672  1
  O  O12  1  0.895191  0.431672  0.265791  1
  O  O13  1  0.974439  0.415914  0.861857  1
  O  O14  1  0.861857  0.974439  0.415914  1
  O  O15  1  0.415914  0.861857  0.974439  1
