# generated using pymatgen
data_Y13Ho3(HgPd)4
_symmetry_space_group_name_H-M   'P 1'
_cell_length_a   9.67382135
_cell_length_b   9.67926437
_cell_length_c   9.67926500
_cell_angle_alpha   60.00000125
_cell_angle_beta   59.98138706
_cell_angle_gamma   59.98137733
_symmetry_Int_Tables_number   1
_chemical_formula_structural   Y13Ho3(HgPd)4
_chemical_formula_sum   'Y13 Ho3 Hg4 Pd4'
_cell_volume   640.68643631
_cell_formula_units_Z   1
loop_
 _symmetry_equiv_pos_site_id
 _symmetry_equiv_pos_as_xyz
  1  'x, y, z'
loop_
 _atom_site_type_symbol
 _atom_site_label
 _atom_site_symmetry_multiplicity
 _atom_site_fract_x
 _atom_site_fract_y
 _atom_site_fract_z
 _atom_site_occupancy
  Y  Y0  1  0.926662  0.357780  0.357780  1
  Y  Y1  1  0.811424  0.188394  0.188394  1
  Y  Y2  1  0.188711  0.811353  0.811353  1
  Y  Y3  1  0.188711  0.811353  0.188583  1
  Y  Y4  1  0.811424  0.188394  0.811787  1
  Y  Y5  1  0.188711  0.188583  0.811353  1
  Y  Y6  1  0.811424  0.811787  0.188394  1
  Y  Y7  1  0.935030  0.565241  0.565241  1
  Y  Y8  1  0.564921  0.935039  0.935039  1
  Y  Y9  1  0.564921  0.935039  0.565000  1
  Y  Y10  1  0.935030  0.565241  0.934488  1
  Y  Y11  1  0.564921  0.565000  0.935039  1
  Y  Y12  1  0.935030  0.934488  0.565241  1
  Ho  Ho13  1  0.357156  0.357093  0.357093  1
  Ho  Ho14  1  0.357156  0.357093  0.928660  1
  Ho  Ho15  1  0.357156  0.928660  0.357093  1
  Hg  Hg16  1  0.586717  0.587452  0.587452  1
  Hg  Hg17  1  0.586717  0.587452  0.238380  1
  Hg  Hg18  1  0.586717  0.238380  0.587452  1
  Hg  Hg19  1  0.238624  0.587126  0.587126  1
  Pd  Pd20  1  0.147691  0.145780  0.145780  1
  Pd  Pd21  1  0.147691  0.145780  0.560749  1
  Pd  Pd22  1  0.147691  0.560749  0.145780  1
  Pd  Pd23  1  0.559764  0.146745  0.146745  1
