# generated using pymatgen
data_Ta5Ga(B2Ru5)2
_symmetry_space_group_name_H-M   'P 1'
_cell_length_a   9.37173400
_cell_length_b   9.37173400
_cell_length_c   3.01768500
_cell_angle_alpha   90.00000000
_cell_angle_beta   90.00000000
_cell_angle_gamma   90.00000000
_symmetry_Int_Tables_number   1
_chemical_formula_structural   Ta5Ga(B2Ru5)2
_chemical_formula_sum   'Ta5 Ga1 B4 Ru10'
_cell_volume   265.04145741
_cell_formula_units_Z   1
loop_
 _symmetry_equiv_pos_site_id
 _symmetry_equiv_pos_as_xyz
  1  'x, y, z'
loop_
 _atom_site_type_symbol
 _atom_site_label
 _atom_site_symmetry_multiplicity
 _atom_site_fract_x
 _atom_site_fract_y
 _atom_site_fract_z
 _atom_site_occupancy
  Ta  Ta0  1  0.820559  0.675146  0.000000  1
  Ta  Ta1  1  0.179441  0.324854  0.000000  1
  Ta  Ta2  1  0.324854  0.820559  0.000000  1
  Ta  Ta3  1  0.675146  0.179441  0.000000  1
  Ta  Ta4  1  0.000000  0.000000  0.000000  1
  Ga  Ga5  1  0.500000  0.500000  0.000000  1
  B  B6  1  0.616472  0.870756  0.000000  1
  B  B7  1  0.383528  0.129244  0.000000  1
  B  B8  1  0.129244  0.616472  0.000000  1
  B  B9  1  0.870756  0.383528  0.000000  1
  Ru  Ru10  1  0.568927  0.715268  0.500000  1
  Ru  Ru11  1  0.431073  0.284732  0.500000  1
  Ru  Ru12  1  0.071125  0.780497  0.500000  1
  Ru  Ru13  1  0.928875  0.219503  0.500000  1
  Ru  Ru14  1  0.284732  0.568927  0.500000  1
  Ru  Ru15  1  0.715268  0.431073  0.500000  1
  Ru  Ru16  1  0.219503  0.071125  0.500000  1
  Ru  Ru17  1  0.780497  0.928875  0.500000  1
  Ru  Ru18  1  0.500000  0.000000  0.500000  1
  Ru  Ru19  1  0.000000  0.500000  0.500000  1
