# generated using pymatgen
data_Pr8ErTmIr6
_symmetry_space_group_name_H-M   'P 1'
_cell_length_a   11.25456400
_cell_length_b   11.25456400
_cell_length_c   6.55093500
_cell_angle_alpha   90.00000000
_cell_angle_beta   90.00000000
_cell_angle_gamma   90.00000000
_symmetry_Int_Tables_number   1
_chemical_formula_structural   Pr8ErTmIr6
_chemical_formula_sum   'Pr16 Er2 Tm2 Ir12'
_cell_volume   829.77556291
_cell_formula_units_Z   2
loop_
 _symmetry_equiv_pos_site_id
 _symmetry_equiv_pos_as_xyz
  1  'x, y, z'
loop_
 _atom_site_type_symbol
 _atom_site_label
 _atom_site_symmetry_multiplicity
 _atom_site_fract_x
 _atom_site_fract_y
 _atom_site_fract_z
 _atom_site_occupancy
  Pr  Pr0  1  0.288379  0.087307  0.381085  1
  Pr  Pr1  1  0.288379  0.912693  0.881085  1
  Pr  Pr2  1  0.711621  0.087307  0.881085  1
  Pr  Pr3  1  0.711621  0.912693  0.381085  1
  Pr  Pr4  1  0.587288  0.788225  0.881042  1
  Pr  Pr5  1  0.587288  0.211775  0.381042  1
  Pr  Pr6  1  0.412712  0.788225  0.381042  1
  Pr  Pr7  1  0.412712  0.211775  0.881042  1
  Pr  Pr8  1  0.211775  0.412712  0.618958  1
  Pr  Pr9  1  0.211775  0.587288  0.118958  1
  Pr  Pr10  1  0.788225  0.412712  0.118958  1
  Pr  Pr11  1  0.788225  0.587288  0.618958  1
  Pr  Pr12  1  0.912693  0.711621  0.118915  1
  Pr  Pr13  1  0.912693  0.288379  0.618915  1
  Pr  Pr14  1  0.087307  0.711621  0.618915  1
  Pr  Pr15  1  0.087307  0.288379  0.118915  1
  Er  Er16  1  0.000000  0.000000  0.500000  1
  Er  Er17  1  0.000000  0.000000  0.000000  1
  Tm  Tm18  1  0.500000  0.500000  0.000000  1
  Tm  Tm19  1  0.500000  0.500000  0.500000  1
  Ir  Ir20  1  0.852939  0.147061  0.250000  1
  Ir  Ir21  1  0.852939  0.852939  0.750000  1
  Ir  Ir22  1  0.147061  0.147061  0.750000  1
  Ir  Ir23  1  0.147061  0.852939  0.250000  1
  Ir  Ir24  1  0.646629  0.353371  0.750000  1
  Ir  Ir25  1  0.646629  0.646629  0.250000  1
  Ir  Ir26  1  0.353371  0.353371  0.250000  1
  Ir  Ir27  1  0.353371  0.646629  0.750000  1
  Ir  Ir28  1  0.500000  0.000000  0.116713  1
  Ir  Ir29  1  0.500000  0.000000  0.616713  1
  Ir  Ir30  1  0.000000  0.500000  0.883287  1
  Ir  Ir31  1  0.000000  0.500000  0.383287  1
