# generated using pymatgen
data_Tb3Y7(CoTe)4
_symmetry_space_group_name_H-M   'P 1'
_cell_length_a   7.80640341
_cell_length_b   7.80640364
_cell_length_c   14.98588116
_cell_angle_alpha   90.04364895
_cell_angle_beta   89.95635124
_cell_angle_gamma   150.47750676
_symmetry_Int_Tables_number   1
_chemical_formula_structural   Tb3Y7(CoTe)4
_chemical_formula_sum   'Tb3 Y7 Co4 Te4'
_cell_volume   450.01208771
_cell_formula_units_Z   1
loop_
 _symmetry_equiv_pos_site_id
 _symmetry_equiv_pos_as_xyz
  1  'x, y, z'
loop_
 _atom_site_type_symbol
 _atom_site_label
 _atom_site_symmetry_multiplicity
 _atom_site_fract_x
 _atom_site_fract_y
 _atom_site_fract_z
 _atom_site_occupancy
  Tb  Tb0  1  0.960198  0.039802  0.125216  1
  Tb  Tb1  1  0.039765  0.960235  0.874815  1
  Tb  Tb2  1  0.039845  0.960155  0.625222  1
  Y  Y3  1  0.960632  0.039368  0.375549  1
  Y  Y4  1  0.742499  0.257501  0.629137  1
  Y  Y5  1  0.257493  0.742507  0.370693  1
  Y  Y6  1  0.257571  0.742429  0.129357  1
  Y  Y7  1  0.742348  0.257652  0.870737  1
  Y  Y8  1  0.605195  0.394805  0.249980  1
  Y  Y9  1  0.394754  0.605246  0.749921  1
  Co  Co10  1  0.410055  0.589945  0.249751  1
  Co  Co11  1  0.589705  0.410295  0.750017  1
  Co  Co12  1  0.820770  0.179230  0.249913  1
  Co  Co13  1  0.179225  0.820775  0.750111  1
  Te  Te14  1  0.617353  0.382647  0.038602  1
  Te  Te15  1  0.382673  0.617327  0.961340  1
  Te  Te16  1  0.382763  0.617237  0.538415  1
  Te  Te17  1  0.617155  0.382845  0.461224  1
