# generated using pymatgen
data_TbY19Cd3Ag3Ru2
_symmetry_space_group_name_H-M   'P 1'
_cell_length_a   9.64590503
_cell_length_b   9.64590425
_cell_length_c   9.71285600
_cell_angle_alpha   90.00000000
_cell_angle_beta   90.00000000
_cell_angle_gamma   120.00898233
_symmetry_Int_Tables_number   1
_chemical_formula_structural   TbY19Cd3Ag3Ru2
_chemical_formula_sum   'Tb1 Y19 Cd3 Ag3 Ru2'
_cell_volume   782.57180037
_cell_formula_units_Z   1
loop_
 _symmetry_equiv_pos_site_id
 _symmetry_equiv_pos_as_xyz
  1  'x, y, z'
loop_
 _atom_site_type_symbol
 _atom_site_label
 _atom_site_symmetry_multiplicity
 _atom_site_fract_x
 _atom_site_fract_y
 _atom_site_fract_z
 _atom_site_occupancy
  Tb  Tb0  1  0.540919  0.459081  0.250000  1
  Y  Y1  1  0.000005  0.999995  0.477963  1
  Y  Y2  1  0.000005  0.999995  0.022037  1
  Y  Y3  1  0.210236  0.789764  0.440822  1
  Y  Y4  1  0.210196  0.420454  0.440833  1
  Y  Y5  1  0.579546  0.789804  0.440833  1
  Y  Y6  1  0.790815  0.209185  0.559641  1
  Y  Y7  1  0.790832  0.581627  0.559633  1
  Y  Y8  1  0.418373  0.209168  0.559633  1
  Y  Y9  1  0.790815  0.209185  0.940359  1
  Y  Y10  1  0.790832  0.581627  0.940367  1
  Y  Y11  1  0.418373  0.209168  0.940367  1
  Y  Y12  1  0.210236  0.789764  0.059178  1
  Y  Y13  1  0.210196  0.420454  0.059167  1
  Y  Y14  1  0.579546  0.789804  0.059167  1
  Y  Y15  1  0.540957  0.081853  0.250000  1
  Y  Y16  1  0.918147  0.459043  0.250000  1
  Y  Y17  1  0.458874  0.541126  0.750000  1
  Y  Y18  1  0.458866  0.917734  0.750000  1
  Y  Y19  1  0.082266  0.541134  0.750000  1
  Cd  Cd20  1  0.111256  0.888744  0.750000  1
  Cd  Cd21  1  0.111253  0.222531  0.750000  1
  Cd  Cd22  1  0.777469  0.888747  0.750000  1
  Ag  Ag23  1  0.876600  0.123400  0.250000  1
  Ag  Ag24  1  0.876577  0.753186  0.250000  1
  Ag  Ag25  1  0.246814  0.123423  0.250000  1
  Ru  Ru26  1  0.333353  0.666647  0.250000  1
  Ru  Ru27  1  0.666646  0.333354  0.750000  1
