# generated using pymatgen
data_Tb19Er(Cd3Ni)2
_symmetry_space_group_name_H-M   'P 1'
_cell_length_a   9.59576400
_cell_length_b   9.59576453
_cell_length_c   9.84223200
_cell_angle_alpha   90.00000000
_cell_angle_beta   90.00000000
_cell_angle_gamma   119.99999819
_symmetry_Int_Tables_number   1
_chemical_formula_structural   Tb19Er(Cd3Ni)2
_chemical_formula_sum   'Tb19 Er1 Cd6 Ni2'
_cell_volume   784.84406415
_cell_formula_units_Z   1
loop_
 _symmetry_equiv_pos_site_id
 _symmetry_equiv_pos_as_xyz
  1  'x, y, z'
loop_
 _atom_site_type_symbol
 _atom_site_label
 _atom_site_symmetry_multiplicity
 _atom_site_fract_x
 _atom_site_fract_y
 _atom_site_fract_z
 _atom_site_occupancy
  Tb  Tb0  1  0.000000  0.000000  0.000000  1
  Tb  Tb1  1  0.543700  0.456300  0.250021  1
  Tb  Tb2  1  0.543700  0.087400  0.250021  1
  Tb  Tb3  1  0.912600  0.456300  0.250021  1
  Tb  Tb4  1  0.456300  0.543700  0.749979  1
  Tb  Tb5  1  0.456300  0.912600  0.749979  1
  Tb  Tb6  1  0.087400  0.543700  0.749979  1
  Tb  Tb7  1  0.210167  0.789833  0.436379  1
  Tb  Tb8  1  0.210167  0.420336  0.436379  1
  Tb  Tb9  1  0.579664  0.789833  0.436379  1
  Tb  Tb10  1  0.789833  0.210167  0.563621  1
  Tb  Tb11  1  0.789833  0.579664  0.563621  1
  Tb  Tb12  1  0.420336  0.210167  0.563621  1
  Tb  Tb13  1  0.789650  0.210350  0.936628  1
  Tb  Tb14  1  0.789650  0.579299  0.936628  1
  Tb  Tb15  1  0.420701  0.210350  0.936628  1
  Tb  Tb16  1  0.210350  0.789650  0.063372  1
  Tb  Tb17  1  0.210350  0.420701  0.063372  1
  Tb  Tb18  1  0.579299  0.789650  0.063372  1
  Er  Er19  1  0.000000  0.000000  0.500000  1
  Cd  Cd20  1  0.885215  0.114785  0.250357  1
  Cd  Cd21  1  0.885215  0.770430  0.250357  1
  Cd  Cd22  1  0.229570  0.114785  0.250357  1
  Cd  Cd23  1  0.114785  0.885215  0.749643  1
  Cd  Cd24  1  0.114785  0.229570  0.749643  1
  Cd  Cd25  1  0.770430  0.885215  0.749643  1
  Ni  Ni26  1  0.333333  0.666667  0.250256  1
  Ni  Ni27  1  0.666667  0.333333  0.749744  1
