# generated using pymatgen
data_Tb11Tm5(C2Cl3)4
_symmetry_space_group_name_H-M   'P 1'
_cell_length_a   3.65633400
_cell_length_b   10.53258701
_cell_length_c   19.73449200
_cell_angle_alpha   90.03541892
_cell_angle_beta   90.00000000
_cell_angle_gamma   90.00000000
_symmetry_Int_Tables_number   1
_chemical_formula_structural   Tb11Tm5(C2Cl3)4
_chemical_formula_sum   'Tb11 Tm5 C8 Cl12'
_cell_volume   759.98808757
_cell_formula_units_Z   1
loop_
 _symmetry_equiv_pos_site_id
 _symmetry_equiv_pos_as_xyz
  1  'x, y, z'
loop_
 _atom_site_type_symbol
 _atom_site_label
 _atom_site_symmetry_multiplicity
 _atom_site_fract_x
 _atom_site_fract_y
 _atom_site_fract_z
 _atom_site_occupancy
  Tb  Tb0  1  0.250000  0.139659  0.573480  1
  Tb  Tb1  1  0.250000  0.638468  0.926617  1
  Tb  Tb2  1  0.750000  0.860328  0.426891  1
  Tb  Tb3  1  0.750000  0.360164  0.072918  1
  Tb  Tb4  1  0.250000  0.637189  0.755498  1
  Tb  Tb5  1  0.250000  0.137344  0.745132  1
  Tb  Tb6  1  0.750000  0.362783  0.244560  1
  Tb  Tb7  1  0.750000  0.862376  0.255346  1
  Tb  Tb8  1  0.250000  0.101319  0.331758  1
  Tb  Tb9  1  0.250000  0.601400  0.168111  1
  Tb  Tb10  1  0.750000  0.898628  0.668268  1
  Tm  Tm11  1  0.750000  0.400802  0.830105  1
  Tm  Tm12  1  0.250000  0.126461  0.165601  1
  Tm  Tm13  1  0.250000  0.626215  0.334311  1
  Tm  Tm14  1  0.750000  0.873837  0.834362  1
  Tm  Tm15  1  0.750000  0.373050  0.666442  1
  C  C16  1  0.250000  0.862400  0.347571  1
  C  C17  1  0.250000  0.361973  0.152157  1
  C  C18  1  0.750000  0.138525  0.652954  1
  C  C19  1  0.750000  0.634719  0.847434  1
  C  C20  1  0.250000  0.387917  0.750387  1
  C  C21  1  0.250000  0.886868  0.751603  1
  C  C22  1  0.750000  0.612669  0.251229  1
  C  C23  1  0.750000  0.112470  0.248701  1
  Cl  Cl24  1  0.250000  0.377152  0.949760  1
  Cl  Cl25  1  0.250000  0.877338  0.548201  1
  Cl  Cl26  1  0.750000  0.622196  0.047669  1
  Cl  Cl27  1  0.750000  0.122599  0.452298  1
  Cl  Cl28  1  0.250000  0.889099  0.941590  1
  Cl  Cl29  1  0.250000  0.389920  0.559018  1
  Cl  Cl30  1  0.750000  0.110211  0.057994  1
  Cl  Cl31  1  0.750000  0.610389  0.441898  1
  Cl  Cl32  1  0.250000  0.364130  0.354887  1
  Cl  Cl33  1  0.250000  0.864104  0.145037  1
  Cl  Cl34  1  0.750000  0.635437  0.645343  1
  Cl  Cl35  1  0.750000  0.139857  0.854870  1
