# generated using pymatgen
data_YbEr3Ni13C4
_symmetry_space_group_name_H-M   'P 1'
_cell_length_a   8.33220246
_cell_length_b   8.33220302
_cell_length_c   3.82895100
_cell_angle_alpha   90.00000000
_cell_angle_beta   90.00000000
_cell_angle_gamma   91.18832779
_symmetry_Int_Tables_number   1
_chemical_formula_structural   YbEr3Ni13C4
_chemical_formula_sum   'Yb1 Er3 Ni13 C4'
_cell_volume   265.77005850
_cell_formula_units_Z   1
loop_
 _symmetry_equiv_pos_site_id
 _symmetry_equiv_pos_as_xyz
  1  'x, y, z'
loop_
 _atom_site_type_symbol
 _atom_site_label
 _atom_site_symmetry_multiplicity
 _atom_site_fract_x
 _atom_site_fract_y
 _atom_site_fract_z
 _atom_site_occupancy
  Yb  Yb0  1  0.191468  0.808532  0.500000  1
  Er  Er1  1  0.813203  0.186797  0.500000  1
  Er  Er2  1  0.346575  0.348610  0.500000  1
  Er  Er3  1  0.651390  0.653425  0.500000  1
  Ni  Ni4  1  0.999764  0.000236  0.000000  1
  Ni  Ni5  1  0.215981  0.569861  0.000000  1
  Ni  Ni6  1  0.784458  0.430809  0.000000  1
  Ni  Ni7  1  0.430139  0.784019  0.000000  1
  Ni  Ni8  1  0.569191  0.215542  0.000000  1
  Ni  Ni9  1  0.997678  0.499307  0.500000  1
  Ni  Ni10  1  0.500693  0.002322  0.500000  1
  Ni  Ni11  1  0.073019  0.290880  0.000000  1
  Ni  Ni12  1  0.923805  0.710152  0.000000  1
  Ni  Ni13  1  0.709120  0.926981  0.000000  1
  Ni  Ni14  1  0.289848  0.076195  0.000000  1
  Ni  Ni15  1  0.124513  0.118646  0.500000  1
  Ni  Ni16  1  0.881354  0.875487  0.500000  1
  C  C17  1  0.000387  0.502269  0.000000  1
  C  C18  1  0.497731  0.999613  0.000000  1
  C  C19  1  0.442716  0.557284  0.000000  1
  C  C20  1  0.556965  0.443035  0.000000  1
