# generated using pymatgen
data_Sm4AlGa3Ru4
_symmetry_space_group_name_H-M   'P 1'
_cell_length_a   4.57711400
_cell_length_b   7.13439495
_cell_length_c   7.35933214
_cell_angle_alpha   89.57516777
_cell_angle_beta   90.00000000
_cell_angle_gamma   90.00000000
_symmetry_Int_Tables_number   1
_chemical_formula_structural   Sm4AlGa3Ru4
_chemical_formula_sum   'Sm4 Al1 Ga3 Ru4'
_cell_volume   240.31193602
_cell_formula_units_Z   1
loop_
 _symmetry_equiv_pos_site_id
 _symmetry_equiv_pos_as_xyz
  1  'x, y, z'
loop_
 _atom_site_type_symbol
 _atom_site_label
 _atom_site_symmetry_multiplicity
 _atom_site_fract_x
 _atom_site_fract_y
 _atom_site_fract_z
 _atom_site_occupancy
  Sm  Sm0  1  0.250000  0.193485  0.979143  1
  Sm  Sm1  1  0.750000  0.808206  0.024017  1
  Sm  Sm2  1  0.750000  0.694897  0.521807  1
  Sm  Sm3  1  0.250000  0.303702  0.476200  1
  Al  Al4  1  0.250000  0.607861  0.810740  1
  Ga  Ga5  1  0.250000  0.892347  0.306995  1
  Ga  Ga6  1  0.750000  0.105994  0.693775  1
  Ga  Ga7  1  0.750000  0.394139  0.191436  1
  Ru  Ru8  1  0.250000  0.563288  0.153809  1
  Ru  Ru9  1  0.750000  0.438259  0.841114  1
  Ru  Ru10  1  0.750000  0.063098  0.343925  1
  Ru  Ru11  1  0.250000  0.934726  0.657037  1
