# generated using pymatgen
data_Ta4Be3SiMo2
_symmetry_space_group_name_H-M   'P 1'
_cell_length_a   6.45605689
_cell_length_b   6.45605699
_cell_length_c   3.36941500
_cell_angle_alpha   90.00000000
_cell_angle_beta   90.00000000
_cell_angle_gamma   89.70305936
_symmetry_Int_Tables_number   1
_chemical_formula_structural   Ta4Be3SiMo2
_chemical_formula_sum   'Ta4 Be3 Si1 Mo2'
_cell_volume   140.43759275
_cell_formula_units_Z   1
loop_
 _symmetry_equiv_pos_site_id
 _symmetry_equiv_pos_as_xyz
  1  'x, y, z'
loop_
 _atom_site_type_symbol
 _atom_site_label
 _atom_site_symmetry_multiplicity
 _atom_site_fract_x
 _atom_site_fract_y
 _atom_site_fract_z
 _atom_site_occupancy
  Ta  Ta0  1  0.678262  0.178262  0.500000  1
  Ta  Ta1  1  0.330828  0.830828  0.500000  1
  Ta  Ta2  1  0.178947  0.312034  0.500000  1
  Ta  Ta3  1  0.812034  0.678947  0.500000  1
  Be  Be4  1  0.878216  0.378216  0.000000  1
  Be  Be5  1  0.617042  0.885152  0.000000  1
  Be  Be6  1  0.385152  0.117042  0.000000  1
  Si  Si7  1  0.118090  0.618090  0.000000  1
  Mo  Mo8  1  0.503519  0.497911  0.000000  1
  Mo  Mo9  1  0.997911  0.003519  0.000000  1
