# generated using pymatgen
data_La16Cd4Ir2PdRu
_symmetry_space_group_name_H-M   'P 1'
_cell_length_a   10.16877836
_cell_length_b   10.16766770
_cell_length_c   10.12493337
_cell_angle_alpha   59.86028350
_cell_angle_beta   59.93012739
_cell_angle_gamma   60.00360958
_symmetry_Int_Tables_number   1
_chemical_formula_structural   La16Cd4Ir2PdRu
_chemical_formula_sum   'La16 Cd4 Ir2 Pd1 Ru1'
_cell_volume   739.07592995
_cell_formula_units_Z   1
loop_
 _symmetry_equiv_pos_site_id
 _symmetry_equiv_pos_as_xyz
  1  'x, y, z'
loop_
 _atom_site_type_symbol
 _atom_site_label
 _atom_site_symmetry_multiplicity
 _atom_site_fract_x
 _atom_site_fract_y
 _atom_site_fract_z
 _atom_site_occupancy
  La  La0  1  0.898377  0.900498  0.907888  1
  La  La1  1  0.441217  0.436454  0.061483  1
  La  La2  1  0.058495  0.057423  0.435960  1
  La  La3  1  0.441217  0.060847  0.061483  1
  La  La4  1  0.310594  0.689200  0.311007  1
  La  La5  1  0.688820  0.689142  0.310864  1
  La  La6  1  0.688820  0.311175  0.310864  1
  La  La7  1  0.295672  0.899231  0.905868  1
  La  La8  1  0.898377  0.293239  0.907888  1
  La  La9  1  0.310387  0.686487  0.691182  1
  La  La10  1  0.902976  0.903827  0.289370  1
  La  La11  1  0.060652  0.439511  0.060326  1
  La  La12  1  0.310387  0.311943  0.691182  1
  La  La13  1  0.058495  0.448122  0.435960  1
  La  La14  1  0.450009  0.059038  0.431915  1
  La  La15  1  0.685994  0.311461  0.691083  1
  Cd  Cd16  1  0.670061  0.670196  0.989546  1
  Cd  Cd17  1  0.988243  0.670647  0.670463  1
  Cd  Cd18  1  0.670743  0.987966  0.670655  1
  Cd  Cd19  1  0.670743  0.670635  0.670655  1
  Ir  Ir20  1  0.110740  0.109807  0.105568  1
  Ir  Ir21  1  0.110740  0.673886  0.105568  1
  Pd  Pd22  1  0.109157  0.108587  0.673667  1
  Ru  Ru23  1  0.669089  0.110676  0.109559  1
