# generated using pymatgen
data_Be8V2FeMo
_symmetry_space_group_name_H-M   'P 1'
_cell_length_a   4.31933000
_cell_length_b   4.31933093
_cell_length_c   7.07381700
_cell_angle_alpha   90.00000000
_cell_angle_beta   90.00000000
_cell_angle_gamma   120.00000822
_symmetry_Int_Tables_number   1
_chemical_formula_structural   Be8V2FeMo
_chemical_formula_sum   'Be8 V2 Fe1 Mo1'
_cell_volume   114.29238113
_cell_formula_units_Z   1
loop_
 _symmetry_equiv_pos_site_id
 _symmetry_equiv_pos_as_xyz
  1  'x, y, z'
loop_
 _atom_site_type_symbol
 _atom_site_label
 _atom_site_symmetry_multiplicity
 _atom_site_fract_x
 _atom_site_fract_y
 _atom_site_fract_z
 _atom_site_occupancy
  Be  Be0  1  0.000000  0.000000  0.002021  1
  Be  Be1  1  0.000000  0.000000  0.496532  1
  Be  Be2  1  0.830861  0.661722  0.246014  1
  Be  Be3  1  0.169663  0.830337  0.754104  1
  Be  Be4  1  0.660674  0.830337  0.754104  1
  Be  Be5  1  0.338278  0.169139  0.246014  1
  Be  Be6  1  0.830861  0.169139  0.246014  1
  Be  Be7  1  0.169663  0.339326  0.754104  1
  V  V8  1  0.666667  0.333333  0.941176  1
  V  V9  1  0.333333  0.666667  0.429324  1
  Fe  Fe10  1  0.333333  0.666667  0.066299  1
  Mo  Mo11  1  0.666667  0.333333  0.564296  1
