# generated using pymatgen
data_Sr2LaCe(Pt2O7)2
_symmetry_space_group_name_H-M   'P 1'
_cell_length_a   7.47218769
_cell_length_b   7.50108843
_cell_length_c   7.47218676
_cell_angle_alpha   59.88631029
_cell_angle_beta   59.54093483
_cell_angle_gamma   59.88631726
_symmetry_Int_Tables_number   1
_chemical_formula_structural   Sr2LaCe(Pt2O7)2
_chemical_formula_sum   'Sr2 La1 Ce1 Pt4 O14'
_cell_volume   294.59956062
_cell_formula_units_Z   1
loop_
 _symmetry_equiv_pos_site_id
 _symmetry_equiv_pos_as_xyz
  1  'x, y, z'
loop_
 _atom_site_type_symbol
 _atom_site_label
 _atom_site_symmetry_multiplicity
 _atom_site_fract_x
 _atom_site_fract_y
 _atom_site_fract_z
 _atom_site_occupancy
  Sr  Sr0  1  0.625000  0.125000  0.125000  1
  Sr  Sr1  1  0.125000  0.125000  0.625000  1
  La  La2  1  0.125000  0.125000  0.125000  1
  Ce  Ce3  1  0.125000  0.625000  0.125000  1
  Pt  Pt4  1  0.625000  0.625000  0.125000  1
  Pt  Pt5  1  0.625000  0.625000  0.625000  1
  Pt  Pt6  1  0.625000  0.125000  0.625000  1
  Pt  Pt7  1  0.125000  0.625000  0.625000  1
  O  O8  1  0.709378  0.296008  0.293224  1
  O  O9  1  0.716334  0.697658  0.292140  1
  O  O10  1  0.290933  0.704224  0.290933  1
  O  O11  1  0.015999  0.966444  0.015999  1
  O  O12  1  0.701523  0.299174  0.701523  1
  O  O13  1  0.957860  0.552342  0.533666  1
  O  O14  1  0.292140  0.697658  0.716334  1
  O  O15  1  0.548477  0.950826  0.548477  1
  O  O16  1  0.234001  0.283556  0.234001  1
  O  O17  1  0.959067  0.545776  0.959067  1
  O  O18  1  0.533666  0.552342  0.957860  1
  O  O19  1  0.956776  0.953992  0.540622  1
  O  O20  1  0.540622  0.953992  0.956776  1
  O  O21  1  0.293224  0.296008  0.709378  1
