# generated using pymatgen
data_Pr8Er12Si15Au
_symmetry_space_group_name_H-M   'P 1'
_cell_length_a   7.45561241
_cell_length_b   14.74299600
_cell_length_c   7.82626700
_cell_angle_alpha   90.00000000
_cell_angle_beta   90.13407122
_cell_angle_gamma   90.00000000
_symmetry_Int_Tables_number   1
_chemical_formula_structural   Pr8Er12Si15Au
_chemical_formula_sum   'Pr8 Er12 Si15 Au1'
_cell_volume   860.24576154
_cell_formula_units_Z   1
loop_
 _symmetry_equiv_pos_site_id
 _symmetry_equiv_pos_as_xyz
  1  'x, y, z'
loop_
 _atom_site_type_symbol
 _atom_site_label
 _atom_site_symmetry_multiplicity
 _atom_site_fract_x
 _atom_site_fract_y
 _atom_site_fract_z
 _atom_site_occupancy
  Pr  Pr0  1  0.020696  0.097599  0.178488  1
  Pr  Pr1  1  0.020696  0.402401  0.178488  1
  Pr  Pr2  1  0.518987  0.098123  0.320646  1
  Pr  Pr3  1  0.518987  0.401877  0.320646  1
  Pr  Pr4  1  0.481298  0.595525  0.678020  1
  Pr  Pr5  1  0.481298  0.904475  0.678020  1
  Pr  Pr6  1  0.982130  0.593772  0.817842  1
  Pr  Pr7  1  0.982130  0.906228  0.817842  1
  Er  Er8  1  0.346035  0.250000  0.010029  1
  Er  Er9  1  0.320869  0.622177  0.176467  1
  Er  Er10  1  0.320869  0.877822  0.176467  1
  Er  Er11  1  0.816946  0.621992  0.325836  1
  Er  Er12  1  0.816946  0.878007  0.325836  1
  Er  Er13  1  0.845351  0.250000  0.490688  1
  Er  Er14  1  0.150567  0.750000  0.514256  1
  Er  Er15  1  0.179462  0.124749  0.677521  1
  Er  Er16  1  0.179462  0.375250  0.677521  1
  Er  Er17  1  0.679947  0.124895  0.824146  1
  Er  Er18  1  0.679947  0.375104  0.824146  1
  Er  Er19  1  0.656309  0.750000  0.992060  1
  Si  Si20  1  0.649421  0.538953  0.031603  1
  Si  Si21  1  0.649421  0.961047  0.031603  1
  Si  Si22  1  0.724694  0.250000  0.122871  1
  Si  Si23  1  0.223245  0.250000  0.376532  1
  Si  Si24  1  0.524195  0.750000  0.389197  1
  Si  Si25  1  0.147734  0.538467  0.469131  1
  Si  Si26  1  0.147734  0.961533  0.469131  1
  Si  Si27  1  0.852085  0.040475  0.531968  1
  Si  Si28  1  0.852085  0.459524  0.531968  1
  Si  Si29  1  0.474568  0.250000  0.613943  1
  Si  Si30  1  0.769393  0.750000  0.620718  1
  Si  Si31  1  0.278726  0.750000  0.873843  1
  Si  Si32  1  0.975883  0.250000  0.886251  1
  Si  Si33  1  0.354221  0.039345  0.966315  1
  Si  Si34  1  0.354221  0.460654  0.966315  1
  Au  Au35  1  0.023445  0.750000  0.113649  1
