# generated using pymatgen
data_Ho3Sc2(In2Rh)2
_symmetry_space_group_name_H-M   'P 1'
_cell_length_a   3.53933400
_cell_length_b   7.86976900
_cell_length_c   17.94962400
_cell_angle_alpha   90.00000000
_cell_angle_beta   90.00000000
_cell_angle_gamma   90.00000000
_symmetry_Int_Tables_number   1
_chemical_formula_structural   Ho3Sc2(In2Rh)2
_chemical_formula_sum   'Ho6 Sc4 In8 Rh4'
_cell_volume   499.96417783
_cell_formula_units_Z   2
loop_
 _symmetry_equiv_pos_site_id
 _symmetry_equiv_pos_as_xyz
  1  'x, y, z'
loop_
 _atom_site_type_symbol
 _atom_site_label
 _atom_site_symmetry_multiplicity
 _atom_site_fract_x
 _atom_site_fract_y
 _atom_site_fract_z
 _atom_site_occupancy
  Ho  Ho0  1  0.000000  0.000000  0.000000  1
  Ho  Ho1  1  0.000000  0.500000  0.500000  1
  Ho  Ho2  1  0.000000  0.747540  0.780664  1
  Ho  Ho3  1  0.000000  0.252460  0.219336  1
  Ho  Ho4  1  0.000000  0.247540  0.719336  1
  Ho  Ho5  1  0.000000  0.752460  0.280664  1
  Sc  Sc6  1  0.000000  0.878414  0.587991  1
  Sc  Sc7  1  0.000000  0.121586  0.412009  1
  Sc  Sc8  1  0.000000  0.378414  0.912009  1
  Sc  Sc9  1  0.000000  0.621586  0.087991  1
  In  In10  1  0.500000  0.807069  0.437027  1
  In  In11  1  0.500000  0.192931  0.562973  1
  In  In12  1  0.500000  0.307069  0.062973  1
  In  In13  1  0.500000  0.692931  0.937027  1
  In  In14  1  0.500000  0.926652  0.149311  1
  In  In15  1  0.500000  0.073348  0.850689  1
  In  In16  1  0.500000  0.426652  0.350689  1
  In  In17  1  0.500000  0.573348  0.649311  1
  Rh  Rh18  1  0.500000  0.962483  0.691832  1
  Rh  Rh19  1  0.500000  0.037517  0.308168  1
  Rh  Rh20  1  0.500000  0.462483  0.808168  1
  Rh  Rh21  1  0.500000  0.537517  0.191832  1
