# generated using pymatgen
data_Tm2TiCo16
_symmetry_space_group_name_H-M   'P 1'
_cell_length_a   6.26035321
_cell_length_b   6.26035253
_cell_length_c   6.26035249
_cell_angle_alpha   82.85775457
_cell_angle_beta   82.85774846
_cell_angle_gamma   82.85776089
_symmetry_Int_Tables_number   1
_chemical_formula_structural   Tm2TiCo16
_chemical_formula_sum   'Tm2 Ti1 Co16'
_cell_volume   240.08140498
_cell_formula_units_Z   1
loop_
 _symmetry_equiv_pos_site_id
 _symmetry_equiv_pos_as_xyz
  1  'x, y, z'
loop_
 _atom_site_type_symbol
 _atom_site_label
 _atom_site_symmetry_multiplicity
 _atom_site_fract_x
 _atom_site_fract_y
 _atom_site_fract_z
 _atom_site_occupancy
  Tm  Tm0  1  0.656385  0.656385  0.656385  1
  Tm  Tm1  1  0.352093  0.352093  0.352093  1
  Ti  Ti2  1  0.092289  0.092289  0.092289  1
  Co  Co3  1  0.293758  0.705609  0.997919  1
  Co  Co4  1  0.705609  0.997919  0.293758  1
  Co  Co5  1  0.997919  0.293758  0.705609  1
  Co  Co6  1  0.293758  0.997919  0.705609  1
  Co  Co7  1  0.997919  0.705609  0.293758  1
  Co  Co8  1  0.705609  0.293758  0.997919  1
  Co  Co9  1  0.998622  0.998622  0.504623  1
  Co  Co10  1  0.998622  0.504623  0.998622  1
  Co  Co11  1  0.504623  0.998622  0.998622  1
  Co  Co12  1  0.348545  0.348545  0.847229  1
  Co  Co13  1  0.348545  0.847229  0.348545  1
  Co  Co14  1  0.847229  0.348545  0.348545  1
  Co  Co15  1  0.653824  0.653824  0.150736  1
  Co  Co16  1  0.653824  0.150736  0.653824  1
  Co  Co17  1  0.150736  0.653824  0.653824  1
  Co  Co18  1  0.900087  0.900087  0.900087  1
