# generated using pymatgen
data_Tb3Dy9Ir4
_symmetry_space_group_name_H-M   'P 1'
_cell_length_a   7.23084511
_cell_length_b   9.31332100
_cell_length_c   6.37061210
_cell_angle_alpha   90.00000000
_cell_angle_beta   90.02031120
_cell_angle_gamma   90.00000000
_symmetry_Int_Tables_number   1
_chemical_formula_structural   Tb3Dy9Ir4
_chemical_formula_sum   'Tb3 Dy9 Ir4'
_cell_volume   429.01726088
_cell_formula_units_Z   1
loop_
 _symmetry_equiv_pos_site_id
 _symmetry_equiv_pos_as_xyz
  1  'x, y, z'
loop_
 _atom_site_type_symbol
 _atom_site_label
 _atom_site_symmetry_multiplicity
 _atom_site_fract_x
 _atom_site_fract_y
 _atom_site_fract_z
 _atom_site_occupancy
  Tb  Tb0  1  0.465885  0.750000  0.132640  1
  Tb  Tb1  1  0.965799  0.750000  0.367427  1
  Tb  Tb2  1  0.034248  0.250001  0.632665  1
  Dy  Dy3  1  0.176901  0.063010  0.172383  1
  Dy  Dy4  1  0.176901  0.436990  0.172383  1
  Dy  Dy5  1  0.676830  0.063076  0.327432  1
  Dy  Dy6  1  0.676830  0.436924  0.327432  1
  Dy  Dy7  1  0.323192  0.562911  0.672458  1
  Dy  Dy8  1  0.323192  0.937089  0.672458  1
  Dy  Dy9  1  0.823071  0.562918  0.827655  1
  Dy  Dy10  1  0.823071  0.937082  0.827655  1
  Dy  Dy11  1  0.534262  0.250001  0.867303  1
  Ir  Ir12  1  0.882443  0.250001  0.049780  1
  Ir  Ir13  1  0.383043  0.250001  0.450332  1
  Ir  Ir14  1  0.617156  0.750000  0.550046  1
  Ir  Ir15  1  0.117173  0.750000  0.949949  1
