# generated using pymatgen
data_Er3Lu2Si8P4Ir19
_symmetry_space_group_name_H-M   'P 1'
_cell_length_a   12.79939500
_cell_length_b   12.76864985
_cell_length_c   3.94027000
_cell_angle_alpha   90.00000000
_cell_angle_beta   90.00000000
_cell_angle_gamma   119.94020330
_symmetry_Int_Tables_number   1
_chemical_formula_structural   Er3Lu2Si8P4Ir19
_chemical_formula_sum   'Er3 Lu2 Si8 P4 Ir19'
_cell_volume   558.02338974
_cell_formula_units_Z   1
loop_
 _symmetry_equiv_pos_site_id
 _symmetry_equiv_pos_as_xyz
  1  'x, y, z'
loop_
 _atom_site_type_symbol
 _atom_site_label
 _atom_site_symmetry_multiplicity
 _atom_site_fract_x
 _atom_site_fract_y
 _atom_site_fract_z
 _atom_site_occupancy
  Er  Er0  1  0.667104  0.333316  0.000000  1
  Er  Er1  1  0.332398  0.667580  0.000000  1
  Er  Er2  1  0.999241  0.183152  0.500000  1
  Lu  Lu3  1  0.814592  0.814337  0.500000  1
  Lu  Lu4  1  0.185633  0.001200  0.500000  1
  Si  Si5  1  0.684869  0.165185  0.500000  1
  Si  Si6  1  0.834723  0.519439  0.500000  1
  Si  Si7  1  0.481850  0.315576  0.500000  1
  Si  Si8  1  0.167655  0.687704  0.500000  1
  Si  Si9  1  0.517717  0.829844  0.500000  1
  Si  Si10  1  0.635729  0.634999  0.000000  1
  Si  Si11  1  0.364939  0.999587  0.000000  1
  Si  Si12  1  0.999346  0.364609  0.000000  1
  P  P13  1  0.308059  0.484274  0.500000  1
  P  P14  1  0.178466  0.179186  0.000000  1
  P  P15  1  0.820809  0.996639  0.000000  1
  P  P16  1  0.000515  0.823656  0.000000  1
  Ir  Ir17  1  0.808014  0.177494  0.000000  1
  Ir  Ir18  1  0.821716  0.630525  0.000000  1
  Ir  Ir19  1  0.368492  0.190204  0.000000  1
  Ir  Ir20  1  0.179219  0.807881  0.000000  1
  Ir  Ir21  1  0.625524  0.817340  0.000000  1
  Ir  Ir22  1  0.199200  0.379250  0.000000  1
  Ir  Ir23  1  0.456344  0.443969  0.000000  1
  Ir  Ir24  1  0.552801  0.002131  0.000000  1
  Ir  Ir25  1  0.998465  0.551078  0.000000  1
  Ir  Ir26  1  0.279546  0.283572  0.500000  1
  Ir  Ir27  1  0.721301  0.997102  0.500000  1
  Ir  Ir28  1  0.000451  0.723698  0.500000  1
  Ir  Ir29  1  0.871145  0.357547  0.500000  1
  Ir  Ir30  1  0.644049  0.514363  0.500000  1
  Ir  Ir31  1  0.486667  0.129129  0.500000  1
  Ir  Ir32  1  0.360403  0.872578  0.500000  1
  Ir  Ir33  1  0.505567  0.633011  0.500000  1
  Ir  Ir34  1  0.126360  0.487378  0.500000  1
  Ir  Ir35  1  0.001092  0.001469  0.000000  1
