# generated using pymatgen
data_La7Yb2PrGa3SiGe2
_symmetry_space_group_name_H-M   'P 1'
_cell_length_a   7.89488462
_cell_length_b   9.03021686
_cell_length_c   7.89488500
_cell_angle_alpha   115.90510056
_cell_angle_beta   90.06834955
_cell_angle_gamma   115.87119105
_symmetry_Int_Tables_number   1
_chemical_formula_structural   La7Yb2PrGa3SiGe2
_chemical_formula_sum   'La7 Yb2 Pr1 Ga3 Si1 Ge2'
_cell_volume   442.56939757
_cell_formula_units_Z   1
loop_
 _symmetry_equiv_pos_site_id
 _symmetry_equiv_pos_as_xyz
  1  'x, y, z'
loop_
 _atom_site_type_symbol
 _atom_site_label
 _atom_site_symmetry_multiplicity
 _atom_site_fract_x
 _atom_site_fract_y
 _atom_site_fract_z
 _atom_site_occupancy
  La  La0  1  0.523838  0.701533  0.674594  1
  La  La1  1  0.175673  0.703399  0.024912  1
  La  La2  1  0.674756  0.700008  0.174105  1
  La  La3  1  0.029459  0.702377  0.528937  1
  La  La4  1  0.472972  0.298217  0.322171  1
  La  La5  1  0.327526  0.297596  0.827877  1
  La  La6  1  0.973631  0.300140  0.473874  1
  Yb  Yb7  1  0.001827  0.000605  0.998894  1
  Yb  Yb8  1  0.499455  0.000485  0.502207  1
  Pr  Pr9  1  0.819516  0.293718  0.970779  1
  Ga  Ga10  1  0.882930  0.001096  0.619274  1
  Ga  Ga11  1  0.117887  0.000533  0.383524  1
  Ga  Ga12  1  0.616988  0.001235  0.115952  1
  Si  Si13  1  0.386205  0.000766  0.885331  1
  Ge  Ge14  1  0.749610  0.499200  0.749627  1
  Ge  Ge15  1  0.247729  0.499093  0.247942  1
