# generated using pymatgen
data_Pr6Nd4Si5Pd
_symmetry_space_group_name_H-M   'P 1'
_cell_length_a   7.73246482
_cell_length_b   7.74119681
_cell_length_c   9.10994752
_cell_angle_alpha   115.14407395
_cell_angle_beta   115.11376357
_cell_angle_gamma   89.99730034
_symmetry_Int_Tables_number   1
_chemical_formula_structural   Pr6Nd4Si5Pd
_chemical_formula_sum   'Pr6 Nd4 Si5 Pd1'
_cell_volume   436.02512892
_cell_formula_units_Z   1
loop_
 _symmetry_equiv_pos_site_id
 _symmetry_equiv_pos_as_xyz
  1  'x, y, z'
loop_
 _atom_site_type_symbol
 _atom_site_label
 _atom_site_symmetry_multiplicity
 _atom_site_fract_x
 _atom_site_fract_y
 _atom_site_fract_z
 _atom_site_occupancy
  Pr  Pr0  1  0.812885  0.329583  0.286542  1
  Pr  Pr1  1  0.473657  0.956959  0.286542  1
  Pr  Pr2  1  0.026653  0.171035  0.713783  1
  Pr  Pr3  1  0.687130  0.542748  0.713783  1
  Pr  Pr4  1  0.171198  0.687778  0.713519  1
  Pr  Pr5  1  0.542320  0.025740  0.713519  1
  Nd  Nd6  1  0.475421  0.475421  0.950842  1
  Nd  Nd7  1  0.024916  0.024916  0.049832  1
  Nd  Nd8  1  0.956864  0.811538  0.284991  1
  Nd  Nd9  1  0.328127  0.473453  0.284991  1
  Si  Si10  1  0.249500  0.249500  0.498999  1
  Si  Si11  1  0.615781  0.885062  0.000762  1
  Si  Si12  1  0.384981  0.115700  0.000762  1
  Si  Si13  1  0.885661  0.385667  0.001134  1
  Si  Si14  1  0.115473  0.615467  0.001134  1
  Pd  Pd15  1  0.749432  0.749432  0.498864  1
