# generated using pymatgen
data_Ce10Zn3SiRu6
_symmetry_space_group_name_H-M   'P 1'
_cell_length_a   8.29874726
_cell_length_b   8.29874708
_cell_length_c   8.38694000
_cell_angle_alpha   109.68664437
_cell_angle_beta   109.68664392
_cell_angle_gamma   109.25494640
_symmetry_Int_Tables_number   1
_chemical_formula_structural   Ce10Zn3SiRu6
_chemical_formula_sum   'Ce10 Zn3 Si1 Ru6'
_cell_volume   443.45049758
_cell_formula_units_Z   1
loop_
 _symmetry_equiv_pos_site_id
 _symmetry_equiv_pos_as_xyz
  1  'x, y, z'
loop_
 _atom_site_type_symbol
 _atom_site_label
 _atom_site_symmetry_multiplicity
 _atom_site_fract_x
 _atom_site_fract_y
 _atom_site_fract_z
 _atom_site_occupancy
  Ce  Ce0  1  0.785658  0.781268  0.781765  1
  Ce  Ce1  1  0.309271  0.559857  0.751394  1
  Ce  Ce2  1  0.744432  0.295093  0.550697  1
  Ce  Ce3  1  0.550661  0.755568  0.306265  1
  Ce  Ce4  1  0.718732  0.504390  0.000497  1
  Ce  Ce5  1  0.995610  0.714342  0.496106  1
  Ce  Ce6  1  0.500000  0.000000  0.730041  1
  Ce  Ce7  1  0.250586  0.190729  0.942123  1
  Ce  Ce8  1  0.940143  0.249414  0.191537  1
  Ce  Ce9  1  0.204907  0.949339  0.255604  1
  Zn  Zn10  1  0.409790  0.411767  0.408991  1
  Zn  Zn11  1  0.088233  0.498023  0.997224  1
  Zn  Zn12  1  0.001977  0.090210  0.499201  1
  Si  Si13  1  0.500000  0.000000  0.105837  1
  Ru  Ru14  1  0.864735  0.108352  0.748242  1
  Ru  Ru15  1  0.743749  0.881637  0.112154  1
  Ru  Ru16  1  0.137888  0.756251  0.868405  1
  Ru  Ru17  1  0.243617  0.635265  0.383507  1
  Ru  Ru18  1  0.391648  0.256383  0.639890  1
  Ru  Ru19  1  0.618363  0.362112  0.230517  1
