# generated using pymatgen
data_Dy6CoP12Ir6Rh11
_symmetry_space_group_name_H-M   'P 1'
_cell_length_a   3.92499200
_cell_length_b   11.16485500
_cell_length_c   12.80552200
_cell_angle_alpha   90.00000000
_cell_angle_beta   90.00000000
_cell_angle_gamma   90.00000000
_symmetry_Int_Tables_number   1
_chemical_formula_structural   Dy6CoP12Ir6Rh11
_chemical_formula_sum   'Dy6 Co1 P12 Ir6 Rh11'
_cell_volume   561.16315682
_cell_formula_units_Z   1
loop_
 _symmetry_equiv_pos_site_id
 _symmetry_equiv_pos_as_xyz
  1  'x, y, z'
loop_
 _atom_site_type_symbol
 _atom_site_label
 _atom_site_symmetry_multiplicity
 _atom_site_fract_x
 _atom_site_fract_y
 _atom_site_fract_z
 _atom_site_occupancy
  Dy  Dy0  1  0.000000  0.500000  0.521744  1
  Dy  Dy1  1  0.500000  0.000000  0.477745  1
  Dy  Dy2  1  0.500000  0.818830  0.202888  1
  Dy  Dy3  1  0.500000  0.181170  0.202888  1
  Dy  Dy4  1  0.000000  0.688041  0.797717  1
  Dy  Dy5  1  0.000000  0.311959  0.797717  1
  Co  Co6  1  0.500000  0.000000  0.021158  1
  P  P7  1  0.500000  0.500000  0.879614  1
  P  P8  1  0.000000  0.000000  0.119818  1
  P  P9  1  0.500000  0.500000  0.352786  1
  P  P10  1  0.000000  0.000000  0.644785  1
  P  P11  1  0.500000  0.315109  0.619005  1
  P  P12  1  0.500000  0.684891  0.619005  1
  P  P13  1  0.000000  0.183979  0.380941  1
  P  P14  1  0.000000  0.816021  0.380941  1
  P  P15  1  0.500000  0.855298  0.895694  1
  P  P16  1  0.500000  0.144702  0.895694  1
  P  P17  1  0.000000  0.656646  0.106368  1
  P  P18  1  0.000000  0.343354  0.106368  1
  Ir  Ir19  1  0.500000  0.500000  0.702017  1
  Ir  Ir20  1  0.000000  0.000000  0.298187  1
  Ir  Ir21  1  0.000000  0.207114  0.569140  1
  Ir  Ir22  1  0.000000  0.792886  0.569140  1
  Ir  Ir23  1  0.000000  0.628252  0.287295  1
  Ir  Ir24  1  0.000000  0.371748  0.287295  1
  Rh  Rh25  1  0.500000  0.500000  0.172831  1
  Rh  Rh26  1  0.000000  0.000000  0.826736  1
  Rh  Rh27  1  0.000000  0.500000  0.980062  1
  Rh  Rh28  1  0.500000  0.331866  0.995651  1
  Rh  Rh29  1  0.500000  0.668134  0.995651  1
  Rh  Rh30  1  0.000000  0.160014  0.005079  1
  Rh  Rh31  1  0.000000  0.839986  0.005079  1
  Rh  Rh32  1  0.500000  0.295461  0.429986  1
  Rh  Rh33  1  0.500000  0.704539  0.429986  1
  Rh  Rh34  1  0.500000  0.873358  0.711499  1
  Rh  Rh35  1  0.500000  0.126642  0.711499  1
