# generated using pymatgen
data_Tb6Tm10MgAg3Rh4
_symmetry_space_group_name_H-M   'P 1'
_cell_length_a   9.51026775
_cell_length_b   9.50187591
_cell_length_c   9.50187600
_cell_angle_alpha   60.00000663
_cell_angle_beta   60.02919185
_cell_angle_gamma   60.02918859
_symmetry_Int_Tables_number   1
_chemical_formula_structural   Tb6Tm10MgAg3Rh4
_chemical_formula_sum   'Tb6 Tm10 Mg1 Ag3 Rh4'
_cell_volume   607.41841644
_cell_formula_units_Z   1
loop_
 _symmetry_equiv_pos_site_id
 _symmetry_equiv_pos_as_xyz
  1  'x, y, z'
loop_
 _atom_site_type_symbol
 _atom_site_label
 _atom_site_symmetry_multiplicity
 _atom_site_fract_x
 _atom_site_fract_y
 _atom_site_fract_z
 _atom_site_occupancy
  Tb  Tb0  1  0.935115  0.563434  0.563434  1
  Tb  Tb1  1  0.562584  0.936533  0.936533  1
  Tb  Tb2  1  0.562584  0.936533  0.564351  1
  Tb  Tb3  1  0.935115  0.563434  0.938017  1
  Tb  Tb4  1  0.562584  0.564351  0.936533  1
  Tb  Tb5  1  0.935115  0.938017  0.563434  1
  Tm  Tm6  1  0.352149  0.350383  0.350383  1
  Tm  Tm7  1  0.352149  0.350383  0.947084  1
  Tm  Tm8  1  0.352149  0.947084  0.350383  1
  Tm  Tm9  1  0.934023  0.355325  0.355325  1
  Tm  Tm10  1  0.812829  0.186816  0.186816  1
  Tm  Tm11  1  0.184948  0.814750  0.814750  1
  Tm  Tm12  1  0.184948  0.814750  0.185550  1
  Tm  Tm13  1  0.812829  0.186816  0.813540  1
  Tm  Tm14  1  0.184948  0.185550  0.814750  1
  Tm  Tm15  1  0.812829  0.813540  0.186816  1
  Mg  Mg16  1  0.284744  0.571752  0.571752  1
  Ag  Ag17  1  0.581793  0.583347  0.583347  1
  Ag  Ag18  1  0.581793  0.583347  0.251515  1
  Ag  Ag19  1  0.581793  0.251515  0.583347  1
  Rh  Rh20  1  0.141182  0.144868  0.144868  1
  Rh  Rh21  1  0.141182  0.144868  0.569080  1
  Rh  Rh22  1  0.141182  0.569080  0.144868  1
  Rh  Rh23  1  0.569428  0.143524  0.143524  1
