# generated using pymatgen
data_Tb2Pa(GaPd)3
_symmetry_space_group_name_H-M   'P 1'
_cell_length_a   7.33586400
_cell_length_b   7.33284856
_cell_length_c   3.87961700
_cell_angle_alpha   90.00000000
_cell_angle_beta   90.00000000
_cell_angle_gamma   119.98638625
_symmetry_Int_Tables_number   1
_chemical_formula_structural   Tb2Pa(GaPd)3
_chemical_formula_sum   'Tb2 Pa1 Ga3 Pd3'
_cell_volume   180.76029142
_cell_formula_units_Z   1
loop_
 _symmetry_equiv_pos_site_id
 _symmetry_equiv_pos_as_xyz
  1  'x, y, z'
loop_
 _atom_site_type_symbol
 _atom_site_label
 _atom_site_symmetry_multiplicity
 _atom_site_fract_x
 _atom_site_fract_y
 _atom_site_fract_z
 _atom_site_occupancy
  Tb  Tb0  1  0.592403  0.590968  0.000000  1
  Tb  Tb1  1  0.407597  0.998565  0.000000  1
  Pa  Pa2  1  0.000000  0.413159  0.000000  1
  Ga  Ga3  1  0.000000  0.755076  0.500000  1
  Ga  Ga4  1  0.260494  0.252659  0.500000  1
  Ga  Ga5  1  0.739506  0.992165  0.500000  1
  Pd  Pd6  1  0.000000  0.011846  0.000000  1
  Pd  Pd7  1  0.317728  0.651644  0.500000  1
  Pd  Pd8  1  0.682272  0.333917  0.500000  1
