# generated using pymatgen
data_Er5Tl4ZnRh
_symmetry_space_group_name_H-M   'P 1'
_cell_length_a   3.58264400
_cell_length_b   8.14568797
_cell_length_c   18.18841500
_cell_angle_alpha   89.31099389
_cell_angle_beta   90.00000000
_cell_angle_gamma   90.00000000
_symmetry_Int_Tables_number   1
_chemical_formula_structural   Er5Tl4ZnRh
_chemical_formula_sum   'Er10 Tl8 Zn2 Rh2'
_cell_volume   530.75595735
_cell_formula_units_Z   2
loop_
 _symmetry_equiv_pos_site_id
 _symmetry_equiv_pos_as_xyz
  1  'x, y, z'
loop_
 _atom_site_type_symbol
 _atom_site_label
 _atom_site_symmetry_multiplicity
 _atom_site_fract_x
 _atom_site_fract_y
 _atom_site_fract_z
 _atom_site_occupancy
  Er  Er0  1  0.000000  0.116895  0.417268  1
  Er  Er1  1  0.000000  0.883105  0.582732  1
  Er  Er2  1  0.000000  0.385087  0.914198  1
  Er  Er3  1  0.000000  0.614913  0.085802  1
  Er  Er4  1  0.000000  0.256267  0.215689  1
  Er  Er5  1  0.000000  0.743733  0.784311  1
  Er  Er6  1  0.000000  0.283692  0.720974  1
  Er  Er7  1  0.000000  0.716308  0.279026  1
  Er  Er8  1  0.000000  0.000000  0.000000  1
  Er  Er9  1  0.000000  0.500000  0.500000  1
  Tl  Tl10  1  0.500000  0.412659  0.352201  1
  Tl  Tl11  1  0.500000  0.587341  0.647799  1
  Tl  Tl12  1  0.500000  0.084743  0.851155  1
  Tl  Tl13  1  0.500000  0.915257  0.148845  1
  Tl  Tl14  1  0.500000  0.294265  0.064510  1
  Tl  Tl15  1  0.500000  0.705735  0.935490  1
  Tl  Tl16  1  0.500000  0.209281  0.567474  1
  Tl  Tl17  1  0.500000  0.790719  0.432526  1
  Zn  Zn18  1  0.500000  0.018071  0.299374  1
  Zn  Zn19  1  0.500000  0.981929  0.700626  1
  Rh  Rh20  1  0.500000  0.478156  0.804593  1
  Rh  Rh21  1  0.500000  0.521844  0.195407  1
