# generated using pymatgen
data_Y2Tm3P12IrRu18
_symmetry_space_group_name_H-M   'P 1'
_cell_length_a   12.52320700
_cell_length_b   12.52320814
_cell_length_c   3.97459100
_cell_angle_alpha   90.00000000
_cell_angle_beta   90.00000000
_cell_angle_gamma   119.99999436
_symmetry_Int_Tables_number   1
_chemical_formula_structural   Y2Tm3P12IrRu18
_chemical_formula_sum   'Y2 Tm3 P12 Ir1 Ru18'
_cell_volume   539.82657318
_cell_formula_units_Z   1
loop_
 _symmetry_equiv_pos_site_id
 _symmetry_equiv_pos_as_xyz
  1  'x, y, z'
loop_
 _atom_site_type_symbol
 _atom_site_label
 _atom_site_symmetry_multiplicity
 _atom_site_fract_x
 _atom_site_fract_y
 _atom_site_fract_z
 _atom_site_occupancy
  Y  Y0  1  0.333333  0.666667  0.500000  1
  Y  Y1  1  0.666667  0.333333  0.500000  1
  Tm  Tm2  1  0.186094  0.186094  0.000000  1
  Tm  Tm3  1  0.813906  0.000000  0.000000  1
  Tm  Tm4  1  0.000000  0.813906  0.000000  1
  P  P5  1  0.306878  0.829589  0.000000  1
  P  P6  1  0.170411  0.477289  0.000000  1
  P  P7  1  0.522711  0.693122  0.000000  1
  P  P8  1  0.829589  0.306878  0.000000  1
  P  P9  1  0.477289  0.170411  0.000000  1
  P  P10  1  0.693122  0.522711  0.000000  1
  P  P11  1  0.372650  0.372650  0.500000  1
  P  P12  1  0.627350  0.000000  0.500000  1
  P  P13  1  0.000000  0.627350  0.500000  1
  P  P14  1  0.815249  0.815249  0.500000  1
  P  P15  1  0.184751  0.000000  0.500000  1
  P  P16  1  0.000000  0.184751  0.500000  1
  Ir  Ir17  1  0.000000  0.000000  0.500000  1
  Ru  Ru18  1  0.191393  0.815169  0.500000  1
  Ru  Ru19  1  0.184831  0.376224  0.500000  1
  Ru  Ru20  1  0.623776  0.808607  0.500000  1
  Ru  Ru21  1  0.815169  0.191393  0.500000  1
  Ru  Ru22  1  0.376224  0.184831  0.500000  1
  Ru  Ru23  1  0.808607  0.623776  0.500000  1
  Ru  Ru24  1  0.125955  0.634577  0.000000  1
  Ru  Ru25  1  0.365423  0.491377  0.000000  1
  Ru  Ru26  1  0.508623  0.874045  0.000000  1
  Ru  Ru27  1  0.634577  0.125955  0.000000  1
  Ru  Ru28  1  0.491377  0.365423  0.000000  1
  Ru  Ru29  1  0.874045  0.508623  0.000000  1
  Ru  Ru30  1  0.554990  0.554990  0.500000  1
  Ru  Ru31  1  0.445010  0.000000  0.500000  1
  Ru  Ru32  1  0.000000  0.445010  0.500000  1
  Ru  Ru33  1  0.718808  0.718808  0.000000  1
  Ru  Ru34  1  0.281192  0.000000  0.000000  1
  Ru  Ru35  1  0.000000  0.281192  0.000000  1
