# generated using pymatgen
data_Nd5(CBr4)2
_symmetry_space_group_name_H-M   'P 1'
_cell_length_a   9.29346811
_cell_length_b   12.45059871
_cell_length_c   17.09196900
_cell_angle_alpha   100.13488266
_cell_angle_beta   90.10666977
_cell_angle_gamma   95.79886934
_symmetry_Int_Tables_number   1
_chemical_formula_structural   Nd5(CBr4)2
_chemical_formula_sum   'Nd20 C8 Br32'
_cell_volume   1936.48713106
_cell_formula_units_Z   4
loop_
 _symmetry_equiv_pos_site_id
 _symmetry_equiv_pos_as_xyz
  1  'x, y, z'
loop_
 _atom_site_type_symbol
 _atom_site_label
 _atom_site_symmetry_multiplicity
 _atom_site_fract_x
 _atom_site_fract_y
 _atom_site_fract_z
 _atom_site_occupancy
  Nd  Nd0  1  0.260584  0.008600  0.300555  1
  Nd  Nd1  1  0.132371  0.368980  0.226468  1
  Nd  Nd2  1  0.834445  0.933478  0.906027  1
  Nd  Nd3  1  0.165555  0.066522  0.093973  1
  Nd  Nd4  1  0.414767  0.564264  0.380962  1
  Nd  Nd5  1  0.554699  0.739245  0.753963  1
  Nd  Nd6  1  0.739416  0.991400  0.699445  1
  Nd  Nd7  1  0.655872  0.511213  0.200699  1
  Nd  Nd8  1  0.344128  0.488787  0.799301  1
  Nd  Nd9  1  0.585233  0.435736  0.619038  1
  Nd  Nd10  1  0.316855  0.624755  0.177411  1
  Nd  Nd11  1  0.380670  0.352573  0.037736  1
  Nd  Nd12  1  0.683145  0.375245  0.822589  1
  Nd  Nd13  1  0.919056  0.117794  0.273881  1
  Nd  Nd14  1  0.445301  0.260755  0.246037  1
  Nd  Nd15  1  0.179662  0.268290  0.438929  1
  Nd  Nd16  1  0.619330  0.647427  0.962264  1
  Nd  Nd17  1  0.867629  0.631020  0.773532  1
  Nd  Nd18  1  0.080944  0.882206  0.726119  1
  Nd  Nd19  1  0.820338  0.731710  0.561071  1
  C  C20  1  0.601601  0.524368  0.748654  1
  C  C21  1  0.816366  0.795338  0.695578  1
  C  C22  1  0.398399  0.475632  0.251346  1
  C  C23  1  0.820800  0.844379  0.776680  1
  C  C24  1  0.183634  0.204662  0.304422  1
  C  C25  1  0.179200  0.155621  0.223320  1
  C  C26  1  0.391507  0.426734  0.170333  1
  C  C27  1  0.608493  0.573266  0.829667  1
  Br  Br28  1  0.926258  0.725397  0.953388  1
  Br  Br29  1  0.873804  0.206800  0.442416  1
  Br  Br30  1  0.304846  0.564908  0.987710  1
  Br  Br31  1  0.524258  0.853384  0.928875  1
  Br  Br32  1  0.785776  0.313553  0.230535  1
  Br  Br33  1  0.004428  0.567491  0.181688  1
  Br  Br34  1  0.107454  0.487681  0.402276  1
  Br  Br35  1  0.214224  0.686447  0.769465  1
  Br  Br36  1  0.711387  0.926430  0.526151  1
  Br  Br37  1  0.427374  0.941694  0.718788  1
  Br  Br38  1  0.126196  0.793200  0.557584  1
  Br  Br39  1  0.498187  0.643676  0.570363  1
  Br  Br40  1  0.995572  0.432509  0.818312  1
  Br  Br41  1  0.034973  0.090357  0.687374  1
  Br  Br42  1  0.748109  0.139256  0.863625  1
  Br  Br43  1  0.251891  0.860744  0.136375  1
  Br  Br44  1  0.892547  0.512319  0.597724  1
  Br  Br45  1  0.664050  0.232407  0.664010  1
  Br  Br46  1  0.616372  0.720187  0.151655  1
  Br  Br47  1  0.073742  0.274603  0.046612  1
  Br  Br48  1  0.572626  0.058306  0.281212  1
  Br  Br49  1  0.335950  0.767593  0.335990  1
  Br  Br50  1  0.147055  0.995475  0.900283  1
  Br  Br51  1  0.965027  0.909643  0.312626  1
  Br  Br52  1  0.852945  0.004525  0.099717  1
  Br  Br53  1  0.695154  0.435092  0.012290  1
  Br  Br54  1  0.383628  0.279813  0.848345  1
  Br  Br55  1  0.727177  0.623474  0.367426  1
  Br  Br56  1  0.272823  0.376526  0.632574  1
  Br  Br57  1  0.475742  0.146616  0.071125  1
  Br  Br58  1  0.501813  0.356324  0.429637  1
  Br  Br59  1  0.288613  0.073570  0.473849  1
