# generated using pymatgen
data_Lu4Fe3Tc3Ge8
_symmetry_space_group_name_H-M   'P 1'
_cell_length_a   8.13027521
_cell_length_b   5.58891007
_cell_length_c   6.81293854
_cell_angle_alpha   76.17905507
_cell_angle_beta   90.44259842
_cell_angle_gamma   90.33331111
_symmetry_Int_Tables_number   1
_chemical_formula_structural   Lu4Fe3Tc3Ge8
_chemical_formula_sum   'Lu4 Fe3 Tc3 Ge8'
_cell_volume   300.60105956
_cell_formula_units_Z   1
loop_
 _symmetry_equiv_pos_site_id
 _symmetry_equiv_pos_as_xyz
  1  'x, y, z'
loop_
 _atom_site_type_symbol
 _atom_site_label
 _atom_site_symmetry_multiplicity
 _atom_site_fract_x
 _atom_site_fract_y
 _atom_site_fract_z
 _atom_site_occupancy
  Lu  Lu0  1  0.561662  0.066995  0.245518  1
  Lu  Lu1  1  0.061957  0.438838  0.755136  1
  Lu  Lu2  1  0.442870  0.923488  0.752627  1
  Lu  Lu3  1  0.936303  0.567224  0.246285  1
  Fe  Fe4  1  0.207640  0.130192  0.104839  1
  Fe  Fe5  1  0.711631  0.381551  0.891944  1
  Fe  Fe6  1  0.788698  0.878955  0.891438  1
  Tc  Tc7  1  0.288270  0.613498  0.107564  1
  Tc  Tc8  1  0.994903  0.005213  0.497176  1
  Tc  Tc9  1  0.501769  0.499157  0.498098  1
  Ge  Ge10  1  0.902834  0.117258  0.112321  1
  Ge  Ge11  1  0.412294  0.375195  0.876762  1
  Ge  Ge12  1  0.088914  0.892042  0.880438  1
  Ge  Ge13  1  0.599716  0.613989  0.115416  1
  Ge  Ge14  1  0.749501  0.219879  0.600158  1
  Ge  Ge15  1  0.249831  0.270635  0.416465  1
  Ge  Ge16  1  0.249972  0.788346  0.409134  1
  Ge  Ge17  1  0.751234  0.717547  0.598680  1
