# generated using pymatgen
data_Dy3ThGa12Os
_symmetry_space_group_name_H-M   'P 1'
_cell_length_a   7.55503883
_cell_length_b   7.43711218
_cell_length_c   7.55503882
_cell_angle_alpha   109.15533404
_cell_angle_beta   109.78523880
_cell_angle_gamma   109.15533979
_symmetry_Int_Tables_number   1
_chemical_formula_structural   Dy3ThGa12Os
_chemical_formula_sum   'Dy3 Th1 Ga12 Os1'
_cell_volume   328.04553432
_cell_formula_units_Z   1
loop_
 _symmetry_equiv_pos_site_id
 _symmetry_equiv_pos_as_xyz
  1  'x, y, z'
loop_
 _atom_site_type_symbol
 _atom_site_label
 _atom_site_symmetry_multiplicity
 _atom_site_fract_x
 _atom_site_fract_y
 _atom_site_fract_z
 _atom_site_occupancy
  Dy  Dy0  1  0.000000  0.000000  0.500000  1
  Dy  Dy1  1  0.500000  0.000000  0.000000  1
  Dy  Dy2  1  0.500000  0.500000  0.500000  1
  Th  Th3  1  0.000000  0.500000  0.000000  1
  Ga  Ga4  1  0.747376  0.247376  0.494753  1
  Ga  Ga5  1  0.747376  0.500000  0.252624  1
  Ga  Ga6  1  0.494753  0.247376  0.747376  1
  Ga  Ga7  1  0.252624  0.500000  0.747376  1
  Ga  Ga8  1  0.252624  0.752624  0.505247  1
  Ga  Ga9  1  0.505247  0.752624  0.252624  1
  Ga  Ga10  1  0.705899  0.710526  0.000000  1
  Ga  Ga11  1  0.294101  0.004627  0.294101  1
  Ga  Ga12  1  0.000000  0.289474  0.294101  1
  Ga  Ga13  1  0.294101  0.289474  0.000000  1
  Ga  Ga14  1  0.705899  0.995373  0.705899  1
  Ga  Ga15  1  0.000000  0.710526  0.705899  1
  Os  Os16  1  0.000000  0.000000  0.000000  1
