# generated using pymatgen
data_Y6Al16IrOs6
_symmetry_space_group_name_H-M   'P 1'
_cell_length_a   8.95815629
_cell_length_b   8.95815595
_cell_length_c   8.95815600
_cell_angle_alpha   59.99999982
_cell_angle_beta   60.00000106
_cell_angle_gamma   60.00000586
_symmetry_Int_Tables_number   1
_chemical_formula_structural   Y6Al16IrOs6
_chemical_formula_sum   'Y6 Al16 Ir1 Os6'
_cell_volume   508.32433275
_cell_formula_units_Z   1
loop_
 _symmetry_equiv_pos_site_id
 _symmetry_equiv_pos_as_xyz
  1  'x, y, z'
loop_
 _atom_site_type_symbol
 _atom_site_label
 _atom_site_symmetry_multiplicity
 _atom_site_fract_x
 _atom_site_fract_y
 _atom_site_fract_z
 _atom_site_occupancy
  Y  Y0  1  0.212301  0.787699  0.787699  1
  Y  Y1  1  0.787699  0.212301  0.212301  1
  Y  Y2  1  0.787699  0.212301  0.787699  1
  Y  Y3  1  0.787699  0.787699  0.212301  1
  Y  Y4  1  0.212301  0.787699  0.212301  1
  Y  Y5  1  0.212301  0.212301  0.787699  1
  Al  Al6  1  0.832937  0.832937  0.832937  1
  Al  Al7  1  0.832937  0.832937  0.501191  1
  Al  Al8  1  0.501191  0.832937  0.832937  1
  Al  Al9  1  0.832937  0.501191  0.832937  1
  Al  Al10  1  0.167063  0.167063  0.167063  1
  Al  Al11  1  0.167063  0.167063  0.498809  1
  Al  Al12  1  0.167063  0.498809  0.167063  1
  Al  Al13  1  0.498809  0.167063  0.167063  1
  Al  Al14  1  0.622428  0.622428  0.622428  1
  Al  Al15  1  0.622428  0.622428  0.132714  1
  Al  Al16  1  0.132714  0.622428  0.622428  1
  Al  Al17  1  0.622428  0.132714  0.622428  1
  Al  Al18  1  0.377572  0.377572  0.377572  1
  Al  Al19  1  0.377572  0.377572  0.867286  1
  Al  Al20  1  0.377572  0.867286  0.377572  1
  Al  Al21  1  0.867286  0.377572  0.377572  1
  Ir  Ir22  1  0.500000  0.500000  0.500000  1
  Os  Os23  1  0.000000  0.500000  0.500000  1
  Os  Os24  1  0.500000  0.000000  0.000000  1
  Os  Os25  1  0.500000  0.000000  0.500000  1
  Os  Os26  1  0.500000  0.500000  0.000000  1
  Os  Os27  1  0.000000  0.500000  0.000000  1
  Os  Os28  1  0.000000  0.000000  0.500000  1
