# generated using pymatgen
data_YZr2PtF15
_symmetry_space_group_name_H-M   'P 1'
_cell_length_a   8.16835583
_cell_length_b   8.16835526
_cell_length_c   8.16136826
_cell_angle_alpha   79.56724613
_cell_angle_beta   79.56724216
_cell_angle_gamma   99.57244211
_symmetry_Int_Tables_number   1
_chemical_formula_structural   YZr2PtF15
_chemical_formula_sum   'Y2 Zr4 Pt2 F30'
_cell_volume   515.40921043
_cell_formula_units_Z   2
loop_
 _symmetry_equiv_pos_site_id
 _symmetry_equiv_pos_as_xyz
  1  'x, y, z'
loop_
 _atom_site_type_symbol
 _atom_site_label
 _atom_site_symmetry_multiplicity
 _atom_site_fract_x
 _atom_site_fract_y
 _atom_site_fract_z
 _atom_site_occupancy
  Y  Y0  1  0.177847  0.822153  0.250000  1
  Y  Y1  1  0.822153  0.177847  0.750000  1
  Zr  Zr2  1  0.743944  0.678553  0.671047  1
  Zr  Zr3  1  0.321447  0.256056  0.828953  1
  Zr  Zr4  1  0.256056  0.321447  0.328953  1
  Zr  Zr5  1  0.678553  0.743944  0.171047  1
  Pt  Pt6  1  0.749935  0.250065  0.250000  1
  Pt  Pt7  1  0.250065  0.749935  0.750000  1
  F  F8  1  0.313715  0.349834  0.057305  1
  F  F9  1  0.934316  0.810229  0.154975  1
  F  F10  1  0.839481  0.460985  0.687460  1
  F  F11  1  0.460985  0.839481  0.187460  1
  F  F12  1  0.810229  0.934316  0.654975  1
  F  F13  1  0.349834  0.313715  0.557304  1
  F  F14  1  0.686285  0.650166  0.942695  1
  F  F15  1  0.065684  0.189771  0.845025  1
  F  F16  1  0.160519  0.539015  0.312540  1
  F  F17  1  0.539015  0.160519  0.812540  1
  F  F18  1  0.189771  0.065684  0.345025  1
  F  F19  1  0.650166  0.686285  0.442695  1
  F  F20  1  0.771546  0.283722  0.001557  1
  F  F21  1  0.998814  0.274064  0.209562  1
  F  F22  1  0.787694  0.502099  0.220685  1
  F  F23  1  0.502099  0.787694  0.720685  1
  F  F24  1  0.274064  0.998814  0.709562  1
  F  F25  1  0.283722  0.771546  0.501557  1
  F  F26  1  0.228454  0.716278  0.998443  1
  F  F27  1  0.001186  0.725936  0.790438  1
  F  F28  1  0.212306  0.497901  0.779315  1
  F  F29  1  0.497901  0.212306  0.279315  1
  F  F30  1  0.725936  0.001186  0.290438  1
  F  F31  1  0.716278  0.228454  0.498443  1
  F  F32  1  0.473859  0.526141  0.250000  1
  F  F33  1  0.746647  0.955289  0.974167  1
  F  F34  1  0.044711  0.253353  0.525833  1
  F  F35  1  0.253353  0.044711  0.025833  1
  F  F36  1  0.955289  0.746647  0.474167  1
  F  F37  1  0.526141  0.473859  0.750000  1
