# generated using pymatgen
data_Y4Lu4B24Os3W
_symmetry_space_group_name_H-M   'P 1'
_cell_length_a   3.61392300
_cell_length_b   9.12104819
_cell_length_c   11.52703602
_cell_angle_alpha   89.89575001
_cell_angle_beta   90.00000000
_cell_angle_gamma   90.00000000
_symmetry_Int_Tables_number   1
_chemical_formula_structural   Y4Lu4B24Os3W
_chemical_formula_sum   'Y4 Lu4 B24 Os3 W1'
_cell_volume   379.96235997
_cell_formula_units_Z   1
loop_
 _symmetry_equiv_pos_site_id
 _symmetry_equiv_pos_as_xyz
  1  'x, y, z'
loop_
 _atom_site_type_symbol
 _atom_site_label
 _atom_site_symmetry_multiplicity
 _atom_site_fract_x
 _atom_site_fract_y
 _atom_site_fract_z
 _atom_site_occupancy
  Y  Y0  1  0.000000  0.320328  0.413440  1
  Y  Y1  1  0.000000  0.678886  0.585541  1
  Y  Y2  1  0.000000  0.819424  0.086631  1
  Y  Y3  1  0.000000  0.178266  0.914536  1
  Lu  Lu4  1  0.000000  0.945797  0.373420  1
  Lu  Lu5  1  0.000000  0.057485  0.628161  1
  Lu  Lu6  1  0.000000  0.442758  0.125982  1
  Lu  Lu7  1  0.000000  0.556627  0.871731  1
  B  B8  1  0.500000  0.550274  0.436041  1
  B  B9  1  0.500000  0.445697  0.568752  1
  B  B10  1  0.500000  0.054140  0.067084  1
  B  B11  1  0.500000  0.945905  0.932856  1
  B  B12  1  0.500000  0.753510  0.421763  1
  B  B13  1  0.500000  0.250578  0.581847  1
  B  B14  1  0.500000  0.249540  0.080483  1
  B  B15  1  0.500000  0.750181  0.918508  1
  B  B16  1  0.500000  0.795847  0.264327  1
  B  B17  1  0.500000  0.208374  0.734402  1
  B  B18  1  0.500000  0.290666  0.232371  1
  B  B19  1  0.500000  0.709092  0.765869  1
  B  B20  1  0.500000  0.630369  0.181608  1
  B  B21  1  0.500000  0.369445  0.815452  1
  B  B22  1  0.500000  0.130363  0.314407  1
  B  B23  1  0.500000  0.870748  0.685206  1
  B  B24  1  0.500000  0.983044  0.213315  1
  B  B25  1  0.500000  0.017863  0.787398  1
  B  B26  1  0.500000  0.476498  0.285432  1
  B  B27  1  0.500000  0.517216  0.713879  1
  B  B28  1  0.500000  0.602457  0.026653  1
  B  B29  1  0.500000  0.396469  0.970618  1
  B  B30  1  0.500000  0.103995  0.472134  1
  B  B31  1  0.500000  0.899628  0.529638  1
  Os  Os32  1  0.000000  0.361199  0.681053  1
  Os  Os33  1  0.000000  0.137744  0.178502  1
  Os  Os34  1  0.000000  0.861808  0.820122  1
  W  W35  1  0.000000  0.637780  0.320838  1
