# generated using pymatgen
data_ThCuNiSn2
_symmetry_space_group_name_H-M   'P 1'
_cell_length_a   4.42013000
_cell_length_b   4.42013000
_cell_length_c   10.45984200
_cell_angle_alpha   90.00000000
_cell_angle_beta   90.00000000
_cell_angle_gamma   90.00000000
_symmetry_Int_Tables_number   1
_chemical_formula_structural   ThCuNiSn2
_chemical_formula_sum   'Th2 Cu2 Ni2 Sn4'
_cell_volume   204.35967788
_cell_formula_units_Z   2
loop_
 _symmetry_equiv_pos_site_id
 _symmetry_equiv_pos_as_xyz
  1  'x, y, z'
loop_
 _atom_site_type_symbol
 _atom_site_label
 _atom_site_symmetry_multiplicity
 _atom_site_fract_x
 _atom_site_fract_y
 _atom_site_fract_z
 _atom_site_occupancy
  Th  Th0  1  0.000000  0.500000  0.248295  1
  Th  Th1  1  0.500000  0.000000  0.751705  1
  Cu  Cu2  1  0.000000  0.000000  0.000000  1
  Cu  Cu3  1  0.500000  0.500000  0.000000  1
  Ni  Ni4  1  0.500000  0.000000  0.373272  1
  Ni  Ni5  1  0.000000  0.500000  0.626728  1
  Sn  Sn6  1  0.500000  0.000000  0.134453  1
  Sn  Sn7  1  0.000000  0.000000  0.500000  1
  Sn  Sn8  1  0.500000  0.500000  0.500000  1
  Sn  Sn9  1  0.000000  0.500000  0.865547  1
