# generated using pymatgen
data_Dy2Y10ZnCo4Sn
_symmetry_space_group_name_H-M   'P 1'
_cell_length_a   8.35288662
_cell_length_b   8.36531510
_cell_length_c   8.35288736
_cell_angle_alpha   111.89315749
_cell_angle_beta   109.15297307
_cell_angle_gamma   107.33951987
_symmetry_Int_Tables_number   1
_chemical_formula_structural   Dy2Y10ZnCo4Sn
_chemical_formula_sum   'Dy2 Y10 Zn1 Co4 Sn1'
_cell_volume   448.91059512
_cell_formula_units_Z   1
loop_
 _symmetry_equiv_pos_site_id
 _symmetry_equiv_pos_as_xyz
  1  'x, y, z'
loop_
 _atom_site_type_symbol
 _atom_site_label
 _atom_site_symmetry_multiplicity
 _atom_site_fract_x
 _atom_site_fract_y
 _atom_site_fract_z
 _atom_site_occupancy
  Dy  Dy0  1  0.324232  0.011145  0.686914  1
  Dy  Dy1  1  0.675768  0.988855  0.313086  1
  Y  Y2  1  0.428268  0.228349  0.199172  1
  Y  Y3  1  0.571732  0.771651  0.800828  1
  Y  Y4  1  0.029176  0.228349  0.800081  1
  Y  Y5  1  0.970824  0.771651  0.199919  1
  Y  Y6  1  0.181209  0.283351  0.464773  1
  Y  Y7  1  0.818791  0.716649  0.535227  1
  Y  Y8  1  0.181423  0.716649  0.897858  1
  Y  Y9  1  0.818577  0.283351  0.102142  1
  Y  Y10  1  0.324183  0.635311  0.311127  1
  Y  Y11  1  0.675817  0.364689  0.688873  1
  Zn  Zn12  1  0.000000  0.000000  0.000000  1
  Co  Co13  1  0.346488  0.000000  0.346488  1
  Co  Co14  1  0.653512  0.000000  0.653512  1
  Co  Co15  1  0.113699  0.614464  0.500765  1
  Co  Co16  1  0.886301  0.385536  0.499235  1
  Sn  Sn17  1  0.500000  0.500000  0.000000  1
