# generated using pymatgen
data_Sm3Nb5(Co4P3)4
_symmetry_space_group_name_H-M   'P 1'
_cell_length_a   12.09784800
_cell_length_b   12.14602205
_cell_length_c   3.70027800
_cell_angle_alpha   90.00000000
_cell_angle_beta   90.00000000
_cell_angle_gamma   119.86888975
_symmetry_Int_Tables_number   1
_chemical_formula_structural   Sm3Nb5(Co4P3)4
_chemical_formula_sum   'Sm3 Nb5 Co16 P12'
_cell_volume   471.49753774
_cell_formula_units_Z   1
loop_
 _symmetry_equiv_pos_site_id
 _symmetry_equiv_pos_as_xyz
  1  'x, y, z'
loop_
 _atom_site_type_symbol
 _atom_site_label
 _atom_site_symmetry_multiplicity
 _atom_site_fract_x
 _atom_site_fract_y
 _atom_site_fract_z
 _atom_site_occupancy
  Sm  Sm0  1  0.821628  0.000000  0.500000  1
  Sm  Sm1  1  0.333399  0.667581  0.000000  1
  Sm  Sm2  1  0.665818  0.332419  0.000000  1
  Nb  Nb3  1  0.999285  0.816442  0.500000  1
  Nb  Nb4  1  0.182843  0.183558  0.500000  1
  Nb  Nb5  1  0.441009  0.000000  0.000000  1
  Nb  Nb6  1  0.000829  0.446139  0.000000  1
  Nb  Nb7  1  0.554689  0.553861  0.000000  1
  Co  Co8  1  0.270605  0.000000  0.500000  1
  Co  Co9  1  0.006598  0.279481  0.500000  1
  Co  Co10  1  0.727117  0.720519  0.500000  1
  Co  Co11  1  0.629737  0.803285  0.000000  1
  Co  Co12  1  0.188790  0.823651  0.000000  1
  Co  Co13  1  0.177104  0.366922  0.000000  1
  Co  Co14  1  0.365139  0.176349  0.000000  1
  Co  Co15  1  0.810182  0.633078  0.000000  1
  Co  Co16  1  0.826452  0.196715  0.000000  1
  Co  Co17  1  0.518685  0.874696  0.500000  1
  Co  Co18  1  0.122839  0.648403  0.500000  1
  Co  Co19  1  0.351865  0.476333  0.500000  1
  Co  Co20  1  0.474436  0.351597  0.500000  1
  Co  Co21  1  0.875532  0.523667  0.500000  1
  Co  Co22  1  0.643989  0.125304  0.500000  1
  Co  Co23  1  0.006043  0.000000  0.000000  1
  P  P24  1  0.175445  0.000000  0.000000  1
  P  P25  1  0.007200  0.176448  0.000000  1
  P  P26  1  0.830752  0.823552  0.000000  1
  P  P27  1  0.526473  0.691720  0.500000  1
  P  P28  1  0.307106  0.834387  0.500000  1
  P  P29  1  0.167323  0.478304  0.500000  1
  P  P30  1  0.472719  0.165613  0.500000  1
  P  P31  1  0.689018  0.521696  0.500000  1
  P  P32  1  0.834753  0.308280  0.500000  1
  P  P33  1  0.642169  0.000000  0.000000  1
  P  P34  1  0.000335  0.648241  0.000000  1
  P  P35  1  0.352094  0.351759  0.000000  1
