# generated using pymatgen
data_Zr6Ni20Ge4P9
_symmetry_space_group_name_H-M   'P 1'
_cell_length_a   12.58699168
_cell_length_b   12.65654171
_cell_length_c   3.66468000
_cell_angle_alpha   90.00000000
_cell_angle_beta   90.00000000
_cell_angle_gamma   120.19586830
_symmetry_Int_Tables_number   1
_chemical_formula_structural   Zr6Ni20Ge4P9
_chemical_formula_sum   'Zr6 Ni20 Ge4 P9'
_cell_volume   504.59522334
_cell_formula_units_Z   1
loop_
 _symmetry_equiv_pos_site_id
 _symmetry_equiv_pos_as_xyz
  1  'x, y, z'
loop_
 _atom_site_type_symbol
 _atom_site_label
 _atom_site_symmetry_multiplicity
 _atom_site_fract_x
 _atom_site_fract_y
 _atom_site_fract_z
 _atom_site_occupancy
  Zr  Zr0  1  0.806933  0.282713  0.500000  1
  Zr  Zr1  1  0.718231  0.520100  0.500000  1
  Zr  Zr2  1  0.481189  0.196283  0.500000  1
  Zr  Zr3  1  0.193376  0.715015  0.000000  1
  Zr  Zr4  1  0.283091  0.482376  0.000000  1
  Zr  Zr5  1  0.522910  0.807362  0.000000  1
  Ni  Ni6  1  0.421383  0.976484  0.000000  1
  Ni  Ni7  1  0.019773  0.439017  0.000000  1
  Ni  Ni8  1  0.586674  0.021765  0.500000  1
  Ni  Ni9  1  0.556864  0.580541  0.000000  1
  Ni  Ni10  1  0.980537  0.561625  0.500000  1
  Ni  Ni11  1  0.918186  0.086070  0.500000  1
  Ni  Ni12  1  0.157512  0.071451  0.500000  1
  Ni  Ni13  1  0.918621  0.835944  0.500000  1
  Ni  Ni14  1  0.091472  0.881477  0.000000  1
  Ni  Ni15  1  0.790977  0.908536  0.000000  1
  Ni  Ni16  1  0.101453  0.204622  0.000000  1
  Ni  Ni17  1  0.334068  0.668440  0.500000  1
  Ni  Ni18  1  0.667762  0.332582  0.000000  1
  Ni  Ni19  1  0.670823  0.752318  0.500000  1
  Ni  Ni20  1  0.248649  0.917687  0.500000  1
  Ni  Ni21  1  0.926639  0.668181  0.000000  1
  Ni  Ni22  1  0.331446  0.254634  0.000000  1
  Ni  Ni23  1  0.755178  0.083480  0.000000  1
  Ni  Ni24  1  0.446917  0.421883  0.500000  1
  Ni  Ni25  1  0.064242  0.325103  0.500000  1
  Ge  Ge26  1  0.999492  0.997769  0.000000  1
  Ge  Ge27  1  0.233757  0.288636  0.500000  1
  Ge  Ge28  1  0.770908  0.714691  0.000000  1
  Ge  Ge29  1  0.285811  0.054798  0.000000  1
  P  P30  1  0.713454  0.948872  0.500000  1
  P  P31  1  0.051680  0.762744  0.500000  1
  P  P32  1  0.471999  0.613128  0.500000  1
  P  P33  1  0.388514  0.860326  0.500000  1
  P  P34  1  0.860056  0.471186  0.000000  1
  P  P35  1  0.530026  0.388551  0.000000  1
  P  P36  1  0.612988  0.139993  0.000000  1
  P  P37  1  0.945565  0.235736  0.000000  1
  P  P38  1  0.140844  0.527883  0.500000  1
