# generated using pymatgen
data_La2NdCu5(Ni4B)2
_symmetry_space_group_name_H-M   'P 1'
_cell_length_a   5.13530003
_cell_length_b   5.11223275
_cell_length_c   10.90959501
_cell_angle_alpha   89.99835745
_cell_angle_beta   90.00329265
_cell_angle_gamma   120.14936111
_symmetry_Int_Tables_number   1
_chemical_formula_structural   La2NdCu5(Ni4B)2
_chemical_formula_sum   'La2 Nd1 Cu5 Ni8 B2'
_cell_volume   247.66240764
_cell_formula_units_Z   1
loop_
 _symmetry_equiv_pos_site_id
 _symmetry_equiv_pos_as_xyz
  1  'x, y, z'
loop_
 _atom_site_type_symbol
 _atom_site_label
 _atom_site_symmetry_multiplicity
 _atom_site_fract_x
 _atom_site_fract_y
 _atom_site_fract_z
 _atom_site_occupancy
  La  La0  1  0.999976  0.000000  0.326540  1
  La  La1  1  0.000010  0.000000  0.673456  1
  Nd  Nd2  1  0.999996  0.000000  0.000026  1
  Cu  Cu3  1  0.500002  0.000000  0.499982  1
  Cu  Cu4  1  0.331935  0.663902  0.315512  1
  Cu  Cu5  1  0.668034  0.336098  0.315512  1
  Cu  Cu6  1  0.668032  0.336062  0.684468  1
  Cu  Cu7  1  0.331970  0.663938  0.684468  1
  Ni  Ni8  1  0.499976  0.499990  0.499989  1
  Ni  Ni9  1  0.999987  0.500010  0.499989  1
  Ni  Ni10  1  0.500038  0.000000  0.128403  1
  Ni  Ni11  1  0.500032  0.500005  0.128407  1
  Ni  Ni12  1  0.000027  0.499995  0.128407  1
  Ni  Ni13  1  0.499958  0.000000  0.871616  1
  Ni  Ni14  1  0.499965  0.499998  0.871604  1
  Ni  Ni15  1  0.999967  0.500002  0.871604  1
  B  B16  1  0.333248  0.666499  0.000006  1
  B  B17  1  0.666748  0.333501  0.000006  1
