# generated using pymatgen
data_VGa3(SO4)6
_symmetry_space_group_name_H-M   'P 1'
_cell_length_a   8.24074134
_cell_length_b   8.24057789
_cell_length_c   8.84335975
_cell_angle_alpha   62.23053306
_cell_angle_beta   117.76863729
_cell_angle_gamma   120.00088014
_symmetry_Int_Tables_number   1
_chemical_formula_structural   VGa3(SO4)6
_chemical_formula_sum   'V1 Ga3 S6 O24'
_cell_volume   438.40233675
_cell_formula_units_Z   1
loop_
 _symmetry_equiv_pos_site_id
 _symmetry_equiv_pos_as_xyz
  1  'x, y, z'
loop_
 _atom_site_type_symbol
 _atom_site_label
 _atom_site_symmetry_multiplicity
 _atom_site_fract_x
 _atom_site_fract_y
 _atom_site_fract_z
 _atom_site_occupancy
  V  V0  1  0.350382  0.649599  0.051189  1
  Ga  Ga1  1  0.145131  0.854872  0.435384  1
  Ga  Ga2  1  0.856228  0.143719  0.568767  1
  Ga  Ga3  1  0.651300  0.348735  0.953825  1
  S  S4  1  0.459207  0.242960  0.250131  1
  S  S5  1  0.033883  0.540767  0.250166  1
  S  S6  1  0.757039  0.966107  0.250147  1
  S  S7  1  0.249697  0.041948  0.749725  1
  S  S8  1  0.958082  0.458028  0.749736  1
  S  S9  1  0.541977  0.750304  0.749745  1
  O  O10  1  0.789011  0.158264  0.105672  1
  O  O11  1  0.474956  0.211013  0.105662  1
  O  O12  1  0.841721  0.525027  0.105689  1
  O  O13  1  0.486165  0.450704  0.203410  1
  O  O14  1  0.167954  0.513798  0.203468  1
  O  O15  1  0.549290  0.832045  0.203430  1
  O  O16  1  0.261050  0.112137  0.270120  1
  O  O17  1  0.121221  0.738921  0.270163  1
  O  O18  1  0.887850  0.878762  0.270171  1
  O  O19  1  0.609973  0.196844  0.422673  1
  O  O20  1  0.009514  0.390009  0.422700  1
  O  O21  1  0.803157  0.990484  0.422669  1
  O  O22  1  0.209008  0.019155  0.577436  1
  O  O23  1  0.980847  0.612416  0.577437  1
  O  O24  1  0.387585  0.790989  0.577462  1
  O  O25  1  0.117426  0.128701  0.728269  1
  O  O26  1  0.871298  0.260453  0.728274  1
  O  O27  1  0.739563  0.882570  0.728301  1
  O  O28  1  0.457102  0.176718  0.799043  1
  O  O29  1  0.823326  0.481374  0.799046  1
  O  O30  1  0.518673  0.542902  0.799063  1
  O  O31  1  0.152323  0.475776  0.890344  1
  O  O32  1  0.524256  0.786197  0.890357  1
  O  O33  1  0.213808  0.847700  0.890330  1
