# generated using pymatgen
data_Th6Ti2Sn9Sb
_symmetry_space_group_name_H-M   'P 1'
_cell_length_a   9.46356300
_cell_length_b   9.46645372
_cell_length_c   6.21855500
_cell_angle_alpha   90.00000000
_cell_angle_beta   90.00000000
_cell_angle_gamma   119.98989565
_symmetry_Int_Tables_number   1
_chemical_formula_structural   Th6Ti2Sn9Sb
_chemical_formula_sum   'Th6 Ti2 Sn9 Sb1'
_cell_volume   482.50999620
_cell_formula_units_Z   1
loop_
 _symmetry_equiv_pos_site_id
 _symmetry_equiv_pos_as_xyz
  1  'x, y, z'
loop_
 _atom_site_type_symbol
 _atom_site_label
 _atom_site_symmetry_multiplicity
 _atom_site_fract_x
 _atom_site_fract_y
 _atom_site_fract_z
 _atom_site_occupancy
  Th  Th0  1  0.614988  0.000000  0.750000  1
  Th  Th1  1  0.383219  0.000000  0.250000  1
  Th  Th2  1  0.001825  0.616865  0.750000  1
  Th  Th3  1  0.000047  0.385103  0.250000  1
  Th  Th4  1  0.384960  0.383135  0.750000  1
  Th  Th5  1  0.614943  0.614897  0.250000  1
  Ti  Ti6  1  0.000834  0.000000  0.498832  1
  Ti  Ti7  1  0.000834  0.000000  0.001168  1
  Sn  Sn8  1  0.742078  0.000000  0.250000  1
  Sn  Sn9  1  0.999770  0.257756  0.750000  1
  Sn  Sn10  1  0.998902  0.741239  0.250000  1
  Sn  Sn11  1  0.742014  0.742244  0.750000  1
  Sn  Sn12  1  0.257664  0.258761  0.250000  1
  Sn  Sn13  1  0.333699  0.666417  0.499711  1
  Sn  Sn14  1  0.667283  0.333583  0.499711  1
  Sn  Sn15  1  0.667283  0.333583  0.000289  1
  Sn  Sn16  1  0.333699  0.666417  0.000289  1
  Sb  Sb17  1  0.255958  0.000000  0.750000  1
