# generated using pymatgen
data_Y2HoCo(P3Rh4)2
_symmetry_space_group_name_H-M   'P 1'
_cell_length_a   3.86622800
_cell_length_b   11.14108700
_cell_length_c   12.79446600
_cell_angle_alpha   90.00000000
_cell_angle_beta   90.00000000
_cell_angle_gamma   90.00000000
_symmetry_Int_Tables_number   1
_chemical_formula_structural   Y2HoCo(P3Rh4)2
_chemical_formula_sum   'Y4 Ho2 Co2 P12 Rh16'
_cell_volume   551.10860471
_cell_formula_units_Z   2
loop_
 _symmetry_equiv_pos_site_id
 _symmetry_equiv_pos_as_xyz
  1  'x, y, z'
loop_
 _atom_site_type_symbol
 _atom_site_label
 _atom_site_symmetry_multiplicity
 _atom_site_fract_x
 _atom_site_fract_y
 _atom_site_fract_z
 _atom_site_occupancy
  Y  Y0  1  0.000000  0.500000  0.521282  1
  Y  Y1  1  0.500000  0.000000  0.478702  1
  Y  Y2  1  0.000000  0.684635  0.798140  1
  Y  Y3  1  0.000000  0.315365  0.798140  1
  Ho  Ho4  1  0.500000  0.815348  0.201873  1
  Ho  Ho5  1  0.500000  0.184652  0.201873  1
  Co  Co6  1  0.000000  0.500000  0.980348  1
  Co  Co7  1  0.500000  0.000000  0.019867  1
  P  P8  1  0.500000  0.500000  0.881681  1
  P  P9  1  0.000000  0.000000  0.118492  1
  P  P10  1  0.500000  0.500000  0.350617  1
  P  P11  1  0.000000  0.000000  0.649413  1
  P  P12  1  0.500000  0.315592  0.619529  1
  P  P13  1  0.500000  0.684408  0.619529  1
  P  P14  1  0.000000  0.184414  0.380247  1
  P  P15  1  0.000000  0.815586  0.380247  1
  P  P16  1  0.500000  0.853265  0.895787  1
  P  P17  1  0.500000  0.146735  0.895787  1
  P  P18  1  0.000000  0.647033  0.104351  1
  P  P19  1  0.000000  0.352967  0.104351  1
  Rh  Rh20  1  0.500000  0.500000  0.167589  1
  Rh  Rh21  1  0.000000  0.000000  0.832463  1
  Rh  Rh22  1  0.500000  0.500000  0.703174  1
  Rh  Rh23  1  0.000000  0.000000  0.296491  1
  Rh  Rh24  1  0.500000  0.336498  0.993931  1
  Rh  Rh25  1  0.500000  0.663502  0.993931  1
  Rh  Rh26  1  0.000000  0.163317  0.006407  1
  Rh  Rh27  1  0.000000  0.836683  0.006407  1
  Rh  Rh28  1  0.500000  0.294158  0.430435  1
  Rh  Rh29  1  0.500000  0.705842  0.430435  1
  Rh  Rh30  1  0.000000  0.205786  0.569425  1
  Rh  Rh31  1  0.000000  0.794214  0.569425  1
  Rh  Rh32  1  0.500000  0.873361  0.712176  1
  Rh  Rh33  1  0.500000  0.126639  0.712176  1
  Rh  Rh34  1  0.000000  0.626960  0.287640  1
  Rh  Rh35  1  0.000000  0.373040  0.287640  1
