# generated using pymatgen
data_Sc4TiBe4FeIr10
_symmetry_space_group_name_H-M   'P 1'
_cell_length_a   9.47606100
_cell_length_b   9.47606100
_cell_length_c   3.13484600
_cell_angle_alpha   90.00000000
_cell_angle_beta   90.00000000
_cell_angle_gamma   90.00000000
_symmetry_Int_Tables_number   1
_chemical_formula_structural   Sc4TiBe4FeIr10
_chemical_formula_sum   'Sc4 Ti1 Be4 Fe1 Ir10'
_cell_volume   281.49579151
_cell_formula_units_Z   1
loop_
 _symmetry_equiv_pos_site_id
 _symmetry_equiv_pos_as_xyz
  1  'x, y, z'
loop_
 _atom_site_type_symbol
 _atom_site_label
 _atom_site_symmetry_multiplicity
 _atom_site_fract_x
 _atom_site_fract_y
 _atom_site_fract_z
 _atom_site_occupancy
  Sc  Sc0  1  0.176260  0.675122  0.000000  1
  Sc  Sc1  1  0.823740  0.324878  0.000000  1
  Sc  Sc2  1  0.324878  0.176260  0.000000  1
  Sc  Sc3  1  0.675122  0.823740  0.000000  1
  Ti  Ti4  1  0.000000  0.000000  0.000000  1
  Be  Be5  1  0.378051  0.875196  0.000000  1
  Be  Be6  1  0.875196  0.621949  0.000000  1
  Be  Be7  1  0.124804  0.378051  0.000000  1
  Be  Be8  1  0.621949  0.124804  0.000000  1
  Fe  Fe9  1  0.500000  0.500000  0.000000  1
  Ir  Ir10  1  0.500000  0.000000  0.500000  1
  Ir  Ir11  1  0.708292  0.567734  0.500000  1
  Ir  Ir12  1  0.567734  0.291708  0.500000  1
  Ir  Ir13  1  0.432266  0.708292  0.500000  1
  Ir  Ir14  1  0.291708  0.432266  0.500000  1
  Ir  Ir15  1  0.000000  0.500000  0.500000  1
  Ir  Ir16  1  0.930084  0.788875  0.500000  1
  Ir  Ir17  1  0.788875  0.069916  0.500000  1
  Ir  Ir18  1  0.211125  0.930084  0.500000  1
  Ir  Ir19  1  0.069916  0.211125  0.500000  1
