# generated using pymatgen
data_Tm4Al18ZnOs3Rh2
_symmetry_space_group_name_H-M   'P 1'
_cell_length_a   7.55304514
_cell_length_b   7.55309102
_cell_length_c   9.45243536
_cell_angle_alpha   90.03165183
_cell_angle_beta   90.03170406
_cell_angle_gamma   119.00044035
_symmetry_Int_Tables_number   1
_chemical_formula_structural   Tm4Al18ZnOs3Rh2
_chemical_formula_sum   'Tm4 Al18 Zn1 Os3 Rh2'
_cell_volume   471.63677932
_cell_formula_units_Z   1
loop_
 _symmetry_equiv_pos_site_id
 _symmetry_equiv_pos_as_xyz
  1  'x, y, z'
loop_
 _atom_site_type_symbol
 _atom_site_label
 _atom_site_symmetry_multiplicity
 _atom_site_fract_x
 _atom_site_fract_y
 _atom_site_fract_z
 _atom_site_occupancy
  Tm  Tm0  1  0.994490  0.678207  0.247942  1
  Tm  Tm1  1  0.007195  0.321868  0.750968  1
  Tm  Tm2  1  0.678133  0.992809  0.249030  1
  Tm  Tm3  1  0.321792  0.005509  0.752060  1
  Al  Al4  1  0.129633  0.132357  0.250884  1
  Al  Al5  1  0.867641  0.870364  0.749116  1
  Al  Al6  1  0.993238  0.327108  0.077780  1
  Al  Al7  1  0.988274  0.659962  0.920717  1
  Al  Al8  1  0.998806  0.664109  0.575617  1
  Al  Al9  1  0.335891  0.001193  0.424384  1
  Al  Al10  1  0.998398  0.337242  0.426739  1
  Al  Al11  1  0.662759  0.001607  0.573260  1
  Al  Al12  1  0.672895  0.006764  0.922217  1
  Al  Al13  1  0.340037  0.011725  0.079283  1
  Al  Al14  1  0.330051  0.330486  0.546670  1
  Al  Al15  1  0.669512  0.669951  0.453329  1
  Al  Al16  1  0.674119  0.665589  0.051701  1
  Al  Al17  1  0.334411  0.325879  0.948299  1
  Al  Al18  1  0.343249  0.550331  0.257314  1
  Al  Al19  1  0.656406  0.444266  0.749054  1
  Al  Al20  1  0.555730  0.343595  0.250948  1
  Al  Al21  1  0.449671  0.656752  0.742686  1
  Zn  Zn22  1  0.326819  0.673183  0.999998  1
  Os  Os23  1  0.671978  0.328021  0.000001  1
  Os  Os24  1  0.001722  0.998278  0.000001  1
  Os  Os25  1  0.999367  0.000637  0.500000  1
  Rh  Rh26  1  0.326926  0.673072  0.500002  1
  Rh  Rh27  1  0.670857  0.329139  0.500001  1
