# generated using pymatgen
data_Tm2U2As6Ru7
_symmetry_space_group_name_H-M   'P 1'
_cell_length_a   7.23400468
_cell_length_b   7.18538747
_cell_length_c   7.23400470
_cell_angle_alpha   109.32160318
_cell_angle_beta   110.04188615
_cell_angle_gamma   109.32159340
_symmetry_Int_Tables_number   1
_chemical_formula_structural   Tm2U2As6Ru7
_chemical_formula_sum   'Tm2 U2 As6 Ru7'
_cell_volume   288.47313264
_cell_formula_units_Z   1
loop_
 _symmetry_equiv_pos_site_id
 _symmetry_equiv_pos_as_xyz
  1  'x, y, z'
loop_
 _atom_site_type_symbol
 _atom_site_label
 _atom_site_symmetry_multiplicity
 _atom_site_fract_x
 _atom_site_fract_y
 _atom_site_fract_z
 _atom_site_occupancy
  Tm  Tm0  1  0.000000  0.500000  0.000000  1
  Tm  Tm1  1  0.500000  0.500000  0.500000  1
  U  U2  1  0.000000  0.000000  0.500000  1
  U  U3  1  0.500000  0.000000  0.000000  1
  As  As4  1  0.312836  0.000000  0.312836  1
  As  As5  1  0.004606  0.317588  0.312982  1
  As  As6  1  0.995394  0.682412  0.687018  1
  As  As7  1  0.312982  0.317588  0.004606  1
  As  As8  1  0.687018  0.682412  0.995394  1
  As  As9  1  0.687164  0.000000  0.687164  1
  Ru  Ru10  1  0.750000  0.500000  0.250000  1
  Ru  Ru11  1  0.505811  0.755776  0.249965  1
  Ru  Ru12  1  0.494189  0.244224  0.750035  1
  Ru  Ru13  1  0.750035  0.244224  0.494189  1
  Ru  Ru14  1  0.249965  0.755776  0.505811  1
  Ru  Ru15  1  0.250000  0.500000  0.750000  1
  Ru  Ru16  1  0.000000  0.000000  0.000000  1
