# generated using pymatgen
data_LaY15(CdNi)4
_symmetry_space_group_name_H-M   'P 1'
_cell_length_a   9.61785237
_cell_length_b   9.61785279
_cell_length_c   9.61785211
_cell_angle_alpha   60.06203390
_cell_angle_beta   60.06203195
_cell_angle_gamma   60.06203252
_symmetry_Int_Tables_number   1
_chemical_formula_structural   LaY15(CdNi)4
_chemical_formula_sum   'La1 Y15 Cd4 Ni4'
_cell_volume   629.98392716
_cell_formula_units_Z   1
loop_
 _symmetry_equiv_pos_site_id
 _symmetry_equiv_pos_as_xyz
  1  'x, y, z'
loop_
 _atom_site_type_symbol
 _atom_site_label
 _atom_site_symmetry_multiplicity
 _atom_site_fract_x
 _atom_site_fract_y
 _atom_site_fract_z
 _atom_site_occupancy
  La  La0  1  0.595103  0.595103  0.595103  1
  Y  Y1  1  0.599794  0.599794  0.198420  1
  Y  Y2  1  0.599794  0.198420  0.599794  1
  Y  Y3  1  0.198420  0.599794  0.599794  1
  Y  Y4  1  0.063842  0.438989  0.438989  1
  Y  Y5  1  0.439754  0.062211  0.062211  1
  Y  Y6  1  0.438989  0.063842  0.438989  1
  Y  Y7  1  0.062211  0.439754  0.062211  1
  Y  Y8  1  0.438989  0.438989  0.063842  1
  Y  Y9  1  0.062211  0.062211  0.439754  1
  Y  Y10  1  0.186495  0.814647  0.814647  1
  Y  Y11  1  0.812840  0.186606  0.186606  1
  Y  Y12  1  0.814647  0.186495  0.814647  1
  Y  Y13  1  0.186606  0.812840  0.186606  1
  Y  Y14  1  0.814647  0.814647  0.186495  1
  Y  Y15  1  0.186606  0.186606  0.812840  1
  Cd  Cd16  1  0.830565  0.830565  0.830565  1
  Cd  Cd17  1  0.832815  0.832815  0.505543  1
  Cd  Cd18  1  0.832815  0.505543  0.832815  1
  Cd  Cd19  1  0.505543  0.832815  0.832815  1
  Ni  Ni20  1  0.393276  0.393276  0.393276  1
  Ni  Ni21  1  0.389852  0.389852  0.824335  1
  Ni  Ni22  1  0.389852  0.824335  0.389852  1
  Ni  Ni23  1  0.824335  0.389852  0.389852  1
