# generated using pymatgen
data_LiSm3MnC6
_symmetry_space_group_name_H-M   'P 1'
_cell_length_a   8.43296800
_cell_length_b   8.43296788
_cell_length_c   5.12557900
_cell_angle_alpha   90.00000000
_cell_angle_beta   90.00000000
_cell_angle_gamma   119.99998526
_symmetry_Int_Tables_number   1
_chemical_formula_structural   LiSm3MnC6
_chemical_formula_sum   'Li2 Sm6 Mn2 C12'
_cell_volume   315.67088400
_cell_formula_units_Z   2
loop_
 _symmetry_equiv_pos_site_id
 _symmetry_equiv_pos_as_xyz
  1  'x, y, z'
loop_
 _atom_site_type_symbol
 _atom_site_label
 _atom_site_symmetry_multiplicity
 _atom_site_fract_x
 _atom_site_fract_y
 _atom_site_fract_z
 _atom_site_occupancy
  Li  Li0  1  0.000000  0.000000  0.500000  1
  Li  Li1  1  0.000000  0.000000  0.000000  1
  Sm  Sm2  1  0.622326  0.680559  0.750000  1
  Sm  Sm3  1  0.941766  0.622326  0.250000  1
  Sm  Sm4  1  0.680559  0.058234  0.250000  1
  Sm  Sm5  1  0.319441  0.941766  0.750000  1
  Sm  Sm6  1  0.058234  0.377674  0.750000  1
  Sm  Sm7  1  0.377674  0.319441  0.250000  1
  Mn  Mn8  1  0.666667  0.333333  0.750000  1
  Mn  Mn9  1  0.333333  0.666667  0.250000  1
  C  C10  1  0.982642  0.743104  0.750000  1
  C  C11  1  0.239538  0.982642  0.250000  1
  C  C12  1  0.743104  0.760462  0.250000  1
  C  C13  1  0.256896  0.239538  0.750000  1
  C  C14  1  0.760462  0.017358  0.750000  1
  C  C15  1  0.017358  0.256896  0.250000  1
  C  C16  1  0.858476  0.565604  0.750000  1
  C  C17  1  0.292871  0.858476  0.250000  1
  C  C18  1  0.565604  0.707129  0.250000  1
  C  C19  1  0.434396  0.292871  0.750000  1
  C  C20  1  0.141524  0.434396  0.250000  1
  C  C21  1  0.707129  0.141524  0.750000  1
