# generated using pymatgen
data_NaPrSm5OsBr12
_symmetry_space_group_name_H-M   'P 1'
_cell_length_a   9.47420540
_cell_length_b   9.50862896
_cell_length_c   9.48121660
_cell_angle_alpha   106.97311793
_cell_angle_beta   106.84599868
_cell_angle_gamma   107.27636273
_symmetry_Int_Tables_number   1
_chemical_formula_structural   NaPrSm5OsBr12
_chemical_formula_sum   'Na1 Pr1 Sm5 Os1 Br12'
_cell_volume   710.70226641
_cell_formula_units_Z   1
loop_
 _symmetry_equiv_pos_site_id
 _symmetry_equiv_pos_as_xyz
  1  'x, y, z'
loop_
 _atom_site_type_symbol
 _atom_site_label
 _atom_site_symmetry_multiplicity
 _atom_site_fract_x
 _atom_site_fract_y
 _atom_site_fract_z
 _atom_site_occupancy
  Na  Na0  1  0.500008  0.499898  0.500093  1
  Pr  Pr1  1  0.113236  0.320642  0.029215  1
  Sm  Sm2  1  0.317406  0.030036  0.111157  1
  Sm  Sm3  1  0.029441  0.110178  0.316890  1
  Sm  Sm4  1  0.969868  0.887717  0.682411  1
  Sm  Sm5  1  0.682477  0.969883  0.889067  1
  Sm  Sm6  1  0.887752  0.682966  0.970340  1
  Os  Os7  1  0.999718  0.999705  0.999398  1
  Br  Br8  1  0.216819  0.688201  0.073209  1
  Br  Br9  1  0.458795  0.368167  0.154568  1
  Br  Br10  1  0.683663  0.071659  0.215869  1
  Br  Br11  1  0.928939  0.783625  0.316794  1
  Br  Br12  1  0.152282  0.451785  0.374629  1
  Br  Br13  1  0.368206  0.150985  0.450883  1
  Br  Br14  1  0.631741  0.848860  0.549074  1
  Br  Br15  1  0.848187  0.548665  0.631577  1
  Br  Br16  1  0.069619  0.212599  0.676806  1
  Br  Br17  1  0.316223  0.928086  0.784024  1
  Br  Br18  1  0.548087  0.631373  0.848545  1
  Br  Br19  1  0.777534  0.314973  0.925452  1
