# generated using pymatgen
data_Lu2NpRu3
_symmetry_space_group_name_H-M   'P 1'
_cell_length_a   5.19332714
_cell_length_b   5.19332638
_cell_length_c   5.19332652
_cell_angle_alpha   67.06223284
_cell_angle_beta   67.06223632
_cell_angle_gamma   67.06223037
_symmetry_Int_Tables_number   1
_chemical_formula_structural   Lu2NpRu3
_chemical_formula_sum   'Lu2 Np1 Ru3'
_cell_volume   114.02565159
_cell_formula_units_Z   1
loop_
 _symmetry_equiv_pos_site_id
 _symmetry_equiv_pos_as_xyz
  1  'x, y, z'
loop_
 _atom_site_type_symbol
 _atom_site_label
 _atom_site_symmetry_multiplicity
 _atom_site_fract_x
 _atom_site_fract_y
 _atom_site_fract_z
 _atom_site_occupancy
  Lu  Lu0  1  0.627976  0.627976  0.627976  1
  Lu  Lu1  1  0.372024  0.372024  0.372024  1
  Np  Np2  1  0.000000  0.000000  0.000000  1
  Ru  Ru3  1  0.000000  0.500000  0.000000  1
  Ru  Ru4  1  0.500000  0.000000  0.000000  1
  Ru  Ru5  1  0.000000  0.000000  0.500000  1
