# generated using pymatgen
data_Na7Er(P7Ir8)2
_symmetry_space_group_name_H-M   'P 1'
_cell_length_a   3.96825600
_cell_length_b   12.51521818
_cell_length_c   12.96943603
_cell_angle_alpha   81.87256741
_cell_angle_beta   90.00000000
_cell_angle_gamma   90.00000000
_symmetry_Int_Tables_number   1
_chemical_formula_structural   Na7Er(P7Ir8)2
_chemical_formula_sum   'Na7 Er1 P14 Ir16'
_cell_volume   637.63937361
_cell_formula_units_Z   1
loop_
 _symmetry_equiv_pos_site_id
 _symmetry_equiv_pos_as_xyz
  1  'x, y, z'
loop_
 _atom_site_type_symbol
 _atom_site_label
 _atom_site_symmetry_multiplicity
 _atom_site_fract_x
 _atom_site_fract_y
 _atom_site_fract_z
 _atom_site_occupancy
  Na  Na0  1  0.750000  0.784053  0.567009  1
  Na  Na1  1  0.250000  0.214029  0.434197  1
  Na  Na2  1  0.750000  0.484629  0.708458  1
  Na  Na3  1  0.250000  0.516210  0.291027  1
  Na  Na4  1  0.750000  0.715202  0.891751  1
  Na  Na5  1  0.250000  0.100234  0.796195  1
  Na  Na6  1  0.750000  0.899289  0.204691  1
  Er  Er7  1  0.250000  0.286314  0.108030  1
  P  P8  1  0.250000  0.908255  0.412320  1
  P  P9  1  0.750000  0.476646  0.127593  1
  P  P10  1  0.250000  0.526937  0.868571  1
  P  P11  1  0.750000  0.088605  0.589753  1
  P  P12  1  0.250000  0.744133  0.080316  1
  P  P13  1  0.750000  0.259845  0.918441  1
  P  P14  1  0.750000  0.153854  0.284529  1
  P  P15  1  0.250000  0.842789  0.717254  1
  P  P16  1  0.250000  0.060964  0.100499  1
  P  P17  1  0.750000  0.942159  0.903374  1
  P  P18  1  0.250000  0.301846  0.685374  1
  P  P19  1  0.750000  0.697180  0.313785  1
  P  P20  1  0.250000  0.608057  0.563206  1
  P  P21  1  0.750000  0.390269  0.436368  1
  Ir  Ir22  1  0.250000  0.983855  0.575954  1
  Ir  Ir23  1  0.750000  0.013473  0.427005  1
  Ir  Ir24  1  0.250000  0.661831  0.725971  1
  Ir  Ir25  1  0.750000  0.335489  0.263917  1
  Ir  Ir26  1  0.250000  0.557205  0.046288  1
  Ir  Ir27  1  0.750000  0.441822  0.953698  1
  Ir  Ir28  1  0.250000  0.062294  0.275046  1
  Ir  Ir29  1  0.750000  0.936389  0.728382  1
  Ir  Ir30  1  0.250000  0.422059  0.527716  1
  Ir  Ir31  1  0.750000  0.576374  0.470613  1
  Ir  Ir32  1  0.250000  0.919877  0.001388  1
  Ir  Ir33  1  0.750000  0.087676  0.002500  1
  Ir  Ir34  1  0.250000  0.727185  0.399109  1
  Ir  Ir35  1  0.750000  0.270397  0.600822  1
  Ir  Ir36  1  0.250000  0.337118  0.855568  1
  Ir  Ir37  1  0.750000  0.665458  0.143284  1
