# generated using pymatgen
data_Nd5TlTe2
_symmetry_space_group_name_H-M   'P 1'
_cell_length_a   9.37643800
_cell_length_b   9.29520357
_cell_length_c   6.52236300
_cell_angle_alpha   90.00000000
_cell_angle_beta   90.00000000
_cell_angle_gamma   119.71381602
_symmetry_Int_Tables_number   1
_chemical_formula_structural   Nd5TlTe2
_chemical_formula_sum   'Nd10 Tl2 Te4'
_cell_volume   493.71644049
_cell_formula_units_Z   2
loop_
 _symmetry_equiv_pos_site_id
 _symmetry_equiv_pos_as_xyz
  1  'x, y, z'
loop_
 _atom_site_type_symbol
 _atom_site_label
 _atom_site_symmetry_multiplicity
 _atom_site_fract_x
 _atom_site_fract_y
 _atom_site_fract_z
 _atom_site_occupancy
  Nd  Nd0  1  0.333747  0.666873  0.000000  1
  Nd  Nd1  1  0.668211  0.334104  0.500000  1
  Nd  Nd2  1  0.668211  0.334104  0.000000  1
  Nd  Nd3  1  0.333747  0.666873  0.500000  1
  Nd  Nd4  1  0.248781  0.003684  0.250000  1
  Nd  Nd5  1  0.248781  0.245098  0.750000  1
  Nd  Nd6  1  0.999769  0.751606  0.750000  1
  Nd  Nd7  1  0.999769  0.248163  0.250000  1
  Nd  Nd8  1  0.748684  0.750474  0.250000  1
  Nd  Nd9  1  0.748684  0.998209  0.750000  1
  Tl  Tl10  1  0.387506  0.387904  0.250000  1
  Tl  Tl11  1  0.387506  0.999602  0.750000  1
  Te  Te12  1  0.611917  0.999480  0.250000  1
  Te  Te13  1  0.611917  0.612437  0.750000  1
  Te  Te14  1  0.001387  0.385760  0.750000  1
  Te  Te15  1  0.001387  0.615627  0.250000  1
