# generated using pymatgen
data_Nb4CoTe4
_symmetry_space_group_name_H-M   'P 1'
_cell_length_a   4.84323600
_cell_length_b   10.94291300
_cell_length_c   19.04724900
_cell_angle_alpha   90.00000000
_cell_angle_beta   90.00000000
_cell_angle_gamma   90.00000000
_symmetry_Int_Tables_number   1
_chemical_formula_structural   Nb4CoTe4
_chemical_formula_sum   'Nb16 Co4 Te16'
_cell_volume   1009.48724850
_cell_formula_units_Z   4
loop_
 _symmetry_equiv_pos_site_id
 _symmetry_equiv_pos_as_xyz
  1  'x, y, z'
loop_
 _atom_site_type_symbol
 _atom_site_label
 _atom_site_symmetry_multiplicity
 _atom_site_fract_x
 _atom_site_fract_y
 _atom_site_fract_z
 _atom_site_occupancy
  Nb  Nb0  1  0.500000  0.563756  0.383379  1
  Nb  Nb1  1  0.500000  0.436244  0.616621  1
  Nb  Nb2  1  0.500000  0.063756  0.116621  1
  Nb  Nb3  1  0.500000  0.936244  0.883379  1
  Nb  Nb4  1  0.500000  0.703688  0.536343  1
  Nb  Nb5  1  0.500000  0.296312  0.463657  1
  Nb  Nb6  1  0.500000  0.203688  0.963657  1
  Nb  Nb7  1  0.500000  0.796312  0.036343  1
  Nb  Nb8  1  0.000000  0.689001  0.442864  1
  Nb  Nb9  1  0.000000  0.310999  0.557136  1
  Nb  Nb10  1  0.000000  0.189001  0.057136  1
  Nb  Nb11  1  0.000000  0.810999  0.942864  1
  Nb  Nb12  1  0.000000  0.401102  0.391763  1
  Nb  Nb13  1  0.000000  0.598898  0.608237  1
  Nb  Nb14  1  0.000000  0.901102  0.108237  1
  Nb  Nb15  1  0.000000  0.098898  0.891763  1
  Co  Co16  1  0.249938  0.500000  0.500000  1
  Co  Co17  1  0.750062  0.000000  0.000000  1
  Co  Co18  1  0.750062  0.500000  0.500000  1
  Co  Co19  1  0.249938  0.000000  0.000000  1
  Te  Te20  1  0.000000  0.847618  0.562229  1
  Te  Te21  1  0.000000  0.152382  0.437771  1
  Te  Te22  1  0.000000  0.347618  0.937771  1
  Te  Te23  1  0.000000  0.652382  0.062229  1
  Te  Te24  1  0.500000  0.331400  0.315125  1
  Te  Te25  1  0.500000  0.668600  0.684875  1
  Te  Te26  1  0.500000  0.831400  0.184875  1
  Te  Te27  1  0.500000  0.168600  0.815125  1
  Te  Te28  1  0.500000  0.823157  0.402768  1
  Te  Te29  1  0.500000  0.176843  0.597232  1
  Te  Te30  1  0.500000  0.323157  0.097232  1
  Te  Te31  1  0.500000  0.676843  0.902768  1
  Te  Te32  1  0.000000  0.608260  0.300419  1
  Te  Te33  1  0.000000  0.391740  0.699581  1
  Te  Te34  1  0.000000  0.108260  0.199581  1
  Te  Te35  1  0.000000  0.891740  0.800419  1
