# generated using pymatgen
data_Ca20Zn8Cd3In
_symmetry_space_group_name_H-M   'P 1'
_cell_length_a   8.05822500
_cell_length_b   8.05822500
_cell_length_c   15.11959300
_cell_angle_alpha   90.00000000
_cell_angle_beta   90.00000000
_cell_angle_gamma   90.00000000
_symmetry_Int_Tables_number   1
_chemical_formula_structural   Ca20Zn8Cd3In
_chemical_formula_sum   'Ca20 Zn8 Cd3 In1'
_cell_volume   981.79062254
_cell_formula_units_Z   1
loop_
 _symmetry_equiv_pos_site_id
 _symmetry_equiv_pos_as_xyz
  1  'x, y, z'
loop_
 _atom_site_type_symbol
 _atom_site_label
 _atom_site_symmetry_multiplicity
 _atom_site_fract_x
 _atom_site_fract_y
 _atom_site_fract_z
 _atom_site_occupancy
  Ca  Ca0  1  0.672951  0.166427  0.103407  1
  Ca  Ca1  1  0.168512  0.670541  0.606283  1
  Ca  Ca2  1  0.327049  0.833573  0.103407  1
  Ca  Ca3  1  0.831488  0.329459  0.606283  1
  Ca  Ca4  1  0.833573  0.672951  0.103407  1
  Ca  Ca5  1  0.329459  0.168512  0.606283  1
  Ca  Ca6  1  0.166427  0.327049  0.103407  1
  Ca  Ca7  1  0.670541  0.831488  0.606283  1
  Ca  Ca8  1  0.833573  0.327049  0.896593  1
  Ca  Ca9  1  0.329459  0.831488  0.393717  1
  Ca  Ca10  1  0.166427  0.672951  0.896593  1
  Ca  Ca11  1  0.670541  0.168512  0.393717  1
  Ca  Ca12  1  0.672951  0.833573  0.896593  1
  Ca  Ca13  1  0.168512  0.329459  0.393717  1
  Ca  Ca14  1  0.327049  0.166427  0.896593  1
  Ca  Ca15  1  0.831488  0.670541  0.393717  1
  Ca  Ca16  1  0.500000  0.500000  0.755481  1
  Ca  Ca17  1  0.000000  0.000000  0.248765  1
  Ca  Ca18  1  0.000000  0.000000  0.751235  1
  Ca  Ca19  1  0.500000  0.500000  0.244519  1
  Zn  Zn20  1  0.617573  0.118504  0.750822  1
  Zn  Zn21  1  0.118504  0.617573  0.249178  1
  Zn  Zn22  1  0.881496  0.382427  0.249178  1
  Zn  Zn23  1  0.382427  0.881496  0.750822  1
  Zn  Zn24  1  0.881496  0.617573  0.750822  1
  Zn  Zn25  1  0.382427  0.118504  0.249178  1
  Zn  Zn26  1  0.118504  0.382427  0.750822  1
  Zn  Zn27  1  0.617573  0.881496  0.249178  1
  Cd  Cd28  1  0.500000  0.500000  0.500000  1
  Cd  Cd29  1  0.500000  0.500000  0.000000  1
  Cd  Cd30  1  0.000000  0.000000  0.500000  1
  In  In31  1  0.000000  0.000000  0.000000  1
