# generated using pymatgen
data_BaY2(MnH6)2
_symmetry_space_group_name_H-M   'P 1'
_cell_length_a   4.93276300
_cell_length_b   4.93276219
_cell_length_c   8.28114000
_cell_angle_alpha   90.00000000
_cell_angle_beta   90.00000000
_cell_angle_gamma   119.99998531
_symmetry_Int_Tables_number   1
_chemical_formula_structural   BaY2(MnH6)2
_chemical_formula_sum   'Ba1 Y2 Mn2 H12'
_cell_volume   174.50233844
_cell_formula_units_Z   1
loop_
 _symmetry_equiv_pos_site_id
 _symmetry_equiv_pos_as_xyz
  1  'x, y, z'
loop_
 _atom_site_type_symbol
 _atom_site_label
 _atom_site_symmetry_multiplicity
 _atom_site_fract_x
 _atom_site_fract_y
 _atom_site_fract_z
 _atom_site_occupancy
  Ba  Ba0  1  0.000000  0.000000  0.000000  1
  Y  Y1  1  0.666667  0.333333  0.366632  1
  Y  Y2  1  0.333333  0.666667  0.633368  1
  Mn  Mn3  1  0.666667  0.333333  0.727287  1
  Mn  Mn4  1  0.333333  0.666667  0.272713  1
  H  H5  1  0.174009  0.825991  0.385525  1
  H  H6  1  0.651982  0.825991  0.385525  1
  H  H7  1  0.174009  0.348018  0.385525  1
  H  H8  1  0.825991  0.174009  0.614475  1
  H  H9  1  0.348018  0.174009  0.614475  1
  H  H10  1  0.825991  0.651982  0.614475  1
  H  H11  1  0.504497  0.008994  0.836239  1
  H  H12  1  0.504497  0.495503  0.836239  1
  H  H13  1  0.991006  0.495503  0.836239  1
  H  H14  1  0.495503  0.991006  0.163761  1
  H  H15  1  0.495503  0.504497  0.163761  1
  H  H16  1  0.008994  0.504497  0.163761  1
