# generated using pymatgen
data_CaZn5Au3
_symmetry_space_group_name_H-M   'P 1'
_cell_length_a   4.30928900
_cell_length_b   12.08030700
_cell_length_c   12.79758200
_cell_angle_alpha   90.00000000
_cell_angle_beta   90.00000000
_cell_angle_gamma   90.00000000
_symmetry_Int_Tables_number   1
_chemical_formula_structural   CaZn5Au3
_chemical_formula_sum   'Ca4 Zn20 Au12'
_cell_volume   666.21056100
_cell_formula_units_Z   4
loop_
 _symmetry_equiv_pos_site_id
 _symmetry_equiv_pos_as_xyz
  1  'x, y, z'
loop_
 _atom_site_type_symbol
 _atom_site_label
 _atom_site_symmetry_multiplicity
 _atom_site_fract_x
 _atom_site_fract_y
 _atom_site_fract_z
 _atom_site_occupancy
  Ca  Ca0  1  0.250000  0.882429  0.300776  1
  Ca  Ca1  1  0.750000  0.117571  0.699224  1
  Ca  Ca2  1  0.750000  0.382429  0.199224  1
  Ca  Ca3  1  0.250000  0.617571  0.800776  1
  Zn  Zn4  1  0.250000  0.417369  0.988987  1
  Zn  Zn5  1  0.750000  0.582631  0.011013  1
  Zn  Zn6  1  0.750000  0.917369  0.511013  1
  Zn  Zn7  1  0.250000  0.082631  0.488987  1
  Zn  Zn8  1  0.250000  0.605747  0.341335  1
  Zn  Zn9  1  0.750000  0.394253  0.658665  1
  Zn  Zn10  1  0.750000  0.105747  0.158665  1
  Zn  Zn11  1  0.250000  0.894253  0.841335  1
  Zn  Zn12  1  0.250000  0.001640  0.065239  1
  Zn  Zn13  1  0.750000  0.998360  0.934761  1
  Zn  Zn14  1  0.750000  0.501640  0.434761  1
  Zn  Zn15  1  0.250000  0.498360  0.565239  1
  Zn  Zn16  1  0.250000  0.767435  0.041099  1
  Zn  Zn17  1  0.750000  0.232565  0.958901  1
  Zn  Zn18  1  0.750000  0.267435  0.458901  1
  Zn  Zn19  1  0.250000  0.732565  0.541099  1
  Zn  Zn20  1  0.250000  0.184617  0.292467  1
  Zn  Zn21  1  0.750000  0.815383  0.707533  1
  Zn  Zn22  1  0.750000  0.684617  0.207533  1
  Zn  Zn23  1  0.250000  0.315383  0.792467  1
  Au  Au24  1  0.250000  0.571457  0.137010  1
  Au  Au25  1  0.750000  0.428543  0.862990  1
  Au  Au26  1  0.750000  0.071457  0.362990  1
  Au  Au27  1  0.250000  0.928543  0.637010  1
  Au  Au28  1  0.250000  0.226240  0.090640  1
  Au  Au29  1  0.750000  0.773760  0.909360  1
  Au  Au30  1  0.750000  0.726240  0.409360  1
  Au  Au31  1  0.250000  0.273760  0.590640  1
  Au  Au32  1  0.250000  0.383562  0.377218  1
  Au  Au33  1  0.750000  0.616438  0.622782  1
  Au  Au34  1  0.750000  0.883562  0.122782  1
  Au  Au35  1  0.250000  0.116438  0.877218  1
