# generated using pymatgen
data_La6Nd4InSn(Bi2Cl)2
_symmetry_space_group_name_H-M   'P 1'
_cell_length_a   9.67077700
_cell_length_b   9.69403315
_cell_length_c   6.72890800
_cell_angle_alpha   90.00000000
_cell_angle_beta   90.00000000
_cell_angle_gamma   119.92066944
_symmetry_Int_Tables_number   1
_chemical_formula_structural   La6Nd4InSn(Bi2Cl)2
_chemical_formula_sum   'La6 Nd4 In1 Sn1 Bi4 Cl2'
_cell_volume   546.74863347
_cell_formula_units_Z   1
loop_
 _symmetry_equiv_pos_site_id
 _symmetry_equiv_pos_as_xyz
  1  'x, y, z'
loop_
 _atom_site_type_symbol
 _atom_site_label
 _atom_site_symmetry_multiplicity
 _atom_site_fract_x
 _atom_site_fract_y
 _atom_site_fract_z
 _atom_site_occupancy
  La  La0  1  0.741031  0.004198  0.750000  1
  La  La1  1  0.735336  0.734766  0.250000  1
  La  La2  1  0.005072  0.264273  0.250000  1
  La  La3  1  0.999532  0.734161  0.750000  1
  La  La4  1  0.259943  0.264604  0.750000  1
  La  La5  1  0.262413  0.003761  0.250000  1
  Nd  Nd6  1  0.665805  0.333844  0.002405  1
  Nd  Nd7  1  0.332841  0.663782  0.497512  1
  Nd  Nd8  1  0.665805  0.333844  0.497595  1
  Nd  Nd9  1  0.332841  0.663782  0.002488  1
  In  In10  1  0.999624  0.389427  0.750000  1
  Sn  Sn11  1  0.387674  0.388071  0.250000  1
  Bi  Bi12  1  0.612602  0.614188  0.750000  1
  Bi  Bi13  1  0.000946  0.611078  0.250000  1
  Bi  Bi14  1  0.614872  0.001852  0.250000  1
  Bi  Bi15  1  0.386581  0.001080  0.750000  1
  Cl  Cl16  1  0.998541  0.996644  0.500023  1
  Cl  Cl17  1  0.998541  0.996644  0.999977  1
