# generated using pymatgen
data_Y4Sc3AlIr4
_symmetry_space_group_name_H-M   'P 1'
_cell_length_a   4.35862700
_cell_length_b   7.05848613
_cell_length_c   8.36005256
_cell_angle_alpha   88.67063636
_cell_angle_beta   90.00000000
_cell_angle_gamma   90.00000000
_symmetry_Int_Tables_number   1
_chemical_formula_structural   Y4Sc3AlIr4
_chemical_formula_sum   'Y4 Sc3 Al1 Ir4'
_cell_volume   257.13036891
_cell_formula_units_Z   1
loop_
 _symmetry_equiv_pos_site_id
 _symmetry_equiv_pos_as_xyz
  1  'x, y, z'
loop_
 _atom_site_type_symbol
 _atom_site_label
 _atom_site_symmetry_multiplicity
 _atom_site_fract_x
 _atom_site_fract_y
 _atom_site_fract_z
 _atom_site_occupancy
  Y  Y0  1  0.250000  0.041209  0.669520  1
  Y  Y1  1  0.250000  0.517154  0.815681  1
  Y  Y2  1  0.750000  0.987746  0.334682  1
  Y  Y3  1  0.750000  0.466542  0.180506  1
  Sc  Sc4  1  0.250000  0.135508  0.070172  1
  Sc  Sc5  1  0.250000  0.637180  0.438495  1
  Sc  Sc6  1  0.750000  0.859198  0.933598  1
  Al  Al7  1  0.750000  0.361561  0.561815  1
  Ir  Ir8  1  0.250000  0.269937  0.386772  1
  Ir  Ir9  1  0.250000  0.753115  0.108251  1
  Ir  Ir10  1  0.750000  0.734804  0.615625  1
  Ir  Ir11  1  0.750000  0.236046  0.884884  1
