# generated using pymatgen
data_Y2Lu3SiPb3
_symmetry_space_group_name_H-M   'P 1'
_cell_length_a   9.23256323
_cell_length_b   9.23256154
_cell_length_c   6.47205900
_cell_angle_alpha   90.00000000
_cell_angle_beta   90.00000000
_cell_angle_gamma   120.17061065
_symmetry_Int_Tables_number   1
_chemical_formula_structural   Y2Lu3SiPb3
_chemical_formula_sum   'Y4 Lu6 Si2 Pb6'
_cell_volume   476.94510766
_cell_formula_units_Z   2
loop_
 _symmetry_equiv_pos_site_id
 _symmetry_equiv_pos_as_xyz
  1  'x, y, z'
loop_
 _atom_site_type_symbol
 _atom_site_label
 _atom_site_symmetry_multiplicity
 _atom_site_fract_x
 _atom_site_fract_y
 _atom_site_fract_z
 _atom_site_occupancy
  Y  Y0  1  0.249839  0.000275  0.750000  1
  Y  Y1  1  0.750161  0.999725  0.250000  1
  Y  Y2  1  0.000275  0.249839  0.750000  1
  Y  Y3  1  0.999725  0.750161  0.250000  1
  Lu  Lu4  1  0.751635  0.751635  0.750000  1
  Lu  Lu5  1  0.248365  0.248365  0.250000  1
  Lu  Lu6  1  0.333429  0.666571  0.500000  1
  Lu  Lu7  1  0.666571  0.333429  0.500000  1
  Lu  Lu8  1  0.666571  0.333429  0.000000  1
  Lu  Lu9  1  0.333429  0.666571  0.000000  1
  Si  Si10  1  0.000000  0.000000  0.500000  1
  Si  Si11  1  0.000000  0.000000  0.000000  1
  Pb  Pb12  1  0.604999  0.998974  0.750000  1
  Pb  Pb13  1  0.395001  0.001026  0.250000  1
  Pb  Pb14  1  0.998974  0.604999  0.750000  1
  Pb  Pb15  1  0.001026  0.395001  0.250000  1
  Pb  Pb16  1  0.396948  0.396948  0.750000  1
  Pb  Pb17  1  0.603052  0.603052  0.250000  1
