# generated using pymatgen
data_CoCu5Mo12(PtN2)2
_symmetry_space_group_name_H-M   'P 1'
_cell_length_a   6.76250643
_cell_length_b   6.76047712
_cell_length_c   6.76025143
_cell_angle_alpha   90.23998775
_cell_angle_beta   90.21723926
_cell_angle_gamma   90.20783975
_symmetry_Int_Tables_number   1
_chemical_formula_structural   CoCu5Mo12(PtN2)2
_chemical_formula_sum   'Co1 Cu5 Mo12 Pt2 N4'
_cell_volume   309.05663572
_cell_formula_units_Z   1
loop_
 _symmetry_equiv_pos_site_id
 _symmetry_equiv_pos_as_xyz
  1  'x, y, z'
loop_
 _atom_site_type_symbol
 _atom_site_label
 _atom_site_symmetry_multiplicity
 _atom_site_fract_x
 _atom_site_fract_y
 _atom_site_fract_z
 _atom_site_occupancy
  Co  Co0  1  0.192772  0.183334  0.177120  1
  Cu  Cu1  1  0.327345  0.816426  0.685924  1
  Cu  Cu2  1  0.433364  0.069014  0.930149  1
  Cu  Cu3  1  0.806168  0.682439  0.324262  1
  Cu  Cu4  1  0.673813  0.317154  0.813072  1
  Cu  Cu5  1  0.567734  0.568446  0.570812  1
  Mo  Mo6  1  0.624873  0.701666  0.957581  1
  Mo  Mo7  1  0.452357  0.879365  0.291345  1
  Mo  Mo8  1  0.702465  0.957394  0.628774  1
  Mo  Mo9  1  0.538876  0.374692  0.204882  1
  Mo  Mo10  1  0.374017  0.201045  0.538122  1
  Mo  Mo11  1  0.199734  0.537218  0.376103  1
  Mo  Mo12  1  0.873867  0.295949  0.454614  1
  Mo  Mo13  1  0.041729  0.129545  0.806833  1
  Mo  Mo14  1  0.294866  0.452118  0.874562  1
  Mo  Mo15  1  0.131918  0.802331  0.041123  1
  Mo  Mo16  1  0.804604  0.040872  0.125492  1
  Mo  Mo17  1  0.959654  0.627827  0.697858  1
  Pt  Pt18  1  0.067549  0.935845  0.433235  1
  Pt  Pt19  1  0.932791  0.434892  0.067851  1
  N  N20  1  0.373146  0.624222  0.125997  1
  N  N21  1  0.876938  0.873016  0.874863  1
  N  N22  1  0.122747  0.371715  0.626385  1
  N  N23  1  0.626671  0.123478  0.373040  1
