# generated using pymatgen
data_HoAg(S2O7)2
_symmetry_space_group_name_H-M   'P 1'
_cell_length_a   5.40043534
_cell_length_b   7.17596124
_cell_length_c   9.55819010
_cell_angle_alpha   91.52548583
_cell_angle_beta   96.46731802
_cell_angle_gamma   106.01995517
_symmetry_Int_Tables_number   1
_chemical_formula_structural   HoAg(S2O7)2
_chemical_formula_sum   'Ho1 Ag1 S4 O14'
_cell_volume   353.11483991
_cell_formula_units_Z   1
loop_
 _symmetry_equiv_pos_site_id
 _symmetry_equiv_pos_as_xyz
  1  'x, y, z'
loop_
 _atom_site_type_symbol
 _atom_site_label
 _atom_site_symmetry_multiplicity
 _atom_site_fract_x
 _atom_site_fract_y
 _atom_site_fract_z
 _atom_site_occupancy
  Ho  Ho0  1  0.500000  0.000000  0.500000  1
  Ag  Ag1  1  0.000000  0.500000  0.000000  1
  S  S2  1  0.467171  0.640937  0.759983  1
  S  S3  1  0.532829  0.359063  0.240017  1
  S  S4  1  0.132240  0.249318  0.686269  1
  S  S5  1  0.867760  0.750682  0.313731  1
  O  O6  1  0.659727  0.549469  0.816243  1
  O  O7  1  0.340273  0.450531  0.183757  1
  O  O8  1  0.312422  0.703875  0.854785  1
  O  O9  1  0.687578  0.296125  0.145215  1
  O  O10  1  0.558670  0.784417  0.655394  1
  O  O11  1  0.441330  0.215583  0.344606  1
  O  O12  1  0.249849  0.469541  0.643516  1
  O  O13  1  0.750151  0.530459  0.356484  1
  O  O14  1  0.899770  0.185891  0.580529  1
  O  O15  1  0.100230  0.814109  0.419471  1
  O  O16  1  0.324359  0.146606  0.656484  1
  O  O17  1  0.675641  0.853394  0.343516  1
  O  O18  1  0.082552  0.247523  0.830873  1
  O  O19  1  0.917448  0.752477  0.169127  1
