# generated using pymatgen
data_Ce8Si12Ni3Ru
_symmetry_space_group_name_H-M   'P 1'
_cell_length_a   8.07462500
_cell_length_b   8.07462529
_cell_length_c   8.26397400
_cell_angle_alpha   90.00000000
_cell_angle_beta   90.00000000
_cell_angle_gamma   119.99999471
_symmetry_Int_Tables_number   1
_chemical_formula_structural   Ce8Si12Ni3Ru
_chemical_formula_sum   'Ce8 Si12 Ni3 Ru1'
_cell_volume   466.62106087
_cell_formula_units_Z   1
loop_
 _symmetry_equiv_pos_site_id
 _symmetry_equiv_pos_as_xyz
  1  'x, y, z'
loop_
 _atom_site_type_symbol
 _atom_site_label
 _atom_site_symmetry_multiplicity
 _atom_site_fract_x
 _atom_site_fract_y
 _atom_site_fract_z
 _atom_site_occupancy
  Ce  Ce0  1  0.000000  0.000000  0.248615  1
  Ce  Ce1  1  0.000000  0.000000  0.751208  1
  Ce  Ce2  1  0.497553  0.502447  0.253655  1
  Ce  Ce3  1  0.497553  0.995106  0.253655  1
  Ce  Ce4  1  0.004894  0.502447  0.253655  1
  Ce  Ce5  1  0.498170  0.501830  0.746453  1
  Ce  Ce6  1  0.498170  0.996339  0.746453  1
  Ce  Ce7  1  0.003661  0.501830  0.746453  1
  Si  Si8  1  0.164036  0.835964  0.501937  1
  Si  Si9  1  0.164036  0.328073  0.501937  1
  Si  Si10  1  0.671927  0.835964  0.501937  1
  Si  Si11  1  0.829534  0.170466  0.498893  1
  Si  Si12  1  0.829534  0.659069  0.498893  1
  Si  Si13  1  0.340931  0.170466  0.498893  1
  Si  Si14  1  0.829501  0.170499  0.000846  1
  Si  Si15  1  0.829501  0.659000  0.000846  1
  Si  Si16  1  0.341000  0.170499  0.000846  1
  Si  Si17  1  0.169845  0.830155  0.998942  1
  Si  Si18  1  0.169845  0.339692  0.998942  1
  Si  Si19  1  0.660308  0.830155  0.998942  1
  Ni  Ni20  1  0.666667  0.333333  0.503399  1
  Ni  Ni21  1  0.666667  0.333333  0.996976  1
  Ni  Ni22  1  0.333333  0.666667  0.004167  1
  Ru  Ru23  1  0.333333  0.666667  0.493456  1
