# generated using pymatgen
data_TmLuAl7Ga2Ir3
_symmetry_space_group_name_H-M   'P 1'
_cell_length_a   7.51007209
_cell_length_b   7.51052691
_cell_length_c   9.49264700
_cell_angle_alpha   90.00000000
_cell_angle_beta   90.00000000
_cell_angle_gamma   119.57906116
_symmetry_Int_Tables_number   1
_chemical_formula_structural   TmLuAl7Ga2Ir3
_chemical_formula_sum   'Tm2 Lu2 Al14 Ga4 Ir6'
_cell_volume   465.64937116
_cell_formula_units_Z   2
loop_
 _symmetry_equiv_pos_site_id
 _symmetry_equiv_pos_as_xyz
  1  'x, y, z'
loop_
 _atom_site_type_symbol
 _atom_site_label
 _atom_site_symmetry_multiplicity
 _atom_site_fract_x
 _atom_site_fract_y
 _atom_site_fract_z
 _atom_site_occupancy
  Tm  Tm0  1  0.997088  0.672371  0.250000  1
  Tm  Tm1  1  0.002912  0.327629  0.750000  1
  Lu  Lu2  1  0.670068  0.994273  0.250000  1
  Lu  Lu3  1  0.329932  0.005727  0.750000  1
  Al  Al4  1  0.000938  0.334574  0.073602  1
  Al  Al5  1  0.999062  0.665426  0.926398  1
  Al  Al6  1  0.999062  0.665426  0.573602  1
  Al  Al7  1  0.335212  0.001457  0.426484  1
  Al  Al8  1  0.000938  0.334574  0.426398  1
  Al  Al9  1  0.664788  0.998543  0.573516  1
  Al  Al10  1  0.664788  0.998543  0.926484  1
  Al  Al11  1  0.335212  0.001457  0.073516  1
  Al  Al12  1  0.333656  0.333660  0.556616  1
  Al  Al13  1  0.666344  0.666340  0.443384  1
  Al  Al14  1  0.666344  0.666340  0.056616  1
  Al  Al15  1  0.333656  0.333660  0.943384  1
  Al  Al16  1  0.549093  0.338219  0.250000  1
  Al  Al17  1  0.450907  0.661781  0.750000  1
  Ga  Ga18  1  0.129065  0.129640  0.250000  1
  Ga  Ga19  1  0.870935  0.870360  0.750000  1
  Ga  Ga20  1  0.338400  0.546763  0.250000  1
  Ga  Ga21  1  0.661600  0.453237  0.750000  1
  Ir  Ir22  1  0.671628  0.327461  0.002551  1
  Ir  Ir23  1  0.328372  0.672539  0.997449  1
  Ir  Ir24  1  0.328372  0.672539  0.502551  1
  Ir  Ir25  1  0.671628  0.327461  0.497449  1
  Ir  Ir26  1  0.000000  0.000000  0.000000  1
  Ir  Ir27  1  0.000000  0.000000  0.500000  1
