# generated using pymatgen
data_Tb17Mg3(IrPt2)4
_symmetry_space_group_name_H-M   'P 1'
_cell_length_a   10.95226000
_cell_length_b   10.95226000
_cell_length_c   6.30785300
_cell_angle_alpha   90.00000000
_cell_angle_beta   90.00000000
_cell_angle_gamma   90.00000000
_symmetry_Int_Tables_number   1
_chemical_formula_structural   Tb17Mg3(IrPt2)4
_chemical_formula_sum   'Tb17 Mg3 Ir4 Pt8'
_cell_volume   756.63957743
_cell_formula_units_Z   1
loop_
 _symmetry_equiv_pos_site_id
 _symmetry_equiv_pos_as_xyz
  1  'x, y, z'
loop_
 _atom_site_type_symbol
 _atom_site_label
 _atom_site_symmetry_multiplicity
 _atom_site_fract_x
 _atom_site_fract_y
 _atom_site_fract_z
 _atom_site_occupancy
  Tb  Tb0  1  0.287594  0.087103  0.379444  1
  Tb  Tb1  1  0.288226  0.916466  0.876069  1
  Tb  Tb2  1  0.711774  0.083534  0.876069  1
  Tb  Tb3  1  0.712406  0.912897  0.379444  1
  Tb  Tb4  1  0.584720  0.787287  0.875982  1
  Tb  Tb5  1  0.588582  0.206156  0.376783  1
  Tb  Tb6  1  0.411418  0.793844  0.376783  1
  Tb  Tb7  1  0.415280  0.212713  0.875982  1
  Tb  Tb8  1  0.206156  0.411418  0.623217  1
  Tb  Tb9  1  0.212713  0.584720  0.124018  1
  Tb  Tb10  1  0.787287  0.415280  0.124018  1
  Tb  Tb11  1  0.793844  0.588582  0.623217  1
  Tb  Tb12  1  0.916466  0.711774  0.123931  1
  Tb  Tb13  1  0.912897  0.287594  0.620556  1
  Tb  Tb14  1  0.087103  0.712406  0.620556  1
  Tb  Tb15  1  0.083534  0.288226  0.123931  1
  Tb  Tb16  1  0.500000  0.500000  0.500000  1
  Mg  Mg17  1  0.000000  0.000000  0.500000  1
  Mg  Mg18  1  0.000000  0.000000  0.000000  1
  Mg  Mg19  1  0.500000  0.500000  0.000000  1
  Ir  Ir20  1  0.500000  0.000000  0.119077  1
  Ir  Ir21  1  0.500000  0.000000  0.621352  1
  Ir  Ir22  1  0.000000  0.500000  0.880923  1
  Ir  Ir23  1  0.000000  0.500000  0.378648  1
  Pt  Pt24  1  0.850151  0.150492  0.247300  1
  Pt  Pt25  1  0.849508  0.850151  0.752700  1
  Pt  Pt26  1  0.150492  0.149849  0.752700  1
  Pt  Pt27  1  0.149849  0.849508  0.247300  1
  Pt  Pt28  1  0.655582  0.347851  0.748752  1
  Pt  Pt29  1  0.652149  0.655582  0.251248  1
  Pt  Pt30  1  0.347851  0.344418  0.251248  1
  Pt  Pt31  1  0.344418  0.652149  0.748752  1
