# generated using pymatgen
data_Na2ThI6
_symmetry_space_group_name_H-M   'P 1'
_cell_length_a   8.00994114
_cell_length_b   8.82574401
_cell_length_c   19.95500428
_cell_angle_alpha   94.72040953
_cell_angle_beta   89.87691697
_cell_angle_gamma   117.11183221
_symmetry_Int_Tables_number   1
_chemical_formula_structural   Na2ThI6
_chemical_formula_sum   'Na6 Th3 I18'
_cell_volume   1250.43073526
_cell_formula_units_Z   3
loop_
 _symmetry_equiv_pos_site_id
 _symmetry_equiv_pos_as_xyz
  1  'x, y, z'
loop_
 _atom_site_type_symbol
 _atom_site_label
 _atom_site_symmetry_multiplicity
 _atom_site_fract_x
 _atom_site_fract_y
 _atom_site_fract_z
 _atom_site_occupancy
  Na  Na0  1  0.665603  0.322919  0.840783  1
  Na  Na1  1  0.765931  0.529185  0.556626  1
  Na  Na2  1  0.910429  0.817210  0.776030  1
  Na  Na3  1  0.097801  0.195872  0.223841  1
  Na  Na4  1  0.233906  0.467878  0.440036  1
  Na  Na5  1  0.562993  0.131674  0.106141  1
  Th  Th6  1  0.006571  0.999494  0.999888  1
  Th  Th7  1  0.328507  0.668120  0.667338  1
  Th  Th8  1  0.666454  0.332598  0.332757  1
  I  I9  1  0.640967  0.990603  0.743688  1
  I  I10  1  0.799093  0.214392  0.971197  1
  I  I11  1  0.224132  0.125059  0.869639  1
  I  I12  1  0.105498  0.560379  0.794647  1
  I  I13  1  0.547732  0.464443  0.699860  1
  I  I14  1  0.971099  0.652549  0.415348  1
  I  I15  1  0.701588  0.685515  0.914351  1
  I  I16  1  0.119405  0.872862  0.634190  1
  I  I17  1  0.554322  0.770327  0.539093  1
  I  I18  1  0.440811  0.224302  0.461914  1
  I  I19  1  0.879721  0.128685  0.365300  1
  I  I20  1  0.307645  0.320364  0.082057  1
  I  I21  1  0.030223  0.348327  0.585342  1
  I  I22  1  0.454913  0.538012  0.301084  1
  I  I23  1  0.890901  0.441032  0.204831  1
  I  I24  1  0.772731  0.892658  0.126607  1
  I  I25  1  0.212798  0.799041  0.031716  1
  I  I26  1  0.361559  0.013168  0.252363  1
