# generated using pymatgen
data_Al8Ir3Ru4Pt
_symmetry_space_group_name_H-M   'P 1'
_cell_length_a   6.03724100
_cell_length_b   4.25221500
_cell_length_c   8.52924300
_cell_angle_alpha   90.00000000
_cell_angle_beta   89.99992845
_cell_angle_gamma   90.00000000
_symmetry_Int_Tables_number   1
_chemical_formula_structural   Al8Ir3Ru4Pt
_chemical_formula_sum   'Al8 Ir3 Ru4 Pt1'
_cell_volume   218.95971325
_cell_formula_units_Z   1
loop_
 _symmetry_equiv_pos_site_id
 _symmetry_equiv_pos_as_xyz
  1  'x, y, z'
loop_
 _atom_site_type_symbol
 _atom_site_label
 _atom_site_symmetry_multiplicity
 _atom_site_fract_x
 _atom_site_fract_y
 _atom_site_fract_z
 _atom_site_occupancy
  Al  Al0  1  0.006257  0.749999  0.125000  1
  Al  Al1  1  0.493740  0.749999  0.125005  1
  Al  Al2  1  0.003069  0.250001  0.378812  1
  Al  Al3  1  0.496923  0.250001  0.378817  1
  Al  Al4  1  0.499062  0.749999  0.625001  1
  Al  Al5  1  0.000946  0.749999  0.625006  1
  Al  Al6  1  0.496934  0.250001  0.871175  1
  Al  Al7  1  0.003071  0.250001  0.871181  1
  Ir  Ir8  1  0.249994  0.749999  0.374323  1
  Ir  Ir9  1  0.750006  0.250001  0.624997  1
  Ir  Ir10  1  0.250006  0.749999  0.875682  1
  Ru  Ru11  1  0.249996  0.250001  0.124998  1
  Ru  Ru12  1  0.749998  0.749999  0.371910  1
  Ru  Ru13  1  0.250001  0.250001  0.624998  1
  Ru  Ru14  1  0.750004  0.749999  0.878094  1
  Pt  Pt15  1  0.749992  0.250001  0.124998  1
