# generated using pymatgen
data_TbNd2Er5S12
_symmetry_space_group_name_H-M   'P 1'
_cell_length_a   3.98479800
_cell_length_b   11.07977126
_cell_length_c   11.33529800
_cell_angle_alpha   71.33880975
_cell_angle_beta   90.00000000
_cell_angle_gamma   90.00000000
_symmetry_Int_Tables_number   1
_chemical_formula_structural   TbNd2Er5S12
_chemical_formula_sum   'Tb1 Nd2 Er5 S12'
_cell_volume   474.15016956
_cell_formula_units_Z   1
loop_
 _symmetry_equiv_pos_site_id
 _symmetry_equiv_pos_as_xyz
  1  'x, y, z'
loop_
 _atom_site_type_symbol
 _atom_site_label
 _atom_site_symmetry_multiplicity
 _atom_site_fract_x
 _atom_site_fract_y
 _atom_site_fract_z
 _atom_site_occupancy
  Tb  Tb0  1  0.750000  0.180093  0.997581  1
  Nd  Nd1  1  0.750000  0.548410  0.805804  1
  Nd  Nd2  1  0.250000  0.452467  0.193876  1
  Er  Er3  1  0.250000  0.819451  0.002127  1
  Er  Er4  1  0.750000  0.938541  0.667140  1
  Er  Er5  1  0.250000  0.061372  0.332896  1
  Er  Er6  1  0.750000  0.661052  0.413753  1
  Er  Er7  1  0.250000  0.339302  0.585498  1
  S  S8  1  0.750000  0.975877  0.888218  1
  S  S9  1  0.250000  0.020647  0.113768  1
  S  S10  1  0.750000  0.305607  0.746743  1
  S  S11  1  0.250000  0.695250  0.251627  1
  S  S12  1  0.750000  0.896494  0.439075  1
  S  S13  1  0.250000  0.103345  0.561257  1
  S  S14  1  0.750000  0.418698  0.405752  1
  S  S15  1  0.250000  0.581664  0.593909  1
  S  S16  1  0.750000  0.236704  0.228411  1
  S  S17  1  0.250000  0.763304  0.772928  1
  S  S18  1  0.750000  0.618072  0.036596  1
  S  S19  1  0.250000  0.383646  0.963043  1
