# generated using pymatgen
data_P2PdO7
_symmetry_space_group_name_H-M   'P 1'
_cell_length_a   8.04002500
_cell_length_b   7.20355964
_cell_length_c   9.51421300
_cell_angle_alpha   67.01234690
_cell_angle_beta   90.00000000
_cell_angle_gamma   90.00000000
_symmetry_Int_Tables_number   1
_chemical_formula_structural   P2PdO7
_chemical_formula_sum   'P8 Pd4 O28'
_cell_volume   507.27472246
_cell_formula_units_Z   4
loop_
 _symmetry_equiv_pos_site_id
 _symmetry_equiv_pos_as_xyz
  1  'x, y, z'
loop_
 _atom_site_type_symbol
 _atom_site_label
 _atom_site_symmetry_multiplicity
 _atom_site_fract_x
 _atom_site_fract_y
 _atom_site_fract_z
 _atom_site_occupancy
  P  P0  1  0.251467  0.342377  0.793870  1
  P  P1  1  0.751467  0.657623  0.706130  1
  P  P2  1  0.748533  0.657623  0.206130  1
  P  P3  1  0.248533  0.342377  0.293870  1
  P  P4  1  0.320103  0.931453  0.820355  1
  P  P5  1  0.820103  0.068547  0.679645  1
  P  P6  1  0.679897  0.068547  0.179645  1
  P  P7  1  0.179897  0.931453  0.320355  1
  Pd  Pd8  1  0.000000  0.500000  0.500000  1
  Pd  Pd9  1  0.500000  0.500000  0.000000  1
  Pd  Pd10  1  0.500000  0.000000  0.500000  1
  Pd  Pd11  1  0.000000  0.000000  0.000000  1
  O  O12  1  0.367068  0.149309  0.819157  1
  O  O13  1  0.867068  0.850691  0.680843  1
  O  O14  1  0.632932  0.850691  0.180843  1
  O  O15  1  0.132932  0.149309  0.319157  1
  O  O16  1  0.140951  0.876758  0.881519  1
  O  O17  1  0.640951  0.123242  0.618481  1
  O  O18  1  0.859049  0.123242  0.118481  1
  O  O19  1  0.359049  0.876758  0.381519  1
  O  O20  1  0.312734  0.942004  0.655326  1
  O  O21  1  0.812734  0.057996  0.844674  1
  O  O22  1  0.687266  0.057996  0.344674  1
  O  O23  1  0.187266  0.942004  0.155326  1
  O  O24  1  0.399576  0.277216  0.400763  1
  O  O25  1  0.899576  0.722784  0.099237  1
  O  O26  1  0.600424  0.722784  0.599237  1
  O  O27  1  0.100424  0.277216  0.900763  1
  O  O28  1  0.286617  0.443047  0.121550  1
  O  O29  1  0.786617  0.556953  0.378450  1
  O  O30  1  0.713383  0.556953  0.878450  1
  O  O31  1  0.213383  0.443047  0.621550  1
  O  O32  1  0.138696  0.497878  0.323345  1
  O  O33  1  0.638696  0.502122  0.176655  1
  O  O34  1  0.861304  0.502122  0.676655  1
  O  O35  1  0.361304  0.497878  0.823345  1
  O  O36  1  0.039352  0.801558  0.421940  1
  O  O37  1  0.539352  0.198442  0.078060  1
  O  O38  1  0.960648  0.198442  0.578060  1
  O  O39  1  0.460648  0.801558  0.921940  1
