# generated using pymatgen
data_ThRe6BiO24
_symmetry_space_group_name_H-M   'P 1'
_cell_length_a   10.46129500
_cell_length_b   10.46129482
_cell_length_c   6.33651000
_cell_angle_alpha   90.00000000
_cell_angle_beta   90.00000000
_cell_angle_gamma   120.00000079
_symmetry_Int_Tables_number   1
_chemical_formula_structural   ThRe6BiO24
_chemical_formula_sum   'Th1 Re6 Bi1 O24'
_cell_volume   600.55341856
_cell_formula_units_Z   1
loop_
 _symmetry_equiv_pos_site_id
 _symmetry_equiv_pos_as_xyz
  1  'x, y, z'
loop_
 _atom_site_type_symbol
 _atom_site_label
 _atom_site_symmetry_multiplicity
 _atom_site_fract_x
 _atom_site_fract_y
 _atom_site_fract_z
 _atom_site_occupancy
  Th  Th0  1  0.666667  0.333333  0.750000  1
  Re  Re1  1  0.088908  0.395100  0.750000  1
  Re  Re2  1  0.395950  0.304697  0.250000  1
  Re  Re3  1  0.604900  0.693806  0.750000  1
  Re  Re4  1  0.908746  0.604050  0.250000  1
  Re  Re5  1  0.306194  0.911092  0.750000  1
  Re  Re6  1  0.695303  0.091254  0.250000  1
  Bi  Bi7  1  0.333333  0.666667  0.250000  1
  O  O8  1  0.492142  0.650751  0.524303  1
  O  O9  1  0.349249  0.841392  0.524303  1
  O  O10  1  0.848108  0.730115  0.250000  1
  O  O11  1  0.120183  0.853783  0.750000  1
  O  O12  1  0.269885  0.117993  0.250000  1
  O  O13  1  0.146217  0.266400  0.750000  1
  O  O14  1  0.511064  0.347234  0.022416  1
  O  O15  1  0.882007  0.151892  0.250000  1
  O  O16  1  0.102804  0.692479  0.250000  1
  O  O17  1  0.158608  0.507858  0.975697  1
  O  O18  1  0.158608  0.507858  0.524303  1
  O  O19  1  0.894000  0.307148  0.750000  1
  O  O20  1  0.307521  0.410324  0.250000  1
  O  O21  1  0.692852  0.586853  0.750000  1
  O  O22  1  0.836170  0.488936  0.477584  1
  O  O23  1  0.413147  0.106000  0.750000  1
  O  O24  1  0.652766  0.163830  0.022416  1
  O  O25  1  0.492142  0.650751  0.975697  1
  O  O26  1  0.349249  0.841392  0.975697  1
  O  O27  1  0.652766  0.163830  0.477584  1
  O  O28  1  0.511064  0.347234  0.477584  1
  O  O29  1  0.836170  0.488936  0.022416  1
  O  O30  1  0.733600  0.879817  0.750000  1
  O  O31  1  0.589676  0.897196  0.250000  1
