# generated using pymatgen
data_Sr2MgReN4
_symmetry_space_group_name_H-M   'P 1'
_cell_length_a   6.00636000
_cell_length_b   6.31350497
_cell_length_c   6.86472013
_cell_angle_alpha   74.25111983
_cell_angle_beta   90.00000000
_cell_angle_gamma   90.00000000
_symmetry_Int_Tables_number   1
_chemical_formula_structural   Sr2MgReN4
_chemical_formula_sum   'Sr4 Mg2 Re2 N8'
_cell_volume   250.54610469
_cell_formula_units_Z   2
loop_
 _symmetry_equiv_pos_site_id
 _symmetry_equiv_pos_as_xyz
  1  'x, y, z'
loop_
 _atom_site_type_symbol
 _atom_site_label
 _atom_site_symmetry_multiplicity
 _atom_site_fract_x
 _atom_site_fract_y
 _atom_site_fract_z
 _atom_site_occupancy
  Sr  Sr0  1  0.250000  0.240479  0.065022  1
  Sr  Sr1  1  0.750000  0.759521  0.934978  1
  Sr  Sr2  1  0.750000  0.778598  0.427588  1
  Sr  Sr3  1  0.250000  0.221402  0.572412  1
  Mg  Mg4  1  0.750000  0.302630  0.302027  1
  Mg  Mg5  1  0.250000  0.697370  0.697973  1
  Re  Re6  1  0.250000  0.713643  0.198011  1
  Re  Re7  1  0.750000  0.286357  0.801989  1
  N  N8  1  0.502668  0.468124  0.754868  1
  N  N9  1  0.002668  0.531876  0.245132  1
  N  N10  1  0.497332  0.531876  0.245132  1
  N  N11  1  0.997332  0.468124  0.754868  1
  N  N12  1  0.750000  0.113430  0.614779  1
  N  N13  1  0.250000  0.886570  0.385221  1
  N  N14  1  0.750000  0.119727  0.076134  1
  N  N15  1  0.250000  0.880273  0.923866  1
