# generated using pymatgen
data_TbSm(CuP)3
_symmetry_space_group_name_H-M   'P 1'
_cell_length_a   3.88613500
_cell_length_b   10.70381700
_cell_length_c   12.94797000
_cell_angle_alpha   90.00000000
_cell_angle_beta   90.00000000
_cell_angle_gamma   90.00000000
_symmetry_Int_Tables_number   1
_chemical_formula_structural   TbSm(CuP)3
_chemical_formula_sum   'Tb4 Sm4 Cu12 P12'
_cell_volume   538.58994766
_cell_formula_units_Z   4
loop_
 _symmetry_equiv_pos_site_id
 _symmetry_equiv_pos_as_xyz
  1  'x, y, z'
loop_
 _atom_site_type_symbol
 _atom_site_label
 _atom_site_symmetry_multiplicity
 _atom_site_fract_x
 _atom_site_fract_y
 _atom_site_fract_z
 _atom_site_occupancy
  Tb  Tb0  1  0.250000  0.841877  0.502434  1
  Tb  Tb1  1  0.750000  0.341877  0.997566  1
  Tb  Tb2  1  0.250000  0.658123  0.002434  1
  Tb  Tb3  1  0.750000  0.158123  0.497566  1
  Sm  Sm4  1  0.250000  0.930658  0.793572  1
  Sm  Sm5  1  0.750000  0.430658  0.706428  1
  Sm  Sm6  1  0.250000  0.569342  0.293572  1
  Sm  Sm7  1  0.750000  0.069342  0.206428  1
  Cu  Cu8  1  0.250000  0.400957  0.513218  1
  Cu  Cu9  1  0.750000  0.900957  0.986782  1
  Cu  Cu10  1  0.250000  0.099043  0.013218  1
  Cu  Cu11  1  0.750000  0.599043  0.486782  1
  Cu  Cu12  1  0.250000  0.272623  0.332637  1
  Cu  Cu13  1  0.750000  0.772623  0.167363  1
  Cu  Cu14  1  0.250000  0.227377  0.832637  1
  Cu  Cu15  1  0.750000  0.727377  0.667363  1
  Cu  Cu16  1  0.250000  0.860256  0.279129  1
  Cu  Cu17  1  0.750000  0.360256  0.220871  1
  Cu  Cu18  1  0.250000  0.639744  0.779129  1
  Cu  Cu19  1  0.750000  0.139744  0.720871  1
  P  P20  1  0.250000  0.237796  0.644144  1
  P  P21  1  0.750000  0.737796  0.855856  1
  P  P22  1  0.250000  0.262204  0.144144  1
  P  P23  1  0.750000  0.762204  0.355856  1
  P  P24  1  0.250000  0.604434  0.599101  1
  P  P25  1  0.750000  0.104434  0.900899  1
  P  P26  1  0.250000  0.895566  0.099101  1
  P  P27  1  0.750000  0.395566  0.400899  1
  P  P28  1  0.250000  0.057435  0.369962  1
  P  P29  1  0.750000  0.557435  0.130038  1
  P  P30  1  0.250000  0.442565  0.869962  1
  P  P31  1  0.750000  0.942565  0.630038  1
