# generated using pymatgen
data_Ho4ReSi4Rh
_symmetry_space_group_name_H-M   'P 1'
_cell_length_a   5.71334689
_cell_length_b   5.71334690
_cell_length_c   10.05269032
_cell_angle_alpha   116.66185187
_cell_angle_beta   116.66184953
_cell_angle_gamma   43.42433367
_symmetry_Int_Tables_number   1
_chemical_formula_structural   Ho4ReSi4Rh
_chemical_formula_sum   'Ho4 Re1 Si4 Rh1'
_cell_volume   197.50996691
_cell_formula_units_Z   1
loop_
 _symmetry_equiv_pos_site_id
 _symmetry_equiv_pos_as_xyz
  1  'x, y, z'
loop_
 _atom_site_type_symbol
 _atom_site_label
 _atom_site_symmetry_multiplicity
 _atom_site_fract_x
 _atom_site_fract_y
 _atom_site_fract_z
 _atom_site_occupancy
  Ho  Ho0  1  0.005132  0.005132  0.178369  1
  Ho  Ho1  1  0.816146  0.816146  0.391034  1
  Ho  Ho2  1  0.186757  0.186757  0.609982  1
  Ho  Ho3  1  0.991537  0.991537  0.820373  1
  Re  Re4  1  0.272528  0.272528  0.126537  1
  Si  Si5  1  0.643728  0.643728  0.061906  1
  Si  Si6  1  0.504972  0.504972  0.377978  1
  Si  Si7  1  0.492328  0.492328  0.622668  1
  Si  Si8  1  0.358710  0.358710  0.938029  1
  Rh  Rh9  1  0.728161  0.728161  0.873121  1
