# generated using pymatgen
data_Yb10Pd3Ru
_symmetry_space_group_name_H-M   'P 1'
_cell_length_a   8.70643353
_cell_length_b   8.70067045
_cell_length_c   7.52461637
_cell_angle_alpha   82.87354099
_cell_angle_beta   83.15778899
_cell_angle_gamma   43.50714115
_symmetry_Int_Tables_number   1
_chemical_formula_structural   Yb10Pd3Ru
_chemical_formula_sum   'Yb10 Pd3 Ru1'
_cell_volume   389.02957826
_cell_formula_units_Z   1
loop_
 _symmetry_equiv_pos_site_id
 _symmetry_equiv_pos_as_xyz
  1  'x, y, z'
loop_
 _atom_site_type_symbol
 _atom_site_label
 _atom_site_symmetry_multiplicity
 _atom_site_fract_x
 _atom_site_fract_y
 _atom_site_fract_z
 _atom_site_occupancy
  Yb  Yb0  1  0.026550  0.789918  0.913406  1
  Yb  Yb1  1  0.203154  0.968856  0.578875  1
  Yb  Yb2  1  0.974357  0.204507  0.080318  1
  Yb  Yb3  1  0.802068  0.014248  0.423395  1
  Yb  Yb4  1  0.361674  0.208876  0.812147  1
  Yb  Yb5  1  0.804585  0.636205  0.680263  1
  Yb  Yb6  1  0.633656  0.802078  0.180365  1
  Yb  Yb7  1  0.202880  0.368456  0.327454  1
  Yb  Yb8  1  0.570852  0.424845  0.743831  1
  Yb  Yb9  1  0.418757  0.575241  0.259255  1
  Pd  Pd10  1  0.403930  0.818592  0.922281  1
  Pd  Pd11  1  0.817771  0.406284  0.419260  1
  Pd  Pd12  1  0.601660  0.178031  0.079189  1
  Ru  Ru13  1  0.178105  0.603864  0.579962  1
