# generated using pymatgen
data_CeZr(SiTc2)4
_symmetry_space_group_name_H-M   'P 1'
_cell_length_a   7.37308297
_cell_length_b   7.37308297
_cell_length_c   4.09717100
_cell_angle_alpha   90.00000000
_cell_angle_beta   90.00000000
_cell_angle_gamma   88.21054419
_symmetry_Int_Tables_number   1
_chemical_formula_structural   CeZr(SiTc2)4
_chemical_formula_sum   'Ce1 Zr1 Si4 Tc8'
_cell_volume   222.62323333
_cell_formula_units_Z   1
loop_
 _symmetry_equiv_pos_site_id
 _symmetry_equiv_pos_as_xyz
  1  'x, y, z'
loop_
 _atom_site_type_symbol
 _atom_site_label
 _atom_site_symmetry_multiplicity
 _atom_site_fract_x
 _atom_site_fract_y
 _atom_site_fract_z
 _atom_site_occupancy
  Ce  Ce0  1  0.500000  0.500000  0.000000  1
  Zr  Zr1  1  0.000000  0.000000  0.500000  1
  Si  Si2  1  0.199759  0.800241  0.000000  1
  Si  Si3  1  0.283318  0.283318  0.500000  1
  Si  Si4  1  0.716682  0.716682  0.500000  1
  Si  Si5  1  0.800241  0.199759  0.000000  1
  Tc  Tc6  1  0.600313  0.149381  0.500000  1
  Tc  Tc7  1  0.399687  0.850619  0.500000  1
  Tc  Tc8  1  0.149381  0.600313  0.500000  1
  Tc  Tc9  1  0.850619  0.399687  0.500000  1
  Tc  Tc10  1  0.084084  0.341114  0.000000  1
  Tc  Tc11  1  0.915916  0.658886  0.000000  1
  Tc  Tc12  1  0.658886  0.915916  0.000000  1
  Tc  Tc13  1  0.341114  0.084084  0.000000  1
