# generated using pymatgen
data_La5Ag2Ru
_symmetry_space_group_name_H-M   'P 1'
_cell_length_a   8.91418300
_cell_length_b   8.66403500
_cell_length_c   12.44760300
_cell_angle_alpha   90.00000000
_cell_angle_beta   90.00000000
_cell_angle_gamma   90.00000000
_symmetry_Int_Tables_number   1
_chemical_formula_structural   La5Ag2Ru
_chemical_formula_sum   'La20 Ag8 Ru4'
_cell_volume   961.36315217
_cell_formula_units_Z   4
loop_
 _symmetry_equiv_pos_site_id
 _symmetry_equiv_pos_as_xyz
  1  'x, y, z'
loop_
 _atom_site_type_symbol
 _atom_site_label
 _atom_site_symmetry_multiplicity
 _atom_site_fract_x
 _atom_site_fract_y
 _atom_site_fract_z
 _atom_site_occupancy
  La  La0  1  0.648084  0.750000  0.711741  1
  La  La1  1  0.351916  0.250000  0.288259  1
  La  La2  1  0.148084  0.250000  0.788259  1
  La  La3  1  0.851916  0.750000  0.211741  1
  La  La4  1  0.098076  0.750000  0.798875  1
  La  La5  1  0.901924  0.250000  0.201125  1
  La  La6  1  0.598076  0.250000  0.701125  1
  La  La7  1  0.401924  0.750000  0.298875  1
  La  La8  1  0.556961  0.750000  0.008966  1
  La  La9  1  0.443039  0.250000  0.991034  1
  La  La10  1  0.056961  0.250000  0.491034  1
  La  La11  1  0.943039  0.750000  0.508966  1
  La  La12  1  0.819909  0.460222  0.929857  1
  La  La13  1  0.180091  0.539778  0.070143  1
  La  La14  1  0.319909  0.539778  0.570143  1
  La  La15  1  0.180091  0.960222  0.070143  1
  La  La16  1  0.680091  0.460222  0.429857  1
  La  La17  1  0.819909  0.039778  0.929857  1
  La  La18  1  0.680091  0.039778  0.429857  1
  La  La19  1  0.319909  0.960222  0.570143  1
  Ag  Ag20  1  0.908542  0.033363  0.668410  1
  Ag  Ag21  1  0.091458  0.966637  0.331590  1
  Ag  Ag22  1  0.408542  0.966637  0.831590  1
  Ag  Ag23  1  0.091458  0.533363  0.331590  1
  Ag  Ag24  1  0.591458  0.033363  0.168410  1
  Ag  Ag25  1  0.908542  0.466637  0.668410  1
  Ag  Ag26  1  0.591458  0.466637  0.168410  1
  Ag  Ag27  1  0.408542  0.533363  0.831590  1
  Ru  Ru28  1  0.932890  0.750000  0.986522  1
  Ru  Ru29  1  0.067110  0.250000  0.013478  1
  Ru  Ru30  1  0.432890  0.250000  0.513478  1
  Ru  Ru31  1  0.567110  0.750000  0.486522  1
