# generated using pymatgen
data_CaLa2(Bi2Rh)4
_symmetry_space_group_name_H-M   'P 1'
_cell_length_a   4.30621500
_cell_length_b   11.00367400
_cell_length_c   16.84315200
_cell_angle_alpha   90.00000000
_cell_angle_beta   90.00000000
_cell_angle_gamma   90.00000000
_symmetry_Int_Tables_number   1
_chemical_formula_structural   CaLa2(Bi2Rh)4
_chemical_formula_sum   'Ca2 La4 Bi16 Rh8'
_cell_volume   798.09904777
_cell_formula_units_Z   2
loop_
 _symmetry_equiv_pos_site_id
 _symmetry_equiv_pos_as_xyz
  1  'x, y, z'
loop_
 _atom_site_type_symbol
 _atom_site_label
 _atom_site_symmetry_multiplicity
 _atom_site_fract_x
 _atom_site_fract_y
 _atom_site_fract_z
 _atom_site_occupancy
  Ca  Ca0  1  0.500000  0.000000  0.500000  1
  Ca  Ca1  1  0.500000  0.500000  0.000000  1
  La  La2  1  0.500000  0.866451  0.191663  1
  La  La3  1  0.500000  0.133549  0.808337  1
  La  La4  1  0.500000  0.366451  0.308337  1
  La  La5  1  0.500000  0.633549  0.691663  1
  Bi  Bi6  1  0.000000  0.114046  0.217802  1
  Bi  Bi7  1  0.000000  0.885954  0.782198  1
  Bi  Bi8  1  0.000000  0.614046  0.282198  1
  Bi  Bi9  1  0.000000  0.385954  0.717802  1
  Bi  Bi10  1  0.000000  0.399406  0.143289  1
  Bi  Bi11  1  0.000000  0.600594  0.856711  1
  Bi  Bi12  1  0.000000  0.899406  0.356711  1
  Bi  Bi13  1  0.000000  0.100594  0.643289  1
  Bi  Bi14  1  0.500000  0.124876  0.040238  1
  Bi  Bi15  1  0.500000  0.875124  0.959762  1
  Bi  Bi16  1  0.500000  0.624876  0.459762  1
  Bi  Bi17  1  0.500000  0.375124  0.540238  1
  Bi  Bi18  1  0.000000  0.692623  0.081504  1
  Bi  Bi19  1  0.000000  0.307377  0.918496  1
  Bi  Bi20  1  0.000000  0.192623  0.418496  1
  Bi  Bi21  1  0.000000  0.807377  0.581504  1
  Rh  Rh22  1  0.000000  0.949490  0.081765  1
  Rh  Rh23  1  0.000000  0.050510  0.918235  1
  Rh  Rh24  1  0.000000  0.449490  0.418235  1
  Rh  Rh25  1  0.000000  0.550510  0.581765  1
  Rh  Rh26  1  0.500000  0.578130  0.172427  1
  Rh  Rh27  1  0.500000  0.421870  0.827573  1
  Rh  Rh28  1  0.500000  0.078130  0.327573  1
  Rh  Rh29  1  0.500000  0.921870  0.672427  1
