# generated using pymatgen
data_TbHo15MgAg3Rh4
_symmetry_space_group_name_H-M   'P 1'
_cell_length_a   9.51618082
_cell_length_b   9.53131502
_cell_length_c   9.51429900
_cell_angle_alpha   60.05904235
_cell_angle_beta   60.00654476
_cell_angle_gamma   60.06968605
_symmetry_Int_Tables_number   1
_chemical_formula_structural   TbHo15MgAg3Rh4
_chemical_formula_sum   'Tb1 Ho15 Mg1 Ag3 Rh4'
_cell_volume   610.83040006
_cell_formula_units_Z   1
loop_
 _symmetry_equiv_pos_site_id
 _symmetry_equiv_pos_as_xyz
  1  'x, y, z'
loop_
 _atom_site_type_symbol
 _atom_site_label
 _atom_site_symmetry_multiplicity
 _atom_site_fract_x
 _atom_site_fract_y
 _atom_site_fract_z
 _atom_site_occupancy
  Tb  Tb0  1  0.933467  0.936750  0.564891  1
  Ho  Ho1  1  0.351936  0.349872  0.349525  1
  Ho  Ho2  1  0.351936  0.349872  0.948666  1
  Ho  Ho3  1  0.352086  0.948918  0.349497  1
  Ho  Ho4  1  0.936104  0.355124  0.354386  1
  Ho  Ho5  1  0.811182  0.187945  0.187870  1
  Ho  Ho6  1  0.185948  0.813259  0.814085  1
  Ho  Ho7  1  0.185948  0.813259  0.186708  1
  Ho  Ho8  1  0.811182  0.187945  0.813003  1
  Ho  Ho9  1  0.185696  0.186639  0.813832  1
  Ho  Ho10  1  0.811320  0.812249  0.188215  1
  Ho  Ho11  1  0.933357  0.564415  0.564730  1
  Ho  Ho12  1  0.563611  0.935527  0.935812  1
  Ho  Ho13  1  0.563611  0.935527  0.565051  1
  Ho  Ho14  1  0.933357  0.564415  0.937498  1
  Ho  Ho15  1  0.563596  0.565250  0.935578  1
  Mg  Mg16  1  0.284649  0.571878  0.571737  1
  Ag  Ag17  1  0.582477  0.584268  0.584155  1
  Ag  Ag18  1  0.582477  0.584268  0.249102  1
  Ag  Ag19  1  0.582086  0.249554  0.584181  1
  Rh  Rh20  1  0.141117  0.144824  0.143729  1
  Rh  Rh21  1  0.141117  0.144824  0.570328  1
  Rh  Rh22  1  0.141378  0.569864  0.144378  1
  Rh  Rh23  1  0.570362  0.143553  0.143043  1
