# generated using pymatgen
data_Mn4AlSnPd10
_symmetry_space_group_name_H-M   'P 1'
_cell_length_a   4.11362400
_cell_length_b   5.53442836
_cell_length_c   10.90192756
_cell_angle_alpha   89.13719505
_cell_angle_beta   90.00000000
_cell_angle_gamma   90.00000000
_symmetry_Int_Tables_number   1
_chemical_formula_structural   Mn4AlSnPd10
_chemical_formula_sum   'Mn4 Al1 Sn1 Pd10'
_cell_volume   248.17121758
_cell_formula_units_Z   1
loop_
 _symmetry_equiv_pos_site_id
 _symmetry_equiv_pos_as_xyz
  1  'x, y, z'
loop_
 _atom_site_type_symbol
 _atom_site_label
 _atom_site_symmetry_multiplicity
 _atom_site_fract_x
 _atom_site_fract_y
 _atom_site_fract_z
 _atom_site_occupancy
  Mn  Mn0  1  0.500000  0.178411  0.366134  1
  Mn  Mn1  1  0.500000  0.821589  0.633866  1
  Mn  Mn2  1  0.500000  0.680388  0.143905  1
  Mn  Mn3  1  0.500000  0.319612  0.856095  1
  Al  Al4  1  0.000000  0.500000  0.500000  1
  Sn  Sn5  1  0.000000  0.000000  0.000000  1
  Pd  Pd6  1  0.500000  0.201942  0.118581  1
  Pd  Pd7  1  0.500000  0.798058  0.881419  1
  Pd  Pd8  1  0.500000  0.684666  0.393857  1
  Pd  Pd9  1  0.500000  0.315334  0.606143  1
  Pd  Pd10  1  0.000000  0.000000  0.500000  1
  Pd  Pd11  1  0.000000  0.500000  0.000000  1
  Pd  Pd12  1  0.000000  0.924763  0.247890  1
  Pd  Pd13  1  0.000000  0.075237  0.752110  1
  Pd  Pd14  1  0.000000  0.425858  0.263581  1
  Pd  Pd15  1  0.000000  0.574142  0.736419  1
