# generated using pymatgen
data_Nd3ReO8
_symmetry_space_group_name_H-M   'P 1'
_cell_length_a   6.32423100
_cell_length_b   7.46511103
_cell_length_c   7.46767465
_cell_angle_alpha   69.41387916
_cell_angle_beta   90.00000000
_cell_angle_gamma   90.00000000
_symmetry_Int_Tables_number   1
_chemical_formula_structural   Nd3ReO8
_chemical_formula_sum   'Nd6 Re2 O16'
_cell_volume   330.04441229
_cell_formula_units_Z   2
loop_
 _symmetry_equiv_pos_site_id
 _symmetry_equiv_pos_as_xyz
  1  'x, y, z'
loop_
 _atom_site_type_symbol
 _atom_site_label
 _atom_site_symmetry_multiplicity
 _atom_site_fract_x
 _atom_site_fract_y
 _atom_site_fract_z
 _atom_site_occupancy
  Nd  Nd0  1  0.750000  0.108585  0.662246  1
  Nd  Nd1  1  0.250000  0.891415  0.337754  1
  Nd  Nd2  1  0.250000  0.399466  0.399320  1
  Nd  Nd3  1  0.750000  0.600534  0.600680  1
  Nd  Nd4  1  0.250000  0.337175  0.891402  1
  Nd  Nd5  1  0.750000  0.662825  0.108598  1
  Re  Re6  1  0.250000  0.819500  0.820059  1
  Re  Re7  1  0.750000  0.180500  0.179941  1
  O  O8  1  0.999894  0.333470  0.666380  1
  O  O9  1  0.499894  0.666530  0.333620  1
  O  O10  1  0.000106  0.666530  0.333620  1
  O  O11  1  0.500106  0.333470  0.666380  1
  O  O12  1  0.951614  0.806664  0.806585  1
  O  O13  1  0.451614  0.193336  0.193415  1
  O  O14  1  0.048386  0.193336  0.193415  1
  O  O15  1  0.548386  0.806664  0.806585  1
  O  O16  1  0.750000  0.965397  0.413403  1
  O  O17  1  0.250000  0.034603  0.586597  1
  O  O18  1  0.750000  0.339655  0.339237  1
  O  O19  1  0.250000  0.660345  0.660763  1
  O  O20  1  0.750000  0.413938  0.965362  1
  O  O21  1  0.250000  0.586062  0.034638  1
  O  O22  1  0.750000  0.030622  0.029654  1
  O  O23  1  0.250000  0.969378  0.970346  1
