# generated using pymatgen
data_La3ThCdRe
_symmetry_space_group_name_H-M   'P 1'
_cell_length_a   10.10668702
_cell_length_b   10.10668719
_cell_length_c   10.10668800
_cell_angle_alpha   60.00000389
_cell_angle_beta   60.00000333
_cell_angle_gamma   60.00000467
_symmetry_Int_Tables_number   1
_chemical_formula_structural   La3ThCdRe
_chemical_formula_sum   'La12 Th4 Cd4 Re4'
_cell_volume   729.98097425
_cell_formula_units_Z   4
loop_
 _symmetry_equiv_pos_site_id
 _symmetry_equiv_pos_as_xyz
  1  'x, y, z'
loop_
 _atom_site_type_symbol
 _atom_site_label
 _atom_site_symmetry_multiplicity
 _atom_site_fract_x
 _atom_site_fract_y
 _atom_site_fract_z
 _atom_site_occupancy
  La  La0  1  0.058140  0.441860  0.441860  1
  La  La1  1  0.441860  0.058140  0.058140  1
  La  La2  1  0.441860  0.058140  0.441860  1
  La  La3  1  0.058140  0.441860  0.058140  1
  La  La4  1  0.441860  0.441860  0.058140  1
  La  La5  1  0.058140  0.058140  0.441860  1
  La  La6  1  0.193915  0.806085  0.806085  1
  La  La7  1  0.806085  0.193915  0.193915  1
  La  La8  1  0.806085  0.193915  0.806085  1
  La  La9  1  0.193915  0.806085  0.193915  1
  La  La10  1  0.806085  0.806085  0.193915  1
  La  La11  1  0.193915  0.193915  0.806085  1
  Th  Th12  1  0.593106  0.593106  0.593106  1
  Th  Th13  1  0.593106  0.593106  0.220683  1
  Th  Th14  1  0.593106  0.220683  0.593106  1
  Th  Th15  1  0.220683  0.593106  0.593106  1
  Cd  Cd16  1  0.828711  0.828711  0.828711  1
  Cd  Cd17  1  0.828711  0.828711  0.513867  1
  Cd  Cd18  1  0.828711  0.513867  0.828711  1
  Cd  Cd19  1  0.513867  0.828711  0.828711  1
  Re  Re20  1  0.390607  0.390607  0.390607  1
  Re  Re21  1  0.390607  0.390607  0.828180  1
  Re  Re22  1  0.390607  0.828180  0.390607  1
  Re  Re23  1  0.828180  0.390607  0.390607  1
