# generated using pymatgen
data_Tb6Y2Sc12Si15As
_symmetry_space_group_name_H-M   'P 1'
_cell_length_a   7.14057072
_cell_length_b   7.38266834
_cell_length_c   13.98810171
_cell_angle_alpha   90.04933323
_cell_angle_beta   88.93285430
_cell_angle_gamma   90.16785436
_symmetry_Int_Tables_number   1
_chemical_formula_structural   Tb6Y2Sc12Si15As
_chemical_formula_sum   'Tb6 Y2 Sc12 Si15 As1'
_cell_volume   737.27197758
_cell_formula_units_Z   1
loop_
 _symmetry_equiv_pos_site_id
 _symmetry_equiv_pos_as_xyz
  1  'x, y, z'
loop_
 _atom_site_type_symbol
 _atom_site_label
 _atom_site_symmetry_multiplicity
 _atom_site_fract_x
 _atom_site_fract_y
 _atom_site_fract_z
 _atom_site_occupancy
  Tb  Tb0  1  0.487943  0.675304  0.902588  1
  Tb  Tb1  1  0.992110  0.821995  0.595930  1
  Tb  Tb2  1  0.512606  0.325210  0.097531  1
  Tb  Tb3  1  0.006647  0.178022  0.403738  1
  Tb  Tb4  1  0.505145  0.322170  0.401881  1
  Tb  Tb5  1  0.499184  0.676575  0.597767  1
  Y  Y6  1  0.012673  0.175886  0.097390  1
  Y  Y7  1  0.987968  0.824732  0.902376  1
  Sc  Sc8  1  0.164140  0.500855  0.749963  1
  Sc  Sc9  1  0.835706  0.498952  0.252773  1
  Sc  Sc10  1  0.336119  0.000722  0.251077  1
  Sc  Sc11  1  0.664027  0.999232  0.749340  1
  Sc  Sc12  1  0.339014  0.171187  0.626940  1
  Sc  Sc13  1  0.662019  0.827444  0.373469  1
  Sc  Sc14  1  0.159312  0.672347  0.377090  1
  Sc  Sc15  1  0.669072  0.823834  0.125486  1
  Sc  Sc16  1  0.837721  0.328556  0.622665  1
  Sc  Sc17  1  0.330523  0.175767  0.874049  1
  Sc  Sc18  1  0.831807  0.323028  0.874562  1
  Sc  Sc19  1  0.168386  0.676997  0.124981  1
  Si  Si20  1  0.035101  0.117603  0.749190  1
  Si  Si21  1  0.964633  0.882671  0.249813  1
  Si  Si22  1  0.460543  0.618397  0.248856  1
  Si  Si23  1  0.538409  0.382116  0.750908  1
  Si  Si24  1  0.287924  0.872036  0.750231  1
  Si  Si25  1  0.712909  0.126487  0.249222  1
  Si  Si26  1  0.210924  0.375159  0.249834  1
  Si  Si27  1  0.790483  0.625522  0.750248  1
  Si  Si28  1  0.814313  0.540395  0.456886  1
  Si  Si29  1  0.335367  0.962374  0.460875  1
  Si  Si30  1  0.844315  0.535606  0.039436  1
  Si  Si31  1  0.664593  0.037381  0.539860  1
  Si  Si32  1  0.155413  0.465076  0.960171  1
  Si  Si33  1  0.655118  0.034830  0.959791  1
  Si  Si34  1  0.344847  0.965738  0.040077  1
  As  As35  1  0.182986  0.459791  0.543007  1
