# generated using pymatgen
data_Sc8NiIr3Ru4
_symmetry_space_group_name_H-M   'P 1'
_cell_length_a   6.38814100
_cell_length_b   4.57538500
_cell_length_c   9.16727900
_cell_angle_alpha   89.99999375
_cell_angle_beta   89.99966084
_cell_angle_gamma   89.99996954
_symmetry_Int_Tables_number   1
_chemical_formula_structural   Sc8NiIr3Ru4
_chemical_formula_sum   'Sc8 Ni1 Ir3 Ru4'
_cell_volume   267.94310540
_cell_formula_units_Z   1
loop_
 _symmetry_equiv_pos_site_id
 _symmetry_equiv_pos_as_xyz
  1  'x, y, z'
loop_
 _atom_site_type_symbol
 _atom_site_label
 _atom_site_symmetry_multiplicity
 _atom_site_fract_x
 _atom_site_fract_y
 _atom_site_fract_z
 _atom_site_occupancy
  Sc  Sc0  1  0.000356  0.749999  0.124571  1
  Sc  Sc1  1  0.499869  0.750000  0.124600  1
  Sc  Sc2  1  0.000091  0.249998  0.374984  1
  Sc  Sc3  1  0.500117  0.249998  0.375003  1
  Sc  Sc4  1  0.499646  0.749999  0.625417  1
  Sc  Sc5  1  0.000158  0.749997  0.625436  1
  Sc  Sc6  1  0.499123  0.249998  0.874970  1
  Sc  Sc7  1  0.000660  0.250001  0.874988  1
  Ni  Ni8  1  0.249936  0.750000  0.875011  1
  Ir  Ir9  1  0.750064  0.250000  0.124192  1
  Ir  Ir10  1  0.250066  0.749999  0.375006  1
  Ir  Ir11  1  0.749938  0.249998  0.625770  1
  Ru  Ru12  1  0.250056  0.250009  0.123341  1
  Ru  Ru13  1  0.750094  0.750000  0.375037  1
  Ru  Ru14  1  0.249915  0.249998  0.626646  1
  Ru  Ru15  1  0.749909  0.749999  0.875029  1
