# generated using pymatgen
data_Yb6ZrAl15Os7
_symmetry_space_group_name_H-M   'P 1'
_cell_length_a   8.98712609
_cell_length_b   8.98712579
_cell_length_c   9.02637777
_cell_angle_alpha   60.14374596
_cell_angle_beta   60.14373838
_cell_angle_gamma   59.99999802
_symmetry_Int_Tables_number   1
_chemical_formula_structural   Yb6ZrAl15Os7
_chemical_formula_sum   'Yb6 Zr1 Al15 Os7'
_cell_volume   516.63083421
_cell_formula_units_Z   1
loop_
 _symmetry_equiv_pos_site_id
 _symmetry_equiv_pos_as_xyz
  1  'x, y, z'
loop_
 _atom_site_type_symbol
 _atom_site_label
 _atom_site_symmetry_multiplicity
 _atom_site_fract_x
 _atom_site_fract_y
 _atom_site_fract_z
 _atom_site_occupancy
  Yb  Yb0  1  0.705438  0.705438  0.290114  1
  Yb  Yb1  1  0.299011  0.705438  0.290114  1
  Yb  Yb2  1  0.705438  0.299011  0.290114  1
  Yb  Yb3  1  0.290924  0.290924  0.711414  1
  Yb  Yb4  1  0.706738  0.290924  0.711414  1
  Yb  Yb5  1  0.290924  0.706738  0.711414  1
  Zr  Zr6  1  0.881163  0.881163  0.356509  1
  Al  Al7  1  0.879734  0.359239  0.881292  1
  Al  Al8  1  0.359239  0.879734  0.881292  1
  Al  Al9  1  0.879734  0.879734  0.881292  1
  Al  Al10  1  0.121793  0.121793  0.634623  1
  Al  Al11  1  0.120300  0.641297  0.118105  1
  Al  Al12  1  0.641297  0.120300  0.118105  1
  Al  Al13  1  0.120300  0.120300  0.118105  1
  Al  Al14  1  0.671944  0.671944  0.984169  1
  Al  Al15  1  0.668629  0.987250  0.675494  1
  Al  Al16  1  0.987250  0.668629  0.675494  1
  Al  Al17  1  0.668629  0.668629  0.675494  1
  Al  Al18  1  0.328258  0.328258  0.015226  1
  Al  Al19  1  0.329789  0.012937  0.327485  1
  Al  Al20  1  0.012937  0.329789  0.327485  1
  Al  Al21  1  0.329789  0.329789  0.327485  1
  Os  Os22  1  0.003042  0.003042  0.990872  1
  Os  Os23  1  0.001062  0.001062  0.501799  1
  Os  Os24  1  0.496076  0.001062  0.501799  1
  Os  Os25  1  0.001062  0.496076  0.501799  1
  Os  Os26  1  0.499619  0.499619  0.000497  1
  Os  Os27  1  0.000266  0.499619  0.000497  1
  Os  Os28  1  0.499619  0.000266  0.000497  1
