# generated using pymatgen
data_YHo3FeCo4
_symmetry_space_group_name_H-M   'P 1'
_cell_length_a   5.49534211
_cell_length_b   5.49534170
_cell_length_c   8.75350726
_cell_angle_alpha   72.23129603
_cell_angle_beta   72.23129635
_cell_angle_gamma   42.12855617
_symmetry_Int_Tables_number   1
_chemical_formula_structural   YHo3FeCo4
_chemical_formula_sum   'Y1 Ho3 Fe1 Co4'
_cell_volume   167.57173629
_cell_formula_units_Z   1
loop_
 _symmetry_equiv_pos_site_id
 _symmetry_equiv_pos_as_xyz
  1  'x, y, z'
loop_
 _atom_site_type_symbol
 _atom_site_label
 _atom_site_symmetry_multiplicity
 _atom_site_fract_x
 _atom_site_fract_y
 _atom_site_fract_z
 _atom_site_occupancy
  Y  Y0  1  0.743089  0.743089  0.660319  1
  Ho  Ho1  1  0.257263  0.257263  0.338920  1
  Ho  Ho2  1  0.391049  0.391049  0.883465  1
  Ho  Ho3  1  0.609032  0.609032  0.117181  1
  Fe  Fe4  1  0.500246  0.500246  0.499597  1
  Co  Co5  1  0.033551  0.033551  0.637919  1
  Co  Co6  1  0.966846  0.966846  0.361237  1
  Co  Co7  1  0.088699  0.088699  0.879103  1
  Co  Co8  1  0.910226  0.910226  0.122260  1
