# generated using pymatgen
data_Dy10Ho2Co4TcBi
_symmetry_space_group_name_H-M   'P 1'
_cell_length_a   8.33399031
_cell_length_b   8.33396852
_cell_length_c   8.33406402
_cell_angle_alpha   111.57095211
_cell_angle_beta   110.52601266
_cell_angle_gamma   106.36358292
_symmetry_Int_Tables_number   1
_chemical_formula_structural   Dy10Ho2Co4TcBi
_chemical_formula_sum   'Dy10 Ho2 Co4 Tc1 Bi1'
_cell_volume   444.57288114
_cell_formula_units_Z   1
loop_
 _symmetry_equiv_pos_site_id
 _symmetry_equiv_pos_as_xyz
  1  'x, y, z'
loop_
 _atom_site_type_symbol
 _atom_site_label
 _atom_site_symmetry_multiplicity
 _atom_site_fract_x
 _atom_site_fract_y
 _atom_site_fract_z
 _atom_site_occupancy
  Dy  Dy0  1  0.817704  0.716577  0.534233  1
  Dy  Dy1  1  0.182296  0.283423  0.465767  1
  Dy  Dy2  1  0.182291  0.716524  0.898872  1
  Dy  Dy3  1  0.817709  0.283476  0.101128  1
  Dy  Dy4  1  0.689924  0.380915  0.691075  1
  Dy  Dy5  1  0.310076  0.619085  0.308925  1
  Dy  Dy6  1  0.689921  0.998850  0.309012  1
  Dy  Dy7  1  0.310079  0.001150  0.690988  1
  Dy  Dy8  1  0.589909  0.786320  0.803596  1
  Dy  Dy9  1  0.410091  0.213680  0.196404  1
  Ho  Ho10  1  0.982762  0.786322  0.196445  1
  Ho  Ho11  1  0.017238  0.213678  0.803555  1
  Co  Co12  1  0.621758  0.000037  0.621721  1
  Co  Co13  1  0.378242  0.999963  0.378279  1
  Co  Co14  1  0.110681  0.610703  0.499978  1
  Co  Co15  1  0.889319  0.389297  0.500022  1
  Tc  Tc16  1  0.000000  0.000000  0.000000  1
  Bi  Bi17  1  0.500000  0.500000  0.000000  1
