# generated using pymatgen
data_TaNb(Ag3Se4)2
_symmetry_space_group_name_H-M   'P 1'
_cell_length_a   8.89294300
_cell_length_b   8.89294300
_cell_length_c   6.28181500
_cell_angle_alpha   90.00000000
_cell_angle_beta   90.00000000
_cell_angle_gamma   90.00000000
_symmetry_Int_Tables_number   1
_chemical_formula_structural   TaNb(Ag3Se4)2
_chemical_formula_sum   'Ta1 Nb1 Ag6 Se8'
_cell_volume   496.79379131
_cell_formula_units_Z   1
loop_
 _symmetry_equiv_pos_site_id
 _symmetry_equiv_pos_as_xyz
  1  'x, y, z'
loop_
 _atom_site_type_symbol
 _atom_site_label
 _atom_site_symmetry_multiplicity
 _atom_site_fract_x
 _atom_site_fract_y
 _atom_site_fract_z
 _atom_site_occupancy
  Ta  Ta0  1  0.500000  0.500000  0.000000  1
  Nb  Nb1  1  0.000000  0.000000  0.000000  1
  Ag  Ag2  1  0.248933  0.751067  0.000000  1
  Ag  Ag3  1  0.751067  0.248933  0.000000  1
  Ag  Ag4  1  0.248933  0.248933  0.000000  1
  Ag  Ag5  1  0.751067  0.751067  0.000000  1
  Ag  Ag6  1  0.000000  0.000000  0.500000  1
  Ag  Ag7  1  0.500000  0.500000  0.500000  1
  Se  Se8  1  0.500000  0.271532  0.771809  1
  Se  Se9  1  0.000000  0.770453  0.769753  1
  Se  Se10  1  0.500000  0.728468  0.771809  1
  Se  Se11  1  0.000000  0.229547  0.769753  1
  Se  Se12  1  0.770453  0.000000  0.230247  1
  Se  Se13  1  0.271532  0.500000  0.228191  1
  Se  Se14  1  0.229547  0.000000  0.230247  1
  Se  Se15  1  0.728468  0.500000  0.228191  1
