# generated using pymatgen
data_YHf2(Fe2Si)3
_symmetry_space_group_name_H-M   'P 1'
_cell_length_a   5.03557600
_cell_length_b   5.03557673
_cell_length_c   15.35098100
_cell_angle_alpha   90.00000000
_cell_angle_beta   90.00000000
_cell_angle_gamma   120.00000837
_symmetry_Int_Tables_number   1
_chemical_formula_structural   YHf2(Fe2Si)3
_chemical_formula_sum   'Y2 Hf4 Fe12 Si6'
_cell_volume   337.10492841
_cell_formula_units_Z   2
loop_
 _symmetry_equiv_pos_site_id
 _symmetry_equiv_pos_as_xyz
  1  'x, y, z'
loop_
 _atom_site_type_symbol
 _atom_site_label
 _atom_site_symmetry_multiplicity
 _atom_site_fract_x
 _atom_site_fract_y
 _atom_site_fract_z
 _atom_site_occupancy
  Y  Y0  1  0.333333  0.666667  0.750000  1
  Y  Y1  1  0.666667  0.333333  0.250000  1
  Hf  Hf2  1  0.333333  0.666667  0.962993  1
  Hf  Hf3  1  0.666667  0.333333  0.037007  1
  Hf  Hf4  1  0.666667  0.333333  0.462993  1
  Hf  Hf5  1  0.333333  0.666667  0.537007  1
  Fe  Fe6  1  0.169041  0.830959  0.375255  1
  Fe  Fe7  1  0.169041  0.338083  0.375255  1
  Fe  Fe8  1  0.661917  0.830959  0.375255  1
  Fe  Fe9  1  0.830959  0.169041  0.624745  1
  Fe  Fe10  1  0.830959  0.661917  0.624745  1
  Fe  Fe11  1  0.338083  0.169041  0.624745  1
  Fe  Fe12  1  0.830959  0.169041  0.875255  1
  Fe  Fe13  1  0.830959  0.661917  0.875255  1
  Fe  Fe14  1  0.338083  0.169041  0.875255  1
  Fe  Fe15  1  0.169041  0.830959  0.124745  1
  Fe  Fe16  1  0.169041  0.338083  0.124745  1
  Fe  Fe17  1  0.661917  0.830959  0.124745  1
  Si  Si18  1  0.333333  0.666667  0.250000  1
  Si  Si19  1  0.666667  0.333333  0.750000  1
  Si  Si20  1  0.000000  0.000000  0.250000  1
  Si  Si21  1  0.000000  0.000000  0.750000  1
  Si  Si22  1  0.000000  0.000000  0.500000  1
  Si  Si23  1  0.000000  0.000000  0.000000  1
