# generated using pymatgen
data_PrNd3(Si5Pt3)2
_symmetry_space_group_name_H-M   'P 1'
_cell_length_a   8.27502910
_cell_length_b   8.27747352
_cell_length_c   8.27747375
_cell_angle_alpha   136.42435261
_cell_angle_beta   105.55304179
_cell_angle_gamma   90.42892913
_symmetry_Int_Tables_number   1
_chemical_formula_structural   PrNd3(Si5Pt3)2
_chemical_formula_sum   'Pr1 Nd3 Si10 Pt6'
_cell_volume   358.71848172
_cell_formula_units_Z   1
loop_
 _symmetry_equiv_pos_site_id
 _symmetry_equiv_pos_as_xyz
  1  'x, y, z'
loop_
 _atom_site_type_symbol
 _atom_site_label
 _atom_site_symmetry_multiplicity
 _atom_site_fract_x
 _atom_site_fract_y
 _atom_site_fract_z
 _atom_site_occupancy
  Pr  Pr0  1  0.604000  0.871342  0.732658  1
  Nd  Nd1  1  0.860991  0.628667  0.232324  1
  Nd  Nd2  1  0.138991  0.371348  0.767643  1
  Nd  Nd3  1  0.396241  0.128608  0.267633  1
  Si  Si4  1  0.499932  0.750067  0.249738  1
  Si  Si5  1  0.499932  0.250194  0.749865  1
  Si  Si6  1  0.229025  0.979369  0.749903  1
  Si  Si7  1  0.770700  0.520402  0.750024  1
  Si  Si8  1  0.770700  0.020676  0.250298  1
  Si  Si9  1  0.229025  0.479121  0.249656  1
  Si  Si10  1  0.036274  0.886922  0.149352  1
  Si  Si11  1  0.964336  0.113608  0.850728  1
  Si  Si12  1  0.737572  0.386913  0.350659  1
  Si  Si13  1  0.262147  0.612723  0.649423  1
  Pt  Pt14  1  0.000248  0.750021  0.750120  1
  Pt  Pt15  1  0.000248  0.250128  0.250227  1
  Pt  Pt16  1  0.253705  0.863654  0.390052  1
  Pt  Pt17  1  0.746304  0.136504  0.609799  1
  Pt  Pt18  1  0.473255  0.363670  0.109585  1
  Pt  Pt19  1  0.526375  0.636060  0.890315  1
