# generated using pymatgen
data_Tm3Lu5(B6Ru)4
_symmetry_space_group_name_H-M   'P 1'
_cell_length_a   3.59931000
_cell_length_b   9.03611801
_cell_length_c   11.40675001
_cell_angle_alpha   90.00519658
_cell_angle_beta   90.00000000
_cell_angle_gamma   90.00000000
_symmetry_Int_Tables_number   1
_chemical_formula_structural   Tm3Lu5(B6Ru)4
_chemical_formula_sum   'Tm3 Lu5 B24 Ru4'
_cell_volume   370.99073943
_cell_formula_units_Z   1
loop_
 _symmetry_equiv_pos_site_id
 _symmetry_equiv_pos_as_xyz
  1  'x, y, z'
loop_
 _atom_site_type_symbol
 _atom_site_label
 _atom_site_symmetry_multiplicity
 _atom_site_fract_x
 _atom_site_fract_y
 _atom_site_fract_z
 _atom_site_occupancy
  Tm  Tm0  1  0.000000  0.321517  0.414071  1
  Tm  Tm1  1  0.000000  0.678500  0.585963  1
  Tm  Tm2  1  0.000000  0.821541  0.085888  1
  Lu  Lu3  1  0.000000  0.178835  0.914170  1
  Lu  Lu4  1  0.000000  0.944041  0.372800  1
  Lu  Lu5  1  0.000000  0.056022  0.627248  1
  Lu  Lu6  1  0.000000  0.443967  0.127070  1
  Lu  Lu7  1  0.000000  0.555893  0.872867  1
  B  B8  1  0.500000  0.553862  0.433592  1
  B  B9  1  0.500000  0.446082  0.566472  1
  B  B10  1  0.500000  0.054013  0.066119  1
  B  B11  1  0.500000  0.946448  0.933596  1
  B  B12  1  0.500000  0.749364  0.420232  1
  B  B13  1  0.500000  0.250634  0.579880  1
  B  B14  1  0.500000  0.249148  0.079362  1
  B  B15  1  0.500000  0.750777  0.920220  1
  B  B16  1  0.500000  0.792195  0.265686  1
  B  B17  1  0.500000  0.207678  0.734622  1
  B  B18  1  0.500000  0.292147  0.234134  1
  B  B19  1  0.500000  0.707841  0.765750  1
  B  B20  1  0.500000  0.631171  0.184274  1
  B  B21  1  0.500000  0.368460  0.815887  1
  B  B22  1  0.500000  0.131233  0.315651  1
  B  B23  1  0.500000  0.868905  0.684402  1
  B  B24  1  0.500000  0.982246  0.213065  1
  B  B25  1  0.500000  0.018161  0.787078  1
  B  B26  1  0.500000  0.482150  0.286782  1
  B  B27  1  0.500000  0.517700  0.713283  1
  B  B28  1  0.500000  0.605359  0.029064  1
  B  B29  1  0.500000  0.393999  0.970755  1
  B  B30  1  0.500000  0.105283  0.470987  1
  B  B31  1  0.500000  0.894778  0.529071  1
  Ru  Ru32  1  0.000000  0.638055  0.320706  1
  Ru  Ru33  1  0.000000  0.361932  0.679301  1
  Ru  Ru34  1  0.000000  0.138097  0.179259  1
  Ru  Ru35  1  0.000000  0.861968  0.820695  1
