# generated using pymatgen
data_TbGd3(MoO6)2
_symmetry_space_group_name_H-M   'P 1'
_cell_length_a   5.46313025
_cell_length_b   10.04761341
_cell_length_c   10.04763714
_cell_angle_alpha   68.24061304
_cell_angle_beta   75.06813303
_cell_angle_gamma   75.06834336
_symmetry_Int_Tables_number   1
_chemical_formula_structural   TbGd3(MoO6)2
_chemical_formula_sum   'Tb2 Gd6 Mo4 O24'
_cell_volume   486.78913486
_cell_formula_units_Z   2
loop_
 _symmetry_equiv_pos_site_id
 _symmetry_equiv_pos_as_xyz
  1  'x, y, z'
loop_
 _atom_site_type_symbol
 _atom_site_label
 _atom_site_symmetry_multiplicity
 _atom_site_fract_x
 _atom_site_fract_y
 _atom_site_fract_z
 _atom_site_occupancy
  Tb  Tb0  1  0.750001  0.392772  0.607228  1
  Tb  Tb1  1  0.249999  0.607228  0.392773  1
  Gd  Gd2  1  0.620137  0.784250  0.552594  1
  Gd  Gd3  1  0.120135  0.552592  0.784253  1
  Gd  Gd4  1  0.379864  0.215750  0.447406  1
  Gd  Gd5  1  0.879865  0.447407  0.215747  1
  Gd  Gd6  1  0.749999  0.863783  0.136218  1
  Gd  Gd7  1  0.250001  0.136217  0.863783  1
  Mo  Mo8  1  0.060465  0.010813  0.296587  1
  Mo  Mo9  1  0.439531  0.703413  0.989186  1
  Mo  Mo10  1  0.939535  0.989186  0.703413  1
  Mo  Mo11  1  0.560469  0.296587  0.010814  1
  O  O12  1  0.922792  0.573152  0.607897  1
  O  O13  1  0.577208  0.392103  0.426848  1
  O  O14  1  0.077208  0.426848  0.392103  1
  O  O15  1  0.422792  0.607897  0.573152  1
  O  O16  1  0.919590  0.807911  0.337120  1
  O  O17  1  0.580406  0.662882  0.192090  1
  O  O18  1  0.080410  0.192090  0.662881  1
  O  O19  1  0.419594  0.337119  0.807910  1
  O  O20  1  0.367908  0.884058  0.327106  1
  O  O21  1  0.132087  0.672894  0.115943  1
  O  O22  1  0.632092  0.115942  0.672894  1
  O  O23  1  0.867913  0.327107  0.884057  1
  O  O24  1  0.636289  0.289156  0.180779  1
  O  O25  1  0.863712  0.819222  0.710844  1
  O  O26  1  0.363710  0.710843  0.819222  1
  O  O27  1  0.136288  0.180779  0.289156  1
  O  O28  1  0.515008  0.112486  0.047959  1
  O  O29  1  0.984992  0.952042  0.887514  1
  O  O30  1  0.758281  0.024762  0.430540  1
  O  O31  1  0.015009  0.047958  0.112486  1
  O  O32  1  0.258283  0.430539  0.024762  1
  O  O33  1  0.241719  0.975238  0.569460  1
  O  O34  1  0.741717  0.569460  0.975238  1
  O  O35  1  0.484992  0.887513  0.952041  1
