# generated using pymatgen
data_TaTi4Nb19As12
_symmetry_space_group_name_H-M   'P 1'
_cell_length_a   3.50479900
_cell_length_b   11.99852849
_cell_length_c   14.78288880
_cell_angle_alpha   89.89270367
_cell_angle_beta   90.00000000
_cell_angle_gamma   90.00000000
_symmetry_Int_Tables_number   1
_chemical_formula_structural   TaTi4Nb19As12
_chemical_formula_sum   'Ta1 Ti4 Nb19 As12'
_cell_volume   621.65531581
_cell_formula_units_Z   1
loop_
 _symmetry_equiv_pos_site_id
 _symmetry_equiv_pos_as_xyz
  1  'x, y, z'
loop_
 _atom_site_type_symbol
 _atom_site_label
 _atom_site_symmetry_multiplicity
 _atom_site_fract_x
 _atom_site_fract_y
 _atom_site_fract_z
 _atom_site_occupancy
  Ta  Ta0  1  0.500000  0.026530  0.389321  1
  Ti  Ti1  1  0.000000  0.185303  0.294933  1
  Ti  Ti2  1  0.500000  0.913992  0.078089  1
  Ti  Ti3  1  0.500000  0.686128  0.204137  1
  Ti  Ti4  1  0.500000  0.385314  0.571066  1
  Nb  Nb5  1  0.000000  0.528157  0.110111  1
  Nb  Nb6  1  0.000000  0.885279  0.929663  1
  Nb  Nb7  1  0.000000  0.857606  0.475536  1
  Nb  Nb8  1  0.000000  0.587964  0.578621  1
  Nb  Nb9  1  0.500000  0.614002  0.427011  1
  Nb  Nb10  1  0.000000  0.084574  0.757202  1
  Nb  Nb11  1  0.500000  0.646397  0.980421  1
  Nb  Nb12  1  0.000000  0.142134  0.520231  1
  Nb  Nb13  1  0.000000  0.411032  0.422673  1
  Nb  Nb14  1  0.500000  0.415301  0.260471  1
  Nb  Nb15  1  0.500000  0.583742  0.744089  1
  Nb  Nb16  1  0.500000  0.972495  0.609310  1
  Nb  Nb17  1  0.500000  0.357919  0.023872  1
  Nb  Nb18  1  0.000000  0.114351  0.073049  1
  Nb  Nb19  1  0.500000  0.087237  0.922873  1
  Nb  Nb20  1  0.000000  0.472516  0.890279  1
  Nb  Nb21  1  0.000000  0.811928  0.704365  1
  Nb  Nb22  1  0.500000  0.311622  0.795042  1
  Nb  Nb23  1  0.000000  0.915806  0.240409  1
  As  As24  1  0.000000  0.424666  0.700237  1
  As  As25  1  0.000000  0.246988  0.917120  1
  As  As26  1  0.000000  0.309904  0.154607  1
  As  As27  1  0.500000  0.746505  0.582581  1
  As  As28  1  0.500000  0.252441  0.411121  1
  As  As29  1  0.000000  0.575679  0.295282  1
  As  As30  1  0.500000  0.190577  0.648722  1
  As  As31  1  0.000000  0.758850  0.089700  1
  As  As32  1  0.500000  0.809293  0.344983  1
  As  As33  1  0.000000  0.689064  0.850318  1
  As  As34  1  0.500000  0.074427  0.203822  1
  As  As35  1  0.500000  0.924276  0.798734  1
