# generated using pymatgen
data_V2RhC
_symmetry_space_group_name_H-M   'P 1'
_cell_length_a   2.86808600
_cell_length_b   2.86808484
_cell_length_c   13.01330400
_cell_angle_alpha   90.00000000
_cell_angle_beta   90.00000000
_cell_angle_gamma   120.00001335
_symmetry_Int_Tables_number   1
_chemical_formula_structural   V2RhC
_chemical_formula_sum   'V4 Rh2 C2'
_cell_volume   92.70481948
_cell_formula_units_Z   2
loop_
 _symmetry_equiv_pos_site_id
 _symmetry_equiv_pos_as_xyz
  1  'x, y, z'
loop_
 _atom_site_type_symbol
 _atom_site_label
 _atom_site_symmetry_multiplicity
 _atom_site_fract_x
 _atom_site_fract_y
 _atom_site_fract_z
 _atom_site_occupancy
  V  V0  1  0.333333  0.666667  0.412461  1
  V  V1  1  0.666667  0.333333  0.587539  1
  V  V2  1  0.666667  0.333333  0.912461  1
  V  V3  1  0.333333  0.666667  0.087539  1
  Rh  Rh4  1  0.333333  0.666667  0.750000  1
  Rh  Rh5  1  0.666667  0.333333  0.250000  1
  C  C6  1  0.000000  0.000000  0.500000  1
  C  C7  1  0.000000  0.000000  0.000000  1
