# generated using pymatgen
data_Th4CdNi4Hg
_symmetry_space_group_name_H-M   'P 1'
_cell_length_a   7.71846900
_cell_length_b   7.71846900
_cell_length_c   3.69488000
_cell_angle_alpha   90.00000000
_cell_angle_beta   90.00000000
_cell_angle_gamma   90.00000000
_symmetry_Int_Tables_number   1
_chemical_formula_structural   Th4CdNi4Hg
_chemical_formula_sum   'Th4 Cd1 Ni4 Hg1'
_cell_volume   220.12160291
_cell_formula_units_Z   1
loop_
 _symmetry_equiv_pos_site_id
 _symmetry_equiv_pos_as_xyz
  1  'x, y, z'
loop_
 _atom_site_type_symbol
 _atom_site_label
 _atom_site_symmetry_multiplicity
 _atom_site_fract_x
 _atom_site_fract_y
 _atom_site_fract_z
 _atom_site_occupancy
  Th  Th0  1  0.327949  0.828073  0.500000  1
  Th  Th1  1  0.828073  0.672051  0.500000  1
  Th  Th2  1  0.171927  0.327949  0.500000  1
  Th  Th3  1  0.672051  0.171927  0.500000  1
  Cd  Cd4  1  0.500000  0.500000  0.000000  1
  Ni  Ni5  1  0.379581  0.125280  0.000000  1
  Ni  Ni6  1  0.874720  0.379581  0.000000  1
  Ni  Ni7  1  0.125280  0.620419  0.000000  1
  Ni  Ni8  1  0.620419  0.874720  0.000000  1
  Hg  Hg9  1  0.000000  0.000000  0.000000  1
