# generated using pymatgen
data_Pr6GeAsI6
_symmetry_space_group_name_H-M   'P 1'
_cell_length_a   10.92232875
_cell_length_b   10.92232927
_cell_length_c   10.89193619
_cell_angle_alpha   109.47588274
_cell_angle_beta   109.47588493
_cell_angle_gamma   109.57468516
_symmetry_Int_Tables_number   1
_chemical_formula_structural   Pr6GeAsI6
_chemical_formula_sum   'Pr12 Ge2 As2 I12'
_cell_volume   998.86632953
_cell_formula_units_Z   2
loop_
 _symmetry_equiv_pos_site_id
 _symmetry_equiv_pos_as_xyz
  1  'x, y, z'
loop_
 _atom_site_type_symbol
 _atom_site_label
 _atom_site_symmetry_multiplicity
 _atom_site_fract_x
 _atom_site_fract_y
 _atom_site_fract_z
 _atom_site_occupancy
  Pr  Pr0  1  0.465525  0.483202  0.231970  1
  Pr  Pr1  1  0.751233  0.233555  0.268030  1
  Pr  Pr2  1  0.750873  0.017151  0.483461  1
  Pr  Pr3  1  0.232588  0.466310  0.483461  1
  Pr  Pr4  1  0.266445  0.748767  0.231970  1
  Pr  Pr5  1  0.033690  0.267412  0.016539  1
  Pr  Pr6  1  0.016798  0.034475  0.268030  1
  Pr  Pr7  1  0.482849  0.749127  0.016539  1
  Pr  Pr8  1  0.482032  0.232032  0.464064  1
  Pr  Pr9  1  0.015831  0.484169  0.750000  1
  Pr  Pr10  1  0.267968  0.017968  0.035936  1
  Pr  Pr11  1  0.234169  0.265831  0.750000  1
  Ge  Ge12  1  0.000570  0.250570  0.501140  1
  Ge  Ge13  1  0.249430  0.499430  0.998860  1
  As  As14  1  0.249661  0.250339  0.250000  1
  As  As15  1  0.500339  0.999661  0.250000  1
  I  I16  1  0.249940  0.757531  0.743124  1
  I  I17  1  0.514406  0.506815  0.756876  1
  I  I18  1  0.987020  0.744050  0.994038  1
  I  I19  1  0.742469  0.250060  0.756876  1
  I  I20  1  0.993185  0.985594  0.743124  1
  I  I21  1  0.250012  0.992980  0.505962  1
  I  I22  1  0.755950  0.512980  0.505962  1
  I  I23  1  0.507020  0.249988  0.994038  1
  I  I24  1  0.756977  0.743023  0.250000  1
  I  I25  1  0.743325  0.993325  0.986651  1
  I  I26  1  0.993023  0.506977  0.250000  1
  I  I27  1  0.506675  0.756675  0.513349  1
