# generated using pymatgen
data_DyY11Fe2Br17
_symmetry_space_group_name_H-M   'P 1'
_cell_length_a   9.21674169
_cell_length_b   11.13521945
_cell_length_c   11.11650200
_cell_angle_alpha   93.53601977
_cell_angle_beta   104.58540428
_cell_angle_gamma   114.19866504
_symmetry_Int_Tables_number   1
_chemical_formula_structural   DyY11Fe2Br17
_chemical_formula_sum   'Dy1 Y11 Fe2 Br17'
_cell_volume   989.37670581
_cell_formula_units_Z   1
loop_
 _symmetry_equiv_pos_site_id
 _symmetry_equiv_pos_as_xyz
  1  'x, y, z'
loop_
 _atom_site_type_symbol
 _atom_site_label
 _atom_site_symmetry_multiplicity
 _atom_site_fract_x
 _atom_site_fract_y
 _atom_site_fract_z
 _atom_site_occupancy
  Dy  Dy0  1  0.847729  0.711078  0.848638  1
  Y  Y1  1  0.059215  0.512952  0.322163  1
  Y  Y2  1  0.982654  0.809388  0.577735  1
  Y  Y3  1  0.645220  0.239066  0.285997  1
  Y  Y4  1  0.016631  0.190522  0.421625  1
  Y  Y5  1  0.226198  0.671952  0.992674  1
  Y  Y6  1  0.256519  0.988652  0.890561  1
  Y  Y7  1  0.353663  0.760850  0.714531  1
  Y  Y8  1  0.940511  0.486310  0.677900  1
  Y  Y9  1  0.742644  0.011607  0.109246  1
  Y  Y10  1  0.153956  0.288770  0.150594  1
  Y  Y11  1  0.774326  0.328396  0.008060  1
  Fe  Fe12  1  0.102372  0.738234  0.785323  1
  Fe  Fe13  1  0.897172  0.261684  0.214605  1
  Br  Br14  1  0.787805  0.525589  0.419962  1
  Br  Br15  1  0.647652  0.421388  0.763399  1
  Br  Br16  1  0.848724  0.901186  0.328906  1
  Br  Br17  1  0.328368  0.215843  0.365103  1
  Br  Br18  1  0.152731  0.098974  0.670025  1
  Br  Br19  1  0.583368  0.051199  0.848164  1
  Br  Br20  1  0.761857  0.189499  0.538159  1
  Br  Br21  1  0.549503  0.713191  0.951557  1
  Br  Br22  1  0.353754  0.578765  0.237774  1
  Br  Br23  1  0.211586  0.474221  0.580876  1
  Br  Br24  1  0.058071  0.373147  0.900453  1
  Br  Br25  1  0.449769  0.287368  0.047711  1
  Br  Br26  1  0.998863  0.999241  0.999149  1
  Br  Br27  1  0.237254  0.809496  0.462118  1
  Br  Br28  1  0.415625  0.948755  0.151988  1
  Br  Br29  1  0.673158  0.785007  0.635724  1
  Br  Br30  1  0.943097  0.627670  0.099282  1
