# generated using pymatgen
data_PrDyCo2(SiPd)2
_symmetry_space_group_name_H-M   'P 1'
_cell_length_a   9.11561500
_cell_length_b   9.11561298
_cell_length_c   4.00961100
_cell_angle_alpha   90.00000000
_cell_angle_beta   90.00000000
_cell_angle_gamma   155.17297853
_symmetry_Int_Tables_number   1
_chemical_formula_structural   PrDyCo2(SiPd)2
_chemical_formula_sum   'Pr1 Dy1 Co2 Si2 Pd2'
_cell_volume   139.89411435
_cell_formula_units_Z   1
loop_
 _symmetry_equiv_pos_site_id
 _symmetry_equiv_pos_as_xyz
  1  'x, y, z'
loop_
 _atom_site_type_symbol
 _atom_site_label
 _atom_site_symmetry_multiplicity
 _atom_site_fract_x
 _atom_site_fract_y
 _atom_site_fract_z
 _atom_site_occupancy
  Pr  Pr0  1  0.108955  0.891045  0.750000  1
  Dy  Dy1  1  0.887725  0.112275  0.250000  1
  Co  Co2  1  0.252701  0.747299  0.250000  1
  Co  Co3  1  0.751550  0.248450  0.750000  1
  Si  Si4  1  0.315698  0.684302  0.750000  1
  Si  Si5  1  0.686891  0.313109  0.250000  1
  Pd  Pd6  1  0.547411  0.452589  0.250000  1
  Pd  Pd7  1  0.449071  0.550929  0.750000  1
