# generated using pymatgen
data_ZnIr4Pb3O14
_symmetry_space_group_name_H-M   'P 1'
_cell_length_a   7.33541275
_cell_length_b   7.23511103
_cell_length_c   7.33541400
_cell_angle_alpha   59.54034334
_cell_angle_beta   60.00000336
_cell_angle_gamma   59.54034485
_symmetry_Int_Tables_number   1
_chemical_formula_structural   ZnIr4Pb3O14
_chemical_formula_sum   'Zn1 Ir4 Pb3 O14'
_cell_volume   273.35489218
_cell_formula_units_Z   1
loop_
 _symmetry_equiv_pos_site_id
 _symmetry_equiv_pos_as_xyz
  1  'x, y, z'
loop_
 _atom_site_type_symbol
 _atom_site_label
 _atom_site_symmetry_multiplicity
 _atom_site_fract_x
 _atom_site_fract_y
 _atom_site_fract_z
 _atom_site_occupancy
  Zn  Zn0  1  0.125000  0.625000  0.125000  1
  Ir  Ir1  1  0.125000  0.625000  0.625000  1
  Ir  Ir2  1  0.625000  0.125000  0.625000  1
  Ir  Ir3  1  0.625000  0.625000  0.125000  1
  Ir  Ir4  1  0.625000  0.625000  0.625000  1
  Pb  Pb5  1  0.625000  0.125000  0.125000  1
  Pb  Pb6  1  0.125000  0.125000  0.625000  1
  Pb  Pb7  1  0.125000  0.125000  0.125000  1
  O  O8  1  0.692208  0.705455  0.301168  1
  O  O9  1  0.295279  0.291653  0.706534  1
  O  O10  1  0.706534  0.291653  0.706534  1
  O  O11  1  0.301168  0.705455  0.301168  1
  O  O12  1  0.301168  0.705455  0.692208  1
  O  O13  1  0.706534  0.291653  0.295279  1
  O  O14  1  0.557792  0.544545  0.948832  1
  O  O15  1  0.954721  0.958347  0.543466  1
  O  O16  1  0.543466  0.958347  0.543466  1
  O  O17  1  0.948832  0.544545  0.948832  1
  O  O18  1  0.948832  0.544545  0.557792  1
  O  O19  1  0.543466  0.958347  0.954721  1
  O  O20  1  0.232610  0.302170  0.232610  1
  O  O21  1  0.017390  0.947830  0.017390  1
