# generated using pymatgen
data_La5Pr(In3Sn2)2
_symmetry_space_group_name_H-M   'P 1'
_cell_length_a   6.67169600
_cell_length_b   6.67169548
_cell_length_c   10.44367900
_cell_angle_alpha   90.00000000
_cell_angle_beta   90.00000000
_cell_angle_gamma   102.72783808
_symmetry_Int_Tables_number   1
_chemical_formula_structural   La5Pr(In3Sn2)2
_chemical_formula_sum   'La5 Pr1 In6 Sn4'
_cell_volume   453.44124937
_cell_formula_units_Z   1
loop_
 _symmetry_equiv_pos_site_id
 _symmetry_equiv_pos_as_xyz
  1  'x, y, z'
loop_
 _atom_site_type_symbol
 _atom_site_label
 _atom_site_symmetry_multiplicity
 _atom_site_fract_x
 _atom_site_fract_y
 _atom_site_fract_z
 _atom_site_occupancy
  La  La0  1  0.368734  0.368734  0.750000  1
  La  La1  1  0.206264  0.794002  0.499785  1
  La  La2  1  0.206264  0.794002  0.000215  1
  La  La3  1  0.794002  0.206264  0.499785  1
  La  La4  1  0.794002  0.206264  0.000215  1
  Pr  Pr5  1  0.632209  0.632209  0.250000  1
  In  In6  1  0.017895  0.017895  0.250000  1
  In  In7  1  0.980794  0.980794  0.750000  1
  In  In8  1  0.306625  0.306625  0.050365  1
  In  In9  1  0.694025  0.694025  0.951629  1
  In  In10  1  0.306625  0.306625  0.449635  1
  In  In11  1  0.694025  0.694025  0.548371  1
  Sn  Sn12  1  0.494893  0.072918  0.250000  1
  Sn  Sn13  1  0.925541  0.505182  0.750000  1
  Sn  Sn14  1  0.505182  0.925541  0.750000  1
  Sn  Sn15  1  0.072918  0.494893  0.250000  1
