# generated using pymatgen
data_Ho3Er13(In3Rh)2
_symmetry_space_group_name_H-M   'P 1'
_cell_length_a   10.35751500
_cell_length_b   10.35751329
_cell_length_c   6.97390400
_cell_angle_alpha   90.00000000
_cell_angle_beta   90.00000000
_cell_angle_gamma   119.99999588
_symmetry_Int_Tables_number   1
_chemical_formula_structural   Ho3Er13(In3Rh)2
_chemical_formula_sum   'Ho3 Er13 In6 Rh2'
_cell_volume   647.91447794
_cell_formula_units_Z   1
loop_
 _symmetry_equiv_pos_site_id
 _symmetry_equiv_pos_as_xyz
  1  'x, y, z'
loop_
 _atom_site_type_symbol
 _atom_site_label
 _atom_site_symmetry_multiplicity
 _atom_site_fract_x
 _atom_site_fract_y
 _atom_site_fract_z
 _atom_site_occupancy
  Ho  Ho0  1  0.532368  0.064737  0.793979  1
  Ho  Ho1  1  0.935263  0.467632  0.793979  1
  Ho  Ho2  1  0.532368  0.467632  0.793979  1
  Er  Er3  1  0.467369  0.934737  0.293916  1
  Er  Er4  1  0.065263  0.532631  0.293916  1
  Er  Er5  1  0.467369  0.532631  0.293916  1
  Er  Er6  1  0.823618  0.647236  0.499493  1
  Er  Er7  1  0.352764  0.176382  0.499493  1
  Er  Er8  1  0.823618  0.176382  0.499493  1
  Er  Er9  1  0.176367  0.352734  0.999965  1
  Er  Er10  1  0.647266  0.823633  0.999965  1
  Er  Er11  1  0.176367  0.823633  0.999965  1
  Er  Er12  1  0.666667  0.333333  0.174040  1
  Er  Er13  1  0.333333  0.666667  0.673624  1
  Er  Er14  1  0.000000  0.000000  0.778827  1
  Er  Er15  1  0.000000  0.000000  0.279062  1
  In  In16  1  0.837314  0.674630  0.038886  1
  In  In17  1  0.325370  0.162686  0.038886  1
  In  In18  1  0.837314  0.162686  0.038886  1
  In  In19  1  0.162752  0.325502  0.538629  1
  In  In20  1  0.674498  0.837248  0.538629  1
  In  In21  1  0.162752  0.837248  0.538629  1
  Rh  Rh22  1  0.666667  0.333333  0.567643  1
  Rh  Rh23  1  0.333333  0.666667  0.068108  1
