# generated using pymatgen
data_Sm3U5Tc(B8W)3
_symmetry_space_group_name_H-M   'P 1'
_cell_length_a   3.67835600
_cell_length_b   9.37111274
_cell_length_c   11.48426784
_cell_angle_alpha   90.14511933
_cell_angle_beta   90.00000000
_cell_angle_gamma   90.00000000
_symmetry_Int_Tables_number   1
_chemical_formula_structural   Sm3U5Tc(B8W)3
_chemical_formula_sum   'Sm3 U5 Tc1 B24 W3'
_cell_volume   395.86475885
_cell_formula_units_Z   1
loop_
 _symmetry_equiv_pos_site_id
 _symmetry_equiv_pos_as_xyz
  1  'x, y, z'
loop_
 _atom_site_type_symbol
 _atom_site_label
 _atom_site_symmetry_multiplicity
 _atom_site_fract_x
 _atom_site_fract_y
 _atom_site_fract_z
 _atom_site_occupancy
  Sm  Sm0  1  0.000000  0.337601  0.408167  1
  Sm  Sm1  1  0.000000  0.663246  0.591395  1
  Sm  Sm2  1  0.000000  0.835406  0.092580  1
  U  U3  1  0.000000  0.164181  0.907379  1
  U  U4  1  0.000000  0.956074  0.395177  1
  U  U5  1  0.000000  0.042257  0.603715  1
  U  U6  1  0.000000  0.457064  0.104339  1
  U  U7  1  0.000000  0.543775  0.896514  1
  Tc  Tc8  1  0.000000  0.647174  0.317500  1
  B  B9  1  0.500000  0.553883  0.429449  1
  B  B10  1  0.500000  0.446295  0.569983  1
  B  B11  1  0.500000  0.055021  0.066041  1
  B  B12  1  0.500000  0.951714  0.930128  1
  B  B13  1  0.500000  0.744052  0.421858  1
  B  B14  1  0.500000  0.253643  0.577681  1
  B  B15  1  0.500000  0.244909  0.074939  1
  B  B16  1  0.500000  0.754652  0.922679  1
  B  B17  1  0.500000  0.801883  0.275253  1
  B  B18  1  0.500000  0.194959  0.727801  1
  B  B19  1  0.500000  0.303971  0.224594  1
  B  B20  1  0.500000  0.696958  0.775661  1
  B  B21  1  0.500000  0.643277  0.188573  1
  B  B22  1  0.500000  0.354077  0.813950  1
  B  B23  1  0.500000  0.143383  0.312265  1
  B  B24  1  0.500000  0.856793  0.687524  1
  B  B25  1  0.500000  0.989345  0.220834  1
  B  B26  1  0.500000  0.014229  0.780952  1
  B  B27  1  0.500000  0.491296  0.279871  1
  B  B28  1  0.500000  0.510568  0.721548  1
  B  B29  1  0.500000  0.637256  0.038216  1
  B  B30  1  0.500000  0.357668  0.960847  1
  B  B31  1  0.500000  0.136041  0.461949  1
  B  B32  1  0.500000  0.862504  0.537322  1
  W  W33  1  0.000000  0.350115  0.685335  1
  W  W34  1  0.000000  0.147347  0.178376  1
  W  W35  1  0.000000  0.857383  0.819603  1
