# generated using pymatgen
data_Sr2AlCo11O24
_symmetry_space_group_name_H-M   'P 1'
_cell_length_a   7.83361400
_cell_length_b   7.83361424
_cell_length_c   9.11584271
_cell_angle_alpha   56.29433027
_cell_angle_beta   56.29432852
_cell_angle_gamma   66.35175002
_symmetry_Int_Tables_number   1
_chemical_formula_structural   Sr2AlCo11O24
_chemical_formula_sum   'Sr2 Al1 Co11 O24'
_cell_volume   383.61023038
_cell_formula_units_Z   1
loop_
 _symmetry_equiv_pos_site_id
 _symmetry_equiv_pos_as_xyz
  1  'x, y, z'
loop_
 _atom_site_type_symbol
 _atom_site_label
 _atom_site_symmetry_multiplicity
 _atom_site_fract_x
 _atom_site_fract_y
 _atom_site_fract_z
 _atom_site_occupancy
  Sr  Sr0  1  0.722350  0.282117  0.993697  1
  Sr  Sr1  1  0.282117  0.722350  0.993697  1
  Al  Al2  1  0.337553  0.337553  0.821902  1
  Co  Co3  1  0.004182  0.671173  0.819287  1
  Co  Co4  1  0.671173  0.004182  0.819287  1
  Co  Co5  1  0.995074  0.326719  0.184354  1
  Co  Co6  1  0.660010  0.660010  0.182672  1
  Co  Co7  1  0.326719  0.995074  0.184354  1
  Co  Co8  1  0.144752  0.144752  0.524759  1
  Co  Co9  1  0.479366  0.812244  0.524131  1
  Co  Co10  1  0.812244  0.479366  0.524131  1
  Co  Co11  1  0.856655  0.856655  0.471842  1
  Co  Co12  1  0.191555  0.520971  0.471197  1
  Co  Co13  1  0.520971  0.191555  0.471197  1
  O  O14  1  0.361330  0.361330  0.595443  1
  O  O15  1  0.026817  0.692145  0.599804  1
  O  O16  1  0.692145  0.026817  0.599804  1
  O  O17  1  0.972197  0.306866  0.400253  1
  O  O18  1  0.637552  0.637552  0.402652  1
  O  O19  1  0.306866  0.972197  0.400253  1
  O  O20  1  0.340890  0.340890  0.343993  1
  O  O21  1  0.007150  0.673876  0.348169  1
  O  O22  1  0.673876  0.007150  0.348169  1
  O  O23  1  0.998899  0.331686  0.644056  1
  O  O24  1  0.663488  0.663488  0.649241  1
  O  O25  1  0.331686  0.998899  0.644056  1
  O  O26  1  0.625179  0.290505  0.741708  1
  O  O27  1  0.290505  0.625179  0.741708  1
  O  O28  1  0.956233  0.956233  0.738034  1
  O  O29  1  0.707054  0.373201  0.264957  1
  O  O30  1  0.373201  0.707054  0.264957  1
  O  O31  1  0.040658  0.040658  0.273186  1
  O  O32  1  0.956038  0.622664  0.066374  1
  O  O33  1  0.622664  0.956038  0.066374  1
  O  O34  1  0.291427  0.291427  0.070568  1
  O  O35  1  0.374093  0.040140  0.937057  1
  O  O36  1  0.040140  0.374093  0.937057  1
  O  O37  1  0.705191  0.705191  0.935620  1
