# generated using pymatgen
data_SrVFe2(PO4)3
_symmetry_space_group_name_H-M   'P 1'
_cell_length_a   6.61958093
_cell_length_b   9.25672437
_cell_length_c   9.25637036
_cell_angle_alpha   95.00882410
_cell_angle_beta   110.95106366
_cell_angle_gamma   110.95159955
_symmetry_Int_Tables_number   1
_chemical_formula_structural   SrVFe2(PO4)3
_chemical_formula_sum   'Sr2 V2 Fe4 P6 O24'
_cell_volume   479.37820793
_cell_formula_units_Z   2
loop_
 _symmetry_equiv_pos_site_id
 _symmetry_equiv_pos_as_xyz
  1  'x, y, z'
loop_
 _atom_site_type_symbol
 _atom_site_label
 _atom_site_symmetry_multiplicity
 _atom_site_fract_x
 _atom_site_fract_y
 _atom_site_fract_z
 _atom_site_occupancy
  Sr  Sr0  1  0.399352  0.749999  0.249998  1
  Sr  Sr1  1  0.600646  0.250003  0.750004  1
  V  V2  1  0.000002  0.000008  0.000007  1
  V  V3  1  0.999973  0.499991  0.499983  1
  Fe  Fe4  1  0.500030  0.382672  0.117328  1
  Fe  Fe5  1  0.000031  0.117309  0.382650  1
  Fe  Fe6  1  0.000025  0.882675  0.617360  1
  Fe  Fe7  1  0.500040  0.617327  0.882662  1
  P  P8  1  0.000001  0.324191  0.175817  1
  P  P9  1  0.905980  0.750020  0.250014  1
  P  P10  1  0.500000  0.175802  0.324199  1
  P  P11  1  0.499994  0.824195  0.675804  1
  P  P12  1  0.094017  0.249984  0.749984  1
  P  P13  1  0.999998  0.675810  0.824185  1
  O  O14  1  0.777524  0.346346  0.073617  1
  O  O15  1  0.644429  0.634035  0.134038  1
  O  O16  1  0.343024  0.139935  0.138778  1
  O  O17  1  0.935647  0.138770  0.139927  1
  O  O18  1  0.222475  0.426381  0.153658  1
  O  O19  1  0.042133  0.841949  0.158067  1
  O  O20  1  0.042131  0.658079  0.341956  1
  O  O21  1  0.642442  0.073618  0.346348  1
  O  O22  1  0.656957  0.361222  0.360069  1
  O  O23  1  0.064335  0.360081  0.361241  1
  O  O24  1  0.876299  0.865979  0.365951  1
  O  O25  1  0.357562  0.153647  0.426396  1
  O  O26  1  0.642460  0.846365  0.573625  1
  O  O27  1  0.123703  0.134031  0.634042  1
  O  O28  1  0.935642  0.639911  0.638757  1
  O  O29  1  0.343025  0.638781  0.639929  1
  O  O30  1  0.357535  0.926375  0.653636  1
  O  O31  1  0.957870  0.341929  0.658053  1
  O  O32  1  0.957860  0.158045  0.841926  1
  O  O33  1  0.777523  0.573619  0.846350  1
  O  O34  1  0.064332  0.861228  0.860077  1
  O  O35  1  0.656962  0.860075  0.861227  1
  O  O36  1  0.355571  0.365960  0.865967  1
  O  O37  1  0.222474  0.653654  0.926374  1
