# generated using pymatgen
data_SmPaSN2
_symmetry_space_group_name_H-M   'P 1'
_cell_length_a   3.83799400
_cell_length_b   3.83799337
_cell_length_c   6.83161500
_cell_angle_alpha   90.00000000
_cell_angle_beta   90.00000000
_cell_angle_gamma   120.00002266
_symmetry_Int_Tables_number   1
_chemical_formula_structural   SmPaSN2
_chemical_formula_sum   'Sm1 Pa1 S1 N2'
_cell_volume   87.14900393
_cell_formula_units_Z   1
loop_
 _symmetry_equiv_pos_site_id
 _symmetry_equiv_pos_as_xyz
  1  'x, y, z'
loop_
 _atom_site_type_symbol
 _atom_site_label
 _atom_site_symmetry_multiplicity
 _atom_site_fract_x
 _atom_site_fract_y
 _atom_site_fract_z
 _atom_site_occupancy
  Sm  Sm0  1  0.333333  0.666667  0.279912  1
  Pa  Pa1  1  0.666667  0.333333  0.703022  1
  S  S2  1  0.000000  0.000000  0.980849  1
  N  N3  1  0.666667  0.333333  0.389722  1
  N  N4  1  0.333333  0.666667  0.646495  1
