# generated using pymatgen
data_Ti8VGeBi4
_symmetry_space_group_name_H-M   'P 1'
_cell_length_a   7.93130855
_cell_length_b   7.93069869
_cell_length_c   7.93130902
_cell_angle_alpha   95.76576923
_cell_angle_beta   95.75255927
_cell_angle_gamma   143.07043165
_symmetry_Int_Tables_number   1
_chemical_formula_structural   Ti8VGeBi4
_chemical_formula_sum   'Ti8 V1 Ge1 Bi4'
_cell_volume   284.30463962
_cell_formula_units_Z   1
loop_
 _symmetry_equiv_pos_site_id
 _symmetry_equiv_pos_as_xyz
  1  'x, y, z'
loop_
 _atom_site_type_symbol
 _atom_site_label
 _atom_site_symmetry_multiplicity
 _atom_site_fract_x
 _atom_site_fract_y
 _atom_site_fract_z
 _atom_site_occupancy
  Ti  Ti0  1  0.575735  0.692698  0.283172  1
  Ti  Ti1  1  0.924212  0.207406  0.116930  1
  Ti  Ti2  1  0.292603  0.575826  0.883148  1
  Ti  Ti3  1  0.807323  0.924174  0.716777  1
  Ti  Ti4  1  0.692738  0.409495  0.116930  1
  Ti  Ti5  1  0.090474  0.807302  0.883035  1
  Ti  Ti6  1  0.409522  0.292594  0.716805  1
  Ti  Ti7  1  0.207435  0.090505  0.283243  1
  V  V8  1  0.249971  0.250000  0.999971  1
  Ge  Ge9  1  0.749992  0.750000  0.999992  1
  Bi  Bi10  1  0.359740  0.859720  0.219475  1
  Bi  Bi11  1  0.140255  0.359718  0.499963  1
  Bi  Bi12  1  0.640245  0.140282  0.780537  1
  Bi  Bi13  1  0.859755  0.640280  0.500020  1
