# generated using pymatgen
data_Y2Tm2Ga5Ni9
_symmetry_space_group_name_H-M   'P 1'
_cell_length_a   5.18561656
_cell_length_b   5.18561366
_cell_length_c   12.17603600
_cell_angle_alpha   77.70509199
_cell_angle_beta   77.70509896
_cell_angle_gamma   60.00001287
_symmetry_Int_Tables_number   1
_chemical_formula_structural   Y2Tm2Ga5Ni9
_chemical_formula_sum   'Y2 Tm2 Ga5 Ni9'
_cell_volume   274.84942092
_cell_formula_units_Z   1
loop_
 _symmetry_equiv_pos_site_id
 _symmetry_equiv_pos_as_xyz
  1  'x, y, z'
loop_
 _atom_site_type_symbol
 _atom_site_label
 _atom_site_symmetry_multiplicity
 _atom_site_fract_x
 _atom_site_fract_y
 _atom_site_fract_z
 _atom_site_occupancy
  Y  Y0  1  0.951179  0.951179  0.146466  1
  Y  Y1  1  0.048821  0.048821  0.853534  1
  Tm  Tm2  1  0.853949  0.853949  0.438151  1
  Tm  Tm3  1  0.146051  0.146051  0.561849  1
  Ga  Ga4  1  0.500000  0.500000  0.500000  1
  Ga  Ga5  1  0.722328  0.722328  0.833016  1
  Ga  Ga6  1  0.277672  0.277672  0.166984  1
  Ga  Ga7  1  0.610538  0.610538  0.168386  1
  Ga  Ga8  1  0.389462  0.389462  0.831614  1
  Ni  Ni9  1  0.000000  0.500000  0.000000  1
  Ni  Ni10  1  0.500000  0.000000  0.000000  1
  Ni  Ni11  1  0.500000  0.500000  0.000000  1
  Ni  Ni12  1  0.386009  0.386009  0.333097  1
  Ni  Ni13  1  0.894885  0.386009  0.333097  1
  Ni  Ni14  1  0.386009  0.894885  0.333097  1
  Ni  Ni15  1  0.613991  0.613991  0.666903  1
  Ni  Ni16  1  0.105115  0.613991  0.666903  1
  Ni  Ni17  1  0.613991  0.105115  0.666903  1
