# generated using pymatgen
data_Nd3Al12(OsPd)2
_symmetry_space_group_name_H-M   'P 1'
_cell_length_a   8.92060000
_cell_length_b   8.96699810
_cell_length_c   9.67569100
_cell_angle_alpha   90.00000000
_cell_angle_beta   90.00000000
_cell_angle_gamma   119.82898205
_symmetry_Int_Tables_number   1
_chemical_formula_structural   Nd3Al12(OsPd)2
_chemical_formula_sum   'Nd6 Al24 Os4 Pd4'
_cell_volume   671.42824165
_cell_formula_units_Z   2
loop_
 _symmetry_equiv_pos_site_id
 _symmetry_equiv_pos_as_xyz
  1  'x, y, z'
loop_
 _atom_site_type_symbol
 _atom_site_label
 _atom_site_symmetry_multiplicity
 _atom_site_fract_x
 _atom_site_fract_y
 _atom_site_fract_z
 _atom_site_occupancy
  Nd  Nd0  1  0.189384  0.378768  0.250000  1
  Nd  Nd1  1  0.810616  0.621232  0.750000  1
  Nd  Nd2  1  0.617951  0.813062  0.250000  1
  Nd  Nd3  1  0.382049  0.186938  0.750000  1
  Nd  Nd4  1  0.195110  0.813062  0.250000  1
  Nd  Nd5  1  0.804890  0.186938  0.750000  1
  Al  Al6  1  0.335271  0.670543  0.024502  1
  Al  Al7  1  0.664729  0.329457  0.975498  1
  Al  Al8  1  0.664729  0.329457  0.524502  1
  Al  Al9  1  0.335271  0.670543  0.475498  1
  Al  Al10  1  0.161752  0.323503  0.575796  1
  Al  Al11  1  0.838248  0.676497  0.424204  1
  Al  Al12  1  0.673258  0.841732  0.576277  1
  Al  Al13  1  0.838248  0.676497  0.075796  1
  Al  Al14  1  0.326742  0.158268  0.423723  1
  Al  Al15  1  0.161752  0.323503  0.924204  1
  Al  Al16  1  0.168474  0.841732  0.576277  1
  Al  Al17  1  0.326742  0.158268  0.076277  1
  Al  Al18  1  0.831526  0.158268  0.423723  1
  Al  Al19  1  0.673258  0.841732  0.923723  1
  Al  Al20  1  0.831526  0.158268  0.076277  1
  Al  Al21  1  0.168474  0.841732  0.923723  1
  Al  Al22  1  0.563431  0.126862  0.250000  1
  Al  Al23  1  0.436569  0.873138  0.750000  1
  Al  Al24  1  0.873525  0.436569  0.250000  1
  Al  Al25  1  0.126475  0.563431  0.750000  1
  Al  Al26  1  0.563044  0.436569  0.250000  1
  Al  Al27  1  0.436956  0.563431  0.750000  1
  Al  Al28  1  0.002052  0.004105  0.250000  1
  Al  Al29  1  0.997948  0.995895  0.750000  1
  Os  Os30  1  0.500000  0.000000  0.000000  1
  Os  Os31  1  0.500000  0.000000  0.500000  1
  Os  Os32  1  0.000000  0.000000  0.000000  1
  Os  Os33  1  0.000000  0.000000  0.500000  1
  Pd  Pd34  1  0.000000  0.500000  0.000000  1
  Pd  Pd35  1  0.500000  0.500000  0.000000  1
  Pd  Pd36  1  0.000000  0.500000  0.500000  1
  Pd  Pd37  1  0.500000  0.500000  0.500000  1
