# generated using pymatgen
data_Cr(MoBr6)2
_symmetry_space_group_name_H-M   'P 1'
_cell_length_a   9.36731874
_cell_length_b   9.36731738
_cell_length_c   7.33308682
_cell_angle_alpha   68.30333293
_cell_angle_beta   68.30333574
_cell_angle_gamma   83.09415607
_symmetry_Int_Tables_number   1
_chemical_formula_structural   Cr(MoBr6)2
_chemical_formula_sum   'Cr1 Mo2 Br12'
_cell_volume   555.41056775
_cell_formula_units_Z   1
loop_
 _symmetry_equiv_pos_site_id
 _symmetry_equiv_pos_as_xyz
  1  'x, y, z'
loop_
 _atom_site_type_symbol
 _atom_site_label
 _atom_site_symmetry_multiplicity
 _atom_site_fract_x
 _atom_site_fract_y
 _atom_site_fract_z
 _atom_site_occupancy
  Cr  Cr0  1  0.000000  0.000000  0.000000  1
  Mo  Mo1  1  0.275914  0.275914  0.727821  1
  Mo  Mo2  1  0.724086  0.724086  0.272179  1
  Br  Br3  1  0.986870  0.263333  0.741845  1
  Br  Br4  1  0.263333  0.986870  0.741845  1
  Br  Br5  1  0.013130  0.736667  0.258155  1
  Br  Br6  1  0.736667  0.013130  0.258155  1
  Br  Br7  1  0.233375  0.524197  0.768061  1
  Br  Br8  1  0.524197  0.233375  0.768061  1
  Br  Br9  1  0.766625  0.475803  0.231939  1
  Br  Br10  1  0.475803  0.766625  0.231939  1
  Br  Br11  1  0.131485  0.131485  0.140270  1
  Br  Br12  1  0.868515  0.868515  0.859730  1
  Br  Br13  1  0.629152  0.629152  0.651876  1
  Br  Br14  1  0.370848  0.370848  0.348124  1
