# generated using pymatgen
data_Pr5Nd7Rh3AuBr12
_symmetry_space_group_name_H-M   'P 1'
_cell_length_a   10.59332548
_cell_length_b   10.59757959
_cell_length_c   10.60190276
_cell_angle_alpha   109.93903466
_cell_angle_beta   109.87431266
_cell_angle_gamma   109.69396652
_symmetry_Int_Tables_number   1
_chemical_formula_structural   Pr5Nd7Rh3AuBr12
_chemical_formula_sum   'Pr5 Nd7 Rh3 Au1 Br12'
_cell_volume   903.64131017
_cell_formula_units_Z   1
loop_
 _symmetry_equiv_pos_site_id
 _symmetry_equiv_pos_as_xyz
  1  'x, y, z'
loop_
 _atom_site_type_symbol
 _atom_site_label
 _atom_site_symmetry_multiplicity
 _atom_site_fract_x
 _atom_site_fract_y
 _atom_site_fract_z
 _atom_site_occupancy
  Pr  Pr0  1  0.487159  0.750874  0.014522  1
  Pr  Pr1  1  0.493123  0.231344  0.472390  1
  Pr  Pr2  1  0.013367  0.485786  0.749696  1
  Pr  Pr3  1  0.268434  0.007042  0.027552  1
  Pr  Pr4  1  0.233439  0.266062  0.749776  1
  Nd  Nd5  1  0.471275  0.492540  0.230863  1
  Nd  Nd6  1  0.750995  0.233720  0.267013  1
  Nd  Nd7  1  0.749493  0.013717  0.485480  1
  Nd  Nd8  1  0.230511  0.471526  0.492131  1
  Nd  Nd9  1  0.266426  0.749205  0.233321  1
  Nd  Nd10  1  0.028502  0.269509  0.007992  1
  Nd  Nd11  1  0.007247  0.028735  0.269317  1
  Rh  Rh12  1  0.502166  0.998306  0.250388  1
  Rh  Rh13  1  0.997803  0.249608  0.500972  1
  Rh  Rh14  1  0.249972  0.501678  0.999120  1
  Au  Au15  1  0.249444  0.250495  0.250028  1
  Br  Br16  1  0.249903  0.755550  0.742112  1
  Br  Br17  1  0.507832  0.503006  0.751990  1
  Br  Br18  1  0.992223  0.747873  0.999066  1
  Br  Br19  1  0.744423  0.248796  0.756889  1
  Br  Br20  1  0.995899  0.992050  0.747033  1
  Br  Br21  1  0.248750  0.995844  0.501124  1
  Br  Br22  1  0.752276  0.507841  0.501001  1
  Br  Br23  1  0.504147  0.251267  0.998903  1
  Br  Br24  1  0.756626  0.744502  0.251269  1
  Br  Br25  1  0.748742  0.998895  0.993050  1
  Br  Br26  1  0.997812  0.502206  0.250029  1
  Br  Br27  1  0.502009  0.752022  0.506969  1
