# generated using pymatgen
data_Th3TcSn3Ir2
_symmetry_space_group_name_H-M   'P 1'
_cell_length_a   7.59529700
_cell_length_b   7.59529662
_cell_length_c   4.14597500
_cell_angle_alpha   90.00000000
_cell_angle_beta   90.00000000
_cell_angle_gamma   119.99999730
_symmetry_Int_Tables_number   1
_chemical_formula_structural   Th3TcSn3Ir2
_chemical_formula_sum   'Th3 Tc1 Sn3 Ir2'
_cell_volume   207.13182054
_cell_formula_units_Z   1
loop_
 _symmetry_equiv_pos_site_id
 _symmetry_equiv_pos_as_xyz
  1  'x, y, z'
loop_
 _atom_site_type_symbol
 _atom_site_label
 _atom_site_symmetry_multiplicity
 _atom_site_fract_x
 _atom_site_fract_y
 _atom_site_fract_z
 _atom_site_occupancy
  Th  Th0  1  0.410824  0.410824  0.500000  1
  Th  Th1  1  0.589176  0.000000  0.500000  1
  Th  Th2  1  0.000000  0.589176  0.500000  1
  Tc  Tc3  1  0.000000  0.000000  0.500000  1
  Sn  Sn4  1  0.749917  0.749917  0.000000  1
  Sn  Sn5  1  0.250083  0.000000  0.000000  1
  Sn  Sn6  1  0.000000  0.250083  0.000000  1
  Ir  Ir7  1  0.666667  0.333333  0.000000  1
  Ir  Ir8  1  0.333333  0.666667  0.000000  1
