# generated using pymatgen
data_Ho5Hf(Si3Pt2)4
_symmetry_space_group_name_H-M   'P 1'
_cell_length_a   4.20957700
_cell_length_b   8.49692938
_cell_length_c   12.90756814
_cell_angle_alpha   80.41651642
_cell_angle_beta   90.00000000
_cell_angle_gamma   90.00000000
_symmetry_Int_Tables_number   1
_chemical_formula_structural   Ho5Hf(Si3Pt2)4
_chemical_formula_sum   'Ho5 Hf1 Si12 Pt8'
_cell_volume   455.24084276
_cell_formula_units_Z   1
loop_
 _symmetry_equiv_pos_site_id
 _symmetry_equiv_pos_as_xyz
  1  'x, y, z'
loop_
 _atom_site_type_symbol
 _atom_site_label
 _atom_site_symmetry_multiplicity
 _atom_site_fract_x
 _atom_site_fract_y
 _atom_site_fract_z
 _atom_site_occupancy
  Ho  Ho0  1  0.250000  0.583933  0.187848  1
  Ho  Ho1  1  0.750000  0.233474  0.561279  1
  Ho  Ho2  1  0.750000  0.414919  0.813072  1
  Ho  Ho3  1  0.750000  0.928070  0.814126  1
  Ho  Ho4  1  0.250000  0.072757  0.185784  1
  Hf  Hf5  1  0.250000  0.767519  0.435204  1
  Si  Si6  1  0.750000  0.591834  0.567860  1
  Si  Si7  1  0.750000  0.124265  0.006018  1
  Si  Si8  1  0.750000  0.871352  0.570188  1
  Si  Si9  1  0.250000  0.695920  0.715262  1
  Si  Si10  1  0.750000  0.303750  0.286657  1
  Si  Si11  1  0.750000  0.803836  0.279722  1
  Si  Si12  1  0.250000  0.875308  0.995682  1
  Si  Si13  1  0.250000  0.195827  0.721801  1
  Si  Si14  1  0.250000  0.378169  0.001236  1
  Si  Si15  1  0.250000  0.124888  0.427043  1
  Si  Si16  1  0.750000  0.621615  0.000250  1
  Si  Si17  1  0.250000  0.412889  0.429528  1
  Pt  Pt18  1  0.750000  0.351358  0.099310  1
  Pt  Pt19  1  0.250000  0.968921  0.621558  1
  Pt  Pt20  1  0.750000  0.848194  0.091463  1
  Pt  Pt21  1  0.750000  0.025883  0.377877  1
  Pt  Pt22  1  0.250000  0.648754  0.901662  1
  Pt  Pt23  1  0.250000  0.151379  0.910001  1
  Pt  Pt24  1  0.750000  0.534530  0.378369  1
  Pt  Pt25  1  0.250000  0.470657  0.621200  1
