# generated using pymatgen
data_Dy9Mg(NiTe)4
_symmetry_space_group_name_H-M   'P 1'
_cell_length_a   7.72650098
_cell_length_b   7.72650085
_cell_length_c   14.91953500
_cell_angle_alpha   90.00000000
_cell_angle_beta   90.00000000
_cell_angle_gamma   149.97304746
_symmetry_Int_Tables_number   1
_chemical_formula_structural   Dy9Mg(NiTe)4
_chemical_formula_sum   'Dy9 Mg1 Ni4 Te4'
_cell_volume   445.70209211
_cell_formula_units_Z   1
loop_
 _symmetry_equiv_pos_site_id
 _symmetry_equiv_pos_as_xyz
  1  'x, y, z'
loop_
 _atom_site_type_symbol
 _atom_site_label
 _atom_site_symmetry_multiplicity
 _atom_site_fract_x
 _atom_site_fract_y
 _atom_site_fract_z
 _atom_site_occupancy
  Dy  Dy0  1  0.965214  0.034786  0.131947  1
  Dy  Dy1  1  0.040211  0.959789  0.876909  1
  Dy  Dy2  1  0.040211  0.959789  0.623091  1
  Dy  Dy3  1  0.965214  0.034786  0.368053  1
  Dy  Dy4  1  0.741676  0.258324  0.627759  1
  Dy  Dy5  1  0.253329  0.746671  0.367228  1
  Dy  Dy6  1  0.253329  0.746671  0.132772  1
  Dy  Dy7  1  0.741676  0.258324  0.872241  1
  Dy  Dy8  1  0.395680  0.604320  0.750000  1
  Mg  Mg9  1  0.606856  0.393144  0.250000  1
  Ni  Ni10  1  0.413256  0.586744  0.250000  1
  Ni  Ni11  1  0.588369  0.411631  0.750000  1
  Ni  Ni12  1  0.811783  0.188217  0.250000  1
  Ni  Ni13  1  0.184996  0.815004  0.750000  1
  Te  Te14  1  0.616448  0.383552  0.038238  1
  Te  Te15  1  0.382652  0.617348  0.963435  1
  Te  Te16  1  0.382652  0.617348  0.536565  1
  Te  Te17  1  0.616448  0.383552  0.461762  1
