# generated using pymatgen
data_Sc4VZn2Os5
_symmetry_space_group_name_H-M   'P 1'
_cell_length_a   5.28635125
_cell_length_b   5.14518093
_cell_length_c   8.63382400
_cell_angle_alpha   90.00000000
_cell_angle_beta   90.00000000
_cell_angle_gamma   121.65423526
_symmetry_Int_Tables_number   1
_chemical_formula_structural   Sc4VZn2Os5
_chemical_formula_sum   'Sc4 V1 Zn2 Os5'
_cell_volume   199.89736217
_cell_formula_units_Z   1
loop_
 _symmetry_equiv_pos_site_id
 _symmetry_equiv_pos_as_xyz
  1  'x, y, z'
loop_
 _atom_site_type_symbol
 _atom_site_label
 _atom_site_symmetry_multiplicity
 _atom_site_fract_x
 _atom_site_fract_y
 _atom_site_fract_z
 _atom_site_occupancy
  Sc  Sc0  1  0.325487  0.668057  0.445366  1
  Sc  Sc1  1  0.665224  0.342329  0.568563  1
  Sc  Sc2  1  0.665224  0.342329  0.931437  1
  Sc  Sc3  1  0.325487  0.668057  0.054634  1
  V  V4  1  0.164469  0.332470  0.750000  1
  Zn  Zn5  1  0.353347  0.158643  0.250000  1
  Zn  Zn6  1  0.843011  0.647639  0.250000  1
  Os  Os7  1  0.172335  0.823930  0.750000  1
  Os  Os8  1  0.653010  0.828150  0.750000  1
  Os  Os9  1  0.995453  0.017568  0.001400  1
  Os  Os10  1  0.841494  0.153264  0.250000  1
  Os  Os11  1  0.995453  0.017568  0.498600  1
