# generated using pymatgen
data_AcPr2(InRh)3
_symmetry_space_group_name_H-M   'P 1'
_cell_length_a   7.65496472
_cell_length_b   7.78578063
_cell_length_c   4.17724800
_cell_angle_alpha   90.00000000
_cell_angle_beta   90.00000000
_cell_angle_gamma   120.56691929
_symmetry_Int_Tables_number   1
_chemical_formula_structural   AcPr2(InRh)3
_chemical_formula_sum   'Ac1 Pr2 In3 Rh3'
_cell_volume   214.36645160
_cell_formula_units_Z   1
loop_
 _symmetry_equiv_pos_site_id
 _symmetry_equiv_pos_as_xyz
  1  'x, y, z'
loop_
 _atom_site_type_symbol
 _atom_site_label
 _atom_site_symmetry_multiplicity
 _atom_site_fract_x
 _atom_site_fract_y
 _atom_site_fract_z
 _atom_site_occupancy
  Ac  Ac0  1  0.000000  0.584325  0.500000  1
  Pr  Pr1  1  0.409690  0.410508  0.500000  1
  Pr  Pr2  1  0.590310  0.000818  0.500000  1
  In  In3  1  0.743581  0.753777  0.000000  1
  In  In4  1  0.000000  0.237365  0.000000  1
  In  In5  1  0.256419  0.010196  0.000000  1
  Rh  Rh6  1  0.330473  0.668351  0.000000  1
  Rh  Rh7  1  0.000000  0.996784  0.500000  1
  Rh  Rh8  1  0.669527  0.337877  0.000000  1
