# generated using pymatgen
data_Ti3Ga2PdO
_symmetry_space_group_name_H-M   'P 1'
_cell_length_a   8.20092908
_cell_length_b   8.19696646
_cell_length_c   8.19921232
_cell_angle_alpha   60.02218514
_cell_angle_beta   59.99163327
_cell_angle_gamma   59.98534734
_symmetry_Int_Tables_number   1
_chemical_formula_structural   Ti3Ga2PdO
_chemical_formula_sum   'Ti12 Ga8 Pd4 O4'
_cell_volume   389.73598596
_cell_formula_units_Z   4
loop_
 _symmetry_equiv_pos_site_id
 _symmetry_equiv_pos_as_xyz
  1  'x, y, z'
loop_
 _atom_site_type_symbol
 _atom_site_label
 _atom_site_symmetry_multiplicity
 _atom_site_fract_x
 _atom_site_fract_y
 _atom_site_fract_z
 _atom_site_occupancy
  Ti  Ti0  1  0.568441  0.931498  0.568189  1
  Ti  Ti1  1  0.318743  0.681154  0.681423  1
  Ti  Ti2  1  0.681433  0.318687  0.318416  1
  Ti  Ti3  1  0.318328  0.681637  0.318340  1
  Ti  Ti4  1  0.681556  0.681528  0.318535  1
  Ti  Ti5  1  0.318331  0.318602  0.681644  1
  Ti  Ti6  1  0.568444  0.568472  0.931465  1
  Ti  Ti7  1  0.931257  0.568846  0.568577  1
  Ti  Ti8  1  0.568567  0.931313  0.931584  1
  Ti  Ti9  1  0.931669  0.931398  0.568356  1
  Ti  Ti10  1  0.681559  0.318502  0.681811  1
  Ti  Ti11  1  0.931672  0.568363  0.931660  1
  Ga  Ga12  1  0.337891  0.337985  0.338108  1
  Ga  Ga13  1  0.263992  0.912048  0.911854  1
  Ga  Ga14  1  0.912048  0.264001  0.911924  1
  Ga  Ga15  1  0.911920  0.911989  0.264116  1
  Ga  Ga16  1  0.337952  0.985999  0.338076  1
  Ga  Ga17  1  0.338080  0.338011  0.985884  1
  Ga  Ga18  1  0.986008  0.337952  0.338146  1
  Ga  Ga19  1  0.912109  0.912015  0.911892  1
  Pd  Pd20  1  0.125000  0.125000  0.125000  1
  Pd  Pd21  1  0.625000  0.125000  0.125000  1
  Pd  Pd22  1  0.125000  0.625000  0.125000  1
  Pd  Pd23  1  0.125000  0.125000  0.625000  1
  O  O24  1  0.625000  0.625000  0.625000  1
  O  O25  1  0.125000  0.625000  0.625000  1
  O  O26  1  0.625000  0.125000  0.625000  1
  O  O27  1  0.625000  0.625000  0.125000  1
