# generated using pymatgen
data_Ho4Ge6Rh7
_symmetry_space_group_name_H-M   'P 1'
_cell_length_a   7.26714920
_cell_length_b   7.26714880
_cell_length_c   7.26714900
_cell_angle_alpha   109.47122120
_cell_angle_beta   109.47122007
_cell_angle_gamma   109.47122234
_symmetry_Int_Tables_number   1
_chemical_formula_structural   Ho4Ge6Rh7
_chemical_formula_sum   'Ho4 Ge6 Rh7'
_cell_volume   295.44068006
_cell_formula_units_Z   1
loop_
 _symmetry_equiv_pos_site_id
 _symmetry_equiv_pos_as_xyz
  1  'x, y, z'
loop_
 _atom_site_type_symbol
 _atom_site_label
 _atom_site_symmetry_multiplicity
 _atom_site_fract_x
 _atom_site_fract_y
 _atom_site_fract_z
 _atom_site_occupancy
  Ho  Ho0  1  0.000000  0.000000  0.500000  1
  Ho  Ho1  1  0.000000  0.500000  0.000000  1
  Ho  Ho2  1  0.500000  0.000000  0.000000  1
  Ho  Ho3  1  0.500000  0.500000  0.500000  1
  Ge  Ge4  1  0.679902  0.679902  0.000000  1
  Ge  Ge5  1  0.320098  0.000000  0.320098  1
  Ge  Ge6  1  0.000000  0.320098  0.320098  1
  Ge  Ge7  1  0.320098  0.320098  0.000000  1
  Ge  Ge8  1  0.679902  0.000000  0.679902  1
  Ge  Ge9  1  0.000000  0.679902  0.679902  1
  Rh  Rh10  1  0.750000  0.250000  0.500000  1
  Rh  Rh11  1  0.750000  0.500000  0.250000  1
  Rh  Rh12  1  0.500000  0.250000  0.750000  1
  Rh  Rh13  1  0.250000  0.500000  0.750000  1
  Rh  Rh14  1  0.250000  0.750000  0.500000  1
  Rh  Rh15  1  0.500000  0.750000  0.250000  1
  Rh  Rh16  1  0.000000  0.000000  0.000000  1
