# generated using pymatgen
data_Pa2SnIr2
_symmetry_space_group_name_H-M   'P 1'
_cell_length_a   7.73017800
_cell_length_b   7.73017800
_cell_length_c   3.63139000
_cell_angle_alpha   90.00000000
_cell_angle_beta   90.00000000
_cell_angle_gamma   90.00000000
_symmetry_Int_Tables_number   1
_chemical_formula_structural   Pa2SnIr2
_chemical_formula_sum   'Pa4 Sn2 Ir4'
_cell_volume   216.99607680
_cell_formula_units_Z   2
loop_
 _symmetry_equiv_pos_site_id
 _symmetry_equiv_pos_as_xyz
  1  'x, y, z'
loop_
 _atom_site_type_symbol
 _atom_site_label
 _atom_site_symmetry_multiplicity
 _atom_site_fract_x
 _atom_site_fract_y
 _atom_site_fract_z
 _atom_site_occupancy
  Pa  Pa0  1  0.170146  0.329854  0.000000  1
  Pa  Pa1  1  0.829854  0.670146  0.000000  1
  Pa  Pa2  1  0.670146  0.170146  0.000000  1
  Pa  Pa3  1  0.329854  0.829854  0.000000  1
  Sn  Sn4  1  0.000000  0.000000  0.500000  1
  Sn  Sn5  1  0.500000  0.500000  0.500000  1
  Ir  Ir6  1  0.367196  0.132804  0.500000  1
  Ir  Ir7  1  0.632804  0.867196  0.500000  1
  Ir  Ir8  1  0.867196  0.367196  0.500000  1
  Ir  Ir9  1  0.132804  0.632804  0.500000  1
