# generated using pymatgen
data_Lu2Ga2RuRh
_symmetry_space_group_name_H-M   'P 1'
_cell_length_a   4.25677800
_cell_length_b   6.70861400
_cell_length_c   7.73214200
_cell_angle_alpha   90.00000000
_cell_angle_beta   90.00000000
_cell_angle_gamma   90.00000000
_symmetry_Int_Tables_number   1
_chemical_formula_structural   Lu2Ga2RuRh
_chemical_formula_sum   'Lu4 Ga4 Ru2 Rh2'
_cell_volume   220.80740142
_cell_formula_units_Z   2
loop_
 _symmetry_equiv_pos_site_id
 _symmetry_equiv_pos_as_xyz
  1  'x, y, z'
loop_
 _atom_site_type_symbol
 _atom_site_label
 _atom_site_symmetry_multiplicity
 _atom_site_fract_x
 _atom_site_fract_y
 _atom_site_fract_z
 _atom_site_occupancy
  Lu  Lu0  1  0.250000  0.021955  0.813784  1
  Lu  Lu1  1  0.250000  0.521955  0.686216  1
  Lu  Lu2  1  0.750000  0.976935  0.185240  1
  Lu  Lu3  1  0.750000  0.476935  0.314760  1
  Ga  Ga4  1  0.250000  0.160390  0.433996  1
  Ga  Ga5  1  0.250000  0.660390  0.066004  1
  Ga  Ga6  1  0.750000  0.842535  0.568451  1
  Ga  Ga7  1  0.750000  0.342535  0.931549  1
  Ru  Ru8  1  0.750000  0.228810  0.614265  1
  Ru  Ru9  1  0.750000  0.728810  0.885735  1
  Rh  Rh10  1  0.250000  0.769375  0.385286  1
  Rh  Rh11  1  0.250000  0.269375  0.114714  1
