# generated using pymatgen
data_Ho8Zr12Si15P
_symmetry_space_group_name_H-M   'P 1'
_cell_length_a   7.12505337
_cell_length_b   7.28064910
_cell_length_c   13.89301068
_cell_angle_alpha   90.03552187
_cell_angle_beta   89.84323624
_cell_angle_gamma   90.07953032
_symmetry_Int_Tables_number   1
_chemical_formula_structural   Ho8Zr12Si15P
_chemical_formula_sum   'Ho8 Zr12 Si15 P1'
_cell_volume   720.69658700
_cell_formula_units_Z   1
loop_
 _symmetry_equiv_pos_site_id
 _symmetry_equiv_pos_as_xyz
  1  'x, y, z'
loop_
 _atom_site_type_symbol
 _atom_site_label
 _atom_site_symmetry_multiplicity
 _atom_site_fract_x
 _atom_site_fract_y
 _atom_site_fract_z
 _atom_site_occupancy
  Ho  Ho0  1  0.015195  0.176678  0.096960  1
  Ho  Ho1  1  0.984887  0.823189  0.902519  1
  Ho  Ho2  1  0.483640  0.676634  0.902491  1
  Ho  Ho3  1  0.985377  0.819433  0.596547  1
  Ho  Ho4  1  0.515636  0.323401  0.097315  1
  Ho  Ho5  1  0.016839  0.179929  0.404912  1
  Ho  Ho6  1  0.515147  0.322105  0.402653  1
  Ho  Ho7  1  0.483532  0.673923  0.596806  1
  Zr  Zr8  1  0.155147  0.498095  0.748084  1
  Zr  Zr9  1  0.845678  0.500742  0.251480  1
  Zr  Zr10  1  0.345224  0.998030  0.250380  1
  Zr  Zr11  1  0.655017  0.001494  0.749871  1
  Zr  Zr12  1  0.325000  0.181511  0.622627  1
  Zr  Zr13  1  0.672446  0.823272  0.376320  1
  Zr  Zr14  1  0.170887  0.673316  0.377950  1
  Zr  Zr15  1  0.672248  0.822665  0.125127  1
  Zr  Zr16  1  0.832073  0.325441  0.622895  1
  Zr  Zr17  1  0.327165  0.177698  0.874869  1
  Zr  Zr18  1  0.828355  0.322467  0.874693  1
  Zr  Zr19  1  0.172233  0.677498  0.125057  1
  Si  Si20  1  0.031046  0.116067  0.749066  1
  Si  Si21  1  0.969664  0.882868  0.250890  1
  Si  Si22  1  0.468044  0.616733  0.250381  1
  Si  Si23  1  0.532400  0.382531  0.749336  1
  Si  Si24  1  0.282503  0.873051  0.749048  1
  Si  Si25  1  0.718740  0.127775  0.250431  1
  Si  Si26  1  0.218686  0.372373  0.250487  1
  Si  Si27  1  0.781409  0.628113  0.749580  1
  Si  Si28  1  0.835533  0.531914  0.458304  1
  Si  Si29  1  0.345106  0.968417  0.459518  1
  Si  Si30  1  0.845953  0.531949  0.040054  1
  Si  Si31  1  0.655378  0.031910  0.541428  1
  Si  Si32  1  0.153720  0.468458  0.959460  1
  Si  Si33  1  0.654372  0.031519  0.959694  1
  Si  Si34  1  0.345833  0.968772  0.040154  1
  P  P35  1  0.159887  0.470031  0.542613  1
