# generated using pymatgen
data_Li3Cu(SnS3)2
_symmetry_space_group_name_H-M   'P 1'
_cell_length_a   6.88006868
_cell_length_b   6.88506011
_cell_length_c   6.78116970
_cell_angle_alpha   81.12088172
_cell_angle_beta   81.08433448
_cell_angle_gamma   120.32920309
_symmetry_Int_Tables_number   1
_chemical_formula_structural   Li3Cu(SnS3)2
_chemical_formula_sum   'Li3 Cu1 Sn2 S6'
_cell_volume   263.52056789
_cell_formula_units_Z   1
loop_
 _symmetry_equiv_pos_site_id
 _symmetry_equiv_pos_as_xyz
  1  'x, y, z'
loop_
 _atom_site_type_symbol
 _atom_site_label
 _atom_site_symmetry_multiplicity
 _atom_site_fract_x
 _atom_site_fract_y
 _atom_site_fract_z
 _atom_site_occupancy
  Li  Li0  1  0.554915  0.389491  0.014339  1
  Li  Li1  1  0.738181  0.242901  0.513758  1
  Li  Li2  1  0.388202  0.559030  0.512688  1
  Cu  Cu3  1  0.241747  0.738814  0.013299  1
  Sn  Sn4  1  0.095722  0.910310  0.494392  1
  Sn  Sn5  1  0.911525  0.092356  0.993646  1
  S  S6  1  0.780910  0.941533  0.380910  1
  S  S7  1  0.957397  0.779424  0.885198  1
  S  S8  1  0.597266  0.095789  0.885999  1
  S  S9  1  0.110779  0.610398  0.371023  1
  S  S10  1  0.278043  0.462565  0.889000  1
  S  S11  1  0.450711  0.282787  0.387749  1
