# generated using pymatgen
data_Dy3HoSi4OsRh3
_symmetry_space_group_name_H-M   'P 1'
_cell_length_a   4.29252500
_cell_length_b   6.92840703
_cell_length_c   7.26195400
_cell_angle_alpha   89.87156441
_cell_angle_beta   90.00000000
_cell_angle_gamma   90.00000000
_symmetry_Int_Tables_number   1
_chemical_formula_structural   Dy3HoSi4OsRh3
_chemical_formula_sum   'Dy3 Ho1 Si4 Os1 Rh3'
_cell_volume   215.97258654
_cell_formula_units_Z   1
loop_
 _symmetry_equiv_pos_site_id
 _symmetry_equiv_pos_as_xyz
  1  'x, y, z'
loop_
 _atom_site_type_symbol
 _atom_site_label
 _atom_site_symmetry_multiplicity
 _atom_site_fract_x
 _atom_site_fract_y
 _atom_site_fract_z
 _atom_site_occupancy
  Dy  Dy0  1  0.250000  0.493126  0.688867  1
  Dy  Dy1  1  0.750000  0.509784  0.311802  1
  Dy  Dy2  1  0.750000  0.004588  0.184614  1
  Ho  Ho3  1  0.250000  0.994242  0.814578  1
  Si  Si4  1  0.250000  0.298674  0.107985  1
  Si  Si5  1  0.750000  0.703130  0.884947  1
  Si  Si6  1  0.250000  0.799263  0.401508  1
  Si  Si7  1  0.750000  0.197662  0.605710  1
  Os  Os8  1  0.750000  0.845602  0.568052  1
  Rh  Rh9  1  0.250000  0.154778  0.432061  1
  Rh  Rh10  1  0.750000  0.344163  0.931537  1
  Rh  Rh11  1  0.250000  0.654989  0.068339  1
