# generated using pymatgen
data_SmY2Sc(WN3)4
_symmetry_space_group_name_H-M   'P 1'
_cell_length_a   7.26345656
_cell_length_b   7.26345692
_cell_length_c   6.18911873
_cell_angle_alpha   74.50507962
_cell_angle_beta   74.50508114
_cell_angle_gamma   81.90237697
_symmetry_Int_Tables_number   1
_chemical_formula_structural   SmY2Sc(WN3)4
_chemical_formula_sum   'Sm1 Y2 Sc1 W4 N12'
_cell_volume   302.36990680
_cell_formula_units_Z   1
loop_
 _symmetry_equiv_pos_site_id
 _symmetry_equiv_pos_as_xyz
  1  'x, y, z'
loop_
 _atom_site_type_symbol
 _atom_site_label
 _atom_site_symmetry_multiplicity
 _atom_site_fract_x
 _atom_site_fract_y
 _atom_site_fract_z
 _atom_site_occupancy
  Sm  Sm0  1  0.704542  0.295458  0.750000  1
  Y  Y1  1  0.293312  0.706688  0.250000  1
  Y  Y2  1  0.917273  0.082727  0.250000  1
  Sc  Sc3  1  0.091281  0.908719  0.750000  1
  W  W4  1  0.379100  0.197734  0.248152  1
  W  W5  1  0.615798  0.802855  0.759839  1
  W  W6  1  0.802266  0.620900  0.251848  1
  W  W7  1  0.197145  0.384202  0.740161  1
  N  N8  1  0.623605  0.105067  0.167075  1
  N  N9  1  0.359946  0.367352  0.449246  1
  N  N10  1  0.006721  0.211199  0.843937  1
  N  N11  1  0.368290  0.896375  0.828563  1
  N  N12  1  0.788801  0.993279  0.656063  1
  N  N13  1  0.103625  0.631710  0.671437  1
  N  N14  1  0.894933  0.376395  0.332925  1
  N  N15  1  0.646404  0.646954  0.542302  1
  N  N16  1  0.632648  0.640054  0.050754  1
  N  N17  1  0.353046  0.353596  0.957698  1
  N  N18  1  0.004160  0.782899  0.134075  1
  N  N19  1  0.217101  0.995840  0.365925  1
