# generated using pymatgen
data_Dy3TmB16(OsRh)2
_symmetry_space_group_name_H-M   'P 1'
_cell_length_a   3.56493300
_cell_length_b   5.95508920
_cell_length_c   11.53690507
_cell_angle_alpha   89.97537702
_cell_angle_beta   90.00000000
_cell_angle_gamma   90.00000000
_symmetry_Int_Tables_number   1
_chemical_formula_structural   Dy3TmB16(OsRh)2
_chemical_formula_sum   'Dy3 Tm1 B16 Os2 Rh2'
_cell_volume   244.92263445
_cell_formula_units_Z   1
loop_
 _symmetry_equiv_pos_site_id
 _symmetry_equiv_pos_as_xyz
  1  'x, y, z'
loop_
 _atom_site_type_symbol
 _atom_site_label
 _atom_site_symmetry_multiplicity
 _atom_site_fract_x
 _atom_site_fract_y
 _atom_site_fract_z
 _atom_site_occupancy
  Dy  Dy0  1  0.000000  0.370255  0.648913  1
  Dy  Dy1  1  0.000000  0.129412  0.149582  1
  Dy  Dy2  1  0.000000  0.870501  0.850543  1
  Tm  Tm3  1  0.000000  0.629755  0.351046  1
  B  B4  1  0.500000  0.787766  0.188307  1
  B  B5  1  0.500000  0.211961  0.812483  1
  B  B6  1  0.500000  0.290751  0.313600  1
  B  B7  1  0.500000  0.711021  0.686296  1
  B  B8  1  0.500000  0.862653  0.029652  1
  B  B9  1  0.500000  0.137094  0.970663  1
  B  B10  1  0.500000  0.363988  0.469530  1
  B  B11  1  0.500000  0.636043  0.529262  1
  B  B12  1  0.500000  0.886681  0.452790  1
  B  B13  1  0.500000  0.111923  0.546058  1
  B  B14  1  0.500000  0.387951  0.047780  1
  B  B15  1  0.500000  0.612277  0.952744  1
  B  B16  1  0.500000  0.973241  0.308308  1
  B  B17  1  0.500000  0.025483  0.691411  1
  B  B18  1  0.500000  0.479069  0.194333  1
  B  B19  1  0.500000  0.521486  0.806540  1
  Os  Os20  1  0.000000  0.143085  0.406439  1
  Os  Os21  1  0.000000  0.857282  0.592126  1
  Rh  Rh22  1  0.000000  0.641352  0.096192  1
  Rh  Rh23  1  0.000000  0.358970  0.905402  1
