# generated using pymatgen
data_Hf4TiSi4MoW2
_symmetry_space_group_name_H-M   'P 1'
_cell_length_a   3.52080100
_cell_length_b   6.94137935
_cell_length_c   8.24534108
_cell_angle_alpha   90.34440234
_cell_angle_beta   90.00000000
_cell_angle_gamma   90.00000000
_symmetry_Int_Tables_number   1
_chemical_formula_structural   Hf4TiSi4MoW2
_chemical_formula_sum   'Hf4 Ti1 Si4 Mo1 W2'
_cell_volume   201.50602606
_cell_formula_units_Z   1
loop_
 _symmetry_equiv_pos_site_id
 _symmetry_equiv_pos_as_xyz
  1  'x, y, z'
loop_
 _atom_site_type_symbol
 _atom_site_label
 _atom_site_symmetry_multiplicity
 _atom_site_fract_x
 _atom_site_fract_y
 _atom_site_fract_z
 _atom_site_occupancy
  Hf  Hf0  1  0.250000  0.544326  0.166352  1
  Hf  Hf1  1  0.250000  0.043453  0.334813  1
  Hf  Hf2  1  0.750000  0.456514  0.834438  1
  Hf  Hf3  1  0.750000  0.961169  0.669774  1
  Ti  Ti4  1  0.250000  0.627615  0.560243  1
  Si  Si5  1  0.250000  0.756057  0.859110  1
  Si  Si6  1  0.250000  0.255972  0.636827  1
  Si  Si7  1  0.750000  0.242775  0.139754  1
  Si  Si8  1  0.750000  0.743736  0.360742  1
  Mo  Mo9  1  0.750000  0.366985  0.438776  1
  W  W10  1  0.250000  0.132838  0.938197  1
  W  W11  1  0.750000  0.868559  0.060974  1
