# generated using pymatgen
data_Hf5Sc(Co5B2)2
_symmetry_space_group_name_H-M   'P 1'
_cell_length_a   8.77607724
_cell_length_b   8.77607731
_cell_length_c   3.15216900
_cell_angle_alpha   90.00000000
_cell_angle_beta   90.00000000
_cell_angle_gamma   89.75749864
_symmetry_Int_Tables_number   1
_chemical_formula_structural   Hf5Sc(Co5B2)2
_chemical_formula_sum   'Hf5 Sc1 Co10 B4'
_cell_volume   242.77640770
_cell_formula_units_Z   1
loop_
 _symmetry_equiv_pos_site_id
 _symmetry_equiv_pos_as_xyz
  1  'x, y, z'
loop_
 _atom_site_type_symbol
 _atom_site_label
 _atom_site_symmetry_multiplicity
 _atom_site_fract_x
 _atom_site_fract_y
 _atom_site_fract_z
 _atom_site_occupancy
  Hf  Hf0  1  0.998706  0.002791  0.000000  1
  Hf  Hf1  1  0.502791  0.498706  0.000000  1
  Hf  Hf2  1  0.325147  0.174707  0.000000  1
  Hf  Hf3  1  0.674707  0.825147  0.000000  1
  Hf  Hf4  1  0.174355  0.674355  0.000000  1
  Sc  Sc5  1  0.825590  0.325590  0.000000  1
  Co  Co6  1  0.497708  0.997708  0.500000  1
  Co  Co7  1  0.001511  0.501511  0.500000  1
  Co  Co8  1  0.075160  0.229294  0.500000  1
  Co  Co9  1  0.227237  0.928732  0.500000  1
  Co  Co10  1  0.768307  0.066344  0.500000  1
  Co  Co11  1  0.930754  0.773620  0.500000  1
  Co  Co12  1  0.428732  0.727237  0.500000  1
  Co  Co13  1  0.566344  0.268307  0.500000  1
  Co  Co14  1  0.729294  0.575160  0.500000  1
  Co  Co15  1  0.273620  0.430754  0.500000  1
  B  B16  1  0.617945  0.117945  0.000000  1
  B  B17  1  0.118016  0.382899  0.000000  1
  B  B18  1  0.882899  0.618016  0.000000  1
  B  B19  1  0.381177  0.881177  0.000000  1
