# generated using pymatgen
data_La3Nd3Al6V4O24
_symmetry_space_group_name_H-M   'P 1'
_cell_length_a   10.93162523
_cell_length_b   10.93162506
_cell_length_c   10.93162422
_cell_angle_alpha   109.49913583
_cell_angle_beta   109.55927620
_cell_angle_gamma   109.35532289
_symmetry_Int_Tables_number   1
_chemical_formula_structural   La3Nd3Al6V4O24
_chemical_formula_sum   'La6 Nd6 Al12 V8 O48'
_cell_volume   1005.61278090
_cell_formula_units_Z   2
loop_
 _symmetry_equiv_pos_site_id
 _symmetry_equiv_pos_as_xyz
  1  'x, y, z'
loop_
 _atom_site_type_symbol
 _atom_site_label
 _atom_site_symmetry_multiplicity
 _atom_site_fract_x
 _atom_site_fract_y
 _atom_site_fract_z
 _atom_site_occupancy
  La  La0  1  0.875109  0.750000  0.625109  1
  La  La1  1  0.624891  0.250000  0.874891  1
  La  La2  1  0.375427  0.125427  0.250000  1
  La  La3  1  0.624340  0.874340  0.750000  1
  La  La4  1  0.124573  0.374573  0.750000  1
  La  La5  1  0.875660  0.625660  0.250000  1
  Nd  Nd6  1  0.250000  0.374911  0.124911  1
  Nd  Nd7  1  0.750000  0.625418  0.875418  1
  Nd  Nd8  1  0.750000  0.125089  0.375089  1
  Nd  Nd9  1  0.124878  0.250000  0.374878  1
  Nd  Nd10  1  0.375122  0.750000  0.125122  1
  Nd  Nd11  1  0.250000  0.874582  0.624582  1
  Al  Al12  1  0.250000  0.624627  0.374627  1
  Al  Al13  1  0.750000  0.374960  0.624960  1
  Al  Al14  1  0.750000  0.875373  0.125373  1
  Al  Al15  1  0.374354  0.250000  0.624354  1
  Al  Al16  1  0.623818  0.750000  0.373818  1
  Al  Al17  1  0.250000  0.125040  0.875040  1
  Al  Al18  1  0.125646  0.750000  0.875646  1
  Al  Al19  1  0.876182  0.250000  0.126182  1
  Al  Al20  1  0.624805  0.374805  0.250000  1
  Al  Al21  1  0.374766  0.624766  0.750000  1
  Al  Al22  1  0.875195  0.125195  0.750000  1
  Al  Al23  1  0.125234  0.875234  0.250000  1
  V  V24  1  0.000059  0.000426  0.000766  1
  V  V25  1  0.499660  0.999292  0.499234  1
  V  V26  1  0.000340  0.499574  0.499633  1
  V  V27  1  0.499636  0.999278  0.000066  1
  V  V28  1  0.499941  0.500708  0.000367  1
  V  V29  1  0.499210  0.499570  0.499934  1
  V  V30  1  0.000364  0.000430  0.499642  1
  V  V31  1  0.000790  0.500722  0.000358  1
  O  O32  1  0.482765  0.381972  0.295474  1
  O  O33  1  0.517150  0.618074  0.704878  1
  O  O34  1  0.586498  0.187290  0.204526  1
  O  O35  1  0.913502  0.118028  0.600792  1
  O  O36  1  0.296911  0.482577  0.380451  1
  O  O37  1  0.313228  0.913957  0.296197  1
  O  O38  1  0.413196  0.812271  0.795122  1
  O  O39  1  0.086804  0.881926  0.399074  1
  O  O40  1  0.700171  0.515038  0.618976  1
  O  O41  1  0.686298  0.083740  0.700883  1
  O  O42  1  0.017235  0.312710  0.899208  1
  O  O43  1  0.203089  0.583540  0.185667  1
  O  O44  1  0.117760  0.017030  0.203803  1
  O  O45  1  0.982850  0.687729  0.100926  1
  O  O46  1  0.799829  0.418805  0.814867  1
  O  O47  1  0.882857  0.985415  0.799117  1
  O  O48  1  0.602127  0.916460  0.119549  1
  O  O49  1  0.186772  0.482970  0.600729  1
  O  O50  1  0.396063  0.081195  0.881024  1
  O  O51  1  0.813702  0.514585  0.397442  1
  O  O52  1  0.897873  0.017423  0.314333  1
  O  O53  1  0.382240  0.586043  0.899271  1
  O  O54  1  0.103937  0.984962  0.685133  1
  O  O55  1  0.617143  0.416260  0.102558  1
  O  O56  1  0.379381  0.296297  0.482567  1
  O  O57  1  0.584479  0.898175  0.378675  1
  O  O58  1  0.617838  0.703506  0.515553  1
  O  O59  1  0.413032  0.100966  0.618636  1
  O  O60  1  0.120619  0.603186  0.916915  1
  O  O61  1  0.019501  0.205805  0.121325  1
  O  O62  1  0.882162  0.397713  0.085667  1
  O  O63  1  0.982329  0.794396  0.881364  1
  O  O64  1  0.313729  0.896814  0.017433  1
  O  O65  1  0.915521  0.294195  0.313697  1
  O  O66  1  0.687953  0.102287  0.984447  1
  O  O67  1  0.086968  0.705604  0.687933  1
  O  O68  1  0.186271  0.203703  0.583085  1
  O  O69  1  0.480499  0.601825  0.186303  1
  O  O70  1  0.812047  0.796494  0.414333  1
  O  O71  1  0.517671  0.399034  0.812067  1
  O  O72  1  0.298109  0.314017  0.917492  1
  O  O73  1  0.702131  0.686386  0.082814  1
  O  O74  1  0.201891  0.119384  0.015909  1
  O  O75  1  0.797869  0.880683  0.984255  1
  O  O76  1  0.896525  0.380616  0.582508  1
  O  O77  1  0.103572  0.619317  0.417186  1
  O  O78  1  0.603475  0.185983  0.484091  1
  O  O79  1  0.396428  0.813614  0.515745  1
