# generated using pymatgen
data_Th3Mg(Co4P3)2
_symmetry_space_group_name_H-M   'P 1'
_cell_length_a   3.84900000
_cell_length_b   10.74623600
_cell_length_c   12.57422500
_cell_angle_alpha   90.00000000
_cell_angle_beta   90.00000000
_cell_angle_gamma   90.00000000
_symmetry_Int_Tables_number   1
_chemical_formula_structural   Th3Mg(Co4P3)2
_chemical_formula_sum   'Th6 Mg2 Co16 P12'
_cell_volume   520.09839347
_cell_formula_units_Z   2
loop_
 _symmetry_equiv_pos_site_id
 _symmetry_equiv_pos_as_xyz
  1  'x, y, z'
loop_
 _atom_site_type_symbol
 _atom_site_label
 _atom_site_symmetry_multiplicity
 _atom_site_fract_x
 _atom_site_fract_y
 _atom_site_fract_z
 _atom_site_occupancy
  Th  Th0  1  0.000000  0.500000  0.525487  1
  Th  Th1  1  0.500000  0.000000  0.474513  1
  Th  Th2  1  0.500000  0.818762  0.206674  1
  Th  Th3  1  0.500000  0.181238  0.206674  1
  Th  Th4  1  0.000000  0.681238  0.793326  1
  Th  Th5  1  0.000000  0.318762  0.793326  1
  Mg  Mg6  1  0.500000  0.500000  0.152721  1
  Mg  Mg7  1  0.000000  0.000000  0.847279  1
  Co  Co8  1  0.500000  0.500000  0.704658  1
  Co  Co9  1  0.000000  0.000000  0.295342  1
  Co  Co10  1  0.000000  0.500000  0.988044  1
  Co  Co11  1  0.500000  0.000000  0.011956  1
  Co  Co12  1  0.500000  0.332255  0.996519  1
  Co  Co13  1  0.500000  0.667745  0.996519  1
  Co  Co14  1  0.000000  0.167745  0.003481  1
  Co  Co15  1  0.000000  0.832255  0.003481  1
  Co  Co16  1  0.500000  0.298106  0.432553  1
  Co  Co17  1  0.500000  0.701894  0.432553  1
  Co  Co18  1  0.000000  0.201894  0.567447  1
  Co  Co19  1  0.000000  0.798106  0.567447  1
  Co  Co20  1  0.500000  0.877944  0.705243  1
  Co  Co21  1  0.500000  0.122056  0.705243  1
  Co  Co22  1  0.000000  0.622056  0.294757  1
  Co  Co23  1  0.000000  0.377944  0.294757  1
  P  P24  1  0.500000  0.500000  0.888170  1
  P  P25  1  0.000000  0.000000  0.111830  1
  P  P26  1  0.500000  0.500000  0.349767  1
  P  P27  1  0.000000  0.000000  0.650233  1
  P  P28  1  0.500000  0.305285  0.613104  1
  P  P29  1  0.500000  0.694715  0.613104  1
  P  P30  1  0.000000  0.194715  0.386896  1
  P  P31  1  0.000000  0.805285  0.386896  1
  P  P32  1  0.500000  0.842005  0.898115  1
  P  P33  1  0.500000  0.157995  0.898115  1
  P  P34  1  0.000000  0.657995  0.101885  1
  P  P35  1  0.000000  0.342005  0.101885  1
