# generated using pymatgen
data_Y6TcNi17P12
_symmetry_space_group_name_H-M   'P 1'
_cell_length_a   3.79125400
_cell_length_b   10.57260800
_cell_length_c   12.38452500
_cell_angle_alpha   90.00000000
_cell_angle_beta   90.00000000
_cell_angle_gamma   90.00000000
_symmetry_Int_Tables_number   1
_chemical_formula_structural   Y6TcNi17P12
_chemical_formula_sum   'Y6 Tc1 Ni17 P12'
_cell_volume   496.41439412
_cell_formula_units_Z   1
loop_
 _symmetry_equiv_pos_site_id
 _symmetry_equiv_pos_as_xyz
  1  'x, y, z'
loop_
 _atom_site_type_symbol
 _atom_site_label
 _atom_site_symmetry_multiplicity
 _atom_site_fract_x
 _atom_site_fract_y
 _atom_site_fract_z
 _atom_site_occupancy
  Y  Y0  1  0.000000  0.500000  0.523615  1
  Y  Y1  1  0.500000  0.000000  0.480326  1
  Y  Y2  1  0.500000  0.816095  0.206107  1
  Y  Y3  1  0.500000  0.183905  0.206107  1
  Y  Y4  1  0.000000  0.684955  0.792711  1
  Y  Y5  1  0.000000  0.315045  0.792711  1
  Tc  Tc6  1  0.500000  0.500000  0.153882  1
  Ni  Ni7  1  0.000000  0.000000  0.840481  1
  Ni  Ni8  1  0.500000  0.500000  0.701651  1
  Ni  Ni9  1  0.000000  0.000000  0.300623  1
  Ni  Ni10  1  0.000000  0.500000  0.984407  1
  Ni  Ni11  1  0.500000  0.000000  0.016145  1
  Ni  Ni12  1  0.500000  0.329264  0.989725  1
  Ni  Ni13  1  0.500000  0.670736  0.989725  1
  Ni  Ni14  1  0.000000  0.164221  0.005892  1
  Ni  Ni15  1  0.000000  0.835779  0.005892  1
  Ni  Ni16  1  0.500000  0.302293  0.428604  1
  Ni  Ni17  1  0.500000  0.697707  0.428604  1
  Ni  Ni18  1  0.000000  0.198141  0.572084  1
  Ni  Ni19  1  0.000000  0.801859  0.572084  1
  Ni  Ni20  1  0.500000  0.879722  0.711498  1
  Ni  Ni21  1  0.500000  0.120278  0.711498  1
  Ni  Ni22  1  0.000000  0.619633  0.289667  1
  Ni  Ni23  1  0.000000  0.380367  0.289667  1
  P  P24  1  0.500000  0.500000  0.879077  1
  P  P25  1  0.000000  0.000000  0.124490  1
  P  P26  1  0.500000  0.500000  0.346487  1
  P  P27  1  0.000000  0.000000  0.655839  1
  P  P28  1  0.500000  0.312888  0.614678  1
  P  P29  1  0.500000  0.687112  0.614678  1
  P  P30  1  0.000000  0.186489  0.386610  1
  P  P31  1  0.000000  0.813511  0.386610  1
  P  P32  1  0.500000  0.849636  0.892702  1
  P  P33  1  0.500000  0.150364  0.892702  1
  P  P34  1  0.000000  0.653110  0.106213  1
  P  P35  1  0.000000  0.346890  0.106213  1
