# generated using pymatgen
data_Ca2Yb5ErBi6
_symmetry_space_group_name_H-M   'P 1'
_cell_length_a   8.27807720
_cell_length_b   8.34380142
_cell_length_c   8.36327913
_cell_angle_alpha   109.61820722
_cell_angle_beta   109.33207651
_cell_angle_gamma   109.28347916
_symmetry_Int_Tables_number   1
_chemical_formula_structural   Ca2Yb5ErBi6
_chemical_formula_sum   'Ca2 Yb5 Er1 Bi6'
_cell_volume   445.66175608
_cell_formula_units_Z   1
loop_
 _symmetry_equiv_pos_site_id
 _symmetry_equiv_pos_as_xyz
  1  'x, y, z'
loop_
 _atom_site_type_symbol
 _atom_site_label
 _atom_site_symmetry_multiplicity
 _atom_site_fract_x
 _atom_site_fract_y
 _atom_site_fract_z
 _atom_site_occupancy
  Ca  Ca0  1  0.649387  0.500347  0.000210  1
  Ca  Ca1  1  0.499714  0.000716  0.650484  1
  Yb  Yb2  1  0.354459  0.351617  0.354876  1
  Yb  Yb3  1  0.502621  0.003066  0.148369  1
  Yb  Yb4  1  0.998717  0.649717  0.499465  1
  Yb  Yb5  1  0.849368  0.849327  0.850245  1
  Yb  Yb6  1  0.999429  0.145142  0.496833  1
  Er  Er7  1  0.147330  0.500197  0.000439  1
  Bi  Bi8  1  0.370409  0.623871  0.754701  1
  Bi  Bi9  1  0.882925  0.255465  0.125661  1
  Bi  Bi10  1  0.615949  0.745066  0.369245  1
  Bi  Bi11  1  0.126448  0.869665  0.243999  1
  Bi  Bi12  1  0.246038  0.130591  0.875942  1
  Bi  Bi13  1  0.757206  0.375213  0.629530  1
