# generated using pymatgen
data_PrTh3(GeAu)4
_symmetry_space_group_name_H-M   'P 1'
_cell_length_a   4.46193900
_cell_length_b   4.46194003
_cell_length_c   16.25222400
_cell_angle_alpha   90.00000000
_cell_angle_beta   90.00000000
_cell_angle_gamma   119.99998496
_symmetry_Int_Tables_number   1
_chemical_formula_structural   PrTh3(GeAu)4
_chemical_formula_sum   'Pr1 Th3 Ge4 Au4'
_cell_volume   280.21466117
_cell_formula_units_Z   1
loop_
 _symmetry_equiv_pos_site_id
 _symmetry_equiv_pos_as_xyz
  1  'x, y, z'
loop_
 _atom_site_type_symbol
 _atom_site_label
 _atom_site_symmetry_multiplicity
 _atom_site_fract_x
 _atom_site_fract_y
 _atom_site_fract_z
 _atom_site_occupancy
  Pr  Pr0  1  0.000000  0.000000  0.500000  1
  Th  Th1  1  0.000000  0.000000  0.249219  1
  Th  Th2  1  0.000000  0.000000  0.750781  1
  Th  Th3  1  0.000000  0.000000  0.000000  1
  Ge  Ge4  1  0.333333  0.666667  0.616903  1
  Ge  Ge5  1  0.666667  0.333333  0.383097  1
  Ge  Ge6  1  0.666667  0.333333  0.112524  1
  Ge  Ge7  1  0.333333  0.666667  0.887476  1
  Au  Au8  1  0.333333  0.666667  0.139205  1
  Au  Au9  1  0.666667  0.333333  0.860795  1
  Au  Au10  1  0.666667  0.333333  0.643679  1
  Au  Au11  1  0.333333  0.666667  0.356321  1
