# generated using pymatgen
data_Dy5Si12Ir18Os
_symmetry_space_group_name_H-M   'P 1'
_cell_length_a   12.81460318
_cell_length_b   12.85769431
_cell_length_c   3.98903100
_cell_angle_alpha   90.00000000
_cell_angle_beta   90.00000000
_cell_angle_gamma   120.11129915
_symmetry_Int_Tables_number   1
_chemical_formula_structural   Dy5Si12Ir18Os
_chemical_formula_sum   'Dy5 Si12 Ir18 Os1'
_cell_volume   568.56240120
_cell_formula_units_Z   1
loop_
 _symmetry_equiv_pos_site_id
 _symmetry_equiv_pos_as_xyz
  1  'x, y, z'
loop_
 _atom_site_type_symbol
 _atom_site_label
 _atom_site_symmetry_multiplicity
 _atom_site_fract_x
 _atom_site_fract_y
 _atom_site_fract_z
 _atom_site_occupancy
  Dy  Dy0  1  0.331495  0.665553  0.500000  1
  Dy  Dy1  1  0.668505  0.334058  0.500000  1
  Dy  Dy2  1  0.000000  0.813488  0.000000  1
  Dy  Dy3  1  0.184915  0.185744  0.000000  1
  Dy  Dy4  1  0.815085  0.000830  0.000000  1
  Si  Si5  1  0.000000  0.628677  0.500000  1
  Si  Si6  1  0.368188  0.367836  0.500000  1
  Si  Si7  1  0.631812  0.999648  0.500000  1
  Si  Si8  1  0.518762  0.687886  0.000000  1
  Si  Si9  1  0.311379  0.831970  0.000000  1
  Si  Si10  1  0.165761  0.480302  0.000000  1
  Si  Si11  1  0.481238  0.169123  0.000000  1
  Si  Si12  1  0.688621  0.520591  0.000000  1
  Si  Si13  1  0.834239  0.314542  0.000000  1
  Si  Si14  1  0.000000  0.180543  0.500000  1
  Si  Si15  1  0.817931  0.818552  0.500000  1
  Si  Si16  1  0.182069  0.000621  0.500000  1
  Ir  Ir17  1  0.511586  0.873205  0.000000  1
  Ir  Ir18  1  0.126509  0.638982  0.000000  1
  Ir  Ir19  1  0.360611  0.488397  0.000000  1
  Ir  Ir20  1  0.488414  0.361619  0.000000  1
  Ir  Ir21  1  0.873491  0.512474  0.000000  1
  Ir  Ir22  1  0.639389  0.127786  0.000000  1
  Ir  Ir23  1  0.552621  0.552439  0.500000  1
  Ir  Ir24  1  0.447379  0.999818  0.500000  1
  Ir  Ir25  1  0.000000  0.281104  0.000000  1
  Ir  Ir26  1  0.717316  0.717997  0.000000  1
  Ir  Ir27  1  0.282684  0.000681  0.000000  1
  Ir  Ir28  1  0.622092  0.805295  0.500000  1
  Ir  Ir29  1  0.193287  0.817821  0.500000  1
  Ir  Ir30  1  0.182436  0.376796  0.500000  1
  Ir  Ir31  1  0.377908  0.183204  0.500000  1
  Ir  Ir32  1  0.806713  0.624535  0.500000  1
  Ir  Ir33  1  0.817564  0.194361  0.500000  1
  Ir  Ir34  1  0.000000  0.999643  0.500000  1
  Os  Os35  1  0.000000  0.443880  0.500000  1
