# generated using pymatgen
data_Y2NiAsS
_symmetry_space_group_name_H-M   'P 1'
_cell_length_a   4.00863700
_cell_length_b   4.00863770
_cell_length_c   13.96198400
_cell_angle_alpha   90.00000000
_cell_angle_beta   90.00000000
_cell_angle_gamma   120.00000245
_symmetry_Int_Tables_number   1
_chemical_formula_structural   Y2NiAsS
_chemical_formula_sum   'Y4 Ni2 As2 S2'
_cell_volume   194.29932623
_cell_formula_units_Z   2
loop_
 _symmetry_equiv_pos_site_id
 _symmetry_equiv_pos_as_xyz
  1  'x, y, z'
loop_
 _atom_site_type_symbol
 _atom_site_label
 _atom_site_symmetry_multiplicity
 _atom_site_fract_x
 _atom_site_fract_y
 _atom_site_fract_z
 _atom_site_occupancy
  Y  Y0  1  0.333333  0.666667  0.385744  1
  Y  Y1  1  0.666667  0.333333  0.614256  1
  Y  Y2  1  0.666667  0.333333  0.885744  1
  Y  Y3  1  0.333333  0.666667  0.114256  1
  Ni  Ni4  1  0.000000  0.000000  0.250000  1
  Ni  Ni5  1  0.000000  0.000000  0.750000  1
  As  As6  1  0.333333  0.666667  0.750000  1
  As  As7  1  0.666667  0.333333  0.250000  1
  S  S8  1  0.000000  0.000000  0.500000  1
  S  S9  1  0.000000  0.000000  0.000000  1
