# generated using pymatgen
data_Ho2CrFeC3
_symmetry_space_group_name_H-M   'P 1'
_cell_length_a   5.36613957
_cell_length_b   5.36613931
_cell_length_c   5.52036941
_cell_angle_alpha   75.22143760
_cell_angle_beta   75.22143847
_cell_angle_gamma   36.83624650
_symmetry_Int_Tables_number   1
_chemical_formula_structural   Ho2CrFeC3
_chemical_formula_sum   'Ho2 Cr1 Fe1 C3'
_cell_volume   91.79322868
_cell_formula_units_Z   1
loop_
 _symmetry_equiv_pos_site_id
 _symmetry_equiv_pos_as_xyz
  1  'x, y, z'
loop_
 _atom_site_type_symbol
 _atom_site_label
 _atom_site_symmetry_multiplicity
 _atom_site_fract_x
 _atom_site_fract_y
 _atom_site_fract_z
 _atom_site_occupancy
  Ho  Ho0  1  0.603000  0.603000  0.184004  1
  Ho  Ho1  1  0.391577  0.391577  0.814378  1
  Cr  Cr2  1  0.157433  0.157433  0.603968  1
  Fe  Fe3  1  0.841773  0.841773  0.391267  1
  C  C4  1  0.291833  0.291833  0.273481  1
  C  C5  1  0.714046  0.714046  0.733465  1
  C  C6  1  0.000338  0.000338  0.499437  1
