# generated using pymatgen
data_Nd5Er5(Pb3Se)2
_symmetry_space_group_name_H-M   'P 1'
_cell_length_a   9.29302000
_cell_length_b   9.29343904
_cell_length_c   6.79703800
_cell_angle_alpha   90.00000000
_cell_angle_beta   90.00000000
_cell_angle_gamma   120.19410650
_symmetry_Int_Tables_number   1
_chemical_formula_structural   Nd5Er5(Pb3Se)2
_chemical_formula_sum   'Nd5 Er5 Pb6 Se2'
_cell_volume   507.37711232
_cell_formula_units_Z   1
loop_
 _symmetry_equiv_pos_site_id
 _symmetry_equiv_pos_as_xyz
  1  'x, y, z'
loop_
 _atom_site_type_symbol
 _atom_site_label
 _atom_site_symmetry_multiplicity
 _atom_site_fract_x
 _atom_site_fract_y
 _atom_site_fract_z
 _atom_site_occupancy
  Nd  Nd0  1  0.255091  0.000820  0.750000  1
  Nd  Nd1  1  0.000845  0.255081  0.750000  1
  Nd  Nd2  1  0.251495  0.251491  0.250000  1
  Nd  Nd3  1  0.745696  0.998918  0.250000  1
  Nd  Nd4  1  0.998920  0.745673  0.250000  1
  Er  Er5  1  0.751012  0.751029  0.750000  1
  Er  Er6  1  0.666945  0.334355  0.999399  1
  Er  Er7  1  0.334348  0.666947  0.999384  1
  Er  Er8  1  0.334348  0.666947  0.500616  1
  Er  Er9  1  0.666945  0.334355  0.500601  1
  Pb  Pb10  1  0.403762  0.403738  0.750000  1
  Pb  Pb11  1  0.603515  0.996133  0.750000  1
  Pb  Pb12  1  0.996019  0.603428  0.750000  1
  Pb  Pb13  1  0.600744  0.600843  0.250000  1
  Pb  Pb14  1  0.397595  0.000064  0.250000  1
  Pb  Pb15  1  0.000003  0.397489  0.250000  1
  Se  Se16  1  0.996361  0.996345  0.996893  1
  Se  Se17  1  0.996361  0.996345  0.503107  1
