# generated using pymatgen
data_SrLaPa2(Al3Ir)6
_symmetry_space_group_name_H-M   'P 1'
_cell_length_a   7.65498929
_cell_length_b   7.63993229
_cell_length_c   9.46892300
_cell_angle_alpha   90.00000000
_cell_angle_beta   90.00000000
_cell_angle_gamma   119.53145518
_symmetry_Int_Tables_number   1
_chemical_formula_structural   SrLaPa2(Al3Ir)6
_chemical_formula_sum   'Sr1 La1 Pa2 Al18 Ir6'
_cell_volume   481.83292824
_cell_formula_units_Z   1
loop_
 _symmetry_equiv_pos_site_id
 _symmetry_equiv_pos_as_xyz
  1  'x, y, z'
loop_
 _atom_site_type_symbol
 _atom_site_label
 _atom_site_symmetry_multiplicity
 _atom_site_fract_x
 _atom_site_fract_y
 _atom_site_fract_z
 _atom_site_occupancy
  Sr  Sr0  1  0.669950  0.994181  0.250000  1
  La  La1  1  0.330904  0.006173  0.750000  1
  Pa  Pa2  1  0.998041  0.672377  0.250000  1
  Pa  Pa3  1  0.002281  0.327640  0.750000  1
  Al  Al4  1  0.132455  0.127893  0.250000  1
  Al  Al5  1  0.866704  0.870883  0.750000  1
  Al  Al6  1  0.001991  0.334199  0.075926  1
  Al  Al7  1  0.996880  0.664899  0.924612  1
  Al  Al8  1  0.996880  0.664899  0.575388  1
  Al  Al9  1  0.336806  0.003859  0.423639  1
  Al  Al10  1  0.001991  0.334199  0.424074  1
  Al  Al11  1  0.664188  0.995967  0.574517  1
  Al  Al12  1  0.664188  0.995967  0.925483  1
  Al  Al13  1  0.336806  0.003859  0.076361  1
  Al  Al14  1  0.334863  0.335348  0.550043  1
  Al  Al15  1  0.665020  0.665452  0.449503  1
  Al  Al16  1  0.665020  0.665452  0.050497  1
  Al  Al17  1  0.334863  0.335348  0.949957  1
  Al  Al18  1  0.336195  0.545304  0.250000  1
  Al  Al19  1  0.663182  0.455395  0.750000  1
  Al  Al20  1  0.551108  0.347858  0.250000  1
  Al  Al21  1  0.450126  0.653279  0.750000  1
  Ir  Ir22  1  0.675967  0.331876  0.998538  1
  Ir  Ir23  1  0.322801  0.667859  0.999450  1
  Ir  Ir24  1  0.322801  0.667859  0.500550  1
  Ir  Ir25  1  0.675967  0.331876  0.501462  1
  Ir  Ir26  1  0.001011  0.000049  0.999102  1
  Ir  Ir27  1  0.001011  0.000049  0.500898  1
