# generated using pymatgen
data_SrLaYb2(Al3Pd)6
_symmetry_space_group_name_H-M   'P 1'
_cell_length_a   7.72795844
_cell_length_b   7.71144352
_cell_length_c   9.59494100
_cell_angle_alpha   90.00000000
_cell_angle_beta   90.00000000
_cell_angle_gamma   119.52315477
_symmetry_Int_Tables_number   1
_chemical_formula_structural   SrLaYb2(Al3Pd)6
_chemical_formula_sum   'Sr1 La1 Yb2 Al18 Pd6'
_cell_volume   497.55397314
_cell_formula_units_Z   1
loop_
 _symmetry_equiv_pos_site_id
 _symmetry_equiv_pos_as_xyz
  1  'x, y, z'
loop_
 _atom_site_type_symbol
 _atom_site_label
 _atom_site_symmetry_multiplicity
 _atom_site_fract_x
 _atom_site_fract_y
 _atom_site_fract_z
 _atom_site_occupancy
  Sr  Sr0  1  0.671163  0.996140  0.250000  1
  La  La1  1  0.330047  0.003152  0.750000  1
  Yb  Yb2  1  0.994799  0.669426  0.250000  1
  Yb  Yb3  1  0.003901  0.330441  0.750000  1
  Al  Al4  1  0.134756  0.133823  0.250000  1
  Al  Al5  1  0.868840  0.867231  0.750000  1
  Al  Al6  1  0.004313  0.337764  0.072229  1
  Al  Al7  1  0.995921  0.661561  0.925299  1
  Al  Al8  1  0.995921  0.661561  0.574701  1
  Al  Al9  1  0.331666  0.001117  0.423686  1
  Al  Al10  1  0.004313  0.337764  0.427771  1
  Al  Al11  1  0.669141  0.999559  0.577771  1
  Al  Al12  1  0.669141  0.999559  0.922229  1
  Al  Al13  1  0.331666  0.001117  0.076314  1
  Al  Al14  1  0.332891  0.335011  0.554460  1
  Al  Al15  1  0.666324  0.664065  0.448678  1
  Al  Al16  1  0.666324  0.664065  0.051322  1
  Al  Al17  1  0.332891  0.335011  0.945540  1
  Al  Al18  1  0.335904  0.542583  0.250000  1
  Al  Al19  1  0.659850  0.455896  0.750000  1
  Al  Al20  1  0.545564  0.345148  0.250000  1
  Al  Al21  1  0.454972  0.658484  0.750000  1
  Pd  Pd22  1  0.671738  0.329003  0.999698  1
  Pd  Pd23  1  0.327737  0.670656  0.998989  1
  Pd  Pd24  1  0.327737  0.670656  0.501011  1
  Pd  Pd25  1  0.671738  0.329003  0.500302  1
  Pd  Pd26  1  0.000373  0.000102  0.999441  1
  Pd  Pd27  1  0.000373  0.000102  0.500559  1
