# generated using pymatgen
data_Ce5Tm11(MnCd)4
_symmetry_space_group_name_H-M   'P 1'
_cell_length_a   9.57906755
_cell_length_b   9.41534046
_cell_length_c   9.41534010
_cell_angle_alpha   60.83262471
_cell_angle_beta   59.42307926
_cell_angle_gamma   59.42307828
_symmetry_Int_Tables_number   1
_chemical_formula_structural   Ce5Tm11(MnCd)4
_chemical_formula_sum   'Ce5 Tm11 Mn4 Cd4'
_cell_volume   598.75129576
_cell_formula_units_Z   1
loop_
 _symmetry_equiv_pos_site_id
 _symmetry_equiv_pos_as_xyz
  1  'x, y, z'
loop_
 _atom_site_type_symbol
 _atom_site_label
 _atom_site_symmetry_multiplicity
 _atom_site_fract_x
 _atom_site_fract_y
 _atom_site_fract_z
 _atom_site_occupancy
  Ce  Ce0  1  0.367932  0.330779  0.330779  1
  Ce  Ce1  1  0.327707  0.373588  0.970999  1
  Ce  Ce2  1  0.327707  0.970999  0.373588  1
  Ce  Ce3  1  0.970511  0.330779  0.330779  1
  Ce  Ce4  1  0.815752  0.184248  0.184248  1
  Tm  Tm5  1  0.183864  0.816136  0.816136  1
  Tm  Tm6  1  0.191748  0.809840  0.186050  1
  Tm  Tm7  1  0.812362  0.186050  0.809840  1
  Tm  Tm8  1  0.191748  0.186050  0.809840  1
  Tm  Tm9  1  0.812362  0.809840  0.186050  1
  Tm  Tm10  1  0.940972  0.559028  0.559028  1
  Tm  Tm11  1  0.562426  0.937574  0.937574  1
  Tm  Tm12  1  0.566021  0.933966  0.564431  1
  Tm  Tm13  1  0.935584  0.564431  0.933966  1
  Tm  Tm14  1  0.566021  0.564431  0.933966  1
  Tm  Tm15  1  0.935584  0.933966  0.564431  1
  Mn  Mn16  1  0.073986  0.169819  0.169819  1
  Mn  Mn17  1  0.167361  0.111003  0.554276  1
  Mn  Mn18  1  0.167361  0.554276  0.111003  1
  Mn  Mn19  1  0.586375  0.169819  0.169819  1
  Cd  Cd20  1  0.589621  0.577163  0.577163  1
  Cd  Cd21  1  0.575474  0.593677  0.255374  1
  Cd  Cd22  1  0.575474  0.255374  0.593677  1
  Cd  Cd23  1  0.256052  0.577163  0.577163  1
