# generated using pymatgen
data_Ca4PrNd5Ir4
_symmetry_space_group_name_H-M   'P 1'
_cell_length_a   8.80115844
_cell_length_b   8.80510747
_cell_length_c   7.45631221
_cell_angle_alpha   83.23337666
_cell_angle_beta   83.18090162
_cell_angle_gamma   44.99233934
_symmetry_Int_Tables_number   1
_chemical_formula_structural   Ca4PrNd5Ir4
_chemical_formula_sum   'Ca4 Pr1 Nd5 Ir4'
_cell_volume   405.16950068
_cell_formula_units_Z   1
loop_
 _symmetry_equiv_pos_site_id
 _symmetry_equiv_pos_as_xyz
  1  'x, y, z'
loop_
 _atom_site_type_symbol
 _atom_site_label
 _atom_site_symmetry_multiplicity
 _atom_site_fract_x
 _atom_site_fract_y
 _atom_site_fract_z
 _atom_site_occupancy
  Ca  Ca0  1  0.016305  0.800172  0.917436  1
  Ca  Ca1  1  0.199905  0.983596  0.582526  1
  Ca  Ca2  1  0.983483  0.199971  0.082722  1
  Ca  Ca3  1  0.800184  0.016255  0.417281  1
  Pr  Pr4  1  0.347706  0.211602  0.815968  1
  Nd  Nd5  1  0.788146  0.652025  0.683634  1
  Nd  Nd6  1  0.652104  0.788059  0.183944  1
  Nd  Nd7  1  0.211554  0.348188  0.316242  1
  Nd  Nd8  1  0.565880  0.434432  0.750007  1
  Nd  Nd9  1  0.434302  0.565723  0.249982  1
  Ir  Ir10  1  0.184607  0.586645  0.571857  1
  Ir  Ir11  1  0.414045  0.814663  0.927849  1
  Ir  Ir12  1  0.815236  0.413924  0.427759  1
  Ir  Ir13  1  0.586542  0.184744  0.072792  1
