# generated using pymatgen
data_La4Yb5ScSi8
_symmetry_space_group_name_H-M   'P 1'
_cell_length_a   7.52909116
_cell_length_b   7.92278600
_cell_length_c   15.13685300
_cell_angle_alpha   90.00000000
_cell_angle_beta   89.98804482
_cell_angle_gamma   90.00000000
_symmetry_Int_Tables_number   1
_chemical_formula_structural   La4Yb5ScSi8
_chemical_formula_sum   'La8 Yb10 Sc2 Si16'
_cell_volume   902.93412138
_cell_formula_units_Z   2
loop_
 _symmetry_equiv_pos_site_id
 _symmetry_equiv_pos_as_xyz
  1  'x, y, z'
loop_
 _atom_site_type_symbol
 _atom_site_label
 _atom_site_symmetry_multiplicity
 _atom_site_fract_x
 _atom_site_fract_y
 _atom_site_fract_z
 _atom_site_occupancy
  La  La0  1  0.024562  0.181545  0.398401  1
  La  La1  1  0.524562  0.318455  0.398401  1
  La  La2  1  0.473135  0.683958  0.903276  1
  La  La3  1  0.472396  0.684834  0.599376  1
  La  La4  1  0.972396  0.815166  0.599376  1
  La  La5  1  0.973135  0.816042  0.903276  1
  La  La6  1  0.527461  0.317148  0.097506  1
  La  La7  1  0.027461  0.182852  0.097506  1
  Yb  Yb8  1  0.319677  0.180950  0.622778  1
  Yb  Yb9  1  0.681252  0.820167  0.374149  1
  Yb  Yb10  1  0.643551  0.005223  0.751516  1
  Yb  Yb11  1  0.181252  0.679833  0.374149  1
  Yb  Yb12  1  0.820566  0.320938  0.882513  1
  Yb  Yb13  1  0.819677  0.319050  0.622778  1
  Yb  Yb14  1  0.852373  0.500695  0.249477  1
  Yb  Yb15  1  0.352373  0.999305  0.249477  1
  Yb  Yb16  1  0.320566  0.179062  0.882513  1
  Yb  Yb17  1  0.143551  0.494777  0.751516  1
  Sc  Sc18  1  0.180651  0.681761  0.122909  1
  Sc  Sc19  1  0.680651  0.818239  0.122909  1
  Si  Si20  1  0.256048  0.876626  0.751875  1
  Si  Si21  1  0.467858  0.608999  0.238226  1
  Si  Si22  1  0.030780  0.095928  0.753109  1
  Si  Si23  1  0.530780  0.404072  0.753109  1
  Si  Si24  1  0.142328  0.470993  0.535159  1
  Si  Si25  1  0.967858  0.891001  0.238226  1
  Si  Si26  1  0.742205  0.112101  0.242627  1
  Si  Si27  1  0.860711  0.542103  0.044612  1
  Si  Si28  1  0.360711  0.957897  0.044612  1
  Si  Si29  1  0.146768  0.480384  0.971843  1
  Si  Si30  1  0.642328  0.029007  0.535159  1
  Si  Si31  1  0.357679  0.973216  0.460649  1
  Si  Si32  1  0.857679  0.526784  0.460649  1
  Si  Si33  1  0.756048  0.623374  0.751875  1
  Si  Si34  1  0.242205  0.387899  0.242627  1
  Si  Si35  1  0.646768  0.019616  0.971843  1
