# generated using pymatgen
data_Cs2MnP3O10
_symmetry_space_group_name_H-M   'P 1'
_cell_length_a   9.16220300
_cell_length_b   9.68903906
_cell_length_c   12.50495600
_cell_angle_alpha   84.81765676
_cell_angle_beta   90.00000000
_cell_angle_gamma   90.00000000
_symmetry_Int_Tables_number   1
_chemical_formula_structural   Cs2MnP3O10
_chemical_formula_sum   'Cs8 Mn4 P12 O40'
_cell_volume   1105.56396004
_cell_formula_units_Z   4
loop_
 _symmetry_equiv_pos_site_id
 _symmetry_equiv_pos_as_xyz
  1  'x, y, z'
loop_
 _atom_site_type_symbol
 _atom_site_label
 _atom_site_symmetry_multiplicity
 _atom_site_fract_x
 _atom_site_fract_y
 _atom_site_fract_z
 _atom_site_occupancy
  Cs  Cs0  1  0.399040  0.263951  0.540962  1
  Cs  Cs1  1  0.100960  0.763951  0.540962  1
  Cs  Cs2  1  0.600960  0.736049  0.459038  1
  Cs  Cs3  1  0.879055  0.994023  0.148144  1
  Cs  Cs4  1  0.120945  0.005977  0.851856  1
  Cs  Cs5  1  0.379055  0.505977  0.851856  1
  Cs  Cs6  1  0.620945  0.494023  0.148144  1
  Cs  Cs7  1  0.899040  0.236049  0.459038  1
  Mn  Mn8  1  0.852662  0.641164  0.847744  1
  Mn  Mn9  1  0.647338  0.141164  0.847744  1
  Mn  Mn10  1  0.352662  0.858836  0.152256  1
  Mn  Mn11  1  0.147338  0.358836  0.152256  1
  P  P12  1  0.924012  0.317873  0.953179  1
  P  P13  1  0.280758  0.566336  0.312116  1
  P  P14  1  0.461239  0.914662  0.739505  1
  P  P15  1  0.038761  0.414662  0.739505  1
  P  P16  1  0.219242  0.066336  0.312116  1
  P  P17  1  0.961239  0.585338  0.260495  1
  P  P18  1  0.075988  0.682127  0.046821  1
  P  P19  1  0.424012  0.182127  0.046821  1
  P  P20  1  0.719242  0.433664  0.687884  1
  P  P21  1  0.538761  0.085338  0.260495  1
  P  P22  1  0.780758  0.933664  0.687884  1
  P  P23  1  0.575988  0.817873  0.953179  1
  O  O24  1  0.013340  0.278915  0.055601  1
  O  O25  1  0.272512  0.426573  0.260016  1
  O  O26  1  0.128776  0.172194  0.242264  1
  O  O27  1  0.371224  0.672194  0.242264  1
  O  O28  1  0.112541  0.629389  0.312586  1
  O  O29  1  0.533061  0.933290  0.239630  1
  O  O30  1  0.827905  0.193254  0.938056  1
  O  O31  1  0.486660  0.778915  0.055601  1
  O  O32  1  0.327905  0.306746  0.061944  1
  O  O33  1  0.454896  0.824068  0.855802  1
  O  O34  1  0.871224  0.827806  0.757736  1
  O  O35  1  0.327780  0.547214  0.427598  1
  O  O36  1  0.727488  0.573427  0.739984  1
  O  O37  1  0.628776  0.327806  0.757736  1
  O  O38  1  0.672220  0.452786  0.572402  1
  O  O39  1  0.033061  0.566710  0.760370  1
  O  O40  1  0.346285  0.042840  0.052524  1
  O  O41  1  0.653715  0.957160  0.947476  1
  O  O42  1  0.846285  0.457160  0.947476  1
  O  O43  1  0.045104  0.324068  0.855802  1
  O  O44  1  0.387459  0.129389  0.312586  1
  O  O45  1  0.772512  0.073427  0.739984  1
  O  O46  1  0.545104  0.175932  0.144198  1
  O  O47  1  0.966939  0.433290  0.239630  1
  O  O48  1  0.227488  0.926573  0.260016  1
  O  O49  1  0.662443  0.133697  0.324691  1
  O  O50  1  0.887459  0.370611  0.687414  1
  O  O51  1  0.827780  0.952786  0.572402  1
  O  O52  1  0.513340  0.221085  0.944399  1
  O  O53  1  0.162443  0.366303  0.675309  1
  O  O54  1  0.986660  0.721085  0.944399  1
  O  O55  1  0.612541  0.870611  0.687414  1
  O  O56  1  0.837557  0.633697  0.324691  1
  O  O57  1  0.954896  0.675932  0.144198  1
  O  O58  1  0.172220  0.047214  0.427598  1
  O  O59  1  0.172095  0.806746  0.061944  1
  O  O60  1  0.466939  0.066710  0.760370  1
  O  O61  1  0.337557  0.866303  0.675309  1
  O  O62  1  0.672095  0.693254  0.938056  1
  O  O63  1  0.153715  0.542840  0.052524  1
