# generated using pymatgen
data_Nd12Ga8RuRh7
_symmetry_space_group_name_H-M   'P 1'
_cell_length_a   5.69939140
_cell_length_b   8.19469730
_cell_length_c   13.67847782
_cell_angle_alpha   89.88475142
_cell_angle_beta   90.16056936
_cell_angle_gamma   90.03198017
_symmetry_Int_Tables_number   1
_chemical_formula_structural   Nd12Ga8RuRh7
_chemical_formula_sum   'Nd12 Ga8 Ru1 Rh7'
_cell_volume   638.84649847
_cell_formula_units_Z   1
loop_
 _symmetry_equiv_pos_site_id
 _symmetry_equiv_pos_as_xyz
  1  'x, y, z'
loop_
 _atom_site_type_symbol
 _atom_site_label
 _atom_site_symmetry_multiplicity
 _atom_site_fract_x
 _atom_site_fract_y
 _atom_site_fract_z
 _atom_site_occupancy
  Nd  Nd0  1  0.632719  0.258515  0.249769  1
  Nd  Nd1  1  0.365700  0.740569  0.749931  1
  Nd  Nd2  1  0.367791  0.762092  0.248323  1
  Nd  Nd3  1  0.636377  0.240076  0.750019  1
  Nd  Nd4  1  0.147856  0.395897  0.098122  1
  Nd  Nd5  1  0.852928  0.600886  0.902618  1
  Nd  Nd6  1  0.852742  0.601015  0.597651  1
  Nd  Nd7  1  0.852597  0.898953  0.401670  1
  Nd  Nd8  1  0.146598  0.399242  0.402007  1
  Nd  Nd9  1  0.147393  0.100868  0.597884  1
  Nd  Nd10  1  0.148472  0.100162  0.903181  1
  Nd  Nd11  1  0.853373  0.902942  0.098345  1
  Ga  Ga12  1  0.136398  0.109375  0.250539  1
  Ga  Ga13  1  0.864654  0.889902  0.749839  1
  Ga  Ga14  1  0.864551  0.609457  0.249433  1
  Ga  Ga15  1  0.137863  0.390161  0.750296  1
  Ga  Ga16  1  0.626906  0.248631  0.000422  1
  Ga  Ga17  1  0.370133  0.751046  0.001089  1
  Ga  Ga18  1  0.367888  0.750010  0.499911  1
  Ga  Ga19  1  0.631304  0.250111  0.500127  1
  Ru  Ru20  1  0.353038  0.032227  0.090982  1
  Rh  Rh21  1  0.642837  0.966296  0.907198  1
  Rh  Rh22  1  0.642802  0.967327  0.591592  1
  Rh  Rh23  1  0.642733  0.532667  0.408253  1
  Rh  Rh24  1  0.356422  0.032400  0.409498  1
  Rh  Rh25  1  0.357374  0.467958  0.591655  1
  Rh  Rh26  1  0.357168  0.470586  0.908107  1
  Rh  Rh27  1  0.643380  0.530626  0.091540  1
