# generated using pymatgen
data_Pr3ThFeCoB20
_symmetry_space_group_name_H-M   'P 1'
_cell_length_a   4.19781400
_cell_length_b   5.65117600
_cell_length_c   11.25658536
_cell_angle_alpha   90.38258641
_cell_angle_beta   90.00000000
_cell_angle_gamma   90.00000000
_symmetry_Int_Tables_number   1
_chemical_formula_structural   Pr3ThFeCoB20
_chemical_formula_sum   'Pr3 Th1 Fe1 Co1 B20'
_cell_volume   267.02935808
_cell_formula_units_Z   1
loop_
 _symmetry_equiv_pos_site_id
 _symmetry_equiv_pos_as_xyz
  1  'x, y, z'
loop_
 _atom_site_type_symbol
 _atom_site_label
 _atom_site_symmetry_multiplicity
 _atom_site_fract_x
 _atom_site_fract_y
 _atom_site_fract_z
 _atom_site_occupancy
  Pr  Pr0  1  0.500000  0.299672  0.865689  1
  Pr  Pr1  1  0.500000  0.700863  0.133486  1
  Pr  Pr2  1  0.500000  0.794946  0.633172  1
  Th  Th3  1  0.500000  0.208915  0.369653  1
  Fe  Fe4  1  0.000000  0.496579  0.498320  1
  Co  Co5  1  0.000000  0.999878  0.000437  1
  B  B6  1  0.000000  0.126836  0.540021  1
  B  B7  1  0.000000  0.870475  0.459894  1
  B  B8  1  0.000000  0.627355  0.959361  1
  B  B9  1  0.000000  0.372004  0.040620  1
  B  B10  1  0.000000  0.154795  0.697712  1
  B  B11  1  0.000000  0.847510  0.302790  1
  B  B12  1  0.298894  0.201765  0.113670  1
  B  B13  1  0.298453  0.798100  0.887065  1
  B  B14  1  0.701593  0.702164  0.386474  1
  B  B15  1  0.702300  0.296317  0.612443  1
  B  B16  1  0.701547  0.798100  0.887065  1
  B  B17  1  0.701106  0.201765  0.113670  1
  B  B18  1  0.297700  0.296317  0.612443  1
  B  B19  1  0.298407  0.702164  0.386474  1
  B  B20  1  0.000000  0.036770  0.187834  1
  B  B21  1  0.000000  0.964722  0.813478  1
  B  B22  1  0.000000  0.536323  0.312371  1
  B  B23  1  0.000000  0.464960  0.685999  1
  B  B24  1  0.000000  0.345703  0.197044  1
  B  B25  1  0.000000  0.655004  0.802814  1
