# generated using pymatgen
data_Rb4MgMn5Se8
_symmetry_space_group_name_H-M   'P 1'
_cell_length_a   9.86233374
_cell_length_b   9.85645675
_cell_length_c   9.86258320
_cell_angle_alpha   143.01414915
_cell_angle_beta   105.52789829
_cell_angle_gamma   86.21437006
_symmetry_Int_Tables_number   1
_chemical_formula_structural   Rb4MgMn5Se8
_chemical_formula_sum   'Rb4 Mg1 Mn5 Se8'
_cell_volume   537.35696495
_cell_formula_units_Z   1
loop_
 _symmetry_equiv_pos_site_id
 _symmetry_equiv_pos_as_xyz
  1  'x, y, z'
loop_
 _atom_site_type_symbol
 _atom_site_label
 _atom_site_symmetry_multiplicity
 _atom_site_fract_x
 _atom_site_fract_y
 _atom_site_fract_z
 _atom_site_occupancy
  Rb  Rb0  1  0.121467  0.236347  0.358624  1
  Rb  Rb1  1  0.376786  0.736563  0.115881  1
  Rb  Rb2  1  0.622266  0.263641  0.885110  1
  Rb  Rb3  1  0.879312  0.763469  0.640240  1
  Mg  Mg4  1  0.521230  0.749997  0.771236  1
  Mn  Mn5  1  0.978038  0.749993  0.228035  1
  Mn  Mn6  1  0.478723  0.250102  0.228779  1
  Mn  Mn7  1  0.750201  0.249954  0.500150  1
  Mn  Mn8  1  0.251344  0.750004  0.501346  1
  Mn  Mn9  1  0.022355  0.249974  0.772341  1
  Se  Se10  1  0.219656  0.073168  0.587694  1
  Se  Se11  1  0.279076  0.871887  0.856327  1
  Se  Se12  1  0.014519  0.426826  0.146479  1
  Se  Se13  1  0.484446  0.628126  0.407201  1
  Se  Se14  1  0.780164  0.925651  0.411583  1
  Se  Se15  1  0.720919  0.136740  0.150308  1
  Se  Se16  1  0.985918  0.574312  0.854492  1
  Se  Se17  1  0.513580  0.363248  0.584173  1
