# generated using pymatgen
data_CaEu7(NbN4)2
_symmetry_space_group_name_H-M   'P 1'
_cell_length_a   6.24797761
_cell_length_b   6.28079539
_cell_length_c   9.39091518
_cell_angle_alpha   71.93026271
_cell_angle_beta   82.28207575
_cell_angle_gamma   68.58386550
_symmetry_Int_Tables_number   1
_chemical_formula_structural   CaEu7(NbN4)2
_chemical_formula_sum   'Ca1 Eu7 Nb2 N8'
_cell_volume   326.06280842
_cell_formula_units_Z   1
loop_
 _symmetry_equiv_pos_site_id
 _symmetry_equiv_pos_as_xyz
  1  'x, y, z'
loop_
 _atom_site_type_symbol
 _atom_site_label
 _atom_site_symmetry_multiplicity
 _atom_site_fract_x
 _atom_site_fract_y
 _atom_site_fract_z
 _atom_site_occupancy
  Ca  Ca0  1  0.247777  0.756789  0.010691  1
  Eu  Eu1  1  0.240145  0.956181  0.602857  1
  Eu  Eu2  1  0.737824  0.621905  0.189928  1
  Eu  Eu3  1  0.761908  0.232952  0.989014  1
  Eu  Eu4  1  0.254348  0.531617  0.418905  1
  Eu  Eu5  1  0.754667  0.049469  0.400100  1
  Eu  Eu6  1  0.259727  0.381266  0.809486  1
  Eu  Eu7  1  0.740484  0.471842  0.581169  1
  Nb  Nb8  1  0.721484  0.847714  0.765671  1
  Nb  Nb9  1  0.278412  0.152245  0.234361  1
  N  N10  1  0.966730  0.716689  0.624785  1
  N  N11  1  0.524319  0.166512  0.628979  1
  N  N12  1  0.026787  0.288112  0.371369  1
  N  N13  1  0.522862  0.640216  0.802799  1
  N  N14  1  0.163359  0.141509  0.050755  1
  N  N15  1  0.473461  0.837659  0.372194  1
  N  N16  1  0.470335  0.367651  0.198677  1
  N  N17  1  0.855372  0.839671  0.948262  1
