# generated using pymatgen
data_Er18TmLuPt16
_symmetry_space_group_name_H-M   'P 1'
_cell_length_a   7.39953507
_cell_length_b   7.50307714
_cell_length_c   14.62193600
_cell_angle_alpha   90.00000000
_cell_angle_beta   90.00000000
_cell_angle_gamma   90.01853897
_symmetry_Int_Tables_number   1
_chemical_formula_structural   Er18TmLuPt16
_chemical_formula_sum   'Er18 Tm1 Lu1 Pt16'
_cell_volume   811.79935107
_cell_formula_units_Z   1
loop_
 _symmetry_equiv_pos_site_id
 _symmetry_equiv_pos_as_xyz
  1  'x, y, z'
loop_
 _atom_site_type_symbol
 _atom_site_label
 _atom_site_symmetry_multiplicity
 _atom_site_fract_x
 _atom_site_fract_y
 _atom_site_fract_z
 _atom_site_occupancy
  Er  Er0  1  0.656894  0.167695  0.622443  1
  Er  Er1  1  0.156620  0.332457  0.877592  1
  Er  Er2  1  0.343069  0.831940  0.122478  1
  Er  Er3  1  0.843683  0.667402  0.377528  1
  Er  Er4  1  0.343069  0.831940  0.377522  1
  Er  Er5  1  0.843683  0.667402  0.122472  1
  Er  Er6  1  0.656894  0.167695  0.877557  1
  Er  Er7  1  0.156620  0.332457  0.622408  1
  Er  Er8  1  0.502071  0.679756  0.592845  1
  Er  Er9  1  0.001483  0.820077  0.907214  1
  Er  Er10  1  0.497790  0.320356  0.092917  1
  Er  Er11  1  0.998615  0.180171  0.407158  1
  Er  Er12  1  0.497790  0.320356  0.407083  1
  Er  Er13  1  0.998615  0.180171  0.092842  1
  Er  Er14  1  0.502071  0.679756  0.907155  1
  Er  Er15  1  0.001483  0.820077  0.592786  1
  Er  Er16  1  0.319065  0.988128  0.750000  1
  Er  Er17  1  0.680853  0.011656  0.250000  1
  Tm  Tm18  1  0.819140  0.511619  0.750000  1
  Lu  Lu19  1  0.181071  0.488107  0.250000  1
  Pt  Pt20  1  0.684115  0.967665  0.458447  1
  Pt  Pt21  1  0.184154  0.532320  0.041986  1
  Pt  Pt22  1  0.315767  0.032421  0.958368  1
  Pt  Pt23  1  0.815793  0.467566  0.541815  1
  Pt  Pt24  1  0.315767  0.032421  0.541632  1
  Pt  Pt25  1  0.815793  0.467566  0.958185  1
  Pt  Pt26  1  0.684115  0.967665  0.041553  1
  Pt  Pt27  1  0.184154  0.532320  0.458014  1
  Pt  Pt28  1  0.454346  0.388307  0.750000  1
  Pt  Pt29  1  0.953547  0.112152  0.750000  1
  Pt  Pt30  1  0.544318  0.611209  0.250000  1
  Pt  Pt31  1  0.046745  0.887143  0.250000  1
  Pt  Pt32  1  0.682293  0.855119  0.750000  1
  Pt  Pt33  1  0.181468  0.643750  0.750000  1
  Pt  Pt34  1  0.317168  0.146402  0.250000  1
  Pt  Pt35  1  0.819877  0.356751  0.250000  1
