# generated using pymatgen
data_Tb4NbSi8Tc5
_symmetry_space_group_name_H-M   'P 1'
_cell_length_a   6.85085848
_cell_length_b   6.89795906
_cell_length_c   6.78734564
_cell_angle_alpha   70.03341267
_cell_angle_beta   90.40903085
_cell_angle_gamma   89.24617630
_symmetry_Int_Tables_number   1
_chemical_formula_structural   Tb4NbSi8Tc5
_chemical_formula_sum   'Tb4 Nb1 Si8 Tc5'
_cell_volume   301.42039548
_cell_formula_units_Z   1
loop_
 _symmetry_equiv_pos_site_id
 _symmetry_equiv_pos_as_xyz
  1  'x, y, z'
loop_
 _atom_site_type_symbol
 _atom_site_label
 _atom_site_symmetry_multiplicity
 _atom_site_fract_x
 _atom_site_fract_y
 _atom_site_fract_z
 _atom_site_occupancy
  Tb  Tb0  1  0.329212  0.559727  0.811448  1
  Tb  Tb1  1  0.832547  0.936947  0.188038  1
  Tb  Tb2  1  0.670788  0.440273  0.188552  1
  Tb  Tb3  1  0.167453  0.063053  0.811962  1
  Nb  Nb4  1  0.500000  0.000000  0.500000  1
  Si  Si5  1  0.542998  0.861509  0.916332  1
  Si  Si6  1  0.062867  0.616489  0.112157  1
  Si  Si7  1  0.457002  0.138491  0.083668  1
  Si  Si8  1  0.937133  0.383511  0.887843  1
  Si  Si9  1  0.126630  0.867607  0.501189  1
  Si  Si10  1  0.650754  0.613748  0.529643  1
  Si  Si11  1  0.873370  0.132393  0.498811  1
  Si  Si12  1  0.349246  0.386252  0.470357  1
  Tc  Tc13  1  0.000000  0.500000  0.500000  1
  Tc  Tc14  1  0.849240  0.766778  0.764096  1
  Tc  Tc15  1  0.353139  0.766711  0.266190  1
  Tc  Tc16  1  0.150760  0.233222  0.235904  1
  Tc  Tc17  1  0.646861  0.233289  0.733810  1
