# generated using pymatgen
data_TaIn2NiPt8
_symmetry_space_group_name_H-M   'P 1'
_cell_length_a   4.00991500
_cell_length_b   4.00991500
_cell_length_c   12.01811400
_cell_angle_alpha   90.00000000
_cell_angle_beta   90.00000000
_cell_angle_gamma   90.00000000
_symmetry_Int_Tables_number   1
_chemical_formula_structural   TaIn2NiPt8
_chemical_formula_sum   'Ta1 In2 Ni1 Pt8'
_cell_volume   193.24428227
_cell_formula_units_Z   1
loop_
 _symmetry_equiv_pos_site_id
 _symmetry_equiv_pos_as_xyz
  1  'x, y, z'
loop_
 _atom_site_type_symbol
 _atom_site_label
 _atom_site_symmetry_multiplicity
 _atom_site_fract_x
 _atom_site_fract_y
 _atom_site_fract_z
 _atom_site_occupancy
  Ta  Ta0  1  0.000000  0.000000  0.000000  1
  In  In1  1  0.000000  0.000000  0.332615  1
  In  In2  1  0.000000  0.000000  0.667385  1
  Ni  Ni3  1  0.500000  0.500000  0.000000  1
  Pt  Pt4  1  0.500000  0.500000  0.326885  1
  Pt  Pt5  1  0.500000  0.500000  0.673115  1
  Pt  Pt6  1  0.500000  0.000000  0.151478  1
  Pt  Pt7  1  0.500000  0.000000  0.500000  1
  Pt  Pt8  1  0.500000  0.000000  0.848522  1
  Pt  Pt9  1  0.000000  0.500000  0.151478  1
  Pt  Pt10  1  0.000000  0.500000  0.500000  1
  Pt  Pt11  1  0.000000  0.500000  0.848522  1
