# generated using pymatgen
data_Lu10NiAu3
_symmetry_space_group_name_H-M   'P 1'
_cell_length_a   9.21879700
_cell_length_b   9.21879814
_cell_length_c   9.29525200
_cell_angle_alpha   90.00000000
_cell_angle_beta   90.00000000
_cell_angle_gamma   119.99999232
_symmetry_Int_Tables_number   1
_chemical_formula_structural   Lu10NiAu3
_chemical_formula_sum   'Lu20 Ni2 Au6'
_cell_volume   684.13276572
_cell_formula_units_Z   2
loop_
 _symmetry_equiv_pos_site_id
 _symmetry_equiv_pos_as_xyz
  1  'x, y, z'
loop_
 _atom_site_type_symbol
 _atom_site_label
 _atom_site_symmetry_multiplicity
 _atom_site_fract_x
 _atom_site_fract_y
 _atom_site_fract_z
 _atom_site_occupancy
  Lu  Lu0  1  0.000000  0.000000  0.500000  1
  Lu  Lu1  1  0.000000  0.000000  0.000000  1
  Lu  Lu2  1  0.542744  0.457264  0.250000  1
  Lu  Lu3  1  0.542744  0.085476  0.250000  1
  Lu  Lu4  1  0.914519  0.457259  0.250000  1
  Lu  Lu5  1  0.457256  0.542736  0.750000  1
  Lu  Lu6  1  0.457256  0.914524  0.750000  1
  Lu  Lu7  1  0.085481  0.542741  0.750000  1
  Lu  Lu8  1  0.208100  0.791899  0.440273  1
  Lu  Lu9  1  0.208096  0.416209  0.440278  1
  Lu  Lu10  1  0.583796  0.791903  0.440277  1
  Lu  Lu11  1  0.791900  0.208101  0.559727  1
  Lu  Lu12  1  0.791904  0.583791  0.559722  1
  Lu  Lu13  1  0.416204  0.208097  0.559723  1
  Lu  Lu14  1  0.791900  0.208101  0.940273  1
  Lu  Lu15  1  0.791904  0.583791  0.940278  1
  Lu  Lu16  1  0.416204  0.208097  0.940277  1
  Lu  Lu17  1  0.208100  0.791899  0.059727  1
  Lu  Lu18  1  0.208096  0.416209  0.059722  1
  Lu  Lu19  1  0.583796  0.791903  0.059723  1
  Ni  Ni20  1  0.333342  0.666682  0.250000  1
  Ni  Ni21  1  0.666658  0.333318  0.750000  1
  Au  Au22  1  0.880292  0.119707  0.250000  1
  Au  Au23  1  0.880294  0.760587  0.250000  1
  Au  Au24  1  0.239413  0.119705  0.250000  1
  Au  Au25  1  0.119708  0.880293  0.750000  1
  Au  Au26  1  0.119706  0.239413  0.750000  1
  Au  Au27  1  0.760587  0.880295  0.750000  1
