# generated using pymatgen
data_Hf8MoOs4Rh3
_symmetry_space_group_name_H-M   'P 1'
_cell_length_a   6.62141800
_cell_length_b   4.59711400
_cell_length_c   9.17440400
_cell_angle_alpha   90.00000000
_cell_angle_beta   90.00020135
_cell_angle_gamma   90.00000000
_symmetry_Int_Tables_number   1
_chemical_formula_structural   Hf8MoOs4Rh3
_chemical_formula_sum   'Hf8 Mo1 Os4 Rh3'
_cell_volume   279.26347594
_cell_formula_units_Z   1
loop_
 _symmetry_equiv_pos_site_id
 _symmetry_equiv_pos_as_xyz
  1  'x, y, z'
loop_
 _atom_site_type_symbol
 _atom_site_label
 _atom_site_symmetry_multiplicity
 _atom_site_fract_x
 _atom_site_fract_y
 _atom_site_fract_z
 _atom_site_occupancy
  Hf  Hf0  1  0.496586  0.750000  0.124998  1
  Hf  Hf1  1  0.003409  0.750000  0.125001  1
  Hf  Hf2  1  0.498547  0.249999  0.373468  1
  Hf  Hf3  1  0.001453  0.249999  0.373470  1
  Hf  Hf4  1  0.000124  0.750000  0.624995  1
  Hf  Hf5  1  0.499872  0.750000  0.624997  1
  Hf  Hf6  1  0.001449  0.249999  0.876520  1
  Hf  Hf7  1  0.498553  0.249999  0.876521  1
  Mo  Mo8  1  0.249998  0.249999  0.125002  1
  Os  Os9  1  0.750000  0.249999  0.124999  1
  Os  Os10  1  0.249998  0.750000  0.378661  1
  Os  Os11  1  0.750000  0.249999  0.625003  1
  Os  Os12  1  0.250000  0.750000  0.871341  1
  Rh  Rh13  1  0.749998  0.750000  0.376371  1
  Rh  Rh14  1  0.250004  0.249999  0.625008  1
  Rh  Rh15  1  0.750005  0.750000  0.873643  1
