# generated using pymatgen
data_Y4FePt3O14
_symmetry_space_group_name_H-M   'P 1'
_cell_length_a   7.30220863
_cell_length_b   7.30319502
_cell_length_c   7.30134940
_cell_angle_alpha   59.36498235
_cell_angle_beta   59.36835091
_cell_angle_gamma   59.36502916
_symmetry_Int_Tables_number   1
_chemical_formula_structural   Y4FePt3O14
_chemical_formula_sum   'Y4 Fe1 Pt3 O14'
_cell_volume   271.35868558
_cell_formula_units_Z   1
loop_
 _symmetry_equiv_pos_site_id
 _symmetry_equiv_pos_as_xyz
  1  'x, y, z'
loop_
 _atom_site_type_symbol
 _atom_site_label
 _atom_site_symmetry_multiplicity
 _atom_site_fract_x
 _atom_site_fract_y
 _atom_site_fract_z
 _atom_site_occupancy
  Y  Y0  1  0.500000  0.000001  0.500002  1
  Y  Y1  1  0.000000  0.499999  0.499999  1
  Y  Y2  1  0.499999  0.500002  0.000000  1
  Y  Y3  1  0.500000  0.500001  0.499999  1
  Fe  Fe4  1  0.999998  0.000002  0.000000  1
  Pt  Pt5  1  0.999999  0.499999  0.000000  1
  Pt  Pt6  1  0.500000  0.999999  0.000001  1
  Pt  Pt7  1  0.000002  0.999999  0.500001  1
  O  O8  1  0.623540  0.623579  0.623468  1
  O  O9  1  0.376460  0.376423  0.376532  1
  O  O10  1  0.340380  0.911820  0.911800  1
  O  O11  1  0.090930  0.661081  0.661041  1
  O  O12  1  0.911759  0.340402  0.911732  1
  O  O13  1  0.911851  0.911845  0.340356  1
  O  O14  1  0.339019  0.338990  0.909005  1
  O  O15  1  0.338848  0.909158  0.338857  1
  O  O16  1  0.909071  0.338918  0.338958  1
  O  O17  1  0.660981  0.661011  0.090994  1
  O  O18  1  0.088151  0.088153  0.659644  1
  O  O19  1  0.659620  0.088181  0.088200  1
  O  O20  1  0.661153  0.090843  0.661143  1
  O  O21  1  0.088240  0.659599  0.088267  1
