# generated using pymatgen
data_Dy6Ho2Sc12Si15Hg
_symmetry_space_group_name_H-M   'P 1'
_cell_length_a   7.13224787
_cell_length_b   7.39312376
_cell_length_c   14.08641407
_cell_angle_alpha   89.91989331
_cell_angle_beta   89.55057088
_cell_angle_gamma   90.14476351
_symmetry_Int_Tables_number   1
_chemical_formula_structural   Dy6Ho2Sc12Si15Hg
_chemical_formula_sum   'Dy6 Ho2 Sc12 Si15 Hg1'
_cell_volume   742.74488633
_cell_formula_units_Z   1
loop_
 _symmetry_equiv_pos_site_id
 _symmetry_equiv_pos_as_xyz
  1  'x, y, z'
loop_
 _atom_site_type_symbol
 _atom_site_label
 _atom_site_symmetry_multiplicity
 _atom_site_fract_x
 _atom_site_fract_y
 _atom_site_fract_z
 _atom_site_occupancy
  Dy  Dy0  1  0.012182  0.175612  0.097230  1
  Dy  Dy1  1  0.987451  0.825299  0.904310  1
  Dy  Dy2  1  0.487331  0.676774  0.903854  1
  Dy  Dy3  1  0.988797  0.831271  0.598283  1
  Dy  Dy4  1  0.511992  0.323707  0.096415  1
  Dy  Dy5  1  0.007645  0.171155  0.398332  1
  Ho  Ho6  1  0.511681  0.322062  0.399053  1
  Ho  Ho7  1  0.496404  0.681824  0.600332  1
  Sc  Sc8  1  0.162623  0.501621  0.754257  1
  Sc  Sc9  1  0.836898  0.498170  0.250018  1
  Sc  Sc10  1  0.337352  0.001169  0.248820  1
  Sc  Sc11  1  0.664931  0.996604  0.751620  1
  Sc  Sc12  1  0.342330  0.168103  0.628926  1
  Sc  Sc13  1  0.664140  0.824522  0.373023  1
  Sc  Sc14  1  0.166627  0.677894  0.370667  1
  Sc  Sc15  1  0.669342  0.823729  0.124264  1
  Sc  Sc16  1  0.825460  0.325073  0.626311  1
  Sc  Sc17  1  0.329051  0.175109  0.876131  1
  Sc  Sc18  1  0.830253  0.322823  0.876176  1
  Sc  Sc19  1  0.168832  0.676775  0.124919  1
  Si  Si20  1  0.035519  0.120332  0.751470  1
  Si  Si21  1  0.964164  0.884043  0.247886  1
  Si  Si22  1  0.466078  0.615103  0.247894  1
  Si  Si23  1  0.533720  0.386144  0.752179  1
  Si  Si24  1  0.284891  0.871828  0.751812  1
  Si  Si25  1  0.712615  0.127905  0.247769  1
  Si  Si26  1  0.213372  0.371052  0.248114  1
  Si  Si27  1  0.788757  0.628486  0.752654  1
  Si  Si28  1  0.832294  0.538323  0.459092  1
  Si  Si29  1  0.338603  0.962402  0.460005  1
  Si  Si30  1  0.843480  0.535263  0.038870  1
  Si  Si31  1  0.660345  0.037325  0.537567  1
  Si  Si32  1  0.156358  0.464180  0.962148  1
  Si  Si33  1  0.656237  0.034788  0.960547  1
  Si  Si34  1  0.342703  0.965000  0.039801  1
  Hg  Hg35  1  0.169542  0.458526  0.539255  1
