# generated using pymatgen
data_Ac4TcOsO10
_symmetry_space_group_name_H-M   'P 1'
_cell_length_a   7.04491686
_cell_length_b   7.04491722
_cell_length_c   7.04491700
_cell_angle_alpha   100.46557464
_cell_angle_beta   100.46558345
_cell_angle_gamma   129.54694975
_symmetry_Int_Tables_number   1
_chemical_formula_structural   Ac4TcOsO10
_chemical_formula_sum   'Ac4 Tc1 Os1 O10'
_cell_volume   243.89957248
_cell_formula_units_Z   1
loop_
 _symmetry_equiv_pos_site_id
 _symmetry_equiv_pos_as_xyz
  1  'x, y, z'
loop_
 _atom_site_type_symbol
 _atom_site_label
 _atom_site_symmetry_multiplicity
 _atom_site_fract_x
 _atom_site_fract_y
 _atom_site_fract_z
 _atom_site_occupancy
  Ac  Ac0  1  0.816181  0.393783  0.208620  1
  Ac  Ac1  1  0.393783  0.185162  0.577603  1
  Ac  Ac2  1  0.607560  0.816181  0.422397  1
  Ac  Ac3  1  0.185162  0.607560  0.791380  1
  Tc  Tc4  1  0.817336  0.817336  0.000000  1
  Os  Os5  1  0.184678  0.184678  0.000000  1
  O  O6  1  0.348218  0.067124  0.907421  1
  O  O7  1  0.067124  0.159701  0.718904  1
  O  O8  1  0.440797  0.348218  0.281096  1
  O  O9  1  0.159701  0.440797  0.092579  1
  O  O10  1  0.650943  0.930291  0.092519  1
  O  O11  1  0.930291  0.837771  0.279348  1
  O  O12  1  0.251016  0.751016  0.500000  1
  O  O13  1  0.751016  0.251016  0.500000  1
  O  O14  1  0.837771  0.558423  0.907481  1
  O  O15  1  0.558423  0.650943  0.720652  1
