# generated using pymatgen
data_HoZr(Tc2P)4
_symmetry_space_group_name_H-M   'P 1'
_cell_length_a   7.36250106
_cell_length_b   7.36250106
_cell_length_c   3.94849700
_cell_angle_alpha   90.00000000
_cell_angle_beta   90.00000000
_cell_angle_gamma   90.39192329
_symmetry_Int_Tables_number   1
_chemical_formula_structural   HoZr(Tc2P)4
_chemical_formula_sum   'Ho1 Zr1 Tc8 P4'
_cell_volume   214.02888684
_cell_formula_units_Z   1
loop_
 _symmetry_equiv_pos_site_id
 _symmetry_equiv_pos_as_xyz
  1  'x, y, z'
loop_
 _atom_site_type_symbol
 _atom_site_label
 _atom_site_symmetry_multiplicity
 _atom_site_fract_x
 _atom_site_fract_y
 _atom_site_fract_z
 _atom_site_occupancy
  Ho  Ho0  1  0.000000  0.000000  0.500000  1
  Zr  Zr1  1  0.500000  0.500000  0.000000  1
  Tc  Tc2  1  0.340903  0.084975  0.000000  1
  Tc  Tc3  1  0.579406  0.163428  0.500000  1
  Tc  Tc4  1  0.420594  0.836572  0.500000  1
  Tc  Tc5  1  0.659097  0.915025  0.000000  1
  Tc  Tc6  1  0.163428  0.579406  0.500000  1
  Tc  Tc7  1  0.836572  0.420594  0.500000  1
  Tc  Tc8  1  0.084975  0.340903  0.000000  1
  Tc  Tc9  1  0.915025  0.659097  0.000000  1
  P  P10  1  0.785240  0.214760  0.000000  1
  P  P11  1  0.710280  0.710280  0.500000  1
  P  P12  1  0.289720  0.289720  0.500000  1
  P  P13  1  0.214760  0.785240  0.000000  1
