# generated using pymatgen
data_Nb6Ga3IrN2
_symmetry_space_group_name_H-M   'P 1'
_cell_length_a   7.04166974
_cell_length_b   7.03519748
_cell_length_c   7.06928700
_cell_angle_alpha   90.00000000
_cell_angle_beta   90.00000000
_cell_angle_gamma   90.53331911
_symmetry_Int_Tables_number   1
_chemical_formula_structural   Nb6Ga3IrN2
_chemical_formula_sum   'Nb12 Ga6 Ir2 N4'
_cell_volume   350.19403516
_cell_formula_units_Z   2
loop_
 _symmetry_equiv_pos_site_id
 _symmetry_equiv_pos_as_xyz
  1  'x, y, z'
loop_
 _atom_site_type_symbol
 _atom_site_label
 _atom_site_symmetry_multiplicity
 _atom_site_fract_x
 _atom_site_fract_y
 _atom_site_fract_z
 _atom_site_occupancy
  Nb  Nb0  1  0.794376  0.957243  0.374162  1
  Nb  Nb1  1  0.705624  0.042757  0.874162  1
  Nb  Nb2  1  0.208994  0.453626  0.124200  1
  Nb  Nb3  1  0.291006  0.546374  0.624200  1
  Nb  Nb4  1  0.957896  0.379892  0.790563  1
  Nb  Nb5  1  0.046803  0.875912  0.708283  1
  Nb  Nb6  1  0.453197  0.124088  0.208283  1
  Nb  Nb7  1  0.542104  0.620108  0.290563  1
  Nb  Nb8  1  0.377644  0.792900  0.957645  1
  Nb  Nb9  1  0.876103  0.708289  0.045840  1
  Nb  Nb10  1  0.122356  0.207100  0.457645  1
  Nb  Nb11  1  0.623897  0.291711  0.545840  1
  Ga  Ga12  1  0.821630  0.320236  0.177392  1
  Ga  Ga13  1  0.678370  0.679764  0.677392  1
  Ga  Ga14  1  0.562977  0.426256  0.928931  1
  Ga  Ga15  1  0.424235  0.932273  0.568719  1
  Ga  Ga16  1  0.937023  0.573744  0.428931  1
  Ga  Ga17  1  0.075765  0.067727  0.068719  1
  Ir  Ir18  1  0.181627  0.823323  0.318127  1
  Ir  Ir19  1  0.318373  0.176677  0.818127  1
  N  N20  1  0.875744  0.122408  0.627595  1
  N  N21  1  0.624256  0.877592  0.127595  1
  N  N22  1  0.128772  0.627063  0.878545  1
  N  N23  1  0.371228  0.372937  0.378545  1
