# generated using pymatgen
data_ZrZn(GaRh2)2
_symmetry_space_group_name_H-M   'P 1'
_cell_length_a   6.11744000
_cell_length_b   6.11714100
_cell_length_c   6.40393900
_cell_angle_alpha   90.00000000
_cell_angle_beta   90.00000000
_cell_angle_gamma   90.00000000
_symmetry_Int_Tables_number   1
_chemical_formula_structural   ZrZn(GaRh2)2
_chemical_formula_sum   'Zr2 Zn2 Ga4 Rh8'
_cell_volume   239.64335773
_cell_formula_units_Z   2
loop_
 _symmetry_equiv_pos_site_id
 _symmetry_equiv_pos_as_xyz
  1  'x, y, z'
loop_
 _atom_site_type_symbol
 _atom_site_label
 _atom_site_symmetry_multiplicity
 _atom_site_fract_x
 _atom_site_fract_y
 _atom_site_fract_z
 _atom_site_occupancy
  Zr  Zr0  1  0.749925  0.250000  0.000000  1
  Zr  Zr1  1  0.250074  0.750001  0.000000  1
  Zn  Zn2  1  0.750140  0.250000  0.499996  1
  Zn  Zn3  1  0.249859  0.750001  0.500004  1
  Ga  Ga4  1  0.249851  0.250000  0.999993  1
  Ga  Ga5  1  0.750150  0.750001  0.000007  1
  Ga  Ga6  1  0.750089  0.750001  0.499994  1
  Ga  Ga7  1  0.249912  0.250000  0.500006  1
  Rh  Rh8  1  0.999997  0.000002  0.262520  1
  Rh  Rh9  1  0.999997  0.500004  0.262520  1
  Rh  Rh10  1  0.499993  0.999999  0.262765  1
  Rh  Rh11  1  0.499993  0.499997  0.262765  1
  Rh  Rh12  1  0.500007  0.000001  0.737235  1
  Rh  Rh13  1  0.500007  0.500003  0.737235  1
  Rh  Rh14  1  0.000003  0.999998  0.737480  1
  Rh  Rh15  1  0.000003  0.499996  0.737480  1
