# generated using pymatgen
data_Nb8ReRu4W3
_symmetry_space_group_name_H-M   'P 1'
_cell_length_a   6.39978700
_cell_length_b   6.40207600
_cell_length_c   6.47025900
_cell_angle_alpha   90.00059650
_cell_angle_beta   90.00250207
_cell_angle_gamma   90.00110994
_symmetry_Int_Tables_number   1
_chemical_formula_structural   Nb8ReRu4W3
_chemical_formula_sum   'Nb8 Re1 Ru4 W3'
_cell_volume   265.09895181
_cell_formula_units_Z   1
loop_
 _symmetry_equiv_pos_site_id
 _symmetry_equiv_pos_as_xyz
  1  'x, y, z'
loop_
 _atom_site_type_symbol
 _atom_site_label
 _atom_site_symmetry_multiplicity
 _atom_site_fract_x
 _atom_site_fract_y
 _atom_site_fract_z
 _atom_site_occupancy
  Nb  Nb0  1  0.000204  0.000055  0.250020  1
  Nb  Nb1  1  0.000218  0.499977  0.250023  1
  Nb  Nb2  1  0.500140  0.000029  0.250076  1
  Nb  Nb3  1  0.500154  0.499929  0.250074  1
  Nb  Nb4  1  0.499789  0.000067  0.749928  1
  Nb  Nb5  1  0.499772  0.499972  0.749931  1
  Nb  Nb6  1  0.999875  0.000039  0.749969  1
  Nb  Nb7  1  0.999856  0.499927  0.749976  1
  Re  Re8  1  0.250057  0.250004  0.999989  1
  Ru  Ru9  1  0.750067  0.249997  0.999996  1
  Ru  Ru10  1  0.249923  0.749999  0.000001  1
  Ru  Ru11  1  0.250076  0.750000  0.499996  1
  Ru  Ru12  1  0.749930  0.250003  0.500004  1
  W  W13  1  0.749937  0.749998  0.000018  1
  W  W14  1  0.249946  0.249997  0.500000  1
  W  W15  1  0.750056  0.750003  0.500003  1
