# generated using pymatgen
data_Zr3Nb2Ge3O
_symmetry_space_group_name_H-M   'P 1'
_cell_length_a   7.92687500
_cell_length_b   7.92687651
_cell_length_c   5.48654400
_cell_angle_alpha   90.00000000
_cell_angle_beta   90.00000000
_cell_angle_gamma   120.00000622
_symmetry_Int_Tables_number   1
_chemical_formula_structural   Zr3Nb2Ge3O
_chemical_formula_sum   'Zr6 Nb4 Ge6 O2'
_cell_volume   298.56134134
_cell_formula_units_Z   2
loop_
 _symmetry_equiv_pos_site_id
 _symmetry_equiv_pos_as_xyz
  1  'x, y, z'
loop_
 _atom_site_type_symbol
 _atom_site_label
 _atom_site_symmetry_multiplicity
 _atom_site_fract_x
 _atom_site_fract_y
 _atom_site_fract_z
 _atom_site_occupancy
  Zr  Zr0  1  0.757534  0.757534  0.750000  1
  Zr  Zr1  1  0.242466  0.000000  0.750000  1
  Zr  Zr2  1  0.000000  0.242466  0.750000  1
  Zr  Zr3  1  0.242466  0.242466  0.250000  1
  Zr  Zr4  1  0.757534  0.000000  0.250000  1
  Zr  Zr5  1  0.000000  0.757534  0.250000  1
  Nb  Nb6  1  0.666667  0.333333  0.000000  1
  Nb  Nb7  1  0.333333  0.666667  0.000000  1
  Nb  Nb8  1  0.333333  0.666667  0.500000  1
  Nb  Nb9  1  0.666667  0.333333  0.500000  1
  Ge  Ge10  1  0.403093  0.403093  0.750000  1
  Ge  Ge11  1  0.596907  0.000000  0.750000  1
  Ge  Ge12  1  0.000000  0.596907  0.750000  1
  Ge  Ge13  1  0.596907  0.596907  0.250000  1
  Ge  Ge14  1  0.403093  0.000000  0.250000  1
  Ge  Ge15  1  0.000000  0.403093  0.250000  1
  O  O16  1  0.000000  0.000000  0.000000  1
  O  O17  1  0.000000  0.000000  0.500000  1
