# generated using pymatgen
data_LiRhSe4
_symmetry_space_group_name_H-M   'P 1'
_cell_length_a   6.13720009
_cell_length_b   6.27559864
_cell_length_c   6.10192100
_cell_angle_alpha   90.00000000
_cell_angle_beta   90.00000000
_cell_angle_gamma   88.34606889
_symmetry_Int_Tables_number   1
_chemical_formula_structural   LiRhSe4
_chemical_formula_sum   'Li2 Rh2 Se8'
_cell_volume   234.91516551
_cell_formula_units_Z   2
loop_
 _symmetry_equiv_pos_site_id
 _symmetry_equiv_pos_as_xyz
  1  'x, y, z'
loop_
 _atom_site_type_symbol
 _atom_site_label
 _atom_site_symmetry_multiplicity
 _atom_site_fract_x
 _atom_site_fract_y
 _atom_site_fract_z
 _atom_site_occupancy
  Li  Li0  1  0.000000  0.500000  0.500000  1
  Li  Li1  1  0.500000  0.500000  0.000000  1
  Rh  Rh2  1  0.500000  0.000000  0.500000  1
  Rh  Rh3  1  0.000000  0.000000  0.000000  1
  Se  Se4  1  0.375906  0.104610  0.879047  1
  Se  Se5  1  0.124094  0.895390  0.379047  1
  Se  Se6  1  0.890834  0.379311  0.104239  1
  Se  Se7  1  0.609166  0.620689  0.604239  1
  Se  Se8  1  0.390834  0.379311  0.395761  1
  Se  Se9  1  0.109166  0.620689  0.895761  1
  Se  Se10  1  0.875906  0.104610  0.620953  1
  Se  Se11  1  0.624094  0.895390  0.120953  1
