# generated using pymatgen
data_Sr5BiPb2F
_symmetry_space_group_name_H-M   'P 1'
_cell_length_a   10.11056189
_cell_length_b   10.11056230
_cell_length_c   10.11056194
_cell_angle_alpha   128.39997775
_cell_angle_beta   128.39997949
_cell_angle_gamma   75.97796373
_symmetry_Int_Tables_number   1
_chemical_formula_structural   Sr5BiPb2F
_chemical_formula_sum   'Sr10 Bi2 Pb4 F2'
_cell_volume   617.19648463
_cell_formula_units_Z   2
loop_
 _symmetry_equiv_pos_site_id
 _symmetry_equiv_pos_as_xyz
  1  'x, y, z'
loop_
 _atom_site_type_symbol
 _atom_site_label
 _atom_site_symmetry_multiplicity
 _atom_site_fract_x
 _atom_site_fract_y
 _atom_site_fract_z
 _atom_site_occupancy
  Sr  Sr0  1  0.500000  0.500000  0.000000  1
  Sr  Sr1  1  0.000000  0.000000  0.000000  1
  Sr  Sr2  1  0.510096  0.010096  0.814883  1
  Sr  Sr3  1  0.195213  0.695213  0.185117  1
  Sr  Sr4  1  0.010096  0.195213  0.500000  1
  Sr  Sr5  1  0.695213  0.510096  0.500000  1
  Sr  Sr6  1  0.489904  0.989904  0.185117  1
  Sr  Sr7  1  0.804787  0.304787  0.814883  1
  Sr  Sr8  1  0.989904  0.804787  0.500000  1
  Sr  Sr9  1  0.304787  0.489904  0.500000  1
  Bi  Bi10  1  0.250000  0.250000  0.000000  1
  Bi  Bi11  1  0.750000  0.750000  0.000000  1
  Pb  Pb12  1  0.869130  0.369130  0.238261  1
  Pb  Pb13  1  0.130870  0.630870  0.761740  1
  Pb  Pb14  1  0.369130  0.130870  0.500000  1
  Pb  Pb15  1  0.630870  0.869130  0.500000  1
  F  F16  1  0.250000  0.750000  0.500000  1
  F  F17  1  0.750000  0.250000  0.500000  1
