# generated using pymatgen
data_Cs2In2Te3
_symmetry_space_group_name_H-M   'P 1'
_cell_length_a   8.36273486
_cell_length_b   8.36273537
_cell_length_c   10.94510040
_cell_angle_alpha   82.61933994
_cell_angle_beta   82.61933873
_cell_angle_gamma   119.95770664
_symmetry_Int_Tables_number   1
_chemical_formula_structural   Cs2In2Te3
_chemical_formula_sum   'Cs4 In4 Te6'
_cell_volume   640.94828336
_cell_formula_units_Z   2
loop_
 _symmetry_equiv_pos_site_id
 _symmetry_equiv_pos_as_xyz
  1  'x, y, z'
loop_
 _atom_site_type_symbol
 _atom_site_label
 _atom_site_symmetry_multiplicity
 _atom_site_fract_x
 _atom_site_fract_y
 _atom_site_fract_z
 _atom_site_occupancy
  Cs  Cs0  1  0.655766  0.344234  0.000000  1
  Cs  Cs1  1  0.344234  0.655766  0.000000  1
  Cs  Cs2  1  0.000000  0.000000  0.000000  1
  Cs  Cs3  1  0.500000  0.500000  0.500000  1
  In  In4  1  0.876578  0.211863  0.365719  1
  In  In5  1  0.788137  0.123422  0.634281  1
  In  In6  1  0.211863  0.876578  0.365719  1
  In  In7  1  0.123422  0.788137  0.634281  1
  Te  Te8  1  0.417279  0.054397  0.745000  1
  Te  Te9  1  0.054397  0.417279  0.745000  1
  Te  Te10  1  0.945603  0.582721  0.255000  1
  Te  Te11  1  0.781735  0.781735  0.738749  1
  Te  Te12  1  0.582721  0.945603  0.255000  1
  Te  Te13  1  0.218265  0.218265  0.261251  1
