# generated using pymatgen
data_Ho5Pa3(TcB6)4
_symmetry_space_group_name_H-M   'P 1'
_cell_length_a   3.70685400
_cell_length_b   9.14830623
_cell_length_c   11.49888688
_cell_angle_alpha   90.13393249
_cell_angle_beta   90.00000000
_cell_angle_gamma   90.00000000
_symmetry_Int_Tables_number   1
_chemical_formula_structural   Ho5Pa3(TcB6)4
_chemical_formula_sum   'Ho5 Pa3 Tc4 B24'
_cell_volume   389.94269578
_cell_formula_units_Z   1
loop_
 _symmetry_equiv_pos_site_id
 _symmetry_equiv_pos_as_xyz
  1  'x, y, z'
loop_
 _atom_site_type_symbol
 _atom_site_label
 _atom_site_symmetry_multiplicity
 _atom_site_fract_x
 _atom_site_fract_y
 _atom_site_fract_z
 _atom_site_occupancy
  Ho  Ho0  1  0.000000  0.178647  0.913333  1
  Ho  Ho1  1  0.000000  0.945098  0.373912  1
  Ho  Ho2  1  0.000000  0.055768  0.627974  1
  Ho  Ho3  1  0.000000  0.443193  0.125602  1
  Ho  Ho4  1  0.000000  0.554105  0.873420  1
  Pa  Pa5  1  0.000000  0.321984  0.413608  1
  Pa  Pa6  1  0.000000  0.677399  0.587086  1
  Pa  Pa7  1  0.000000  0.824039  0.085771  1
  Tc  Tc8  1  0.000000  0.638390  0.321792  1
  Tc  Tc9  1  0.000000  0.363941  0.675155  1
  Tc  Tc10  1  0.000000  0.137814  0.181005  1
  Tc  Tc11  1  0.000000  0.859662  0.821400  1
  B  B12  1  0.500000  0.553463  0.432656  1
  B  B13  1  0.500000  0.447124  0.566268  1
  B  B14  1  0.500000  0.053080  0.067726  1
  B  B15  1  0.500000  0.945931  0.933029  1
  B  B16  1  0.500000  0.748439  0.420242  1
  B  B17  1  0.500000  0.252049  0.580379  1
  B  B18  1  0.500000  0.247807  0.079677  1
  B  B19  1  0.500000  0.752177  0.920227  1
  B  B20  1  0.500000  0.792234  0.265374  1
  B  B21  1  0.500000  0.208319  0.734400  1
  B  B22  1  0.500000  0.292118  0.233935  1
  B  B23  1  0.500000  0.707459  0.765483  1
  B  B24  1  0.500000  0.632575  0.184613  1
  B  B25  1  0.500000  0.367743  0.814585  1
  B  B26  1  0.500000  0.132632  0.315296  1
  B  B27  1  0.500000  0.867519  0.685850  1
  B  B28  1  0.500000  0.982734  0.212756  1
  B  B29  1  0.500000  0.017600  0.787199  1
  B  B30  1  0.500000  0.482845  0.286299  1
  B  B31  1  0.500000  0.516735  0.713418  1
  B  B32  1  0.500000  0.609616  0.030373  1
  B  B33  1  0.500000  0.389740  0.969366  1
  B  B34  1  0.500000  0.110203  0.470024  1
  B  B35  1  0.500000  0.889820  0.530764  1
