# generated using pymatgen
data_Tb3Nd5Ho4(Si2Ni)4
_symmetry_space_group_name_H-M   'P 1'
_cell_length_a   4.14349000
_cell_length_b   11.48084987
_cell_length_c   11.46651399
_cell_angle_alpha   89.69207094
_cell_angle_beta   90.00000000
_cell_angle_gamma   90.00000000
_symmetry_Int_Tables_number   1
_chemical_formula_structural   Tb3Nd5Ho4(Si2Ni)4
_chemical_formula_sum   'Tb3 Nd5 Ho4 Si8 Ni4'
_cell_volume   545.46321244
_cell_formula_units_Z   1
loop_
 _symmetry_equiv_pos_site_id
 _symmetry_equiv_pos_as_xyz
  1  'x, y, z'
loop_
 _atom_site_type_symbol
 _atom_site_label
 _atom_site_symmetry_multiplicity
 _atom_site_fract_x
 _atom_site_fract_y
 _atom_site_fract_z
 _atom_site_occupancy
  Tb  Tb0  1  0.250000  0.693409  0.216402  1
  Tb  Tb1  1  0.750000  0.195355  0.281993  1
  Tb  Tb2  1  0.750000  0.304202  0.781633  1
  Nd  Nd3  1  0.250000  0.127508  0.556520  1
  Nd  Nd4  1  0.250000  0.373132  0.055640  1
  Nd  Nd5  1  0.750000  0.873097  0.442340  1
  Nd  Nd6  1  0.750000  0.626427  0.943911  1
  Nd  Nd7  1  0.250000  0.803478  0.716927  1
  Ho  Ho8  1  0.250000  0.058421  0.885494  1
  Ho  Ho9  1  0.250000  0.440935  0.382469  1
  Ho  Ho10  1  0.750000  0.941904  0.118544  1
  Ho  Ho11  1  0.750000  0.556140  0.613665  1
  Si  Si12  1  0.250000  0.818353  0.979690  1
  Si  Si13  1  0.250000  0.679724  0.472583  1
  Si  Si14  1  0.750000  0.181131  0.024213  1
  Si  Si15  1  0.750000  0.318155  0.523245  1
  Si  Si16  1  0.250000  0.494468  0.796967  1
  Si  Si17  1  0.250000  0.006160  0.298329  1
  Si  Si18  1  0.750000  0.503795  0.201646  1
  Si  Si19  1  0.750000  0.999794  0.705129  1
  Ni  Ni20  1  0.250000  0.371590  0.625193  1
  Ni  Ni21  1  0.250000  0.129199  0.126909  1
  Ni  Ni22  1  0.750000  0.628170  0.371457  1
  Ni  Ni23  1  0.750000  0.875455  0.879101  1
