# generated using pymatgen
data_Na7Ta(SO4)6
_symmetry_space_group_name_H-M   'P 1'
_cell_length_a   8.74091790
_cell_length_b   8.74091712
_cell_length_c   8.74091824
_cell_angle_alpha   108.82268886
_cell_angle_beta   108.82269430
_cell_angle_gamma   108.82270018
_symmetry_Int_Tables_number   1
_chemical_formula_structural   Na7Ta(SO4)6
_chemical_formula_sum   'Na7 Ta1 S6 O24'
_cell_volume   526.08391870
_cell_formula_units_Z   1
loop_
 _symmetry_equiv_pos_site_id
 _symmetry_equiv_pos_as_xyz
  1  'x, y, z'
loop_
 _atom_site_type_symbol
 _atom_site_label
 _atom_site_symmetry_multiplicity
 _atom_site_fract_x
 _atom_site_fract_y
 _atom_site_fract_z
 _atom_site_occupancy
  Na  Na0  1  0.500000  0.500000  0.500000  1
  Na  Na1  1  0.836463  0.337244  0.674480  1
  Na  Na2  1  0.337244  0.674480  0.836463  1
  Na  Na3  1  0.674480  0.836463  0.337244  1
  Na  Na4  1  0.163537  0.662756  0.325520  1
  Na  Na5  1  0.662756  0.325520  0.163537  1
  Na  Na6  1  0.325520  0.163537  0.662756  1
  Ta  Ta7  1  0.000000  0.000000  0.000000  1
  S  S8  1  0.964977  0.735512  0.597619  1
  S  S9  1  0.735512  0.597619  0.964977  1
  S  S10  1  0.597619  0.964977  0.735512  1
  S  S11  1  0.035023  0.264488  0.402381  1
  S  S12  1  0.264488  0.402381  0.035023  1
  S  S13  1  0.402381  0.035023  0.264488  1
  O  O14  1  0.463198  0.911641  0.175768  1
  O  O15  1  0.911641  0.175768  0.463198  1
  O  O16  1  0.175768  0.463198  0.911641  1
  O  O17  1  0.536802  0.088359  0.824232  1
  O  O18  1  0.088359  0.824232  0.536802  1
  O  O19  1  0.824232  0.536802  0.088359  1
  O  O20  1  0.319309  0.977359  0.371088  1
  O  O21  1  0.977359  0.371088  0.319309  1
  O  O22  1  0.371088  0.319309  0.977359  1
  O  O23  1  0.680691  0.022641  0.628912  1
  O  O24  1  0.022641  0.628912  0.680691  1
  O  O25  1  0.628912  0.680691  0.022641  1
  O  O26  1  0.751435  0.975845  0.899340  1
  O  O27  1  0.975845  0.899340  0.751435  1
  O  O28  1  0.631614  0.454958  0.769785  1
  O  O29  1  0.769785  0.631614  0.454958  1
  O  O30  1  0.454958  0.769785  0.631614  1
  O  O31  1  0.368386  0.545042  0.230215  1
  O  O32  1  0.230215  0.368386  0.545042  1
  O  O33  1  0.545042  0.230215  0.368386  1
  O  O34  1  0.100660  0.248565  0.024155  1
  O  O35  1  0.024155  0.100660  0.248565  1
  O  O36  1  0.248565  0.024155  0.100660  1
  O  O37  1  0.899340  0.751435  0.975845  1
