# generated using pymatgen
data_Be(V2As)5
_symmetry_space_group_name_H-M   'P 1'
_cell_length_a   4.75039152
_cell_length_b   7.11127305
_cell_length_c   7.11127403
_cell_angle_alpha   83.59481682
_cell_angle_beta   70.48800629
_cell_angle_gamma   70.48800686
_symmetry_Int_Tables_number   1
_chemical_formula_structural   Be(V2As)5
_chemical_formula_sum   'Be1 V10 As5'
_cell_volume   213.42872516
_cell_formula_units_Z   1
loop_
 _symmetry_equiv_pos_site_id
 _symmetry_equiv_pos_as_xyz
  1  'x, y, z'
loop_
 _atom_site_type_symbol
 _atom_site_label
 _atom_site_symmetry_multiplicity
 _atom_site_fract_x
 _atom_site_fract_y
 _atom_site_fract_z
 _atom_site_occupancy
  Be  Be0  1  0.250000  0.000000  0.000000  1
  V  V1  1  0.566171  0.704067  0.147321  1
  V  V2  1  0.786507  0.295932  0.147321  1
  V  V3  1  0.933830  0.852679  0.295932  1
  V  V4  1  0.270239  0.147321  0.295932  1
  V  V5  1  0.250002  0.500000  0.500000  1
  V  V6  1  0.750000  0.500000  0.500000  1
  V  V7  1  0.082442  0.147321  0.704067  1
  V  V8  1  0.713494  0.852679  0.704067  1
  V  V9  1  0.229762  0.704067  0.852679  1
  V  V10  1  0.417559  0.295932  0.852679  1
  As  As11  1  0.749999  0.000000  0.000000  1
  As  As12  1  0.166319  0.500000  0.167364  1
  As  As13  1  0.333682  0.832636  0.500000  1
  As  As14  1  0.666318  0.167364  0.500000  1
  As  As15  1  0.833683  0.500000  0.832636  1
