# generated using pymatgen
data_Tm3Mo(P3Ir4)2
_symmetry_space_group_name_H-M   'P 1'
_cell_length_a   3.96946200
_cell_length_b   11.11819000
_cell_length_c   12.79652000
_cell_angle_alpha   90.00000000
_cell_angle_beta   90.00000000
_cell_angle_gamma   90.00000000
_symmetry_Int_Tables_number   1
_chemical_formula_structural   Tm3Mo(P3Ir4)2
_chemical_formula_sum   'Tm6 Mo2 P12 Ir16'
_cell_volume   564.75179509
_cell_formula_units_Z   2
loop_
 _symmetry_equiv_pos_site_id
 _symmetry_equiv_pos_as_xyz
  1  'x, y, z'
loop_
 _atom_site_type_symbol
 _atom_site_label
 _atom_site_symmetry_multiplicity
 _atom_site_fract_x
 _atom_site_fract_y
 _atom_site_fract_z
 _atom_site_occupancy
  Tm  Tm0  1  0.000000  0.500000  0.523204  1
  Tm  Tm1  1  0.500000  0.000000  0.476796  1
  Tm  Tm2  1  0.500000  0.818489  0.204309  1
  Tm  Tm3  1  0.500000  0.181511  0.204309  1
  Tm  Tm4  1  0.000000  0.681511  0.795691  1
  Tm  Tm5  1  0.000000  0.318489  0.795691  1
  Mo  Mo6  1  0.500000  0.500000  0.159002  1
  Mo  Mo7  1  0.000000  0.000000  0.840998  1
  P  P8  1  0.500000  0.500000  0.872961  1
  P  P9  1  0.000000  0.000000  0.127039  1
  P  P10  1  0.500000  0.500000  0.347451  1
  P  P11  1  0.000000  0.000000  0.652549  1
  P  P12  1  0.500000  0.314970  0.617907  1
  P  P13  1  0.500000  0.685030  0.617907  1
  P  P14  1  0.000000  0.185030  0.382093  1
  P  P15  1  0.000000  0.814970  0.382093  1
  P  P16  1  0.500000  0.845976  0.885483  1
  P  P17  1  0.500000  0.154024  0.885483  1
  P  P18  1  0.000000  0.654024  0.114517  1
  P  P19  1  0.000000  0.345976  0.114517  1
  Ir  Ir20  1  0.500000  0.500000  0.696277  1
  Ir  Ir21  1  0.000000  0.000000  0.303723  1
  Ir  Ir22  1  0.000000  0.500000  0.993603  1
  Ir  Ir23  1  0.500000  0.000000  0.006397  1
  Ir  Ir24  1  0.500000  0.330868  0.977981  1
  Ir  Ir25  1  0.500000  0.669132  0.977981  1
  Ir  Ir26  1  0.000000  0.169132  0.022019  1
  Ir  Ir27  1  0.000000  0.830868  0.022019  1
  Ir  Ir28  1  0.500000  0.298855  0.432624  1
  Ir  Ir29  1  0.500000  0.701145  0.432624  1
  Ir  Ir30  1  0.000000  0.201145  0.567376  1
  Ir  Ir31  1  0.000000  0.798855  0.567376  1
  Ir  Ir32  1  0.500000  0.871722  0.709751  1
  Ir  Ir33  1  0.500000  0.128278  0.709751  1
  Ir  Ir34  1  0.000000  0.628278  0.290249  1
  Ir  Ir35  1  0.000000  0.371722  0.290249  1
