# generated using pymatgen
data_Pu7Pa(ReB6)4
_symmetry_space_group_name_H-M   'P 1'
_cell_length_a   3.64948700
_cell_length_b   9.31911533
_cell_length_c   11.40658042
_cell_angle_alpha   89.96919878
_cell_angle_beta   90.00000000
_cell_angle_gamma   90.00000000
_symmetry_Int_Tables_number   1
_chemical_formula_structural   Pu7Pa(ReB6)4
_chemical_formula_sum   'Pu7 Pa1 Re4 B24'
_cell_volume   387.93763280
_cell_formula_units_Z   1
loop_
 _symmetry_equiv_pos_site_id
 _symmetry_equiv_pos_as_xyz
  1  'x, y, z'
loop_
 _atom_site_type_symbol
 _atom_site_label
 _atom_site_symmetry_multiplicity
 _atom_site_fract_x
 _atom_site_fract_y
 _atom_site_fract_z
 _atom_site_occupancy
  Pu  Pu0  1  0.000000  0.664393  0.593088  1
  Pu  Pu1  1  0.000000  0.837548  0.092233  1
  Pu  Pu2  1  0.000000  0.163333  0.907203  1
  Pu  Pu3  1  0.000000  0.953524  0.391212  1
  Pu  Pu4  1  0.000000  0.044013  0.609473  1
  Pu  Pu5  1  0.000000  0.457731  0.101991  1
  Pu  Pu6  1  0.000000  0.543255  0.897427  1
  Pa  Pa7  1  0.000000  0.334645  0.408495  1
  Re  Re8  1  0.000000  0.643376  0.318814  1
  Re  Re9  1  0.000000  0.355419  0.679750  1
  Re  Re10  1  0.000000  0.147997  0.180422  1
  Re  Re11  1  0.000000  0.853879  0.820726  1
  B  B12  1  0.500000  0.551961  0.431246  1
  B  B13  1  0.500000  0.448117  0.568716  1
  B  B14  1  0.500000  0.052906  0.068084  1
  B  B15  1  0.500000  0.947519  0.932014  1
  B  B16  1  0.500000  0.743726  0.422944  1
  B  B17  1  0.500000  0.256225  0.577415  1
  B  B18  1  0.500000  0.244212  0.075917  1
  B  B19  1  0.500000  0.755302  0.923589  1
  B  B20  1  0.500000  0.802403  0.272884  1
  B  B21  1  0.500000  0.197728  0.727355  1
  B  B22  1  0.500000  0.303744  0.226052  1
  B  B23  1  0.500000  0.695389  0.773774  1
  B  B24  1  0.500000  0.644661  0.187533  1
  B  B25  1  0.500000  0.356437  0.812189  1
  B  B26  1  0.500000  0.144861  0.311319  1
  B  B27  1  0.500000  0.854809  0.688842  1
  B  B28  1  0.500000  0.988987  0.217941  1
  B  B29  1  0.500000  0.011239  0.781707  1
  B  B30  1  0.500000  0.487976  0.280480  1
  B  B31  1  0.500000  0.513083  0.720118  1
  B  B32  1  0.500000  0.641759  0.038824  1
  B  B33  1  0.500000  0.358541  0.959766  1
  B  B34  1  0.500000  0.141704  0.460862  1
  B  B35  1  0.500000  0.857595  0.539594  1
