# generated using pymatgen
data_Pr8Gd5Y7Si16
_symmetry_space_group_name_H-M   'P 1'
_cell_length_a   7.52731512
_cell_length_b   7.81164408
_cell_length_c   14.85238200
_cell_angle_alpha   89.99992665
_cell_angle_beta   89.98970135
_cell_angle_gamma   90.00819281
_symmetry_Int_Tables_number   1
_chemical_formula_structural   Pr8Gd5Y7Si16
_chemical_formula_sum   'Pr8 Gd5 Y7 Si16'
_cell_volume   873.33053336
_cell_formula_units_Z   1
loop_
 _symmetry_equiv_pos_site_id
 _symmetry_equiv_pos_as_xyz
  1  'x, y, z'
loop_
 _atom_site_type_symbol
 _atom_site_label
 _atom_site_symmetry_multiplicity
 _atom_site_fract_x
 _atom_site_fract_y
 _atom_site_fract_z
 _atom_site_occupancy
  Pr  Pr0  1  0.975423  0.820499  0.097675  1
  Pr  Pr1  1  0.475327  0.679338  0.402221  1
  Pr  Pr2  1  0.524410  0.319544  0.902028  1
  Pr  Pr3  1  0.025798  0.179710  0.597822  1
  Pr  Pr4  1  0.025518  0.179776  0.902301  1
  Pr  Pr5  1  0.524408  0.319356  0.597946  1
  Pr  Pr6  1  0.475221  0.679674  0.097596  1
  Pr  Pr7  1  0.975170  0.820219  0.402315  1
  Gd  Gd8  1  0.351470  0.009577  0.750167  1
  Gd  Gd9  1  0.317538  0.178656  0.122382  1
  Gd  Gd10  1  0.817955  0.321272  0.377737  1
  Gd  Gd11  1  0.181908  0.679730  0.877456  1
  Gd  Gd12  1  0.680982  0.821648  0.622710  1
  Y  Y13  1  0.649874  0.989756  0.250079  1
  Y  Y14  1  0.149575  0.510073  0.249832  1
  Y  Y15  1  0.850462  0.489586  0.749912  1
  Y  Y16  1  0.681141  0.822151  0.877571  1
  Y  Y17  1  0.181754  0.678817  0.622508  1
  Y  Y18  1  0.818161  0.321847  0.122322  1
  Y  Y19  1  0.317920  0.178157  0.377431  1
  Si  Si20  1  0.766625  0.620825  0.249656  1
  Si  Si21  1  0.266459  0.879068  0.250242  1
  Si  Si22  1  0.736635  0.120854  0.750399  1
  Si  Si23  1  0.233906  0.382100  0.749758  1
  Si  Si24  1  0.025001  0.110324  0.250259  1
  Si  Si25  1  0.525084  0.390163  0.249610  1
  Si  Si26  1  0.474478  0.608282  0.749600  1
  Si  Si27  1  0.972628  0.890123  0.750494  1
  Si  Si28  1  0.855916  0.529933  0.959891  1
  Si  Si29  1  0.355763  0.969555  0.539171  1
  Si  Si30  1  0.643834  0.029774  0.040019  1
  Si  Si31  1  0.144021  0.470161  0.460303  1
  Si  Si32  1  0.141355  0.469961  0.039993  1
  Si  Si33  1  0.641058  0.030138  0.459625  1
  Si  Si34  1  0.358585  0.969150  0.960580  1
  Si  Si35  1  0.858637  0.530203  0.540388  1
