# generated using pymatgen
data_Sm2Lu6Sc11Si16W
_symmetry_space_group_name_H-M   'P 1'
_cell_length_a   7.04604087
_cell_length_b   7.29117837
_cell_length_c   13.84211370
_cell_angle_alpha   90.35152035
_cell_angle_beta   89.66674913
_cell_angle_gamma   89.47829406
_symmetry_Int_Tables_number   1
_chemical_formula_structural   Sm2Lu6Sc11Si16W
_chemical_formula_sum   'Sm2 Lu6 Sc11 Si16 W1'
_cell_volume   711.06880562
_cell_formula_units_Z   1
loop_
 _symmetry_equiv_pos_site_id
 _symmetry_equiv_pos_as_xyz
  1  'x, y, z'
loop_
 _atom_site_type_symbol
 _atom_site_label
 _atom_site_symmetry_multiplicity
 _atom_site_fract_x
 _atom_site_fract_y
 _atom_site_fract_z
 _atom_site_occupancy
  Sm  Sm0  1  0.507692  0.324220  0.409063  1
  Sm  Sm1  1  0.487034  0.672803  0.595975  1
  Lu  Lu2  1  0.011414  0.175846  0.094859  1
  Lu  Lu3  1  0.989878  0.825034  0.900288  1
  Lu  Lu4  1  0.488427  0.678969  0.899333  1
  Lu  Lu5  1  0.994411  0.829465  0.596742  1
  Lu  Lu6  1  0.513002  0.322745  0.096283  1
  Lu  Lu7  1  0.007497  0.175113  0.402599  1
  Sc  Sc8  1  0.163282  0.496683  0.746929  1
  Sc  Sc9  1  0.837486  0.497516  0.250439  1
  Sc  Sc10  1  0.336493  0.004209  0.250882  1
  Sc  Sc11  1  0.660548  0.999055  0.748603  1
  Sc  Sc12  1  0.667755  0.828663  0.378979  1
  Sc  Sc13  1  0.166786  0.680707  0.376934  1
  Sc  Sc14  1  0.668070  0.824653  0.122775  1
  Sc  Sc15  1  0.834159  0.320865  0.624458  1
  Sc  Sc16  1  0.333400  0.175799  0.876506  1
  Sc  Sc17  1  0.830979  0.323522  0.873236  1
  Sc  Sc18  1  0.168746  0.677599  0.125003  1
  Si  Si19  1  0.041810  0.118100  0.746440  1
  Si  Si20  1  0.963623  0.888900  0.249862  1
  Si  Si21  1  0.466674  0.618209  0.249206  1
  Si  Si22  1  0.531726  0.372365  0.747152  1
  Si  Si23  1  0.286101  0.878212  0.748204  1
  Si  Si24  1  0.713297  0.128515  0.248234  1
  Si  Si25  1  0.213254  0.371937  0.247780  1
  Si  Si26  1  0.787818  0.626105  0.749135  1
  Si  Si27  1  0.169008  0.449140  0.540733  1
  Si  Si28  1  0.848244  0.533565  0.461337  1
  Si  Si29  1  0.327313  0.970420  0.471635  1
  Si  Si30  1  0.843486  0.534088  0.038912  1
  Si  Si31  1  0.648721  0.034679  0.545800  1
  Si  Si32  1  0.157800  0.468409  0.958880  1
  Si  Si33  1  0.664012  0.035101  0.958687  1
  Si  Si34  1  0.338788  0.964037  0.038542  1
  W  W35  1  0.331269  0.174750  0.629577  1
