# generated using pymatgen
data_Li2Nd18Si15P
_symmetry_space_group_name_H-M   'P 1'
_cell_length_a   7.51008700
_cell_length_b   8.00057181
_cell_length_c   15.14708600
_cell_angle_alpha   90.00000000
_cell_angle_beta   90.00000000
_cell_angle_gamma   89.87248293
_symmetry_Int_Tables_number   1
_chemical_formula_structural   Li2Nd18Si15P
_chemical_formula_sum   'Li2 Nd18 Si15 P1'
_cell_volume   910.11026253
_cell_formula_units_Z   1
loop_
 _symmetry_equiv_pos_site_id
 _symmetry_equiv_pos_as_xyz
  1  'x, y, z'
loop_
 _atom_site_type_symbol
 _atom_site_label
 _atom_site_symmetry_multiplicity
 _atom_site_fract_x
 _atom_site_fract_y
 _atom_site_fract_z
 _atom_site_occupancy
  Li  Li0  1  0.150874  0.528583  0.750000  1
  Li  Li1  1  0.651748  0.974626  0.750000  1
  Nd  Nd2  1  0.816962  0.320854  0.627950  1
  Nd  Nd3  1  0.460218  0.694975  0.894021  1
  Nd  Nd4  1  0.960452  0.807001  0.894632  1
  Nd  Nd5  1  0.190427  0.678888  0.122909  1
  Nd  Nd6  1  0.685899  0.816595  0.121474  1
  Nd  Nd7  1  0.317246  0.181335  0.871243  1
  Nd  Nd8  1  0.190427  0.678888  0.377091  1
  Nd  Nd9  1  0.031195  0.184161  0.097374  1
  Nd  Nd10  1  0.317246  0.181335  0.628757  1
  Nd  Nd11  1  0.856978  0.487388  0.250000  1
  Nd  Nd12  1  0.356981  0.010738  0.250000  1
  Nd  Nd13  1  0.529596  0.314439  0.401503  1
  Nd  Nd14  1  0.816962  0.320854  0.872050  1
  Nd  Nd15  1  0.960452  0.807001  0.605368  1
  Nd  Nd16  1  0.460218  0.694975  0.605979  1
  Nd  Nd17  1  0.031195  0.184161  0.402626  1
  Nd  Nd18  1  0.685899  0.816595  0.378526  1
  Nd  Nd19  1  0.529596  0.314439  0.098497  1
  Si  Si20  1  0.241416  0.371088  0.250000  1
  Si  Si21  1  0.863134  0.524984  0.462601  1
  Si  Si22  1  0.511986  0.423225  0.750000  1
  Si  Si23  1  0.645260  0.032663  0.962199  1
  Si  Si24  1  0.010039  0.078477  0.750000  1
  Si  Si25  1  0.748626  0.626293  0.750000  1
  Si  Si26  1  0.744574  0.120518  0.250000  1
  Si  Si27  1  0.361125  0.974141  0.463800  1
  Si  Si28  1  0.978268  0.898492  0.250000  1
  Si  Si29  1  0.361125  0.974141  0.036200  1
  Si  Si30  1  0.645260  0.032663  0.537801  1
  Si  Si31  1  0.146915  0.468816  0.962346  1
  Si  Si32  1  0.146915  0.468816  0.537654  1
  Si  Si33  1  0.863134  0.524984  0.037399  1
  Si  Si34  1  0.246695  0.875381  0.750000  1
  P  P35  1  0.484954  0.607484  0.250000  1
