# generated using pymatgen
data_Lu5In2Bi
_symmetry_space_group_name_H-M   'P 1'
_cell_length_a   6.50013701
_cell_length_b   8.85290523
_cell_length_c   8.81125395
_cell_angle_alpha   119.61960999
_cell_angle_beta   90.00292179
_cell_angle_gamma   90.00052328
_symmetry_Int_Tables_number   1
_chemical_formula_structural   Lu5In2Bi
_chemical_formula_sum   'Lu10 In4 Bi2'
_cell_volume   440.78684357
_cell_formula_units_Z   2
loop_
 _symmetry_equiv_pos_site_id
 _symmetry_equiv_pos_as_xyz
  1  'x, y, z'
loop_
 _atom_site_type_symbol
 _atom_site_label
 _atom_site_symmetry_multiplicity
 _atom_site_fract_x
 _atom_site_fract_y
 _atom_site_fract_z
 _atom_site_occupancy
  Lu  Lu0  1  0.491995  0.329163  0.667225  1
  Lu  Lu1  1  0.492519  0.670776  0.338511  1
  Lu  Lu2  1  0.007521  0.670820  0.338585  1
  Lu  Lu3  1  0.007975  0.329087  0.667180  1
  Lu  Lu4  1  0.749976  0.225906  0.989792  1
  Lu  Lu5  1  0.750010  0.773554  0.762581  1
  Lu  Lu6  1  0.750009  0.999730  0.236655  1
  Lu  Lu7  1  0.250037  0.766654  0.001560  1
  Lu  Lu8  1  0.249994  0.232866  0.234339  1
  Lu  Lu9  1  0.249961  0.000468  0.764289  1
  In  In10  1  0.749940  0.000387  0.594784  1
  In  In11  1  0.249992  0.397637  0.003584  1
  In  In12  1  0.250073  0.602059  0.604896  1
  In  In13  1  0.250000  0.000230  0.399089  1
  Bi  Bi14  1  0.750005  0.604176  0.000285  1
  Bi  Bi15  1  0.749995  0.396490  0.396644  1
