# generated using pymatgen
data_Lu8Co19GeB8
_symmetry_space_group_name_H-M   'P 1'
_cell_length_a   5.05229400
_cell_length_b   5.05229404
_cell_length_c   19.66210500
_cell_angle_alpha   90.00000000
_cell_angle_beta   90.00000000
_cell_angle_gamma   119.99999972
_symmetry_Int_Tables_number   1
_chemical_formula_structural   Lu8Co19GeB8
_chemical_formula_sum   'Lu8 Co19 Ge1 B8'
_cell_volume   434.64819172
_cell_formula_units_Z   1
loop_
 _symmetry_equiv_pos_site_id
 _symmetry_equiv_pos_as_xyz
  1  'x, y, z'
loop_
 _atom_site_type_symbol
 _atom_site_label
 _atom_site_symmetry_multiplicity
 _atom_site_fract_x
 _atom_site_fract_y
 _atom_site_fract_z
 _atom_site_occupancy
  Lu  Lu0  1  0.666667  0.333333  0.824252  1
  Lu  Lu1  1  0.666667  0.333333  0.974366  1
  Lu  Lu2  1  0.333333  0.666667  0.477352  1
  Lu  Lu3  1  0.333333  0.666667  0.025634  1
  Lu  Lu4  1  0.333333  0.666667  0.175748  1
  Lu  Lu5  1  0.666667  0.333333  0.522648  1
  Lu  Lu6  1  0.666667  0.333333  0.674659  1
  Lu  Lu7  1  0.333333  0.666667  0.325341  1
  Co  Co8  1  0.166542  0.333081  0.896554  1
  Co  Co9  1  0.165289  0.834711  0.604072  1
  Co  Co10  1  0.834711  0.165289  0.395928  1
  Co  Co11  1  0.333907  0.166954  0.249166  1
  Co  Co12  1  0.330577  0.165289  0.395928  1
  Co  Co13  1  0.833458  0.666919  0.103446  1
  Co  Co14  1  0.834711  0.669423  0.395928  1
  Co  Co15  1  0.833046  0.666093  0.249166  1
  Co  Co16  1  0.669423  0.834711  0.604072  1
  Co  Co17  1  0.666093  0.833046  0.750834  1
  Co  Co18  1  0.833458  0.166542  0.103446  1
  Co  Co19  1  0.666919  0.833458  0.896554  1
  Co  Co20  1  0.166954  0.333907  0.750834  1
  Co  Co21  1  0.166954  0.833046  0.750834  1
  Co  Co22  1  0.833046  0.166954  0.249166  1
  Co  Co23  1  0.333081  0.166542  0.103446  1
  Co  Co24  1  0.000000  0.000000  0.500000  1
  Co  Co25  1  0.166542  0.833458  0.896554  1
  Co  Co26  1  0.165289  0.330577  0.604072  1
  Ge  Ge27  1  0.000000  0.000000  0.000000  1
  B  B28  1  0.333333  0.666667  0.825993  1
  B  B29  1  0.333333  0.666667  0.675536  1
  B  B30  1  0.666667  0.333333  0.324464  1
  B  B31  1  0.000000  0.000000  0.825168  1
  B  B32  1  0.666667  0.333333  0.174007  1
  B  B33  1  0.000000  0.000000  0.676136  1
  B  B34  1  0.000000  0.000000  0.323864  1
  B  B35  1  0.000000  0.000000  0.174832  1
