# generated using pymatgen
data_Er8Cd2OsPd
_symmetry_space_group_name_H-M   'P 1'
_cell_length_a   9.57726836
_cell_length_b   9.57726750
_cell_length_c   9.68564400
_cell_angle_alpha   59.62495790
_cell_angle_beta   59.62496092
_cell_angle_gamma   59.27223222
_symmetry_Int_Tables_number   1
_chemical_formula_structural   Er8Cd2OsPd
_chemical_formula_sum   'Er16 Cd4 Os2 Pd2'
_cell_volume   621.14478700
_cell_formula_units_Z   2
loop_
 _symmetry_equiv_pos_site_id
 _symmetry_equiv_pos_as_xyz
  1  'x, y, z'
loop_
 _atom_site_type_symbol
 _atom_site_label
 _atom_site_symmetry_multiplicity
 _atom_site_fract_x
 _atom_site_fract_y
 _atom_site_fract_z
 _atom_site_occupancy
  Er  Er0  1  0.351480  0.351480  0.353083  1
  Er  Er1  1  0.351480  0.351480  0.943957  1
  Er  Er2  1  0.344796  0.954905  0.350149  1
  Er  Er3  1  0.954905  0.344796  0.350149  1
  Er  Er4  1  0.816289  0.186500  0.190968  1
  Er  Er5  1  0.186500  0.816289  0.806241  1
  Er  Er6  1  0.186500  0.816289  0.190968  1
  Er  Er7  1  0.816289  0.186500  0.806241  1
  Er  Er8  1  0.188050  0.188050  0.811950  1
  Er  Er9  1  0.808513  0.808513  0.191487  1
  Er  Er10  1  0.937583  0.555698  0.568152  1
  Er  Er11  1  0.555698  0.937583  0.938567  1
  Er  Er12  1  0.555698  0.937583  0.568152  1
  Er  Er13  1  0.937583  0.555698  0.938567  1
  Er  Er14  1  0.565465  0.565465  0.934535  1
  Er  Er15  1  0.937299  0.937299  0.562701  1
  Cd  Cd16  1  0.579466  0.579466  0.582073  1
  Cd  Cd17  1  0.579466  0.579466  0.258995  1
  Cd  Cd18  1  0.581358  0.254246  0.582197  1
  Cd  Cd19  1  0.254246  0.581358  0.582197  1
  Os  Os20  1  0.146399  0.146399  0.135180  1
  Os  Os21  1  0.146399  0.146399  0.572021  1
  Pd  Pd22  1  0.146389  0.572143  0.140734  1
  Pd  Pd23  1  0.572143  0.146389  0.140734  1
