# generated using pymatgen
data_YbTmMgPd5
_symmetry_space_group_name_H-M   'P 1'
_cell_length_a   4.28842800
_cell_length_b   5.76253910
_cell_length_c   11.41135700
_cell_angle_alpha   89.67083182
_cell_angle_beta   90.00000000
_cell_angle_gamma   90.00000000
_symmetry_Int_Tables_number   1
_chemical_formula_structural   YbTmMgPd5
_chemical_formula_sum   'Yb2 Tm2 Mg2 Pd10'
_cell_volume   281.99547087
_cell_formula_units_Z   2
loop_
 _symmetry_equiv_pos_site_id
 _symmetry_equiv_pos_as_xyz
  1  'x, y, z'
loop_
 _atom_site_type_symbol
 _atom_site_label
 _atom_site_symmetry_multiplicity
 _atom_site_fract_x
 _atom_site_fract_y
 _atom_site_fract_z
 _atom_site_occupancy
  Yb  Yb0  1  0.500000  0.319075  0.638455  1
  Yb  Yb1  1  0.500000  0.680925  0.361545  1
  Tm  Tm2  1  0.500000  0.181508  0.142018  1
  Tm  Tm3  1  0.500000  0.818492  0.857982  1
  Mg  Mg4  1  0.000000  0.000000  0.500000  1
  Mg  Mg5  1  0.000000  0.500000  0.000000  1
  Pd  Pd6  1  0.500000  0.191579  0.387833  1
  Pd  Pd7  1  0.500000  0.808421  0.612167  1
  Pd  Pd8  1  0.500000  0.307342  0.890528  1
  Pd  Pd9  1  0.500000  0.692658  0.109472  1
  Pd  Pd10  1  0.000000  0.431058  0.247594  1
  Pd  Pd11  1  0.000000  0.568942  0.752406  1
  Pd  Pd12  1  0.000000  0.069713  0.749411  1
  Pd  Pd13  1  0.000000  0.930287  0.250589  1
  Pd  Pd14  1  0.000000  0.000000  0.000000  1
  Pd  Pd15  1  0.000000  0.500000  0.500000  1
