# generated using pymatgen
data_Tb2Nd3P12Ru19
_symmetry_space_group_name_H-M   'P 1'
_cell_length_a   4.00527900
_cell_length_b   12.61133303
_cell_length_c   12.61193600
_cell_angle_alpha   119.99841704
_cell_angle_beta   90.00000000
_cell_angle_gamma   90.00000000
_symmetry_Int_Tables_number   1
_chemical_formula_structural   Tb2Nd3P12Ru19
_chemical_formula_sum   'Tb2 Nd3 P12 Ru19'
_cell_volume   551.71283217
_cell_formula_units_Z   1
loop_
 _symmetry_equiv_pos_site_id
 _symmetry_equiv_pos_as_xyz
  1  'x, y, z'
loop_
 _atom_site_type_symbol
 _atom_site_label
 _atom_site_symmetry_multiplicity
 _atom_site_fract_x
 _atom_site_fract_y
 _atom_site_fract_z
 _atom_site_occupancy
  Tb  Tb0  1  0.000000  0.333320  0.666679  1
  Tb  Tb1  1  0.000000  0.666641  0.333321  1
  Nd  Nd2  1  0.500000  0.999991  0.183892  1
  Nd  Nd3  1  0.500000  0.183921  0.000000  1
  Nd  Nd4  1  0.500000  0.816100  0.816108  1
  P  P5  1  0.000000  0.000004  0.812385  1
  P  P6  1  0.000000  0.812376  0.000000  1
  P  P7  1  0.000000  0.187618  0.187615  1
  P  P8  1  0.500000  0.305712  0.478250  1
  P  P9  1  0.500000  0.172534  0.694298  1
  P  P10  1  0.500000  0.521753  0.827479  1
  P  P11  1  0.500000  0.827462  0.521750  1
  P  P12  1  0.500000  0.478235  0.305702  1
  P  P13  1  0.500000  0.694275  0.172521  1
  P  P14  1  0.000000  0.999997  0.374209  1
  P  P15  1  0.000000  0.374209  0.000000  1
  P  P16  1  0.000000  0.625788  0.625791  1
  Ru  Ru17  1  0.000000  0.999996  0.554197  1
  Ru  Ru18  1  0.000000  0.554203  0.000000  1
  Ru  Ru19  1  0.000000  0.445799  0.445803  1
  Ru  Ru20  1  0.500000  0.000000  0.713864  1
  Ru  Ru21  1  0.500000  0.713884  0.000000  1
  Ru  Ru22  1  0.500000  0.286136  0.286136  1
  Ru  Ru23  1  0.000000  0.195110  0.380176  1
  Ru  Ru24  1  0.000000  0.185056  0.804892  1
  Ru  Ru25  1  0.000000  0.619824  0.814927  1
  Ru  Ru26  1  0.000000  0.814934  0.619824  1
  Ru  Ru27  1  0.000000  0.380164  0.195108  1
  Ru  Ru28  1  0.000000  0.804898  0.185073  1
  Ru  Ru29  1  0.500000  0.125682  0.492679  1
  Ru  Ru30  1  0.500000  0.366970  0.874293  1
  Ru  Ru31  1  0.500000  0.507326  0.633011  1
  Ru  Ru32  1  0.500000  0.633003  0.507321  1
  Ru  Ru33  1  0.500000  0.492677  0.125707  1
  Ru  Ru34  1  0.500000  0.874315  0.366989  1
  Ru  Ru35  1  0.000000  0.999987  0.000000  1
