# generated using pymatgen
data_Er8Sc12Si15Ge
_symmetry_space_group_name_H-M   'P 1'
_cell_length_a   7.07288793
_cell_length_b   7.35687850
_cell_length_c   13.94888801
_cell_angle_alpha   90.01798765
_cell_angle_beta   89.83090713
_cell_angle_gamma   90.03376292
_symmetry_Int_Tables_number   1
_chemical_formula_structural   Er8Sc12Si15Ge
_chemical_formula_sum   'Er8 Sc12 Si15 Ge1'
_cell_volume   725.81837660
_cell_formula_units_Z   1
loop_
 _symmetry_equiv_pos_site_id
 _symmetry_equiv_pos_as_xyz
  1  'x, y, z'
loop_
 _atom_site_type_symbol
 _atom_site_label
 _atom_site_symmetry_multiplicity
 _atom_site_fract_x
 _atom_site_fract_y
 _atom_site_fract_z
 _atom_site_occupancy
  Er  Er0  1  0.011612  0.175704  0.096608  1
  Er  Er1  1  0.988524  0.824495  0.903435  1
  Er  Er2  1  0.489021  0.675766  0.903398  1
  Er  Er3  1  0.988636  0.824709  0.596845  1
  Er  Er4  1  0.511118  0.324452  0.096786  1
  Er  Er5  1  0.009837  0.175314  0.402755  1
  Er  Er6  1  0.511326  0.322961  0.402363  1
  Er  Er7  1  0.492019  0.677342  0.597188  1
  Sc  Sc8  1  0.162409  0.502806  0.751333  1
  Sc  Sc9  1  0.837361  0.497241  0.250127  1
  Sc  Sc10  1  0.337682  0.002810  0.249979  1
  Sc  Sc11  1  0.662421  0.997178  0.750039  1
  Sc  Sc12  1  0.334683  0.173901  0.626421  1
  Sc  Sc13  1  0.666562  0.824000  0.374041  1
  Sc  Sc14  1  0.165965  0.677237  0.374259  1
  Sc  Sc15  1  0.667705  0.822782  0.125174  1
  Sc  Sc16  1  0.831508  0.323933  0.625157  1
  Sc  Sc17  1  0.331978  0.176695  0.874799  1
  Sc  Sc18  1  0.831920  0.323104  0.874896  1
  Sc  Sc19  1  0.167813  0.677134  0.125188  1
  Si  Si20  1  0.034527  0.116072  0.750149  1
  Si  Si21  1  0.965246  0.884870  0.249488  1
  Si  Si22  1  0.464519  0.615781  0.249593  1
  Si  Si23  1  0.534698  0.384450  0.750418  1
  Si  Si24  1  0.286487  0.871676  0.750394  1
  Si  Si25  1  0.713581  0.127612  0.249458  1
  Si  Si26  1  0.212981  0.372470  0.249862  1
  Si  Si27  1  0.787299  0.627760  0.750206  1
  Si  Si28  1  0.834673  0.536777  0.459725  1
  Si  Si29  1  0.339852  0.964495  0.460664  1
  Si  Si30  1  0.841060  0.534976  0.039491  1
  Si  Si31  1  0.660200  0.035801  0.539132  1
  Si  Si32  1  0.158859  0.464954  0.960756  1
  Si  Si33  1  0.658726  0.035240  0.960703  1
  Si  Si34  1  0.341131  0.964911  0.039413  1
  Ge  Ge35  1  0.166059  0.462589  0.539761  1
