# generated using pymatgen
data_Hf4ZrSc3Sb16
_symmetry_space_group_name_H-M   'P 1'
_cell_length_a   3.89897100
_cell_length_b   10.15164404
_cell_length_c   15.08465644
_cell_angle_alpha   89.94904246
_cell_angle_beta   90.00000000
_cell_angle_gamma   90.00000000
_symmetry_Int_Tables_number   1
_chemical_formula_structural   Hf4ZrSc3Sb16
_chemical_formula_sum   'Hf4 Zr1 Sc3 Sb16'
_cell_volume   597.06503316
_cell_formula_units_Z   1
loop_
 _symmetry_equiv_pos_site_id
 _symmetry_equiv_pos_as_xyz
  1  'x, y, z'
loop_
 _atom_site_type_symbol
 _atom_site_label
 _atom_site_symmetry_multiplicity
 _atom_site_fract_x
 _atom_site_fract_y
 _atom_site_fract_z
 _atom_site_occupancy
  Hf  Hf0  1  0.000000  0.834688  0.493745  1
  Hf  Hf1  1  0.000000  0.165461  0.506305  1
  Hf  Hf2  1  0.500000  0.334379  0.006586  1
  Hf  Hf3  1  0.500000  0.665167  0.994446  1
  Zr  Zr4  1  0.500000  0.522432  0.251493  1
  Sc  Sc5  1  0.500000  0.477025  0.749879  1
  Sc  Sc6  1  0.000000  0.022405  0.249500  1
  Sc  Sc7  1  0.000000  0.977464  0.750337  1
  Sb  Sb8  1  0.000000  0.513621  0.103651  1
  Sb  Sb9  1  0.000000  0.486079  0.896000  1
  Sb  Sb10  1  0.500000  0.014643  0.395903  1
  Sb  Sb11  1  0.500000  0.985923  0.603817  1
  Sb  Sb12  1  0.000000  0.735287  0.300630  1
  Sb  Sb13  1  0.000000  0.264381  0.700145  1
  Sb  Sb14  1  0.500000  0.234752  0.198574  1
  Sb  Sb15  1  0.500000  0.764705  0.800136  1
  Sb  Sb16  1  0.000000  0.877048  0.944465  1
  Sb  Sb17  1  0.000000  0.122363  0.054417  1
  Sb  Sb18  1  0.500000  0.378697  0.555828  1
  Sb  Sb19  1  0.500000  0.620217  0.444941  1
  Sb  Sb20  1  0.000000  0.664421  0.656118  1
  Sb  Sb21  1  0.000000  0.339770  0.344063  1
  Sb  Sb22  1  0.500000  0.163996  0.843789  1
  Sb  Sb23  1  0.500000  0.835078  0.155233  1
