# generated using pymatgen
data_K3CaOs2O9
_symmetry_space_group_name_H-M   'P 1'
_cell_length_a   6.06735900
_cell_length_b   6.06735909
_cell_length_c   14.63482300
_cell_angle_alpha   90.00000000
_cell_angle_beta   90.00000000
_cell_angle_gamma   119.99998314
_symmetry_Int_Tables_number   1
_chemical_formula_structural   K3CaOs2O9
_chemical_formula_sum   'K6 Ca2 Os4 O18'
_cell_volume   466.57081720
_cell_formula_units_Z   2
loop_
 _symmetry_equiv_pos_site_id
 _symmetry_equiv_pos_as_xyz
  1  'x, y, z'
loop_
 _atom_site_type_symbol
 _atom_site_label
 _atom_site_symmetry_multiplicity
 _atom_site_fract_x
 _atom_site_fract_y
 _atom_site_fract_z
 _atom_site_occupancy
  K  K0  1  0.000000  0.000000  0.250000  1
  K  K1  1  0.000000  0.000000  0.750000  1
  K  K2  1  0.333333  0.666667  0.390935  1
  K  K3  1  0.666667  0.333333  0.609065  1
  K  K4  1  0.666667  0.333333  0.890935  1
  K  K5  1  0.333333  0.666667  0.109065  1
  Ca  Ca6  1  0.000000  0.000000  0.500000  1
  Ca  Ca7  1  0.000000  0.000000  0.000000  1
  Os  Os8  1  0.666667  0.333333  0.348055  1
  Os  Os9  1  0.333333  0.666667  0.651945  1
  Os  Os10  1  0.333333  0.666667  0.848055  1
  Os  Os11  1  0.666667  0.333333  0.151945  1
  O  O12  1  0.531165  0.468835  0.250000  1
  O  O13  1  0.531165  0.062329  0.250000  1
  O  O14  1  0.937671  0.468835  0.250000  1
  O  O15  1  0.468835  0.531165  0.750000  1
  O  O16  1  0.468835  0.937671  0.750000  1
  O  O17  1  0.062329  0.531165  0.750000  1
  O  O18  1  0.362271  0.181136  0.410489  1
  O  O19  1  0.818864  0.181136  0.410489  1
  O  O20  1  0.818864  0.637729  0.410489  1
  O  O21  1  0.637729  0.818864  0.589511  1
  O  O22  1  0.181136  0.818864  0.589511  1
  O  O23  1  0.181136  0.362271  0.589511  1
  O  O24  1  0.637729  0.818864  0.910489  1
  O  O25  1  0.181136  0.818864  0.910489  1
  O  O26  1  0.181136  0.362271  0.910489  1
  O  O27  1  0.362271  0.181136  0.089511  1
  O  O28  1  0.818864  0.181136  0.089511  1
  O  O29  1  0.818864  0.637729  0.089511  1
