# generated using pymatgen
data_Y4Ti4Al3CrO20
_symmetry_space_group_name_H-M   'P 1'
_cell_length_a   5.74595400
_cell_length_b   7.44417100
_cell_length_c   8.50763001
_cell_angle_alpha   89.99573313
_cell_angle_beta   90.00000000
_cell_angle_gamma   90.00000000
_symmetry_Int_Tables_number   1
_chemical_formula_structural   Y4Ti4Al3CrO20
_chemical_formula_sum   'Y4 Ti4 Al3 Cr1 O20'
_cell_volume   363.90420929
_cell_formula_units_Z   1
loop_
 _symmetry_equiv_pos_site_id
 _symmetry_equiv_pos_as_xyz
  1  'x, y, z'
loop_
 _atom_site_type_symbol
 _atom_site_label
 _atom_site_symmetry_multiplicity
 _atom_site_fract_x
 _atom_site_fract_y
 _atom_site_fract_z
 _atom_site_occupancy
  Y  Y0  1  0.499910  0.357412  0.331039  1
  Y  Y1  1  0.499910  0.642588  0.668961  1
  Y  Y2  1  0.501325  0.140252  0.828721  1
  Y  Y3  1  0.501325  0.859748  0.171279  1
  Ti  Ti4  1  0.998819  0.120931  0.147290  1
  Ti  Ti5  1  0.998819  0.879069  0.852710  1
  Ti  Ti6  1  0.998174  0.375004  0.644827  1
  Ti  Ti7  1  0.998174  0.624996  0.355173  1
  Al  Al8  1  0.257269  0.000000  0.500000  1
  Al  Al9  1  0.742661  0.000000  0.500000  1
  Al  Al10  1  0.743983  0.500000  0.000000  1
  Cr  Cr11  1  0.254169  0.500000  0.000000  1
  O  O12  1  0.248963  0.107592  0.294348  1
  O  O13  1  0.750354  0.894561  0.705528  1
  O  O14  1  0.248963  0.892408  0.705652  1
  O  O15  1  0.753630  0.389670  0.794371  1
  O  O16  1  0.750354  0.105439  0.294472  1
  O  O17  1  0.253097  0.613358  0.213026  1
  O  O18  1  0.753630  0.610330  0.205629  1
  O  O19  1  0.253097  0.386642  0.786974  1
  O  O20  1  0.989231  0.346519  0.075700  1
  O  O21  1  0.989231  0.653481  0.924300  1
  O  O22  1  0.999685  0.149671  0.570120  1
  O  O23  1  0.999685  0.850329  0.429880  1
  O  O24  1  0.509718  0.337021  0.060270  1
  O  O25  1  0.509718  0.662979  0.939730  1
  O  O26  1  0.500306  0.159383  0.557212  1
  O  O27  1  0.500306  0.840617  0.442788  1
  O  O28  1  0.222441  0.000000  0.000000  1
  O  O29  1  0.777950  0.000000  0.000000  1
  O  O30  1  0.775573  0.500000  0.500000  1
  O  O31  1  0.219531  0.500000  0.500000  1
