# generated using pymatgen
data_PrNd11(GePd)12
_symmetry_space_group_name_H-M   'P 1'
_cell_length_a   4.51790800
_cell_length_b   7.70012905
_cell_length_c   21.93569915
_cell_angle_alpha   90.01359997
_cell_angle_beta   90.00000000
_cell_angle_gamma   90.00000000
_symmetry_Int_Tables_number   1
_chemical_formula_structural   PrNd11(GePd)12
_chemical_formula_sum   'Pr1 Nd11 Ge12 Pd12'
_cell_volume   763.10949258
_cell_formula_units_Z   1
loop_
 _symmetry_equiv_pos_site_id
 _symmetry_equiv_pos_as_xyz
  1  'x, y, z'
loop_
 _atom_site_type_symbol
 _atom_site_label
 _atom_site_symmetry_multiplicity
 _atom_site_fract_x
 _atom_site_fract_y
 _atom_site_fract_z
 _atom_site_occupancy
  Pr  Pr0  1  0.250000  0.785517  0.501498  1
  Nd  Nd1  1  0.250000  0.707642  0.333038  1
  Nd  Nd2  1  0.750000  0.292159  0.666890  1
  Nd  Nd3  1  0.750000  0.208010  0.166840  1
  Nd  Nd4  1  0.250000  0.792012  0.833210  1
  Nd  Nd5  1  0.250000  0.790316  0.166150  1
  Nd  Nd6  1  0.750000  0.209703  0.833850  1
  Nd  Nd7  1  0.750000  0.290246  0.333642  1
  Nd  Nd8  1  0.250000  0.709442  0.666367  1
  Nd  Nd9  1  0.250000  0.715923  0.001513  1
  Nd  Nd10  1  0.750000  0.284079  0.998497  1
  Nd  Nd11  1  0.750000  0.216507  0.498376  1
  Ge  Ge12  1  0.250000  0.089241  0.071502  1
  Ge  Ge13  1  0.750000  0.910742  0.928506  1
  Ge  Ge14  1  0.750000  0.588369  0.428032  1
  Ge  Ge15  1  0.250000  0.410235  0.571603  1
  Ge  Ge16  1  0.250000  0.084343  0.269210  1
  Ge  Ge17  1  0.750000  0.915780  0.730833  1
  Ge  Ge18  1  0.750000  0.584401  0.230718  1
  Ge  Ge19  1  0.250000  0.415552  0.769285  1
  Ge  Ge20  1  0.250000  0.086396  0.396345  1
  Ge  Ge21  1  0.750000  0.914187  0.603802  1
  Ge  Ge22  1  0.750000  0.586052  0.103275  1
  Ge  Ge23  1  0.250000  0.413936  0.896721  1
  Pd  Pd24  1  0.250000  0.417428  0.237129  1
  Pd  Pd25  1  0.750000  0.582592  0.762819  1
  Pd  Pd26  1  0.750000  0.917437  0.262743  1
  Pd  Pd27  1  0.250000  0.082591  0.737259  1
  Pd  Pd28  1  0.250000  0.415771  0.435174  1
  Pd  Pd29  1  0.750000  0.582189  0.565300  1
  Pd  Pd30  1  0.750000  0.916509  0.064631  1
  Pd  Pd31  1  0.250000  0.083553  0.935289  1
  Pd  Pd32  1  0.250000  0.420641  0.093886  1
  Pd  Pd33  1  0.750000  0.579421  0.906006  1
  Pd  Pd34  1  0.750000  0.920874  0.405562  1
  Pd  Pd35  1  0.250000  0.080202  0.594498  1
