# generated using pymatgen
data_Eu2Cd(H6Ir)2
_symmetry_space_group_name_H-M   'P 1'
_cell_length_a   4.92206100
_cell_length_b   4.92206173
_cell_length_c   8.40332100
_cell_angle_alpha   90.00000000
_cell_angle_beta   90.00000000
_cell_angle_gamma   119.99998835
_symmetry_Int_Tables_number   1
_chemical_formula_structural   Eu2Cd(H6Ir)2
_chemical_formula_sum   'Eu2 Cd1 H12 Ir2'
_cell_volume   176.30948801
_cell_formula_units_Z   1
loop_
 _symmetry_equiv_pos_site_id
 _symmetry_equiv_pos_as_xyz
  1  'x, y, z'
loop_
 _atom_site_type_symbol
 _atom_site_label
 _atom_site_symmetry_multiplicity
 _atom_site_fract_x
 _atom_site_fract_y
 _atom_site_fract_z
 _atom_site_occupancy
  Eu  Eu0  1  0.000000  0.000000  0.998422  1
  Eu  Eu1  1  0.333333  0.666667  0.623470  1
  Cd  Cd2  1  0.666667  0.333333  0.351455  1
  H  H3  1  0.169016  0.830984  0.364422  1
  H  H4  1  0.661968  0.830984  0.364422  1
  H  H5  1  0.169016  0.338032  0.364422  1
  H  H6  1  0.833347  0.166653  0.644788  1
  H  H7  1  0.333306  0.166653  0.644788  1
  H  H8  1  0.833347  0.666694  0.644788  1
  H  H9  1  0.507471  0.014940  0.870753  1
  H  H10  1  0.507471  0.492529  0.870753  1
  H  H11  1  0.985060  0.492529  0.870753  1
  H  H12  1  0.485355  0.970710  0.126797  1
  H  H13  1  0.485355  0.514645  0.126797  1
  H  H14  1  0.029290  0.514645  0.126797  1
  Ir  Ir15  1  0.666667  0.333333  0.752759  1
  Ir  Ir16  1  0.333333  0.666667  0.253616  1
