# generated using pymatgen
data_YMg2Cd(Ni3B)2
_symmetry_space_group_name_H-M   'P 1'
_cell_length_a   5.10549300
_cell_length_b   5.10549406
_cell_length_c   14.20121400
_cell_angle_alpha   90.00000000
_cell_angle_beta   90.00000000
_cell_angle_gamma   120.00001254
_symmetry_Int_Tables_number   1
_chemical_formula_structural   YMg2Cd(Ni3B)2
_chemical_formula_sum   'Y2 Mg4 Cd2 Ni12 B4'
_cell_volume   320.57637186
_cell_formula_units_Z   2
loop_
 _symmetry_equiv_pos_site_id
 _symmetry_equiv_pos_as_xyz
  1  'x, y, z'
loop_
 _atom_site_type_symbol
 _atom_site_label
 _atom_site_symmetry_multiplicity
 _atom_site_fract_x
 _atom_site_fract_y
 _atom_site_fract_z
 _atom_site_occupancy
  Y  Y0  1  0.666667  0.333333  0.750000  1
  Y  Y1  1  0.333333  0.666667  0.250000  1
  Mg  Mg2  1  0.333333  0.666667  0.471402  1
  Mg  Mg3  1  0.666667  0.333333  0.971402  1
  Mg  Mg4  1  0.666667  0.333333  0.528598  1
  Mg  Mg5  1  0.333333  0.666667  0.028598  1
  Cd  Cd6  1  0.000000  0.000000  0.000000  1
  Cd  Cd7  1  0.000000  0.000000  0.500000  1
  Ni  Ni8  1  0.831633  0.663265  0.348099  1
  Ni  Ni9  1  0.336735  0.168367  0.348099  1
  Ni  Ni10  1  0.831633  0.168367  0.151901  1
  Ni  Ni11  1  0.663265  0.831633  0.651901  1
  Ni  Ni12  1  0.168367  0.336735  0.651901  1
  Ni  Ni13  1  0.831633  0.663265  0.151901  1
  Ni  Ni14  1  0.336735  0.168367  0.151901  1
  Ni  Ni15  1  0.663265  0.831633  0.848099  1
  Ni  Ni16  1  0.168367  0.336735  0.848099  1
  Ni  Ni17  1  0.168367  0.831633  0.651901  1
  Ni  Ni18  1  0.168367  0.831633  0.848099  1
  Ni  Ni19  1  0.831633  0.168367  0.348099  1
  B  B20  1  0.666667  0.333333  0.250000  1
  B  B21  1  0.333333  0.666667  0.750000  1
  B  B22  1  0.000000  0.000000  0.750000  1
  B  B23  1  0.000000  0.000000  0.250000  1
