# generated using pymatgen
data_TbYbHo2(Al8Pt3)3
_symmetry_space_group_name_H-M   'P 1'
_cell_length_a   7.52901914
_cell_length_b   7.54880710
_cell_length_c   13.19146165
_cell_angle_alpha   84.60268830
_cell_angle_beta   79.11636741
_cell_angle_gamma   59.92667859
_symmetry_Int_Tables_number   1
_chemical_formula_structural   TbYbHo2(Al8Pt3)3
_chemical_formula_sum   'Tb1 Yb1 Ho2 Al24 Pt9'
_cell_volume   637.14156965
_cell_formula_units_Z   1
loop_
 _symmetry_equiv_pos_site_id
 _symmetry_equiv_pos_as_xyz
  1  'x, y, z'
loop_
 _atom_site_type_symbol
 _atom_site_label
 _atom_site_symmetry_multiplicity
 _atom_site_fract_x
 _atom_site_fract_y
 _atom_site_fract_z
 _atom_site_occupancy
  Tb  Tb0  1  0.394449  0.167815  0.808323  1
  Yb  Yb1  1  0.606142  0.831437  0.192507  1
  Ho  Ho2  1  0.733522  0.499170  0.807721  1
  Ho  Ho3  1  0.266049  0.501468  0.192363  1
  Al  Al4  1  0.684680  0.833348  0.945027  1
  Al  Al5  1  0.315629  0.166358  0.055802  1
  Al  Al6  1  0.146707  0.832218  0.561677  1
  Al  Al7  1  0.853279  0.167664  0.438779  1
  Al  Al8  1  0.479594  0.166461  0.558962  1
  Al  Al9  1  0.520317  0.833261  0.441008  1
  Al  Al10  1  0.218004  0.164540  0.329405  1
  Al  Al11  1  0.782580  0.834581  0.670537  1
  Al  Al12  1  0.436997  0.506937  0.670396  1
  Al  Al13  1  0.562989  0.494001  0.329616  1
  Al  Al14  1  0.109340  0.160133  0.669112  1
  Al  Al15  1  0.889991  0.839853  0.330830  1
  Al  Al16  1  0.353158  0.499568  0.944349  1
  Al  Al17  1  0.647034  0.500702  0.055364  1
  Al  Al18  1  0.015292  0.168240  0.953173  1
  Al  Al19  1  0.984511  0.831930  0.046539  1
  Al  Al20  1  0.186529  0.499568  0.441388  1
  Al  Al21  1  0.813129  0.500830  0.558981  1
  Al  Al22  1  0.733215  0.166178  0.183215  1
  Al  Al23  1  0.266175  0.835078  0.816507  1
  Al  Al24  1  0.061148  0.631289  0.815346  1
  Al  Al25  1  0.940211  0.367768  0.184241  1
  Al  Al26  1  0.855083  0.041964  0.815986  1
  Al  Al27  1  0.143968  0.957396  0.183684  1
  Pt  Pt28  1  0.119732  0.492023  0.638530  1
  Pt  Pt29  1  0.880409  0.507202  0.361870  1
  Pt  Pt30  1  0.657778  0.171609  0.999073  1
  Pt  Pt31  1  0.342830  0.828782  0.999527  1
  Pt  Pt32  1  0.538013  0.167457  0.361952  1
  Pt  Pt33  1  0.462008  0.833056  0.638451  1
  Pt  Pt34  1  0.778789  0.175139  0.637279  1
  Pt  Pt35  1  0.220321  0.825318  0.363274  1
  Pt  Pt36  1  0.000397  0.499657  0.999206  1
