# generated using pymatgen
data_Y4B4Ir9Pt
_symmetry_space_group_name_H-M   'P 1'
_cell_length_a   10.98579084
_cell_length_b   10.98579073
_cell_length_c   10.98579046
_cell_angle_alpha   29.01048443
_cell_angle_beta   29.01048729
_cell_angle_gamma   29.01049018
_symmetry_Int_Tables_number   1
_chemical_formula_structural   Y4B4Ir9Pt
_chemical_formula_sum   'Y4 B4 Ir9 Pt1'
_cell_volume   275.81813356
_cell_formula_units_Z   1
loop_
 _symmetry_equiv_pos_site_id
 _symmetry_equiv_pos_as_xyz
  1  'x, y, z'
loop_
 _atom_site_type_symbol
 _atom_site_label
 _atom_site_symmetry_multiplicity
 _atom_site_fract_x
 _atom_site_fract_y
 _atom_site_fract_z
 _atom_site_occupancy
  Y  Y0  1  0.151627  0.151627  0.151627  1
  Y  Y1  1  0.950329  0.950329  0.950329  1
  Y  Y2  1  0.848373  0.848373  0.848373  1
  Y  Y3  1  0.049671  0.049671  0.049671  1
  B  B4  1  0.617741  0.617741  0.617741  1
  B  B5  1  0.716558  0.716558  0.716558  1
  B  B6  1  0.382259  0.382259  0.382259  1
  B  B7  1  0.283442  0.283442  0.283442  1
  Ir  Ir8  1  0.406728  0.900091  0.406728  1
  Ir  Ir9  1  0.900091  0.406728  0.406728  1
  Ir  Ir10  1  0.500000  0.500000  0.000000  1
  Ir  Ir11  1  0.500000  0.000000  0.500000  1
  Ir  Ir12  1  0.000000  0.500000  0.500000  1
  Ir  Ir13  1  0.593272  0.099909  0.593272  1
  Ir  Ir14  1  0.593272  0.593272  0.099909  1
  Ir  Ir15  1  0.099909  0.593272  0.593272  1
  Ir  Ir16  1  0.406728  0.406728  0.900091  1
  Pt  Pt17  1  0.500000  0.500000  0.500000  1
