# generated using pymatgen
data_V4Co2PdS12
_symmetry_space_group_name_H-M   'P 1'
_cell_length_a   6.78883856
_cell_length_b   6.78883882
_cell_length_c   18.26339966
_cell_angle_alpha   70.11412337
_cell_angle_beta   70.11412217
_cell_angle_gamma   27.03556096
_symmetry_Int_Tables_number   1
_chemical_formula_structural   V4Co2PdS12
_chemical_formula_sum   'V4 Co2 Pd1 S12'
_cell_volume   358.42589944
_cell_formula_units_Z   1
loop_
 _symmetry_equiv_pos_site_id
 _symmetry_equiv_pos_as_xyz
  1  'x, y, z'
loop_
 _atom_site_type_symbol
 _atom_site_label
 _atom_site_symmetry_multiplicity
 _atom_site_fract_x
 _atom_site_fract_y
 _atom_site_fract_z
 _atom_site_occupancy
  V  V0  1  0.625683  0.625683  0.846021  1
  V  V1  1  0.374317  0.374317  0.153979  1
  V  V2  1  0.744544  0.744544  0.589755  1
  V  V3  1  0.255456  0.255456  0.410245  1
  Co  Co4  1  0.234589  0.234589  0.713646  1
  Co  Co5  1  0.765411  0.765411  0.286354  1
  Pd  Pd6  1  0.000000  0.000000  0.000000  1
  S  S7  1  0.984990  0.984990  0.875948  1
  S  S8  1  0.015010  0.015010  0.124052  1
  S  S9  1  0.633005  0.633005  0.398695  1
  S  S10  1  0.366995  0.366995  0.601305  1
  S  S11  1  0.142180  0.142180  0.547939  1
  S  S12  1  0.857820  0.857820  0.452061  1
  S  S13  1  0.804256  0.804256  0.765350  1
  S  S14  1  0.195744  0.195744  0.234650  1
  S  S15  1  0.183096  0.183096  0.919825  1
  S  S16  1  0.816904  0.816904  0.080175  1
  S  S17  1  0.614153  0.614153  0.715061  1
  S  S18  1  0.385847  0.385847  0.284939  1
