# generated using pymatgen
data_NaPr4Nd2PtBr12
_symmetry_space_group_name_H-M   'P 1'
_cell_length_a   9.69519913
_cell_length_b   9.68867839
_cell_length_c   9.58484393
_cell_angle_alpha   107.60270769
_cell_angle_beta   107.21090618
_cell_angle_gamma   107.28068014
_symmetry_Int_Tables_number   1
_chemical_formula_structural   NaPr4Nd2PtBr12
_chemical_formula_sum   'Na1 Pr4 Nd2 Pt1 Br12'
_cell_volume   742.21648154
_cell_formula_units_Z   1
loop_
 _symmetry_equiv_pos_site_id
 _symmetry_equiv_pos_as_xyz
  1  'x, y, z'
loop_
 _atom_site_type_symbol
 _atom_site_label
 _atom_site_symmetry_multiplicity
 _atom_site_fract_x
 _atom_site_fract_y
 _atom_site_fract_z
 _atom_site_occupancy
  Na  Na0  1  0.500000  0.499987  0.499933  1
  Pr  Pr1  1  0.030921  0.113370  0.318661  1
  Pr  Pr2  1  0.969458  0.887181  0.681596  1
  Pr  Pr3  1  0.673114  0.968108  0.883229  1
  Pr  Pr4  1  0.883228  0.672571  0.968182  1
  Nd  Nd5  1  0.117045  0.326328  0.032145  1
  Nd  Nd6  1  0.325730  0.032330  0.116359  1
  Pt  Pt7  1  0.000872  0.000794  0.000434  1
  Br  Br8  1  0.214983  0.685711  0.072688  1
  Br  Br9  1  0.453337  0.370948  0.157346  1
  Br  Br10  1  0.684795  0.073061  0.215984  1
  Br  Br11  1  0.927635  0.785885  0.316029  1
  Br  Br12  1  0.158337  0.455224  0.372190  1
  Br  Br13  1  0.372855  0.158421  0.455319  1
  Br  Br14  1  0.627196  0.840794  0.542827  1
  Br  Br15  1  0.841516  0.544573  0.626054  1
  Br  Br16  1  0.072734  0.215033  0.685603  1
  Br  Br17  1  0.314362  0.927337  0.785674  1
  Br  Br18  1  0.544703  0.627540  0.841748  1
  Br  Br19  1  0.787182  0.314805  0.928002  1
