# generated using pymatgen
data_Er4Al23SiPt9
_symmetry_space_group_name_H-M   'P 1'
_cell_length_a   7.52418750
_cell_length_b   7.52085609
_cell_length_c   13.08746777
_cell_angle_alpha   84.49904405
_cell_angle_beta   101.00289057
_cell_angle_gamma   119.90939691
_symmetry_Int_Tables_number   1
_chemical_formula_structural   Er4Al23SiPt9
_chemical_formula_sum   'Er4 Al23 Si1 Pt9'
_cell_volume   630.16038062
_cell_formula_units_Z   1
loop_
 _symmetry_equiv_pos_site_id
 _symmetry_equiv_pos_as_xyz
  1  'x, y, z'
loop_
 _atom_site_type_symbol
 _atom_site_label
 _atom_site_symmetry_multiplicity
 _atom_site_fract_x
 _atom_site_fract_y
 _atom_site_fract_z
 _atom_site_occupancy
  Er  Er0  1  0.732221  0.999105  0.192628  1
  Er  Er1  1  0.262302  0.001566  0.807792  1
  Er  Er2  1  0.062346  0.667786  0.192487  1
  Er  Er3  1  0.938422  0.326608  0.807840  1
  Al  Al4  1  0.190624  0.129611  0.183634  1
  Al  Al5  1  0.982229  0.665467  0.943239  1
  Al  Al6  1  0.018388  0.334188  0.055797  1
  Al  Al7  1  0.399743  0.668939  0.816137  1
  Al  Al8  1  0.601736  0.335529  0.183385  1
  Al  Al9  1  0.883507  0.663071  0.671234  1
  Al  Al10  1  0.116655  0.334129  0.329120  1
  Al  Al11  1  0.607629  0.459558  0.815618  1
  Al  Al12  1  0.396372  0.541646  0.183715  1
  Al  Al13  1  0.231306  0.340965  0.670110  1
  Al  Al14  1  0.770034  0.660380  0.330056  1
  Al  Al15  1  0.852903  0.332832  0.559038  1
  Al  Al16  1  0.185824  0.000003  0.558970  1
  Al  Al17  1  0.814026  0.000148  0.442188  1
  Al  Al18  1  0.352656  0.999604  0.055907  1
  Al  Al19  1  0.646702  0.001501  0.943041  1
  Al  Al20  1  0.554086  0.993974  0.671561  1
  Al  Al21  1  0.443402  0.006134  0.328777  1
  Al  Al22  1  0.520378  0.666945  0.561247  1
  Al  Al23  1  0.478886  0.332522  0.437560  1
  Al  Al24  1  0.685570  0.668901  0.050715  1
  Al  Al25  1  0.319497  0.334958  0.952993  1
  Al  Al26  1  0.146809  0.666626  0.440937  1
  Si  Si27  1  0.804502  0.865556  0.815808  1
  Pt  Pt28  1  0.330022  0.673142  0.998859  1
  Pt  Pt29  1  0.546325  0.325271  0.637869  1
  Pt  Pt30  1  0.454283  0.675688  0.362344  1
  Pt  Pt31  1  0.887124  0.006039  0.643202  1
  Pt  Pt32  1  0.111485  0.991285  0.361046  1
  Pt  Pt33  1  0.672663  0.330314  0.998788  1
  Pt  Pt34  1  0.205004  0.667352  0.639408  1
  Pt  Pt35  1  0.796099  0.332939  0.361191  1
  Pt  Pt36  1  0.998240  0.999719  0.995762  1
