# generated using pymatgen
data_LiZn21Pd4
_symmetry_space_group_name_H-M   'P 1'
_cell_length_a   7.92814804
_cell_length_b   7.91595707
_cell_length_c   7.92814917
_cell_angle_alpha   109.44007361
_cell_angle_beta   109.50235530
_cell_angle_gamma   109.44007523
_symmetry_Int_Tables_number   1
_chemical_formula_structural   LiZn21Pd4
_chemical_formula_sum   'Li1 Zn21 Pd4'
_cell_volume   383.17032006
_cell_formula_units_Z   1
loop_
 _symmetry_equiv_pos_site_id
 _symmetry_equiv_pos_as_xyz
  1  'x, y, z'
loop_
 _atom_site_type_symbol
 _atom_site_label
 _atom_site_symmetry_multiplicity
 _atom_site_fract_x
 _atom_site_fract_y
 _atom_site_fract_z
 _atom_site_occupancy
  Li  Li0  1  0.000000  0.782093  0.000000  1
  Zn  Zn1  1  0.784876  0.997231  0.000000  1
  Zn  Zn2  1  0.000000  0.997231  0.784876  1
  Zn  Zn3  1  0.215124  0.212355  0.215124  1
  Zn  Zn4  1  0.348900  0.622298  0.348900  1
  Zn  Zn5  1  0.274082  0.001430  0.650397  1
  Zn  Zn6  1  0.650397  0.001430  0.274082  1
  Zn  Zn7  1  0.271569  0.650821  0.000000  1
  Zn  Zn8  1  0.725918  0.727348  0.376315  1
  Zn  Zn9  1  0.376315  0.727348  0.725918  1
  Zn  Zn10  1  0.000000  0.650821  0.271569  1
  Zn  Zn11  1  0.000000  0.273398  0.651100  1
  Zn  Zn12  1  0.651100  0.273398  0.000000  1
  Zn  Zn13  1  0.349603  0.351033  0.623685  1
  Zn  Zn14  1  0.623685  0.351033  0.349603  1
  Zn  Zn15  1  0.728431  0.379251  0.728431  1
  Zn  Zn16  1  0.357888  0.358198  0.000000  1
  Zn  Zn17  1  0.000000  0.644001  0.646874  1
  Zn  Zn18  1  0.000000  0.358198  0.357888  1
  Zn  Zn19  1  0.353126  0.997128  0.353126  1
  Zn  Zn20  1  0.642112  0.000311  0.642112  1
  Zn  Zn21  1  0.646874  0.644001  0.000000  1
  Pd  Pd22  1  0.000000  0.347030  0.000000  1
  Pd  Pd23  1  0.347730  0.000114  0.000000  1
  Pd  Pd24  1  0.000000  0.000114  0.347730  1
  Pd  Pd25  1  0.652270  0.652384  0.652270  1
