# generated using pymatgen
data_Hf2Sc(ZnRh2)3
_symmetry_space_group_name_H-M   'P 1'
_cell_length_a   4.45947500
_cell_length_b   6.24486500
_cell_length_c   13.32418600
_cell_angle_alpha   90.00000000
_cell_angle_beta   90.00058362
_cell_angle_gamma   90.00000000
_symmetry_Int_Tables_number   1
_chemical_formula_structural   Hf2Sc(ZnRh2)3
_chemical_formula_sum   'Hf4 Sc2 Zn6 Rh12'
_cell_volume   371.06284884
_cell_formula_units_Z   2
loop_
 _symmetry_equiv_pos_site_id
 _symmetry_equiv_pos_as_xyz
  1  'x, y, z'
loop_
 _atom_site_type_symbol
 _atom_site_label
 _atom_site_symmetry_multiplicity
 _atom_site_fract_x
 _atom_site_fract_y
 _atom_site_fract_z
 _atom_site_occupancy
  Hf  Hf0  1  0.999993  0.000000  0.997973  1
  Hf  Hf1  1  0.499780  0.500000  0.166056  1
  Hf  Hf2  1  0.999773  0.000000  0.333934  1
  Hf  Hf3  1  0.499993  0.500000  0.502026  1
  Sc  Sc4  1  0.000234  0.000000  0.667731  1
  Sc  Sc5  1  0.500226  0.500000  0.832266  1
  Zn  Zn6  1  0.000004  0.500000  0.998257  1
  Zn  Zn7  1  0.499834  0.000000  0.166166  1
  Zn  Zn8  1  0.999822  0.500000  0.333826  1
  Zn  Zn9  1  0.500004  0.000000  0.501752  1
  Zn  Zn10  1  0.000176  0.500000  0.667874  1
  Zn  Zn11  1  0.500162  0.000000  0.832136  1
  Rh  Rh12  1  0.500003  0.248931  0.001015  1
  Rh  Rh13  1  0.500003  0.751069  0.001015  1
  Rh  Rh14  1  0.999781  0.250445  0.166807  1
  Rh  Rh15  1  0.999781  0.749554  0.166807  1
  Rh  Rh16  1  0.499783  0.249555  0.333180  1
  Rh  Rh17  1  0.499783  0.750445  0.333180  1
  Rh  Rh18  1  0.999993  0.251079  0.498988  1
  Rh  Rh19  1  0.999993  0.748920  0.498988  1
  Rh  Rh20  1  0.500221  0.250293  0.665923  1
  Rh  Rh21  1  0.500221  0.749707  0.665923  1
  Rh  Rh22  1  0.000218  0.249708  0.834089  1
  Rh  Rh23  1  0.000218  0.750291  0.834089  1
