# generated using pymatgen
data_Zr3Ga3RuPtRh
_symmetry_space_group_name_H-M   'P 1'
_cell_length_a   7.33558600
_cell_length_b   7.33558565
_cell_length_c   3.37705000
_cell_angle_alpha   90.00000000
_cell_angle_beta   90.00000000
_cell_angle_gamma   119.99999256
_symmetry_Int_Tables_number   1
_chemical_formula_structural   Zr3Ga3RuPtRh
_chemical_formula_sum   'Zr3 Ga3 Ru1 Pt1 Rh1'
_cell_volume   157.37573094
_cell_formula_units_Z   1
loop_
 _symmetry_equiv_pos_site_id
 _symmetry_equiv_pos_as_xyz
  1  'x, y, z'
loop_
 _atom_site_type_symbol
 _atom_site_label
 _atom_site_symmetry_multiplicity
 _atom_site_fract_x
 _atom_site_fract_y
 _atom_site_fract_z
 _atom_site_occupancy
  Zr  Zr0  1  0.011361  0.399525  0.500000  1
  Zr  Zr1  1  0.600475  0.611836  0.500000  1
  Zr  Zr2  1  0.388164  0.988639  0.500000  1
  Ga  Ga3  1  0.000677  0.729190  0.000000  1
  Ga  Ga4  1  0.270810  0.271487  0.000000  1
  Ga  Ga5  1  0.728513  0.999323  0.000000  1
  Ru  Ru6  1  0.333333  0.666667  0.000000  1
  Pt  Pt7  1  0.666667  0.333333  0.000000  1
  Rh  Rh8  1  0.000000  0.000000  0.500000  1
