# generated using pymatgen
data_La2B4IrRu3
_symmetry_space_group_name_H-M   'P 1'
_cell_length_a   6.91239000
_cell_length_b   6.09010722
_cell_length_c   5.58875865
_cell_angle_alpha   72.43576586
_cell_angle_beta   57.13666397
_cell_angle_gamma   51.19028323
_symmetry_Int_Tables_number   1
_chemical_formula_structural   La2B4IrRu3
_chemical_formula_sum   'La2 B4 Ir1 Ru3'
_cell_volume   153.72769015
_cell_formula_units_Z   1
loop_
 _symmetry_equiv_pos_site_id
 _symmetry_equiv_pos_as_xyz
  1  'x, y, z'
loop_
 _atom_site_type_symbol
 _atom_site_label
 _atom_site_symmetry_multiplicity
 _atom_site_fract_x
 _atom_site_fract_y
 _atom_site_fract_z
 _atom_site_occupancy
  La  La0  1  0.997966  0.997966  0.002034  1
  La  La1  1  0.250046  0.250046  0.249954  1
  B  B2  1  0.676886  0.322465  0.677501  1
  B  B3  1  0.322465  0.676886  0.323149  1
  B  B4  1  0.930879  0.571340  0.929202  1
  B  B5  1  0.571340  0.930879  0.568579  1
  Ir  Ir6  1  0.615150  0.615150  0.884850  1
  Ru  Ru7  1  0.635541  0.635541  0.364458  1
  Ru  Ru8  1  0.364167  0.364168  0.635832  1
  Ru  Ru9  1  0.885560  0.885559  0.614440  1
