# generated using pymatgen
data_Ac2YbIr2
_symmetry_space_group_name_H-M   'P 1'
_cell_length_a   7.86474955
_cell_length_b   7.86474878
_cell_length_c   7.86475111
_cell_angle_alpha   69.94349219
_cell_angle_beta   69.94350057
_cell_angle_gamma   69.94347912
_symmetry_Int_Tables_number   1
_chemical_formula_structural   Ac2YbIr2
_chemical_formula_sum   'Ac6 Yb3 Ir6'
_cell_volume   415.02127724
_cell_formula_units_Z   3
loop_
 _symmetry_equiv_pos_site_id
 _symmetry_equiv_pos_as_xyz
  1  'x, y, z'
loop_
 _atom_site_type_symbol
 _atom_site_label
 _atom_site_symmetry_multiplicity
 _atom_site_fract_x
 _atom_site_fract_y
 _atom_site_fract_z
 _atom_site_occupancy
  Ac  Ac0  1  0.142722  0.395494  0.681780  1
  Ac  Ac1  1  0.681780  0.142722  0.395494  1
  Ac  Ac2  1  0.395494  0.681780  0.142722  1
  Ac  Ac3  1  0.857278  0.604506  0.318220  1
  Ac  Ac4  1  0.318220  0.857278  0.604506  1
  Ac  Ac5  1  0.604506  0.318220  0.857278  1
  Yb  Yb6  1  0.000000  0.000000  0.000000  1
  Yb  Yb7  1  0.809152  0.809152  0.809152  1
  Yb  Yb8  1  0.190848  0.190848  0.190848  1
  Ir  Ir9  1  0.955863  0.169698  0.581699  1
  Ir  Ir10  1  0.581699  0.955863  0.169698  1
  Ir  Ir11  1  0.169698  0.581699  0.955863  1
  Ir  Ir12  1  0.044137  0.830302  0.418301  1
  Ir  Ir13  1  0.418301  0.044137  0.830302  1
  Ir  Ir14  1  0.830302  0.418301  0.044137  1
