# generated using pymatgen
data_La4Tb12Cd4TcNi3
_symmetry_space_group_name_H-M   'P 1'
_cell_length_a   9.78806716
_cell_length_b   9.78806713
_cell_length_c   9.78806663
_cell_angle_alpha   59.30926333
_cell_angle_beta   59.30926677
_cell_angle_gamma   59.30926356
_symmetry_Int_Tables_number   1
_chemical_formula_structural   La4Tb12Cd4TcNi3
_chemical_formula_sum   'La4 Tb12 Cd4 Tc1 Ni3'
_cell_volume   652.66641820
_cell_formula_units_Z   1
loop_
 _symmetry_equiv_pos_site_id
 _symmetry_equiv_pos_as_xyz
  1  'x, y, z'
loop_
 _atom_site_type_symbol
 _atom_site_label
 _atom_site_symmetry_multiplicity
 _atom_site_fract_x
 _atom_site_fract_y
 _atom_site_fract_z
 _atom_site_occupancy
  La  La0  1  0.349258  0.349258  0.349258  1
  La  La1  1  0.349954  0.349954  0.953083  1
  La  La2  1  0.349954  0.953083  0.349954  1
  La  La3  1  0.953083  0.349954  0.349954  1
  Tb  Tb4  1  0.813555  0.186231  0.186231  1
  Tb  Tb5  1  0.185610  0.812185  0.812185  1
  Tb  Tb6  1  0.186231  0.813555  0.186231  1
  Tb  Tb7  1  0.812185  0.185610  0.812185  1
  Tb  Tb8  1  0.186231  0.186231  0.813555  1
  Tb  Tb9  1  0.812185  0.812185  0.185610  1
  Tb  Tb10  1  0.933653  0.566621  0.566621  1
  Tb  Tb11  1  0.557710  0.936563  0.936563  1
  Tb  Tb12  1  0.566621  0.933653  0.566621  1
  Tb  Tb13  1  0.936563  0.557710  0.936563  1
  Tb  Tb14  1  0.566621  0.566621  0.933653  1
  Tb  Tb15  1  0.936563  0.936563  0.557710  1
  Cd  Cd16  1  0.580647  0.580647  0.580647  1
  Cd  Cd17  1  0.580571  0.580571  0.254163  1
  Cd  Cd18  1  0.580571  0.254163  0.580571  1
  Cd  Cd19  1  0.254163  0.580571  0.580571  1
  Tc  Tc20  1  0.143636  0.143636  0.143636  1
  Ni  Ni21  1  0.141743  0.141743  0.580949  1
  Ni  Ni22  1  0.141743  0.580949  0.141743  1
  Ni  Ni23  1  0.580949  0.141743  0.141743  1
