# generated using pymatgen
data_La6Sm2TiPd24
_symmetry_space_group_name_H-M   'P 1'
_cell_length_a   8.53856502
_cell_length_b   8.53856502
_cell_length_c   8.53856502
_cell_angle_alpha   90.00556936
_cell_angle_beta   89.99443064
_cell_angle_gamma   89.99443064
_symmetry_Int_Tables_number   1
_chemical_formula_structural   La6Sm2TiPd24
_chemical_formula_sum   'La6 Sm2 Ti1 Pd24'
_cell_volume   622.52194180
_cell_formula_units_Z   1
loop_
 _symmetry_equiv_pos_site_id
 _symmetry_equiv_pos_as_xyz
  1  'x, y, z'
loop_
 _atom_site_type_symbol
 _atom_site_label
 _atom_site_symmetry_multiplicity
 _atom_site_fract_x
 _atom_site_fract_y
 _atom_site_fract_z
 _atom_site_occupancy
  La  La0  1  0.253157  0.253144  0.253144  1
  La  La1  1  0.746843  0.746856  0.746856  1
  La  La2  1  0.746856  0.746843  0.253144  1
  La  La3  1  0.746856  0.253144  0.746843  1
  La  La4  1  0.253144  0.253157  0.746856  1
  La  La5  1  0.253144  0.746856  0.253157  1
  Sm  Sm6  1  0.252631  0.747369  0.747369  1
  Sm  Sm7  1  0.747369  0.252631  0.252631  1
  Ti  Ti8  1  0.000000  0.000000  0.000000  1
  Pd  Pd9  1  0.262539  0.500687  0.999171  1
  Pd  Pd10  1  0.737461  0.499313  0.000829  1
  Pd  Pd11  1  0.999171  0.262539  0.499313  1
  Pd  Pd12  1  0.500687  0.262539  0.000829  1
  Pd  Pd13  1  0.000829  0.737461  0.500687  1
  Pd  Pd14  1  0.499313  0.737461  0.999171  1
  Pd  Pd15  1  0.500687  0.000829  0.262539  1
  Pd  Pd16  1  0.262539  0.999171  0.500687  1
  Pd  Pd17  1  0.499313  0.999171  0.737461  1
  Pd  Pd18  1  0.737461  0.000829  0.499313  1
  Pd  Pd19  1  0.999171  0.499313  0.262539  1
  Pd  Pd20  1  0.000829  0.500687  0.737461  1
  Pd  Pd21  1  0.253660  0.500805  0.500805  1
  Pd  Pd22  1  0.746340  0.499195  0.499195  1
  Pd  Pd23  1  0.500805  0.253660  0.499195  1
  Pd  Pd24  1  0.499195  0.746340  0.500805  1
  Pd  Pd25  1  0.500805  0.499195  0.253660  1
  Pd  Pd26  1  0.499195  0.500805  0.746340  1
  Pd  Pd27  1  0.296708  0.999083  0.999083  1
  Pd  Pd28  1  0.703292  0.000917  0.000917  1
  Pd  Pd29  1  0.999083  0.296708  0.000917  1
  Pd  Pd30  1  0.000917  0.703292  0.999083  1
  Pd  Pd31  1  0.999083  0.000917  0.296708  1
  Pd  Pd32  1  0.000917  0.999083  0.703292  1
