# generated using pymatgen
data_ThCoAsPRh
_symmetry_space_group_name_H-M   'P 1'
_cell_length_a   4.17701300
_cell_length_b   4.17701300
_cell_length_c   9.47885800
_cell_angle_alpha   90.00000000
_cell_angle_beta   90.00000000
_cell_angle_gamma   90.00000000
_symmetry_Int_Tables_number   1
_chemical_formula_structural   ThCoAsPRh
_chemical_formula_sum   'Th2 Co2 As2 P2 Rh2'
_cell_volume   165.38178349
_cell_formula_units_Z   2
loop_
 _symmetry_equiv_pos_site_id
 _symmetry_equiv_pos_as_xyz
  1  'x, y, z'
loop_
 _atom_site_type_symbol
 _atom_site_label
 _atom_site_symmetry_multiplicity
 _atom_site_fract_x
 _atom_site_fract_y
 _atom_site_fract_z
 _atom_site_occupancy
  Th  Th0  1  0.000000  0.500000  0.266140  1
  Th  Th1  1  0.500000  0.000000  0.733860  1
  Co  Co2  1  0.000000  0.500000  0.596535  1
  Co  Co3  1  0.500000  0.000000  0.403465  1
  As  As4  1  0.000000  0.500000  0.846209  1
  As  As5  1  0.500000  0.000000  0.153791  1
  P  P6  1  0.000000  0.000000  0.500000  1
  P  P7  1  0.500000  0.500000  0.500000  1
  Rh  Rh8  1  0.000000  0.000000  0.000000  1
  Rh  Rh9  1  0.500000  0.500000  0.000000  1
