# generated using pymatgen
data_Li3Tm3Si2As
_symmetry_space_group_name_H-M   'P 1'
_cell_length_a   6.97485800
_cell_length_b   6.97485868
_cell_length_c   4.13980300
_cell_angle_alpha   90.00000000
_cell_angle_beta   90.00000000
_cell_angle_gamma   119.99999678
_symmetry_Int_Tables_number   1
_chemical_formula_structural   Li3Tm3Si2As
_chemical_formula_sum   'Li3 Tm3 Si2 As1'
_cell_volume   174.41390415
_cell_formula_units_Z   1
loop_
 _symmetry_equiv_pos_site_id
 _symmetry_equiv_pos_as_xyz
  1  'x, y, z'
loop_
 _atom_site_type_symbol
 _atom_site_label
 _atom_site_symmetry_multiplicity
 _atom_site_fract_x
 _atom_site_fract_y
 _atom_site_fract_z
 _atom_site_occupancy
  Li  Li0  1  0.234505  0.000000  0.500000  1
  Li  Li1  1  0.765495  0.765495  0.500000  1
  Li  Li2  1  0.000000  0.234505  0.500000  1
  Tm  Tm3  1  0.000000  0.578998  0.000000  1
  Tm  Tm4  1  0.578998  0.000000  0.000000  1
  Tm  Tm5  1  0.421002  0.421002  0.000000  1
  Si  Si6  1  0.333333  0.666667  0.500000  1
  Si  Si7  1  0.666667  0.333333  0.500000  1
  As  As8  1  0.000000  0.000000  0.000000  1
