# generated using pymatgen
data_Tm6Al24IrRu7
_symmetry_space_group_name_H-M   'P 1'
_cell_length_a   8.75600463
_cell_length_b   8.75600388
_cell_length_c   9.57271508
_cell_angle_alpha   89.89745903
_cell_angle_beta   90.10253735
_cell_angle_gamma   119.94240086
_symmetry_Int_Tables_number   1
_chemical_formula_structural   Tm6Al24IrRu7
_chemical_formula_sum   'Tm6 Al24 Ir1 Ru7'
_cell_volume   635.95815383
_cell_formula_units_Z   1
loop_
 _symmetry_equiv_pos_site_id
 _symmetry_equiv_pos_as_xyz
  1  'x, y, z'
loop_
 _atom_site_type_symbol
 _atom_site_label
 _atom_site_symmetry_multiplicity
 _atom_site_fract_x
 _atom_site_fract_y
 _atom_site_fract_z
 _atom_site_occupancy
  Tm  Tm0  1  0.805572  0.194428  0.749587  1
  Tm  Tm1  1  0.194428  0.805572  0.250413  1
  Tm  Tm2  1  0.387739  0.193345  0.749049  1
  Tm  Tm3  1  0.612261  0.806655  0.250951  1
  Tm  Tm4  1  0.806655  0.612261  0.749049  1
  Tm  Tm5  1  0.193345  0.387739  0.250951  1
  Al  Al6  1  0.667592  0.332408  0.980065  1
  Al  Al7  1  0.332408  0.667592  0.019935  1
  Al  Al8  1  0.333287  0.666713  0.480019  1
  Al  Al9  1  0.666713  0.333287  0.519981  1
  Al  Al10  1  0.836862  0.163138  0.421986  1
  Al  Al11  1  0.163138  0.836862  0.578014  1
  Al  Al12  1  0.325636  0.163210  0.421671  1
  Al  Al13  1  0.162474  0.837526  0.921427  1
  Al  Al14  1  0.674364  0.836790  0.578329  1
  Al  Al15  1  0.837526  0.162474  0.078573  1
  Al  Al16  1  0.836790  0.674364  0.421671  1
  Al  Al17  1  0.674596  0.838519  0.921881  1
  Al  Al18  1  0.163210  0.325636  0.578329  1
  Al  Al19  1  0.325404  0.161481  0.078119  1
  Al  Al20  1  0.161481  0.325404  0.921881  1
  Al  Al21  1  0.838519  0.674596  0.078119  1
  Al  Al22  1  0.438045  0.561955  0.748664  1
  Al  Al23  1  0.561955  0.438045  0.251336  1
  Al  Al24  1  0.123066  0.561042  0.750098  1
  Al  Al25  1  0.876934  0.438958  0.249902  1
  Al  Al26  1  0.438958  0.876934  0.750098  1
  Al  Al27  1  0.561042  0.123066  0.249902  1
  Al  Al28  1  0.000117  0.999883  0.749957  1
  Al  Al29  1  0.999883  0.000117  0.250043  1
  Ir  Ir30  1  0.500000  0.500000  0.000000  1
  Ru  Ru31  1  0.000000  0.500000  0.000000  1
  Ru  Ru32  1  0.500000  0.500000  0.500000  1
  Ru  Ru33  1  0.500000  0.000000  0.000000  1
  Ru  Ru34  1  0.000000  0.500000  0.500000  1
  Ru  Ru35  1  0.500000  0.000000  0.500000  1
  Ru  Ru36  1  0.000000  0.000000  0.000000  1
  Ru  Ru37  1  0.000000  0.000000  0.500000  1
