# generated using pymatgen
data_Ac2Eu(InRh)3
_symmetry_space_group_name_H-M   'P 1'
_cell_length_a   7.94653500
_cell_length_b   7.83517084
_cell_length_c   4.37429200
_cell_angle_alpha   90.00000000
_cell_angle_beta   90.00000000
_cell_angle_gamma   119.53749859
_symmetry_Int_Tables_number   1
_chemical_formula_structural   Ac2Eu(InRh)3
_chemical_formula_sum   'Ac2 Eu1 In3 Rh3'
_cell_volume   236.95718512
_cell_formula_units_Z   1
loop_
 _symmetry_equiv_pos_site_id
 _symmetry_equiv_pos_as_xyz
  1  'x, y, z'
loop_
 _atom_site_type_symbol
 _atom_site_label
 _atom_site_symmetry_multiplicity
 _atom_site_fract_x
 _atom_site_fract_y
 _atom_site_fract_z
 _atom_site_occupancy
  Ac  Ac0  1  0.589169  0.001580  0.500000  1
  Ac  Ac1  1  0.410831  0.412411  0.500000  1
  Eu  Eu2  1  0.000000  0.593211  0.500000  1
  In  In3  1  0.233320  0.991884  0.000000  1
  In  In4  1  0.766680  0.758564  0.000000  1
  In  In5  1  0.000000  0.257530  0.000000  1
  Rh  Rh6  1  0.000000  0.006252  0.500000  1
  Rh  Rh7  1  0.349125  0.663846  0.000000  1
  Rh  Rh8  1  0.650875  0.314721  0.000000  1
