# generated using pymatgen
data_Ho8Cu3Si12Ir
_symmetry_space_group_name_H-M   'P 1'
_cell_length_a   8.02779803
_cell_length_b   8.02794895
_cell_length_c   8.05957800
_cell_angle_alpha   89.99979263
_cell_angle_beta   89.99977113
_cell_angle_gamma   120.00889591
_symmetry_Int_Tables_number   1
_chemical_formula_structural   Ho8Cu3Si12Ir
_chemical_formula_sum   'Ho8 Cu3 Si12 Ir1'
_cell_volume   449.78507107
_cell_formula_units_Z   1
loop_
 _symmetry_equiv_pos_site_id
 _symmetry_equiv_pos_as_xyz
  1  'x, y, z'
loop_
 _atom_site_type_symbol
 _atom_site_label
 _atom_site_symmetry_multiplicity
 _atom_site_fract_x
 _atom_site_fract_y
 _atom_site_fract_z
 _atom_site_occupancy
  Ho  Ho0  1  0.999982  0.999995  0.251255  1
  Ho  Ho1  1  0.999988  0.000001  0.748548  1
  Ho  Ho2  1  0.498258  0.501753  0.248035  1
  Ho  Ho3  1  0.498237  0.996496  0.248038  1
  Ho  Ho4  1  0.003468  0.501746  0.248033  1
  Ho  Ho5  1  0.498368  0.501632  0.751968  1
  Ho  Ho6  1  0.498354  0.996725  0.751966  1
  Ho  Ho7  1  0.003237  0.501628  0.751967  1
  Cu  Cu8  1  0.333102  0.667000  0.500403  1
  Cu  Cu9  1  0.667056  0.333262  0.500082  1
  Cu  Cu10  1  0.666709  0.333214  0.000481  1
  Si  Si11  1  0.168754  0.831464  0.499939  1
  Si  Si12  1  0.169215  0.338091  0.499935  1
  Si  Si13  1  0.661854  0.830878  0.499946  1
  Si  Si14  1  0.831440  0.168661  0.499939  1
  Si  Si15  1  0.830958  0.662194  0.499943  1
  Si  Si16  1  0.338125  0.169256  0.499947  1
  Si  Si17  1  0.831593  0.168286  0.999963  1
  Si  Si18  1  0.831420  0.662918  0.999960  1
  Si  Si19  1  0.336773  0.168364  0.999964  1
  Si  Si20  1  0.166490  0.833281  0.999927  1
  Si  Si21  1  0.166691  0.333291  0.999930  1
  Si  Si22  1  0.666650  0.833192  0.999927  1
  Ir  Ir23  1  0.333279  0.666670  0.999903  1
