# generated using pymatgen
data_Zr2MnB2IrRu4
_symmetry_space_group_name_H-M   'P 1'
_cell_length_a   9.37744589
_cell_length_b   9.42539883
_cell_length_c   3.07528700
_cell_angle_alpha   90.00000000
_cell_angle_beta   90.00000000
_cell_angle_gamma   90.14818590
_symmetry_Int_Tables_number   1
_chemical_formula_structural   Zr2MnB2IrRu4
_chemical_formula_sum   'Zr4 Mn2 B4 Ir2 Ru8'
_cell_volume   271.81192291
_cell_formula_units_Z   2
loop_
 _symmetry_equiv_pos_site_id
 _symmetry_equiv_pos_as_xyz
  1  'x, y, z'
loop_
 _atom_site_type_symbol
 _atom_site_label
 _atom_site_symmetry_multiplicity
 _atom_site_fract_x
 _atom_site_fract_y
 _atom_site_fract_z
 _atom_site_occupancy
  Zr  Zr0  1  0.675535  0.180836  0.000000  1
  Zr  Zr1  1  0.324465  0.819164  0.000000  1
  Zr  Zr2  1  0.176333  0.327611  0.000000  1
  Zr  Zr3  1  0.823667  0.672389  0.000000  1
  Mn  Mn4  1  0.000000  0.000000  0.000000  1
  Mn  Mn5  1  0.500000  0.500000  0.000000  1
  B  B6  1  0.123146  0.623843  0.000000  1
  B  B7  1  0.876854  0.376157  0.000000  1
  B  B8  1  0.619981  0.874372  0.000000  1
  B  B9  1  0.380019  0.125628  0.000000  1
  Ir  Ir10  1  0.215140  0.069932  0.500000  1
  Ir  Ir11  1  0.784860  0.930068  0.500000  1
  Ru  Ru12  1  0.069957  0.785170  0.500000  1
  Ru  Ru13  1  0.714287  0.429171  0.500000  1
  Ru  Ru14  1  0.930043  0.214830  0.500000  1
  Ru  Ru15  1  0.285713  0.570829  0.500000  1
  Ru  Ru16  1  0.571867  0.714619  0.500000  1
  Ru  Ru17  1  0.428133  0.285381  0.500000  1
  Ru  Ru18  1  0.500000  0.000000  0.500000  1
  Ru  Ru19  1  0.000000  0.500000  0.500000  1
