# generated using pymatgen
data_Rb8MnCr3S4(O4F3)4
_symmetry_space_group_name_H-M   'P 1'
_cell_length_a   11.36641800
_cell_length_b   7.48220557
_cell_length_c   8.94543000
_cell_angle_alpha   86.77934547
_cell_angle_beta   90.00000000
_cell_angle_gamma   90.00000000
_symmetry_Int_Tables_number   1
_chemical_formula_structural   Rb8MnCr3S4(O4F3)4
_chemical_formula_sum   'Rb8 Mn1 Cr3 S4 O16 F12'
_cell_volume   759.57035024
_cell_formula_units_Z   1
loop_
 _symmetry_equiv_pos_site_id
 _symmetry_equiv_pos_as_xyz
  1  'x, y, z'
loop_
 _atom_site_type_symbol
 _atom_site_label
 _atom_site_symmetry_multiplicity
 _atom_site_fract_x
 _atom_site_fract_y
 _atom_site_fract_z
 _atom_site_occupancy
  Rb  Rb0  1  0.190437  0.302215  0.667885  1
  Rb  Rb1  1  0.691157  0.697738  0.830266  1
  Rb  Rb2  1  0.809563  0.697785  0.332115  1
  Rb  Rb3  1  0.308843  0.302262  0.169734  1
  Rb  Rb4  1  0.304860  0.810434  0.834404  1
  Rb  Rb5  1  0.806171  0.192820  0.668317  1
  Rb  Rb6  1  0.695140  0.189566  0.165596  1
  Rb  Rb7  1  0.193829  0.807180  0.331683  1
  Mn  Mn8  1  0.000000  0.500000  0.000000  1
  Cr  Cr9  1  0.500000  0.000000  0.500000  1
  Cr  Cr10  1  0.000000  0.000000  0.000000  1
  Cr  Cr11  1  0.500000  0.500000  0.500000  1
  S  S12  1  0.498876  0.239662  0.797735  1
  S  S13  1  0.999589  0.756518  0.704063  1
  S  S14  1  0.501124  0.760338  0.202265  1
  S  S15  1  0.000411  0.243482  0.295937  1
  O  O16  1  0.404036  0.165674  0.893554  1
  O  O17  1  0.904051  0.831409  0.609915  1
  O  O18  1  0.595964  0.834326  0.106446  1
  O  O19  1  0.095949  0.168591  0.390085  1
  O  O20  1  0.597509  0.311682  0.881296  1
  O  O21  1  0.096498  0.682180  0.619003  1
  O  O22  1  0.402491  0.688318  0.118704  1
  O  O23  1  0.903502  0.317820  0.380997  1
  O  O24  1  0.444060  0.387605  0.696229  1
  O  O25  1  0.943529  0.608567  0.806299  1
  O  O26  1  0.555940  0.612395  0.303771  1
  O  O27  1  0.056471  0.391433  0.193701  1
  O  O28  1  0.050237  0.896744  0.801898  1
  O  O29  1  0.547930  0.095578  0.700522  1
  O  O30  1  0.949763  0.103256  0.198102  1
  O  O31  1  0.452070  0.904422  0.299478  1
  F  F32  1  0.337610  0.519240  0.442539  1
  F  F33  1  0.841801  0.478420  0.056273  1
  F  F34  1  0.662390  0.480760  0.557461  1
  F  F35  1  0.158199  0.521580  0.943727  1
  F  F36  1  0.164544  0.022530  0.047754  1
  F  F37  1  0.663658  0.981183  0.451989  1
  F  F38  1  0.835456  0.977470  0.952246  1
  F  F39  1  0.336342  0.018817  0.548011  1
  F  F40  1  0.001139  0.759849  0.102136  1
  F  F41  1  0.502273  0.254768  0.411452  1
  F  F42  1  0.998861  0.240151  0.897864  1
  F  F43  1  0.497727  0.745232  0.588548  1
