# generated using pymatgen
data_AcEr2Al7Ag2
_symmetry_space_group_name_H-M   'P 1'
_cell_length_a   9.44848796
_cell_length_b   9.44848832
_cell_length_c   9.44848800
_cell_angle_alpha   35.09147842
_cell_angle_beta   35.09147532
_cell_angle_gamma   35.09147726
_symmetry_Int_Tables_number   1
_chemical_formula_structural   AcEr2Al7Ag2
_chemical_formula_sum   'Ac1 Er2 Al7 Ag2'
_cell_volume   248.94768810
_cell_formula_units_Z   1
loop_
 _symmetry_equiv_pos_site_id
 _symmetry_equiv_pos_as_xyz
  1  'x, y, z'
loop_
 _atom_site_type_symbol
 _atom_site_label
 _atom_site_symmetry_multiplicity
 _atom_site_fract_x
 _atom_site_fract_y
 _atom_site_fract_z
 _atom_site_occupancy
  Ac  Ac0  1  0.000000  0.000000  0.000000  1
  Er  Er1  1  0.141442  0.141442  0.141442  1
  Er  Er2  1  0.858558  0.858558  0.858558  1
  Al  Al3  1  0.589310  0.589310  0.076755  1
  Al  Al4  1  0.923246  0.410689  0.410691  1
  Al  Al5  1  0.410689  0.923246  0.410691  1
  Al  Al6  1  0.500000  0.500000  0.500000  1
  Al  Al7  1  0.589311  0.076754  0.589309  1
  Al  Al8  1  0.076754  0.589311  0.589309  1
  Al  Al9  1  0.410690  0.410690  0.923245  1
  Ag  Ag10  1  0.335433  0.335433  0.335433  1
  Ag  Ag11  1  0.664568  0.664568  0.664568  1
