# generated using pymatgen
data_Lu20Cd6RePt
_symmetry_space_group_name_H-M   'P 1'
_cell_length_a   9.41327900
_cell_length_b   9.41327947
_cell_length_c   9.67633500
_cell_angle_alpha   90.00000000
_cell_angle_beta   90.00000000
_cell_angle_gamma   120.00000187
_symmetry_Int_Tables_number   1
_chemical_formula_structural   Lu20Cd6RePt
_chemical_formula_sum   'Lu20 Cd6 Re1 Pt1'
_cell_volume   742.54606762
_cell_formula_units_Z   1
loop_
 _symmetry_equiv_pos_site_id
 _symmetry_equiv_pos_as_xyz
  1  'x, y, z'
loop_
 _atom_site_type_symbol
 _atom_site_label
 _atom_site_symmetry_multiplicity
 _atom_site_fract_x
 _atom_site_fract_y
 _atom_site_fract_z
 _atom_site_occupancy
  Lu  Lu0  1  0.000000  0.000000  0.498983  1
  Lu  Lu1  1  0.000000  0.000000  0.001017  1
  Lu  Lu2  1  0.208697  0.791303  0.443713  1
  Lu  Lu3  1  0.208697  0.417396  0.443713  1
  Lu  Lu4  1  0.582604  0.791303  0.443713  1
  Lu  Lu5  1  0.790464  0.209536  0.557404  1
  Lu  Lu6  1  0.790464  0.580927  0.557404  1
  Lu  Lu7  1  0.419073  0.209536  0.557404  1
  Lu  Lu8  1  0.790464  0.209536  0.942596  1
  Lu  Lu9  1  0.790464  0.580927  0.942596  1
  Lu  Lu10  1  0.419073  0.209536  0.942596  1
  Lu  Lu11  1  0.208697  0.791303  0.056287  1
  Lu  Lu12  1  0.208697  0.417396  0.056287  1
  Lu  Lu13  1  0.582604  0.791303  0.056287  1
  Lu  Lu14  1  0.541845  0.458155  0.250000  1
  Lu  Lu15  1  0.541845  0.083691  0.250000  1
  Lu  Lu16  1  0.916309  0.458155  0.250000  1
  Lu  Lu17  1  0.461912  0.538088  0.750000  1
  Lu  Lu18  1  0.461912  0.923822  0.750000  1
  Lu  Lu19  1  0.076178  0.538088  0.750000  1
  Cd  Cd20  1  0.886161  0.113839  0.250000  1
  Cd  Cd21  1  0.886161  0.772320  0.250000  1
  Cd  Cd22  1  0.227680  0.113839  0.250000  1
  Cd  Cd23  1  0.113774  0.886226  0.750000  1
  Cd  Cd24  1  0.113774  0.227549  0.750000  1
  Cd  Cd25  1  0.772451  0.886226  0.750000  1
  Re  Re26  1  0.666667  0.333333  0.750000  1
  Pt  Pt27  1  0.333333  0.666667  0.250000  1
