# generated using pymatgen
data_Er4Tm(In2Co)2
_symmetry_space_group_name_H-M   'P 1'
_cell_length_a   3.53676100
_cell_length_b   7.90654944
_cell_length_c   17.93642393
_cell_angle_alpha   90.01366782
_cell_angle_beta   90.00000000
_cell_angle_gamma   90.00000000
_symmetry_Int_Tables_number   1
_chemical_formula_structural   Er4Tm(In2Co)2
_chemical_formula_sum   'Er8 Tm2 In8 Co4'
_cell_volume   501.56653388
_cell_formula_units_Z   2
loop_
 _symmetry_equiv_pos_site_id
 _symmetry_equiv_pos_as_xyz
  1  'x, y, z'
loop_
 _atom_site_type_symbol
 _atom_site_label
 _atom_site_symmetry_multiplicity
 _atom_site_fract_x
 _atom_site_fract_y
 _atom_site_fract_z
 _atom_site_occupancy
  Er  Er0  1  0.000000  0.500000  0.500000  1
  Er  Er1  1  0.000000  0.000000  0.000000  1
  Er  Er2  1  0.000000  0.748824  0.278616  1
  Er  Er3  1  0.000000  0.251176  0.721384  1
  Er  Er4  1  0.000000  0.751286  0.777466  1
  Er  Er5  1  0.000000  0.248714  0.222534  1
  Er  Er6  1  0.000000  0.616230  0.090569  1
  Er  Er7  1  0.000000  0.383770  0.909431  1
  Tm  Tm8  1  0.000000  0.883025  0.590756  1
  Tm  Tm9  1  0.000000  0.116975  0.409244  1
  In  In10  1  0.500000  0.705856  0.930112  1
  In  In11  1  0.500000  0.294144  0.069888  1
  In  In12  1  0.500000  0.797347  0.432176  1
  In  In13  1  0.500000  0.202653  0.567824  1
  In  In14  1  0.500000  0.568715  0.651260  1
  In  In15  1  0.500000  0.431285  0.348740  1
  In  In16  1  0.500000  0.930465  0.151963  1
  In  In17  1  0.500000  0.069535  0.848037  1
  Co  Co18  1  0.500000  0.523608  0.196422  1
  Co  Co19  1  0.500000  0.476392  0.803578  1
  Co  Co20  1  0.500000  0.976202  0.695793  1
  Co  Co21  1  0.500000  0.023798  0.304207  1
