# generated using pymatgen
data_Tm4Sc6Ga7Ge
_symmetry_space_group_name_H-M   'P 1'
_cell_length_a   7.19223073
_cell_length_b   7.50468081
_cell_length_c   14.44349100
_cell_angle_alpha   90.00000000
_cell_angle_beta   90.00000000
_cell_angle_gamma   89.92047030
_symmetry_Int_Tables_number   1
_chemical_formula_structural   Tm4Sc6Ga7Ge
_chemical_formula_sum   'Tm8 Sc12 Ga14 Ge2'
_cell_volume   779.59239443
_cell_formula_units_Z   2
loop_
 _symmetry_equiv_pos_site_id
 _symmetry_equiv_pos_as_xyz
  1  'x, y, z'
loop_
 _atom_site_type_symbol
 _atom_site_label
 _atom_site_symmetry_multiplicity
 _atom_site_fract_x
 _atom_site_fract_y
 _atom_site_fract_z
 _atom_site_occupancy
  Tm  Tm0  1  0.010636  0.179113  0.095017  1
  Tm  Tm1  1  0.989364  0.820887  0.904983  1
  Tm  Tm2  1  0.489026  0.679644  0.905834  1
  Tm  Tm3  1  0.989364  0.820887  0.595017  1
  Tm  Tm4  1  0.510974  0.320356  0.094166  1
  Tm  Tm5  1  0.010636  0.179113  0.404983  1
  Tm  Tm6  1  0.510974  0.320356  0.405834  1
  Tm  Tm7  1  0.489026  0.679644  0.594166  1
  Sc  Sc8  1  0.162361  0.503660  0.750000  1
  Sc  Sc9  1  0.837639  0.496340  0.250000  1
  Sc  Sc10  1  0.336164  0.003543  0.250000  1
  Sc  Sc11  1  0.663836  0.996457  0.750000  1
  Sc  Sc12  1  0.328705  0.172735  0.623923  1
  Sc  Sc13  1  0.671295  0.827265  0.376077  1
  Sc  Sc14  1  0.169256  0.673786  0.376400  1
  Sc  Sc15  1  0.671295  0.827265  0.123923  1
  Sc  Sc16  1  0.830744  0.326214  0.623600  1
  Sc  Sc17  1  0.328705  0.172735  0.876077  1
  Sc  Sc18  1  0.830744  0.326214  0.876400  1
  Sc  Sc19  1  0.169256  0.673786  0.123600  1
  Ga  Ga20  1  0.468025  0.617119  0.250000  1
  Ga  Ga21  1  0.531975  0.382881  0.750000  1
  Ga  Ga22  1  0.285668  0.868895  0.750000  1
  Ga  Ga23  1  0.714332  0.131105  0.250000  1
  Ga  Ga24  1  0.216127  0.369723  0.250000  1
  Ga  Ga25  1  0.783873  0.630277  0.750000  1
  Ga  Ga26  1  0.161841  0.464317  0.540693  1
  Ga  Ga27  1  0.838159  0.535683  0.459307  1
  Ga  Ga28  1  0.338232  0.965394  0.459943  1
  Ga  Ga29  1  0.838159  0.535683  0.040693  1
  Ga  Ga30  1  0.661768  0.034606  0.540057  1
  Ga  Ga31  1  0.161841  0.464317  0.959307  1
  Ga  Ga32  1  0.661768  0.034606  0.959943  1
  Ga  Ga33  1  0.338232  0.965394  0.040057  1
  Ge  Ge34  1  0.030646  0.116948  0.750000  1
  Ge  Ge35  1  0.969354  0.883052  0.250000  1
