# generated using pymatgen
data_Ba6CaNi4O15
_symmetry_space_group_name_H-M   'P 1'
_cell_length_a   7.26080967
_cell_length_b   7.26079789
_cell_length_c   7.26080347
_cell_angle_alpha   87.83535223
_cell_angle_beta   87.83527145
_cell_angle_gamma   87.83539182
_symmetry_Int_Tables_number   1
_chemical_formula_structural   Ba6CaNi4O15
_chemical_formula_sum   'Ba6 Ca1 Ni4 O15'
_cell_volume   381.98489385
_cell_formula_units_Z   1
loop_
 _symmetry_equiv_pos_site_id
 _symmetry_equiv_pos_as_xyz
  1  'x, y, z'
loop_
 _atom_site_type_symbol
 _atom_site_label
 _atom_site_symmetry_multiplicity
 _atom_site_fract_x
 _atom_site_fract_y
 _atom_site_fract_z
 _atom_site_occupancy
  Ba  Ba0  1  0.336919  0.663076  0.000003  1
  Ba  Ba1  1  0.000002  0.336923  0.663076  1
  Ba  Ba2  1  0.663074  0.000002  0.336923  1
  Ba  Ba3  1  0.144145  0.855854  0.500001  1
  Ba  Ba4  1  0.500000  0.144148  0.855855  1
  Ba  Ba5  1  0.855852  0.500001  0.144147  1
  Ca  Ca6  1  0.499999  0.499999  0.500000  1
  Ni  Ni7  1  0.285385  0.285371  0.285373  1
  Ni  Ni8  1  0.714622  0.714623  0.714616  1
  Ni  Ni9  1  0.093537  0.093539  0.093539  1
  Ni  Ni10  1  0.906456  0.906458  0.906459  1
  O  O11  1  0.142543  0.000003  0.857461  1
  O  O12  1  0.857459  0.142544  0.000004  1
  O  O13  1  0.000001  0.857461  0.142545  1
  O  O14  1  0.033821  0.190567  0.326350  1
  O  O15  1  0.326350  0.033819  0.190566  1
  O  O16  1  0.190566  0.326351  0.033820  1
  O  O17  1  0.809436  0.966185  0.673655  1
  O  O18  1  0.673652  0.809439  0.966185  1
  O  O19  1  0.966183  0.673655  0.809439  1
  O  O20  1  0.358902  0.217224  0.524142  1
  O  O21  1  0.524145  0.358899  0.217224  1
  O  O22  1  0.217228  0.524139  0.358901  1
  O  O23  1  0.782772  0.641096  0.475853  1
  O  O24  1  0.475853  0.782770  0.641094  1
  O  O25  1  0.641096  0.475856  0.782770  1
