# generated using pymatgen
data_Sr4Al4SiGeO14
_symmetry_space_group_name_H-M   'P 1'
_cell_length_a   7.95325295
_cell_length_b   5.36694059
_cell_length_c   7.96767358
_cell_angle_alpha   90.60414180
_cell_angle_beta   90.07473050
_cell_angle_gamma   90.03012056
_symmetry_Int_Tables_number   1
_chemical_formula_structural   Sr4Al4SiGeO14
_chemical_formula_sum   'Sr4 Al4 Si1 Ge1 O14'
_cell_volume   340.07800201
_cell_formula_units_Z   1
loop_
 _symmetry_equiv_pos_site_id
 _symmetry_equiv_pos_as_xyz
  1  'x, y, z'
loop_
 _atom_site_type_symbol
 _atom_site_label
 _atom_site_symmetry_multiplicity
 _atom_site_fract_x
 _atom_site_fract_y
 _atom_site_fract_z
 _atom_site_occupancy
  Sr  Sr0  1  0.842791  0.516874  0.076687  1
  Sr  Sr1  1  0.343375  0.484414  0.925443  1
  Sr  Sr2  1  0.163500  0.511672  0.398682  1
  Sr  Sr3  1  0.669654  0.496004  0.599015  1
  Al  Al4  1  0.501272  0.999546  0.249817  1
  Al  Al5  1  0.996317  0.000293  0.749115  1
  Al  Al6  1  0.643576  0.966796  0.894267  1
  Al  Al7  1  0.140482  0.032423  0.108013  1
  Si  Si8  1  0.857497  0.040960  0.391795  1
  Ge  Ge9  1  0.356430  0.966415  0.607321  1
  O  O10  1  0.987782  0.161799  0.252143  1
  O  O11  1  0.493066  0.826756  0.754723  1
  O  O12  1  0.643410  0.289358  0.888257  1
  O  O13  1  0.140170  0.709278  0.110913  1
  O  O14  1  0.359087  0.289848  0.605639  1
  O  O15  1  0.858700  0.739485  0.393401  1
  O  O16  1  0.588312  0.819462  0.085726  1
  O  O17  1  0.085674  0.178963  0.914708  1
  O  O18  1  0.418992  0.811043  0.416289  1
  O  O19  1  0.914975  0.175306  0.573680  1
  O  O20  1  0.671789  0.169326  0.348080  1
  O  O21  1  0.160963  0.817913  0.654696  1
  O  O22  1  0.331039  0.182933  0.176762  1
  O  O23  1  0.831142  0.813131  0.824829  1
