# generated using pymatgen
data_Y6Ti3Al13Ir7
_symmetry_space_group_name_H-M   'P 1'
_cell_length_a   9.00645562
_cell_length_b   9.00636736
_cell_length_c   9.00627020
_cell_angle_alpha   59.59688576
_cell_angle_beta   59.59740879
_cell_angle_gamma   59.59845701
_symmetry_Int_Tables_number   1
_chemical_formula_structural   Y6Ti3Al13Ir7
_chemical_formula_sum   'Y6 Ti3 Al13 Ir7'
_cell_volume   511.85029156
_cell_formula_units_Z   1
loop_
 _symmetry_equiv_pos_site_id
 _symmetry_equiv_pos_as_xyz
  1  'x, y, z'
loop_
 _atom_site_type_symbol
 _atom_site_label
 _atom_site_symmetry_multiplicity
 _atom_site_fract_x
 _atom_site_fract_y
 _atom_site_fract_z
 _atom_site_occupancy
  Y  Y0  1  0.707750  0.707754  0.286542  1
  Y  Y1  1  0.295608  0.705630  0.295646  1
  Y  Y2  1  0.705628  0.295609  0.295642  1
  Y  Y3  1  0.295632  0.295637  0.705617  1
  Y  Y4  1  0.707759  0.286524  0.707736  1
  Y  Y5  1  0.286525  0.707758  0.707733  1
  Ti  Ti6  1  0.878271  0.878274  0.360321  1
  Ti  Ti7  1  0.878286  0.360322  0.878254  1
  Ti  Ti8  1  0.360355  0.878277  0.878245  1
  Al  Al9  1  0.880764  0.880767  0.880770  1
  Al  Al10  1  0.122024  0.122043  0.642552  1
  Al  Al11  1  0.122006  0.642588  0.122045  1
  Al  Al12  1  0.642589  0.122019  0.122039  1
  Al  Al13  1  0.119902  0.119921  0.119945  1
  Al  Al14  1  0.670306  0.670284  0.988360  1
  Al  Al15  1  0.670334  0.988344  0.670247  1
  Al  Al16  1  0.988344  0.670321  0.670254  1
  Al  Al17  1  0.669249  0.669232  0.669173  1
  Al  Al18  1  0.328844  0.328849  0.015225  1
  Al  Al19  1  0.328836  0.015226  0.328861  1
  Al  Al20  1  0.015220  0.328840  0.328861  1
  Al  Al21  1  0.329656  0.329662  0.329678  1
  Ir  Ir22  1  0.001989  0.002028  0.002142  1
  Ir  Ir23  1  0.998491  0.998494  0.498697  1
  Ir  Ir24  1  0.501161  0.996155  0.501079  1
  Ir  Ir25  1  0.996155  0.501152  0.501087  1
  Ir  Ir26  1  0.501090  0.501073  0.996198  1
  Ir  Ir27  1  0.998518  0.498695  0.998524  1
  Ir  Ir28  1  0.498705  0.998517  0.998521  1
