# generated using pymatgen
data_Tb11Th5(InTc)4
_symmetry_space_group_name_H-M   'P 1'
_cell_length_a   9.81980867
_cell_length_b   9.81883321
_cell_length_c   9.75350330
_cell_angle_alpha   59.79998493
_cell_angle_beta   60.11405942
_cell_angle_gamma   60.17765118
_symmetry_Int_Tables_number   1
_chemical_formula_structural   Tb11Th5(InTc)4
_chemical_formula_sum   'Tb11 Th5 In4 Tc4'
_cell_volume   665.42415158
_cell_formula_units_Z   1
loop_
 _symmetry_equiv_pos_site_id
 _symmetry_equiv_pos_as_xyz
  1  'x, y, z'
loop_
 _atom_site_type_symbol
 _atom_site_label
 _atom_site_symmetry_multiplicity
 _atom_site_fract_x
 _atom_site_fract_y
 _atom_site_fract_z
 _atom_site_occupancy
  Tb  Tb0  1  0.309570  0.309617  0.689142  1
  Tb  Tb1  1  0.099531  0.100547  0.099102  1
  Tb  Tb2  1  0.552328  0.556141  0.941751  1
  Tb  Tb3  1  0.101290  0.098052  0.702346  1
  Tb  Tb4  1  0.692040  0.307261  0.691150  1
  Tb  Tb5  1  0.693540  0.690874  0.308279  1
  Tb  Tb6  1  0.690617  0.305518  0.310027  1
  Tb  Tb7  1  0.308076  0.690039  0.691526  1
  Tb  Tb8  1  0.549659  0.944069  0.559917  1
  Tb  Tb9  1  0.708091  0.097128  0.097724  1
  Tb  Tb10  1  0.551168  0.947507  0.943258  1
  Th  Th11  1  0.098337  0.718285  0.091626  1
  Th  Th12  1  0.935765  0.942911  0.561787  1
  Th  Th13  1  0.936259  0.558290  0.943213  1
  Th  Th14  1  0.309143  0.691076  0.307866  1
  Th  Th15  1  0.933905  0.558026  0.564316  1
  In  In16  1  0.334295  0.329420  0.329498  1
  In  In17  1  0.002043  0.332458  0.331983  1
  In  In18  1  0.334851  0.004271  0.330934  1
  In  In19  1  0.334983  0.331637  0.001571  1
  Tc  Tc20  1  0.898141  0.874870  0.880415  1
  Tc  Tc21  1  0.898986  0.874538  0.348737  1
  Tc  Tc22  1  0.328317  0.886397  0.898217  1
  Tc  Tc23  1  0.899062  0.351066  0.875613  1
