# generated using pymatgen
data_Li4La3YbAu4
_symmetry_space_group_name_H-M   'P 1'
_cell_length_a   4.28496900
_cell_length_b   7.53263875
_cell_length_c   8.88577600
_cell_angle_alpha   89.72344777
_cell_angle_beta   90.00000000
_cell_angle_gamma   90.00000000
_symmetry_Int_Tables_number   1
_chemical_formula_structural   Li4La3YbAu4
_chemical_formula_sum   'Li4 La3 Yb1 Au4'
_cell_volume   286.80394852
_cell_formula_units_Z   1
loop_
 _symmetry_equiv_pos_site_id
 _symmetry_equiv_pos_as_xyz
  1  'x, y, z'
loop_
 _atom_site_type_symbol
 _atom_site_label
 _atom_site_symmetry_multiplicity
 _atom_site_fract_x
 _atom_site_fract_y
 _atom_site_fract_z
 _atom_site_occupancy
  Li  Li0  1  0.750000  0.374336  0.054532  1
  Li  Li1  1  0.250000  0.623598  0.937028  1
  Li  Li2  1  0.750000  0.872204  0.444899  1
  Li  Li3  1  0.250000  0.131856  0.559762  1
  La  La4  1  0.250000  0.041398  0.186660  1
  La  La5  1  0.750000  0.959675  0.808627  1
  La  La6  1  0.250000  0.539191  0.321239  1
  Yb  Yb7  1  0.750000  0.455380  0.682650  1
  Au  Au8  1  0.250000  0.751418  0.623550  1
  Au  Au9  1  0.750000  0.244109  0.385182  1
  Au  Au10  1  0.250000  0.260231  0.875848  1
  Au  Au11  1  0.750000  0.746603  0.120023  1
