# generated using pymatgen
data_Hf16Co4CuMo3
_symmetry_space_group_name_H-M   'P 1'
_cell_length_a   8.66960921
_cell_length_b   8.66960796
_cell_length_c   8.66960700
_cell_angle_alpha   59.87279777
_cell_angle_beta   59.87280258
_cell_angle_gamma   59.87279563
_symmetry_Int_Tables_number   1
_chemical_formula_structural   Hf16Co4CuMo3
_chemical_formula_sum   'Hf16 Co4 Cu1 Mo3'
_cell_volume   459.43924517
_cell_formula_units_Z   1
loop_
 _symmetry_equiv_pos_site_id
 _symmetry_equiv_pos_as_xyz
  1  'x, y, z'
loop_
 _atom_site_type_symbol
 _atom_site_label
 _atom_site_symmetry_multiplicity
 _atom_site_fract_x
 _atom_site_fract_y
 _atom_site_fract_z
 _atom_site_occupancy
  Hf  Hf0  1  0.047618  0.651388  0.651388  1
  Hf  Hf1  1  0.651388  0.047618  0.651388  1
  Hf  Hf2  1  0.651388  0.651388  0.047618  1
  Hf  Hf3  1  0.649635  0.649635  0.649635  1
  Hf  Hf4  1  0.796907  0.796907  0.203884  1
  Hf  Hf5  1  0.198423  0.198423  0.803964  1
  Hf  Hf6  1  0.796907  0.203884  0.796907  1
  Hf  Hf7  1  0.198423  0.803964  0.198423  1
  Hf  Hf8  1  0.203884  0.796907  0.796907  1
  Hf  Hf9  1  0.803964  0.198423  0.198423  1
  Hf  Hf10  1  0.435445  0.435445  0.059935  1
  Hf  Hf11  1  0.064463  0.064463  0.434424  1
  Hf  Hf12  1  0.435445  0.059935  0.435445  1
  Hf  Hf13  1  0.064463  0.434424  0.064463  1
  Hf  Hf14  1  0.059935  0.435445  0.435445  1
  Hf  Hf15  1  0.434424  0.064463  0.064463  1
  Co  Co16  1  0.421474  0.860773  0.860773  1
  Co  Co17  1  0.860773  0.421474  0.860773  1
  Co  Co18  1  0.860773  0.860773  0.421474  1
  Co  Co19  1  0.860169  0.860169  0.860169  1
  Cu  Cu20  1  0.418898  0.418898  0.418898  1
  Mo  Mo21  1  0.749238  0.417983  0.417983  1
  Mo  Mo22  1  0.417983  0.749238  0.417983  1
  Mo  Mo23  1  0.417983  0.417983  0.749238  1
