# generated using pymatgen
data_Tm4Sc(GaSb)2
_symmetry_space_group_name_H-M   'P 1'
_cell_length_a   8.43926330
_cell_length_b   8.43926319
_cell_length_c   7.75999900
_cell_angle_alpha   90.00000000
_cell_angle_beta   90.00000000
_cell_angle_gamma   125.26516275
_symmetry_Int_Tables_number   1
_chemical_formula_structural   Tm4Sc(GaSb)2
_chemical_formula_sum   'Tm8 Sc2 Ga4 Sb4'
_cell_volume   451.25389136
_cell_formula_units_Z   2
loop_
 _symmetry_equiv_pos_site_id
 _symmetry_equiv_pos_as_xyz
  1  'x, y, z'
loop_
 _atom_site_type_symbol
 _atom_site_label
 _atom_site_symmetry_multiplicity
 _atom_site_fract_x
 _atom_site_fract_y
 _atom_site_fract_z
 _atom_site_occupancy
  Tm  Tm0  1  0.540318  0.797602  0.167511  1
  Tm  Tm1  1  0.297602  0.040318  0.332489  1
  Tm  Tm2  1  0.202398  0.459682  0.832489  1
  Tm  Tm3  1  0.959682  0.702398  0.667511  1
  Tm  Tm4  1  0.702398  0.959682  0.667511  1
  Tm  Tm5  1  0.459682  0.202398  0.832489  1
  Tm  Tm6  1  0.797602  0.540318  0.167511  1
  Tm  Tm7  1  0.040318  0.297602  0.332489  1
  Sc  Sc8  1  0.500000  0.500000  0.500000  1
  Sc  Sc9  1  0.000000  0.000000  0.000000  1
  Ga  Ga10  1  0.628497  0.628497  0.871799  1
  Ga  Ga11  1  0.128497  0.128497  0.628201  1
  Ga  Ga12  1  0.871503  0.871503  0.371799  1
  Ga  Ga13  1  0.371503  0.371503  0.128201  1
  Sb  Sb14  1  0.295770  0.704230  0.500000  1
  Sb  Sb15  1  0.204230  0.795770  0.000000  1
  Sb  Sb16  1  0.704230  0.295770  0.500000  1
  Sb  Sb17  1  0.795770  0.204230  0.000000  1
