# generated using pymatgen
data_Nd3In3AgIrPd
_symmetry_space_group_name_H-M   'P 1'
_cell_length_a   7.96289800
_cell_length_b   7.96289940
_cell_length_c   3.92556000
_cell_angle_alpha   90.00000000
_cell_angle_beta   90.00000000
_cell_angle_gamma   120.00000247
_symmetry_Int_Tables_number   1
_chemical_formula_structural   Nd3In3AgIrPd
_chemical_formula_sum   'Nd3 In3 Ag1 Ir1 Pd1'
_cell_volume   215.56320028
_cell_formula_units_Z   1
loop_
 _symmetry_equiv_pos_site_id
 _symmetry_equiv_pos_as_xyz
  1  'x, y, z'
loop_
 _atom_site_type_symbol
 _atom_site_label
 _atom_site_symmetry_multiplicity
 _atom_site_fract_x
 _atom_site_fract_y
 _atom_site_fract_z
 _atom_site_occupancy
  Nd  Nd0  1  0.024168  0.600944  0.000000  1
  Nd  Nd1  1  0.399056  0.423224  0.000000  1
  Nd  Nd2  1  0.576776  0.975832  0.000000  1
  In  In3  1  0.745173  0.744362  0.500000  1
  In  In4  1  0.999189  0.254827  0.500000  1
  In  In5  1  0.255638  0.000811  0.500000  1
  Ag  Ag6  1  0.666667  0.333333  0.500000  1
  Ir  Ir7  1  0.333333  0.666667  0.500000  1
  Pd  Pd8  1  0.000000  0.000000  0.000000  1
