# generated using pymatgen
data_Cd5Hg13
_symmetry_space_group_name_H-M   'P 1'
_cell_length_a   15.91195837
_cell_length_b   15.91195807
_cell_length_c   7.12923659
_cell_angle_alpha   95.06599360
_cell_angle_beta   95.06599348
_cell_angle_gamma   14.34502799
_symmetry_Int_Tables_number   1
_chemical_formula_structural   Cd5Hg13
_chemical_formula_sum   'Cd5 Hg13'
_cell_volume   445.44640024
_cell_formula_units_Z   1
loop_
 _symmetry_equiv_pos_site_id
 _symmetry_equiv_pos_as_xyz
  1  'x, y, z'
loop_
 _atom_site_type_symbol
 _atom_site_label
 _atom_site_symmetry_multiplicity
 _atom_site_fract_x
 _atom_site_fract_y
 _atom_site_fract_z
 _atom_site_occupancy
  Cd  Cd0  1  0.000000  0.000000  0.000000  1
  Cd  Cd1  1  0.667309  0.667309  0.338500  1
  Cd  Cd2  1  0.890019  0.890019  0.420631  1
  Cd  Cd3  1  0.109981  0.109981  0.579370  1
  Cd  Cd4  1  0.332691  0.332691  0.661500  1
  Hg  Hg5  1  0.113331  0.113331  0.087157  1
  Hg  Hg6  1  0.222618  0.222618  0.112659  1
  Hg  Hg7  1  0.334924  0.334924  0.167115  1
  Hg  Hg8  1  0.444187  0.444187  0.199169  1
  Hg  Hg9  1  0.555554  0.555554  0.297596  1
  Hg  Hg10  1  0.779608  0.779608  0.395183  1
  Hg  Hg11  1  0.000000  0.000000  0.500000  1
  Hg  Hg12  1  0.220392  0.220392  0.604818  1
  Hg  Hg13  1  0.444446  0.444446  0.702404  1
  Hg  Hg14  1  0.555813  0.555813  0.800830  1
  Hg  Hg15  1  0.665075  0.665075  0.832885  1
  Hg  Hg16  1  0.777381  0.777381  0.887340  1
  Hg  Hg17  1  0.886670  0.886670  0.912844  1
