# generated using pymatgen
data_La5InSi2
_symmetry_space_group_name_H-M   'P 1'
_cell_length_a   9.45125367
_cell_length_b   9.45107276
_cell_length_c   9.44775500
_cell_angle_alpha   129.25825100
_cell_angle_beta   129.26933442
_cell_angle_gamma   74.60651606
_symmetry_Int_Tables_number   1
_chemical_formula_structural   La5InSi2
_chemical_formula_sum   'La10 In2 Si4'
_cell_volume   492.86744002
_cell_formula_units_Z   2
loop_
 _symmetry_equiv_pos_site_id
 _symmetry_equiv_pos_as_xyz
  1  'x, y, z'
loop_
 _atom_site_type_symbol
 _atom_site_label
 _atom_site_symmetry_multiplicity
 _atom_site_fract_x
 _atom_site_fract_y
 _atom_site_fract_z
 _atom_site_occupancy
  La  La0  1  0.500000  0.500000  0.000000  1
  La  La1  1  0.538447  0.039389  0.853875  1
  La  La2  1  0.185557  0.684562  0.146218  1
  La  La3  1  0.039431  0.185529  0.500879  1
  La  La4  1  0.684690  0.538528  0.499187  1
  La  La5  1  0.461553  0.960611  0.146125  1
  La  La6  1  0.814443  0.315438  0.853782  1
  La  La7  1  0.960569  0.814471  0.499121  1
  La  La8  1  0.315310  0.461472  0.500813  1
  La  La9  1  0.000000  0.000000  0.000000  1
  In  In10  1  0.249437  0.249658  0.000223  1
  In  In11  1  0.750563  0.750342  0.999777  1
  Si  Si12  1  0.886767  0.385101  0.271867  1
  Si  Si13  1  0.113233  0.614899  0.728133  1
  Si  Si14  1  0.385107  0.113184  0.498280  1
  Si  Si15  1  0.614893  0.886816  0.501720  1
