# generated using pymatgen
data_PrTh7(BeSi3)4
_symmetry_space_group_name_H-M   'P 1'
_cell_length_a   8.00164400
_cell_length_b   8.00164452
_cell_length_c   8.53547900
_cell_angle_alpha   90.00000000
_cell_angle_beta   90.00000000
_cell_angle_gamma   120.00000612
_symmetry_Int_Tables_number   1
_chemical_formula_structural   PrTh7(BeSi3)4
_chemical_formula_sum   'Pr1 Th7 Be4 Si12'
_cell_volume   473.27872469
_cell_formula_units_Z   1
loop_
 _symmetry_equiv_pos_site_id
 _symmetry_equiv_pos_as_xyz
  1  'x, y, z'
loop_
 _atom_site_type_symbol
 _atom_site_label
 _atom_site_symmetry_multiplicity
 _atom_site_fract_x
 _atom_site_fract_y
 _atom_site_fract_z
 _atom_site_occupancy
  Pr  Pr0  1  0.000000  0.000000  0.250000  1
  Th  Th1  1  0.499727  0.500273  0.750000  1
  Th  Th2  1  0.500267  0.499733  0.250000  1
  Th  Th3  1  0.000545  0.500273  0.750000  1
  Th  Th4  1  0.999466  0.499733  0.250000  1
  Th  Th5  1  0.499727  0.999455  0.750000  1
  Th  Th6  1  0.500267  0.000534  0.250000  1
  Th  Th7  1  0.000000  0.000000  0.750000  1
  Be  Be8  1  0.666667  0.333333  0.998183  1
  Be  Be9  1  0.333333  0.666667  0.001365  1
  Be  Be10  1  0.333333  0.666667  0.498635  1
  Be  Be11  1  0.666667  0.333333  0.501817  1
  Si  Si12  1  0.826421  0.173579  0.999430  1
  Si  Si13  1  0.173602  0.826398  0.999882  1
  Si  Si14  1  0.347159  0.173579  0.999430  1
  Si  Si15  1  0.173602  0.826398  0.500118  1
  Si  Si16  1  0.652794  0.826398  0.999882  1
  Si  Si17  1  0.826421  0.173579  0.500570  1
  Si  Si18  1  0.826421  0.652841  0.999430  1
  Si  Si19  1  0.652794  0.826398  0.500118  1
  Si  Si20  1  0.173602  0.347206  0.999882  1
  Si  Si21  1  0.347159  0.173579  0.500570  1
  Si  Si22  1  0.173602  0.347206  0.500118  1
  Si  Si23  1  0.826421  0.652841  0.500570  1
