# generated using pymatgen
data_Mg3Al2Fe(B2Rh5)2
_symmetry_space_group_name_H-M   'P 1'
_cell_length_a   9.39112526
_cell_length_b   9.39112554
_cell_length_c   2.91571600
_cell_angle_alpha   90.00000000
_cell_angle_beta   90.00000000
_cell_angle_gamma   90.23718032
_symmetry_Int_Tables_number   1
_chemical_formula_structural   Mg3Al2Fe(B2Rh5)2
_chemical_formula_sum   'Mg3 Al2 Fe1 B4 Rh10'
_cell_volume   257.14422694
_cell_formula_units_Z   1
loop_
 _symmetry_equiv_pos_site_id
 _symmetry_equiv_pos_as_xyz
  1  'x, y, z'
loop_
 _atom_site_type_symbol
 _atom_site_label
 _atom_site_symmetry_multiplicity
 _atom_site_fract_x
 _atom_site_fract_y
 _atom_site_fract_z
 _atom_site_occupancy
  Mg  Mg0  1  0.324469  0.824469  0.000000  1
  Mg  Mg1  1  0.177108  0.323267  0.000000  1
  Mg  Mg2  1  0.823267  0.677108  0.000000  1
  Al  Al3  1  0.002358  0.998941  0.000000  1
  Al  Al4  1  0.498941  0.502358  0.000000  1
  Fe  Fe5  1  0.677543  0.177543  0.000000  1
  B  B6  1  0.124639  0.624639  0.000000  1
  B  B7  1  0.872604  0.372604  0.000000  1
  B  B8  1  0.626402  0.874313  0.000000  1
  B  B9  1  0.374313  0.126402  0.000000  1
  Rh  Rh10  1  0.505110  0.005110  0.500000  1
  Rh  Rh11  1  0.997694  0.497694  0.500000  1
  Rh  Rh12  1  0.216460  0.070920  0.500000  1
  Rh  Rh13  1  0.784130  0.937025  0.500000  1
  Rh  Rh14  1  0.070173  0.784479  0.500000  1
  Rh  Rh15  1  0.710978  0.421386  0.500000  1
  Rh  Rh16  1  0.921386  0.210978  0.500000  1
  Rh  Rh17  1  0.284479  0.570173  0.500000  1
  Rh  Rh18  1  0.570920  0.716460  0.500000  1
  Rh  Rh19  1  0.437025  0.284130  0.500000  1
