# generated using pymatgen
data_Y8Ta10Nb2Si15Ge
_symmetry_space_group_name_H-M   'P 1'
_cell_length_a   6.87752123
_cell_length_b   7.06626922
_cell_length_c   13.42359012
_cell_angle_alpha   90.03127412
_cell_angle_beta   89.92039501
_cell_angle_gamma   90.02035643
_symmetry_Int_Tables_number   1
_chemical_formula_structural   Y8Ta10Nb2Si15Ge
_chemical_formula_sum   'Y8 Ta10 Nb2 Si15 Ge1'
_cell_volume   652.36445759
_cell_formula_units_Z   1
loop_
 _symmetry_equiv_pos_site_id
 _symmetry_equiv_pos_as_xyz
  1  'x, y, z'
loop_
 _atom_site_type_symbol
 _atom_site_label
 _atom_site_symmetry_multiplicity
 _atom_site_fract_x
 _atom_site_fract_y
 _atom_site_fract_z
 _atom_site_occupancy
  Y  Y0  1  0.503416  0.329507  0.096042  1
  Y  Y1  1  0.002350  0.170110  0.403525  1
  Y  Y2  1  0.499962  0.673114  0.596586  1
  Y  Y3  1  0.996588  0.828734  0.904648  1
  Y  Y4  1  0.496445  0.670557  0.904433  1
  Y  Y5  1  0.996554  0.830053  0.596104  1
  Y  Y6  1  0.503737  0.327757  0.403236  1
  Y  Y7  1  0.003188  0.171284  0.095625  1
  Ta  Ta8  1  0.663962  0.009528  0.750279  1
  Ta  Ta9  1  0.163928  0.489565  0.751961  1
  Ta  Ta10  1  0.335813  0.990310  0.249657  1
  Ta  Ta11  1  0.836100  0.510084  0.249909  1
  Ta  Ta12  1  0.836133  0.324024  0.625767  1
  Ta  Ta13  1  0.337746  0.175392  0.874953  1
  Ta  Ta14  1  0.162504  0.675793  0.125028  1
  Ta  Ta15  1  0.662063  0.824806  0.374324  1
  Ta  Ta16  1  0.160731  0.678280  0.372975  1
  Ta  Ta17  1  0.661548  0.824094  0.125137  1
  Nb  Nb18  1  0.837296  0.324384  0.875235  1
  Nb  Nb19  1  0.340009  0.171733  0.626290  1
  Si  Si20  1  0.797117  0.625203  0.750191  1
  Si  Si21  1  0.295933  0.873637  0.750699  1
  Si  Si22  1  0.203355  0.374843  0.249742  1
  Si  Si23  1  0.703516  0.125192  0.249446  1
  Si  Si24  1  0.542282  0.375845  0.750177  1
  Si  Si25  1  0.042218  0.124413  0.750325  1
  Si  Si26  1  0.457324  0.624116  0.249888  1
  Si  Si27  1  0.956646  0.876461  0.248958  1
  Si  Si28  1  0.664085  0.037389  0.540249  1
  Si  Si29  1  0.163099  0.463126  0.959396  1
  Si  Si30  1  0.336572  0.963368  0.040728  1
  Si  Si31  1  0.832998  0.537690  0.458538  1
  Si  Si32  1  0.336361  0.962552  0.459161  1
  Si  Si33  1  0.837050  0.536962  0.041161  1
  Si  Si34  1  0.662578  0.036627  0.959402  1
  Ge  Ge35  1  0.168790  0.463467  0.540226  1
