# generated using pymatgen
data_Y8Ti12Si15Sn
_symmetry_space_group_name_H-M   'P 1'
_cell_length_a   7.11576475
_cell_length_b   7.08142693
_cell_length_c   13.03561804
_cell_angle_alpha   89.99267257
_cell_angle_beta   89.72701467
_cell_angle_gamma   89.92916066
_symmetry_Int_Tables_number   1
_chemical_formula_structural   Y8Ti12Si15Sn
_chemical_formula_sum   'Y8 Ti12 Si15 Sn1'
_cell_volume   656.85380826
_cell_formula_units_Z   1
loop_
 _symmetry_equiv_pos_site_id
 _symmetry_equiv_pos_as_xyz
  1  'x, y, z'
loop_
 _atom_site_type_symbol
 _atom_site_label
 _atom_site_symmetry_multiplicity
 _atom_site_fract_x
 _atom_site_fract_y
 _atom_site_fract_z
 _atom_site_occupancy
  Y  Y0  1  0.343536  0.999429  0.461758  1
  Y  Y1  1  0.505454  0.835366  0.718014  1
  Y  Y2  1  0.502319  0.159729  0.216641  1
  Y  Y3  1  0.840843  0.497406  0.282423  1
  Y  Y4  1  0.159086  0.509861  0.785876  1
  Y  Y5  1  0.661053  0.996455  0.968550  1
  Y  Y6  1  0.993268  0.348425  0.527752  1
  Y  Y7  1  0.998635  0.659058  0.034125  1
  Ti  Ti8  1  0.326191  0.326683  0.001048  1
  Ti  Ti9  1  0.173941  0.826065  0.249763  1
  Ti  Ti10  1  0.816591  0.175306  0.751814  1
  Ti  Ti11  1  0.672842  0.673076  0.499572  1
  Ti  Ti12  1  0.152276  0.007971  0.883225  1
  Ti  Ti13  1  0.491781  0.650577  0.126817  1
  Ti  Ti14  1  0.515919  0.353760  0.626414  1
  Ti  Ti15  1  0.654004  0.492528  0.875385  1
  Ti  Ti16  1  0.347824  0.509630  0.372851  1
  Ti  Ti17  1  0.847122  0.991548  0.375861  1
  Ti  Ti18  1  0.009772  0.151523  0.123382  1
  Ti  Ti19  1  0.979301  0.835397  0.618800  1
  Si  Si20  1  0.370960  0.702871  0.936032  1
  Si  Si21  1  0.628196  0.297418  0.433201  1
  Si  Si22  1  0.703346  0.369711  0.066076  1
  Si  Si23  1  0.297173  0.630457  0.565416  1
  Si  Si24  1  0.797509  0.869995  0.184558  1
  Si  Si25  1  0.129866  0.202734  0.314794  1
  Si  Si26  1  0.870542  0.799965  0.815825  1
  Si  Si27  1  0.291762  0.951757  0.066634  1
  Si  Si28  1  0.549563  0.789039  0.313667  1
  Si  Si29  1  0.459132  0.211041  0.819783  1
  Si  Si30  1  0.793196  0.545099  0.686714  1
  Si  Si31  1  0.209805  0.452411  0.185318  1
  Si  Si32  1  0.707541  0.048473  0.564544  1
  Si  Si33  1  0.952225  0.290916  0.935233  1
  Si  Si34  1  0.048298  0.711340  0.433066  1
  Sn  Sn35  1  0.199125  0.126977  0.679071  1
