# generated using pymatgen
data_Li7TaAs4
_symmetry_space_group_name_H-M   'P 1'
_cell_length_a   7.42610124
_cell_length_b   7.42610148
_cell_length_c   12.13677001
_cell_angle_alpha   65.85468320
_cell_angle_beta   65.85468409
_cell_angle_gamma   48.74945470
_symmetry_Int_Tables_number   1
_chemical_formula_structural   Li7TaAs4
_chemical_formula_sum   'Li14 Ta2 As8'
_cell_volume   449.61088938
_cell_formula_units_Z   2
loop_
 _symmetry_equiv_pos_site_id
 _symmetry_equiv_pos_as_xyz
  1  'x, y, z'
loop_
 _atom_site_type_symbol
 _atom_site_label
 _atom_site_symmetry_multiplicity
 _atom_site_fract_x
 _atom_site_fract_y
 _atom_site_fract_z
 _atom_site_occupancy
  Li  Li0  1  0.516039  0.984375  0.876269  1
  Li  Li1  1  0.755412  0.244588  0.750000  1
  Li  Li2  1  0.007085  0.474848  0.877875  1
  Li  Li3  1  0.015625  0.483961  0.623731  1
  Li  Li4  1  0.250149  0.749201  0.492639  1
  Li  Li5  1  0.525152  0.992915  0.622125  1
  Li  Li6  1  0.474848  0.007085  0.377875  1
  Li  Li7  1  0.749851  0.250799  0.507361  1
  Li  Li8  1  0.984375  0.516039  0.376269  1
  Li  Li9  1  0.250799  0.749851  0.007361  1
  Li  Li10  1  0.992915  0.525152  0.122125  1
  Li  Li11  1  0.483961  0.015625  0.123731  1
  Li  Li12  1  0.244588  0.755412  0.250000  1
  Li  Li13  1  0.749201  0.250149  0.992639  1
  Ta  Ta14  1  0.255755  0.744245  0.750000  1
  Ta  Ta15  1  0.744245  0.255755  0.250000  1
  As  As16  1  0.367059  0.392254  0.928576  1
  As  As17  1  0.905046  0.853806  0.691734  1
  As  As18  1  0.146194  0.094954  0.808266  1
  As  As19  1  0.392254  0.367059  0.428576  1
  As  As20  1  0.607746  0.632941  0.571424  1
  As  As21  1  0.853806  0.905046  0.191734  1
  As  As22  1  0.094954  0.146194  0.308266  1
  As  As23  1  0.632941  0.607746  0.071424  1
