# generated using pymatgen
data_VZn3(GaRh2)4
_symmetry_space_group_name_H-M   'P 1'
_cell_length_a   6.05861200
_cell_length_b   6.05862700
_cell_length_c   6.06032100
_cell_angle_alpha   90.00000000
_cell_angle_beta   90.00043496
_cell_angle_gamma   90.00000000
_symmetry_Int_Tables_number   1
_chemical_formula_structural   VZn3(GaRh2)4
_chemical_formula_sum   'V1 Zn3 Ga4 Rh8'
_cell_volume   222.45541659
_cell_formula_units_Z   1
loop_
 _symmetry_equiv_pos_site_id
 _symmetry_equiv_pos_as_xyz
  1  'x, y, z'
loop_
 _atom_site_type_symbol
 _atom_site_label
 _atom_site_symmetry_multiplicity
 _atom_site_fract_x
 _atom_site_fract_y
 _atom_site_fract_z
 _atom_site_occupancy
  V  V0  1  0.749678  0.250000  0.000005  1
  Zn  Zn1  1  0.250412  0.750001  0.999993  1
  Zn  Zn2  1  0.750476  0.250000  0.499981  1
  Zn  Zn3  1  0.249540  0.750001  0.500019  1
  Ga  Ga4  1  0.250366  0.250000  0.999998  1
  Ga  Ga5  1  0.749600  0.750001  0.000015  1
  Ga  Ga6  1  0.750439  0.750001  0.499984  1
  Ga  Ga7  1  0.249554  0.250000  0.500010  1
  Rh  Rh8  1  0.997469  0.002502  0.247775  1
  Rh  Rh9  1  0.997469  0.497504  0.247775  1
  Rh  Rh10  1  0.502492  0.002537  0.248402  1
  Rh  Rh11  1  0.502492  0.497459  0.248402  1
  Rh  Rh12  1  0.502528  0.002542  0.751599  1
  Rh  Rh13  1  0.502528  0.497462  0.751599  1
  Rh  Rh14  1  0.997478  0.002499  0.752222  1
  Rh  Rh15  1  0.997478  0.497495  0.752222  1
