# generated using pymatgen
data_LiHfZr6(Co4P3)4
_symmetry_space_group_name_H-M   'P 1'
_cell_length_a   12.04840300
_cell_length_b   12.04953482
_cell_length_c   3.64963300
_cell_angle_alpha   90.00000000
_cell_angle_beta   90.00000000
_cell_angle_gamma   120.35724256
_symmetry_Int_Tables_number   1
_chemical_formula_structural   LiHfZr6(Co4P3)4
_chemical_formula_sum   'Li1 Hf1 Zr6 Co16 P12'
_cell_volume   457.19864143
_cell_formula_units_Z   1
loop_
 _symmetry_equiv_pos_site_id
 _symmetry_equiv_pos_as_xyz
  1  'x, y, z'
loop_
 _atom_site_type_symbol
 _atom_site_label
 _atom_site_symmetry_multiplicity
 _atom_site_fract_x
 _atom_site_fract_y
 _atom_site_fract_z
 _atom_site_occupancy
  Li  Li0  1  0.442579  0.442540  0.000000  1
  Hf  Hf1  1  0.555065  0.998215  0.000000  1
  Zr  Zr2  1  0.998279  0.554599  0.000000  1
  Zr  Zr3  1  0.664490  0.332055  0.000000  1
  Zr  Zr4  1  0.332275  0.664629  0.000000  1
  Zr  Zr5  1  0.815120  0.815343  0.500000  1
  Zr  Zr6  1  0.177371  0.000119  0.500000  1
  Zr  Zr7  1  0.999874  0.177046  0.500000  1
  Co  Co8  1  0.201733  0.376890  0.000000  1
  Co  Co9  1  0.178800  0.807992  0.000000  1
  Co  Co10  1  0.819561  0.628635  0.000000  1
  Co  Co11  1  0.806709  0.177805  0.000000  1
  Co  Co12  1  0.376948  0.201453  0.000000  1
  Co  Co13  1  0.127254  0.477407  0.500000  1
  Co  Co14  1  0.355893  0.874166  0.500000  1
  Co  Co15  1  0.517855  0.644181  0.500000  1
  Co  Co16  1  0.643506  0.517727  0.500000  1
  Co  Co17  1  0.873097  0.353956  0.500000  1
  Co  Co18  1  0.478072  0.126664  0.500000  1
  Co  Co19  1  0.002169  0.002053  0.000000  1
  Co  Co20  1  0.721503  0.000587  0.500000  1
  Co  Co21  1  0.000576  0.722743  0.500000  1
  Co  Co22  1  0.628292  0.820308  0.000000  1
  Co  Co23  1  0.284032  0.284038  0.500000  1
  P  P24  1  0.636599  0.636822  0.000000  1
  P  P25  1  0.348554  0.005735  0.000000  1
  P  P26  1  0.005548  0.347203  0.000000  1
  P  P27  1  0.482436  0.316939  0.500000  1
  P  P28  1  0.689558  0.172809  0.500000  1
  P  P29  1  0.824200  0.518149  0.500000  1
  P  P30  1  0.518227  0.825367  0.500000  1
  P  P31  1  0.174178  0.690951  0.500000  1
  P  P32  1  0.824815  0.997881  0.000000  1
  P  P33  1  0.997967  0.824793  0.000000  1
  P  P34  1  0.317180  0.482599  0.500000  1
  P  P35  1  0.179684  0.179600  0.000000  1
