# generated using pymatgen
data_La4DyCo2
_symmetry_space_group_name_H-M   'P 1'
_cell_length_a   9.10022752
_cell_length_b   9.10022786
_cell_length_c   6.99006391
_cell_angle_alpha   85.96961719
_cell_angle_beta   85.96961867
_cell_angle_gamma   42.33485225
_symmetry_Int_Tables_number   1
_chemical_formula_structural   La4DyCo2
_chemical_formula_sum   'La8 Dy2 Co4'
_cell_volume   388.74236660
_cell_formula_units_Z   2
loop_
 _symmetry_equiv_pos_site_id
 _symmetry_equiv_pos_as_xyz
  1  'x, y, z'
loop_
 _atom_site_type_symbol
 _atom_site_label
 _atom_site_symmetry_multiplicity
 _atom_site_fract_x
 _atom_site_fract_y
 _atom_site_fract_z
 _atom_site_occupancy
  La  La0  1  0.015725  0.797959  0.898897  1
  La  La1  1  0.202041  0.984275  0.601103  1
  La  La2  1  0.984275  0.202041  0.101103  1
  La  La3  1  0.797959  0.015725  0.398897  1
  La  La4  1  0.362586  0.219055  0.832906  1
  La  La5  1  0.780945  0.637414  0.667094  1
  La  La6  1  0.637414  0.780945  0.167094  1
  La  La7  1  0.219055  0.362586  0.332906  1
  Dy  Dy8  1  0.568323  0.431677  0.750000  1
  Dy  Dy9  1  0.431677  0.568323  0.250000  1
  Co  Co10  1  0.184143  0.603862  0.578657  1
  Co  Co11  1  0.396138  0.815857  0.921343  1
  Co  Co12  1  0.815857  0.396138  0.421343  1
  Co  Co13  1  0.603862  0.184143  0.078657  1
