# generated using pymatgen
data_Th10Sn3Bi3Sb2
_symmetry_space_group_name_H-M   'P 1'
_cell_length_a   9.69593800
_cell_length_b   9.69593783
_cell_length_c   6.68048200
_cell_angle_alpha   90.00000000
_cell_angle_beta   90.00000000
_cell_angle_gamma   119.99999376
_symmetry_Int_Tables_number   1
_chemical_formula_structural   Th10Sn3Bi3Sb2
_chemical_formula_sum   'Th10 Sn3 Bi3 Sb2'
_cell_volume   543.89881043
_cell_formula_units_Z   1
loop_
 _symmetry_equiv_pos_site_id
 _symmetry_equiv_pos_as_xyz
  1  'x, y, z'
loop_
 _atom_site_type_symbol
 _atom_site_label
 _atom_site_symmetry_multiplicity
 _atom_site_fract_x
 _atom_site_fract_y
 _atom_site_fract_z
 _atom_site_occupancy
  Th  Th0  1  0.000000  0.722083  0.750000  1
  Th  Th1  1  0.277917  0.277917  0.750000  1
  Th  Th2  1  0.333333  0.666667  0.495344  1
  Th  Th3  1  0.666667  0.333333  0.495344  1
  Th  Th4  1  0.721471  0.721471  0.250000  1
  Th  Th5  1  0.722083  0.000000  0.750000  1
  Th  Th6  1  0.000000  0.278529  0.250000  1
  Th  Th7  1  0.278529  0.000000  0.250000  1
  Th  Th8  1  0.333333  0.666667  0.004656  1
  Th  Th9  1  0.666667  0.333333  0.004656  1
  Sn  Sn10  1  0.618727  0.000000  0.250000  1
  Sn  Sn11  1  0.381273  0.381273  0.250000  1
  Sn  Sn12  1  0.000000  0.618727  0.250000  1
  Bi  Bi13  1  0.617028  0.617028  0.750000  1
  Bi  Bi14  1  0.000000  0.382972  0.750000  1
  Bi  Bi15  1  0.382972  0.000000  0.750000  1
  Sb  Sb16  1  0.000000  0.000000  0.000425  1
  Sb  Sb17  1  0.000000  0.000000  0.499575  1
