# generated using pymatgen
data_MnV(SiRu2)2
_symmetry_space_group_name_H-M   'P 1'
_cell_length_a   7.26684120
_cell_length_b   7.26684124
_cell_length_c   7.26684040
_cell_angle_alpha   33.53752227
_cell_angle_beta   33.53752172
_cell_angle_gamma   33.53752471
_symmetry_Int_Tables_number   1
_chemical_formula_structural   MnV(SiRu2)2
_chemical_formula_sum   'Mn1 V1 Si2 Ru4'
_cell_volume   104.32864588
_cell_formula_units_Z   1
loop_
 _symmetry_equiv_pos_site_id
 _symmetry_equiv_pos_as_xyz
  1  'x, y, z'
loop_
 _atom_site_type_symbol
 _atom_site_label
 _atom_site_symmetry_multiplicity
 _atom_site_fract_x
 _atom_site_fract_y
 _atom_site_fract_z
 _atom_site_occupancy
  Mn  Mn0  1  0.000000  0.000000  0.000000  1
  V  V1  1  0.500000  0.500000  0.500000  1
  Si  Si2  1  0.251593  0.251593  0.251593  1
  Si  Si3  1  0.748407  0.748407  0.748407  1
  Ru  Ru4  1  0.622651  0.622651  0.622651  1
  Ru  Ru5  1  0.126284  0.126284  0.126284  1
  Ru  Ru6  1  0.873716  0.873716  0.873716  1
  Ru  Ru7  1  0.377349  0.377349  0.377349  1
