# generated using pymatgen
data_Nb3FeCoOsN
_symmetry_space_group_name_H-M   'P 1'
_cell_length_a   8.10743417
_cell_length_b   8.10743482
_cell_length_c   8.10743500
_cell_angle_alpha   60.00000333
_cell_angle_beta   60.00000069
_cell_angle_gamma   60.00000074
_symmetry_Int_Tables_number   1
_chemical_formula_structural   Nb3FeCoOsN
_chemical_formula_sum   'Nb12 Fe4 Co4 Os4 N4'
_cell_volume   376.82125354
_cell_formula_units_Z   4
loop_
 _symmetry_equiv_pos_site_id
 _symmetry_equiv_pos_as_xyz
  1  'x, y, z'
loop_
 _atom_site_type_symbol
 _atom_site_label
 _atom_site_symmetry_multiplicity
 _atom_site_fract_x
 _atom_site_fract_y
 _atom_site_fract_z
 _atom_site_occupancy
  Nb  Nb0  1  0.804949  0.804949  0.195051  1
  Nb  Nb1  1  0.195051  0.195051  0.804949  1
  Nb  Nb2  1  0.804949  0.195051  0.804949  1
  Nb  Nb3  1  0.195051  0.804949  0.195051  1
  Nb  Nb4  1  0.195051  0.804949  0.804949  1
  Nb  Nb5  1  0.804949  0.195051  0.195051  1
  Nb  Nb6  1  0.445014  0.445014  0.054986  1
  Nb  Nb7  1  0.054986  0.054986  0.445014  1
  Nb  Nb8  1  0.445014  0.054986  0.445014  1
  Nb  Nb9  1  0.054986  0.445014  0.054986  1
  Nb  Nb10  1  0.054986  0.445014  0.445014  1
  Nb  Nb11  1  0.445014  0.054986  0.054986  1
  Fe  Fe12  1  0.727129  0.424291  0.424291  1
  Fe  Fe13  1  0.424291  0.727129  0.424291  1
  Fe  Fe14  1  0.424291  0.424291  0.727129  1
  Fe  Fe15  1  0.424291  0.424291  0.424291  1
  Co  Co16  1  0.511713  0.829428  0.829428  1
  Co  Co17  1  0.829428  0.511713  0.829428  1
  Co  Co18  1  0.829428  0.829428  0.511713  1
  Co  Co19  1  0.829428  0.829428  0.829428  1
  Os  Os20  1  0.125033  0.624989  0.624989  1
  Os  Os21  1  0.624989  0.125033  0.624989  1
  Os  Os22  1  0.624989  0.624989  0.125033  1
  Os  Os23  1  0.624989  0.624989  0.624989  1
  N  N24  1  0.624442  0.125186  0.125186  1
  N  N25  1  0.125186  0.624442  0.125186  1
  N  N26  1  0.125186  0.125186  0.624442  1
  N  N27  1  0.125186  0.125186  0.125186  1
