# generated using pymatgen
data_ZnBi2Ru4PbO14
_symmetry_space_group_name_H-M   'P 1'
_cell_length_a   7.23790177
_cell_length_b   7.39279513
_cell_length_c   7.32937186
_cell_angle_alpha   59.71334234
_cell_angle_beta   59.27139177
_cell_angle_gamma   59.28952986
_symmetry_Int_Tables_number   1
_chemical_formula_structural   ZnBi2Ru4PbO14
_chemical_formula_sum   'Zn1 Bi2 Ru4 Pb1 O14'
_cell_volume   273.67454173
_cell_formula_units_Z   1
loop_
 _symmetry_equiv_pos_site_id
 _symmetry_equiv_pos_as_xyz
  1  'x, y, z'
loop_
 _atom_site_type_symbol
 _atom_site_label
 _atom_site_symmetry_multiplicity
 _atom_site_fract_x
 _atom_site_fract_y
 _atom_site_fract_z
 _atom_site_occupancy
  Zn  Zn0  1  0.625000  0.125000  0.125000  1
  Bi  Bi1  1  0.125000  0.625000  0.125000  1
  Bi  Bi2  1  0.125000  0.125000  0.125000  1
  Ru  Ru3  1  0.625000  0.625000  0.125000  1
  Ru  Ru4  1  0.625000  0.125000  0.625000  1
  Ru  Ru5  1  0.125000  0.625000  0.625000  1
  Ru  Ru6  1  0.625000  0.625000  0.625000  1
  Pb  Pb7  1  0.125000  0.125000  0.625000  1
  O  O8  1  0.300590  0.239998  0.219414  1
  O  O9  1  0.949410  0.010002  0.030586  1
  O  O10  1  0.553161  0.950437  0.545965  1
  O  O11  1  0.292782  0.705997  0.295224  1
  O  O12  1  0.542846  0.567545  0.945100  1
  O  O13  1  0.956072  0.552159  0.540900  1
  O  O14  1  0.542846  0.944508  0.945100  1
  O  O15  1  0.956072  0.950869  0.540900  1
  O  O16  1  0.957218  0.544003  0.954776  1
  O  O17  1  0.707154  0.305492  0.304900  1
  O  O18  1  0.293928  0.697841  0.709100  1
  O  O19  1  0.696839  0.299563  0.704035  1
  O  O20  1  0.293928  0.299131  0.709100  1
  O  O21  1  0.707154  0.682455  0.304900  1
