# generated using pymatgen
data_K5Rh3F14
_symmetry_space_group_name_H-M   'P 1'
_cell_length_a   7.78491800
_cell_length_b   7.78491800
_cell_length_c   11.93086500
_cell_angle_alpha   90.00000000
_cell_angle_beta   90.00000000
_cell_angle_gamma   90.00000000
_symmetry_Int_Tables_number   1
_chemical_formula_structural   K5Rh3F14
_chemical_formula_sum   'K10 Rh6 F28'
_cell_volume   723.06945610
_cell_formula_units_Z   2
loop_
 _symmetry_equiv_pos_site_id
 _symmetry_equiv_pos_as_xyz
  1  'x, y, z'
loop_
 _atom_site_type_symbol
 _atom_site_label
 _atom_site_symmetry_multiplicity
 _atom_site_fract_x
 _atom_site_fract_y
 _atom_site_fract_z
 _atom_site_occupancy
  K  K0  1  0.216543  0.283457  0.750000  1
  K  K1  1  0.716543  0.216543  0.750000  1
  K  K2  1  0.283457  0.783457  0.750000  1
  K  K3  1  0.783457  0.716543  0.750000  1
  K  K4  1  0.783457  0.716543  0.250000  1
  K  K5  1  0.283457  0.783457  0.250000  1
  K  K6  1  0.716543  0.216543  0.250000  1
  K  K7  1  0.216543  0.283457  0.250000  1
  K  K8  1  0.000000  0.000000  0.000000  1
  K  K9  1  0.500000  0.500000  0.500000  1
  Rh  Rh10  1  0.500000  0.500000  0.000000  1
  Rh  Rh11  1  0.000000  0.000000  0.500000  1
  Rh  Rh12  1  0.500000  0.000000  0.000000  1
  Rh  Rh13  1  0.000000  0.500000  0.000000  1
  Rh  Rh14  1  0.000000  0.500000  0.500000  1
  Rh  Rh15  1  0.500000  0.000000  0.500000  1
  F  F16  1  0.500000  0.500000  0.830570  1
  F  F17  1  0.000000  0.000000  0.669430  1
  F  F18  1  0.500000  0.500000  0.169430  1
  F  F19  1  0.000000  0.000000  0.330570  1
  F  F20  1  0.415933  0.750454  0.000000  1
  F  F21  1  0.584067  0.249546  0.000000  1
  F  F22  1  0.250454  0.915933  0.500000  1
  F  F23  1  0.750454  0.584067  0.000000  1
  F  F24  1  0.249546  0.415933  0.000000  1
  F  F25  1  0.084067  0.250454  0.500000  1
  F  F26  1  0.915933  0.749546  0.500000  1
  F  F27  1  0.749546  0.084067  0.500000  1
  F  F28  1  0.681611  0.957424  0.884082  1
  F  F29  1  0.318389  0.042576  0.884082  1
  F  F30  1  0.457424  0.181611  0.615918  1
  F  F31  1  0.957424  0.318389  0.884082  1
  F  F32  1  0.457424  0.181611  0.384082  1
  F  F33  1  0.818389  0.457424  0.384082  1
  F  F34  1  0.181611  0.542576  0.384082  1
  F  F35  1  0.957424  0.318389  0.115918  1
  F  F36  1  0.042576  0.681611  0.115918  1
  F  F37  1  0.542576  0.818389  0.384082  1
  F  F38  1  0.681611  0.957424  0.115918  1
  F  F39  1  0.318389  0.042576  0.115918  1
  F  F40  1  0.542576  0.818389  0.615918  1
  F  F41  1  0.181611  0.542576  0.615918  1
  F  F42  1  0.818389  0.457424  0.615918  1
  F  F43  1  0.042576  0.681611  0.884082  1
