# generated using pymatgen
data_ErTcN2
_symmetry_space_group_name_H-M   'P 1'
_cell_length_a   3.11816200
_cell_length_b   5.61318800
_cell_length_c   10.68902500
_cell_angle_alpha   90.00000000
_cell_angle_beta   90.00000000
_cell_angle_gamma   90.00000000
_symmetry_Int_Tables_number   1
_chemical_formula_structural   ErTcN2
_chemical_formula_sum   'Er4 Tc4 N8'
_cell_volume   187.08818231
_cell_formula_units_Z   4
loop_
 _symmetry_equiv_pos_site_id
 _symmetry_equiv_pos_as_xyz
  1  'x, y, z'
loop_
 _atom_site_type_symbol
 _atom_site_label
 _atom_site_symmetry_multiplicity
 _atom_site_fract_x
 _atom_site_fract_y
 _atom_site_fract_z
 _atom_site_occupancy
  Er  Er0  1  0.250000  0.079578  0.851734  1
  Er  Er1  1  0.250000  0.579578  0.648266  1
  Er  Er2  1  0.750000  0.920422  0.148266  1
  Er  Er3  1  0.750000  0.420422  0.351734  1
  Tc  Tc4  1  0.250000  0.435693  0.097006  1
  Tc  Tc5  1  0.250000  0.935693  0.402994  1
  Tc  Tc6  1  0.750000  0.564307  0.902994  1
  Tc  Tc7  1  0.750000  0.064307  0.597006  1
  N  N8  1  0.250000  0.167010  0.244336  1
  N  N9  1  0.250000  0.667010  0.255664  1
  N  N10  1  0.750000  0.832990  0.755664  1
  N  N11  1  0.750000  0.332990  0.744336  1
  N  N12  1  0.250000  0.752752  0.997910  1
  N  N13  1  0.250000  0.252752  0.502090  1
  N  N14  1  0.750000  0.247248  0.002090  1
  N  N15  1  0.750000  0.747248  0.497910  1
