# generated using pymatgen
data_Sc2As2IrRh
_symmetry_space_group_name_H-M   'P 1'
_cell_length_a   4.04776800
_cell_length_b   6.54718400
_cell_length_c   7.59103100
_cell_angle_alpha   90.00000000
_cell_angle_beta   90.00000000
_cell_angle_gamma   90.00000000
_symmetry_Int_Tables_number   1
_chemical_formula_structural   Sc2As2IrRh
_chemical_formula_sum   'Sc4 As4 Ir2 Rh2'
_cell_volume   201.17357054
_cell_formula_units_Z   2
loop_
 _symmetry_equiv_pos_site_id
 _symmetry_equiv_pos_as_xyz
  1  'x, y, z'
loop_
 _atom_site_type_symbol
 _atom_site_label
 _atom_site_symmetry_multiplicity
 _atom_site_fract_x
 _atom_site_fract_y
 _atom_site_fract_z
 _atom_site_occupancy
  Sc  Sc0  1  0.750000  0.472158  0.816451  1
  Sc  Sc1  1  0.250000  0.025427  0.318273  1
  Sc  Sc2  1  0.750000  0.972158  0.683549  1
  Sc  Sc3  1  0.250000  0.525427  0.181727  1
  As  As4  1  0.250000  0.766994  0.879710  1
  As  As5  1  0.250000  0.266994  0.620290  1
  As  As6  1  0.750000  0.233146  0.121705  1
  As  As7  1  0.750000  0.733146  0.378295  1
  Ir  Ir8  1  0.250000  0.658488  0.561202  1
  Ir  Ir9  1  0.250000  0.158488  0.938798  1
  Rh  Rh10  1  0.750000  0.843788  0.062449  1
  Rh  Rh11  1  0.750000  0.343788  0.437551  1
