# generated using pymatgen
data_Dy4ErLu3Au4
_symmetry_space_group_name_H-M   'P 1'
_cell_length_a   4.88856500
_cell_length_b   7.09011377
_cell_length_c   8.87408105
_cell_angle_alpha   90.15135375
_cell_angle_beta   90.00000000
_cell_angle_gamma   90.00000000
_symmetry_Int_Tables_number   1
_chemical_formula_structural   Dy4ErLu3Au4
_chemical_formula_sum   'Dy4 Er1 Lu3 Au4'
_cell_volume   307.57885335
_cell_formula_units_Z   1
loop_
 _symmetry_equiv_pos_site_id
 _symmetry_equiv_pos_as_xyz
  1  'x, y, z'
loop_
 _atom_site_type_symbol
 _atom_site_label
 _atom_site_symmetry_multiplicity
 _atom_site_fract_x
 _atom_site_fract_y
 _atom_site_fract_z
 _atom_site_occupancy
  Dy  Dy0  1  0.250000  0.484452  0.177249  1
  Dy  Dy1  1  0.250000  0.986004  0.322490  1
  Dy  Dy2  1  0.750000  0.515037  0.822751  1
  Dy  Dy3  1  0.750000  0.015734  0.677928  1
  Er  Er4  1  0.750000  0.648142  0.420550  1
  Lu  Lu5  1  0.250000  0.852127  0.921210  1
  Lu  Lu6  1  0.250000  0.352035  0.579695  1
  Lu  Lu7  1  0.750000  0.147975  0.078497  1
  Au  Au8  1  0.250000  0.253880  0.899507  1
  Au  Au9  1  0.250000  0.754804  0.601975  1
  Au  Au10  1  0.750000  0.746184  0.098675  1
  Au  Au11  1  0.750000  0.243626  0.399471  1
