# generated using pymatgen
data_Sr2CeThPt4
_symmetry_space_group_name_H-M   'P 1'
_cell_length_a   4.54371700
_cell_length_b   5.90204497
_cell_length_c   7.74475500
_cell_angle_alpha   90.97010640
_cell_angle_beta   90.00000000
_cell_angle_gamma   90.00000000
_symmetry_Int_Tables_number   1
_chemical_formula_structural   Sr2CeThPt4
_chemical_formula_sum   'Sr2 Ce1 Th1 Pt4'
_cell_volume   207.66304501
_cell_formula_units_Z   1
loop_
 _symmetry_equiv_pos_site_id
 _symmetry_equiv_pos_as_xyz
  1  'x, y, z'
loop_
 _atom_site_type_symbol
 _atom_site_label
 _atom_site_symmetry_multiplicity
 _atom_site_fract_x
 _atom_site_fract_y
 _atom_site_fract_z
 _atom_site_occupancy
  Sr  Sr0  1  0.250000  0.142398  0.183454  1
  Sr  Sr1  1  0.750000  0.643618  0.315376  1
  Ce  Ce2  1  0.750000  0.859765  0.820285  1
  Th  Th3  1  0.250000  0.359858  0.680020  1
  Pt  Pt4  1  0.250000  0.845222  0.579541  1
  Pt  Pt5  1  0.250000  0.648840  0.006981  1
  Pt  Pt6  1  0.750000  0.152991  0.491485  1
  Pt  Pt7  1  0.750000  0.347306  0.922857  1
