# generated using pymatgen
data_Lu6Zr4InSb5
_symmetry_space_group_name_H-M   'P 1'
_cell_length_a   8.71500433
_cell_length_b   8.71500509
_cell_length_c   5.97111100
_cell_angle_alpha   90.00000000
_cell_angle_beta   90.00000000
_cell_angle_gamma   120.15845039
_symmetry_Int_Tables_number   1
_chemical_formula_structural   Lu6Zr4InSb5
_chemical_formula_sum   'Lu6 Zr4 In1 Sb5'
_cell_volume   392.12577962
_cell_formula_units_Z   1
loop_
 _symmetry_equiv_pos_site_id
 _symmetry_equiv_pos_as_xyz
  1  'x, y, z'
loop_
 _atom_site_type_symbol
 _atom_site_label
 _atom_site_symmetry_multiplicity
 _atom_site_fract_x
 _atom_site_fract_y
 _atom_site_fract_z
 _atom_site_occupancy
  Lu  Lu0  1  0.755019  0.755019  0.750000  1
  Lu  Lu1  1  0.247709  0.003230  0.750000  1
  Lu  Lu2  1  0.003230  0.247709  0.750000  1
  Lu  Lu3  1  0.241878  0.241878  0.250000  1
  Lu  Lu4  1  0.751501  0.996904  0.250000  1
  Lu  Lu5  1  0.996904  0.751501  0.250000  1
  Zr  Zr6  1  0.668204  0.332887  0.999186  1
  Zr  Zr7  1  0.332887  0.668204  0.999186  1
  Zr  Zr8  1  0.332887  0.668204  0.500814  1
  Zr  Zr9  1  0.668204  0.332887  0.500814  1
  In  In10  1  0.398466  0.398466  0.750000  1
  Sb  Sb11  1  0.608087  0.000921  0.750000  1
  Sb  Sb12  1  0.000921  0.608087  0.750000  1
  Sb  Sb13  1  0.600930  0.600930  0.250000  1
  Sb  Sb14  1  0.393169  0.000003  0.250000  1
  Sb  Sb15  1  0.000003  0.393169  0.250000  1
