# generated using pymatgen
data_Y4Mg4IrPt3
_symmetry_space_group_name_H-M   'P 1'
_cell_length_a   4.19264400
_cell_length_b   7.08946699
_cell_length_c   8.62939678
_cell_angle_alpha   89.48983668
_cell_angle_beta   90.00000000
_cell_angle_gamma   90.00000000
_symmetry_Int_Tables_number   1
_chemical_formula_structural   Y4Mg4IrPt3
_chemical_formula_sum   'Y4 Mg4 Ir1 Pt3'
_cell_volume   256.48666741
_cell_formula_units_Z   1
loop_
 _symmetry_equiv_pos_site_id
 _symmetry_equiv_pos_as_xyz
  1  'x, y, z'
loop_
 _atom_site_type_symbol
 _atom_site_label
 _atom_site_symmetry_multiplicity
 _atom_site_fract_x
 _atom_site_fract_y
 _atom_site_fract_z
 _atom_site_occupancy
  Y  Y0  1  0.250000  0.540848  0.171237  1
  Y  Y1  1  0.750000  0.470998  0.825822  1
  Y  Y2  1  0.750000  0.957261  0.680437  1
  Y  Y3  1  0.250000  0.036665  0.324648  1
  Mg  Mg4  1  0.250000  0.635857  0.562463  1
  Mg  Mg5  1  0.750000  0.362986  0.438495  1
  Mg  Mg6  1  0.750000  0.863275  0.059548  1
  Mg  Mg7  1  0.250000  0.136072  0.938212  1
  Ir  Ir8  1  0.250000  0.748964  0.875339  1
  Pt  Pt9  1  0.750000  0.248751  0.125845  1
  Pt  Pt10  1  0.750000  0.749430  0.376020  1
  Pt  Pt11  1  0.250000  0.248894  0.621935  1
