# generated using pymatgen
data_Er3Lu9(CoSi)8
_symmetry_space_group_name_H-M   'P 1'
_cell_length_a   5.44643500
_cell_length_b   7.51483626
_cell_length_c   12.40225600
_cell_angle_alpha   90.00000000
_cell_angle_beta   90.00000000
_cell_angle_gamma   90.01495898
_symmetry_Int_Tables_number   1
_chemical_formula_structural   Er3Lu9(CoSi)8
_chemical_formula_sum   'Er3 Lu9 Co8 Si8'
_cell_volume   507.61275201
_cell_formula_units_Z   1
loop_
 _symmetry_equiv_pos_site_id
 _symmetry_equiv_pos_as_xyz
  1  'x, y, z'
loop_
 _atom_site_type_symbol
 _atom_site_label
 _atom_site_symmetry_multiplicity
 _atom_site_fract_x
 _atom_site_fract_y
 _atom_site_fract_z
 _atom_site_occupancy
  Er  Er0  1  0.628368  0.252208  0.250000  1
  Er  Er1  1  0.371080  0.747914  0.750000  1
  Er  Er2  1  0.372322  0.752400  0.250000  1
  Lu  Lu3  1  0.627340  0.247158  0.750000  1
  Lu  Lu4  1  0.141306  0.395113  0.101111  1
  Lu  Lu5  1  0.858412  0.604434  0.898198  1
  Lu  Lu6  1  0.858412  0.604434  0.601802  1
  Lu  Lu7  1  0.859256  0.894707  0.399105  1
  Lu  Lu8  1  0.141306  0.395113  0.398889  1
  Lu  Lu9  1  0.140918  0.105445  0.601756  1
  Lu  Lu10  1  0.140918  0.105445  0.898244  1
  Lu  Lu11  1  0.859256  0.894707  0.100895  1
  Co  Co12  1  0.363079  0.028958  0.086564  1
  Co  Co13  1  0.636049  0.971893  0.912757  1
  Co  Co14  1  0.636049  0.971893  0.587243  1
  Co  Co15  1  0.637271  0.528817  0.413306  1
  Co  Co16  1  0.363079  0.028958  0.413436  1
  Co  Co17  1  0.364057  0.470725  0.587307  1
  Co  Co18  1  0.364057  0.470725  0.912693  1
  Co  Co19  1  0.637271  0.528817  0.086694  1
  Si  Si20  1  0.146584  0.102276  0.250000  1
  Si  Si21  1  0.852242  0.898756  0.750000  1
  Si  Si22  1  0.854023  0.602185  0.250000  1
  Si  Si23  1  0.146981  0.397029  0.750000  1
  Si  Si24  1  0.612083  0.249954  0.999492  1
  Si  Si25  1  0.388099  0.749989  0.999762  1
  Si  Si26  1  0.388099  0.749989  0.500238  1
  Si  Si27  1  0.612083  0.249954  0.500508  1
