# generated using pymatgen
data_Y4Ge6Ir6Pt
_symmetry_space_group_name_H-M   'P 1'
_cell_length_a   7.30468135
_cell_length_b   7.30468215
_cell_length_c   7.30468124
_cell_angle_alpha   109.54613679
_cell_angle_beta   109.54613459
_cell_angle_gamma   109.32149542
_symmetry_Int_Tables_number   1
_chemical_formula_structural   Y4Ge6Ir6Pt
_chemical_formula_sum   'Y4 Ge6 Ir6 Pt1'
_cell_volume   300.04040736
_cell_formula_units_Z   1
loop_
 _symmetry_equiv_pos_site_id
 _symmetry_equiv_pos_as_xyz
  1  'x, y, z'
loop_
 _atom_site_type_symbol
 _atom_site_label
 _atom_site_symmetry_multiplicity
 _atom_site_fract_x
 _atom_site_fract_y
 _atom_site_fract_z
 _atom_site_occupancy
  Y  Y0  1  0.001204  0.998796  0.500000  1
  Y  Y1  1  0.001204  0.501204  0.002409  1
  Y  Y2  1  0.498796  0.998796  0.997591  1
  Y  Y3  1  0.498796  0.501204  0.500000  1
  Ge  Ge4  1  0.680242  0.680242  0.000000  1
  Ge  Ge5  1  0.315041  0.996886  0.318155  1
  Ge  Ge6  1  0.003114  0.321269  0.318155  1
  Ge  Ge7  1  0.319758  0.319758  0.000000  1
  Ge  Ge8  1  0.678731  0.996886  0.681845  1
  Ge  Ge9  1  0.003114  0.684959  0.681845  1
  Ir  Ir10  1  0.750444  0.500122  0.250322  1
  Ir  Ir11  1  0.499878  0.249556  0.749678  1
  Ir  Ir12  1  0.249801  0.500122  0.749678  1
  Ir  Ir13  1  0.250000  0.750000  0.500000  1
  Ir  Ir14  1  0.499878  0.750199  0.250322  1
  Ir  Ir15  1  0.000000  0.000000  0.000000  1
  Pt  Pt16  1  0.750000  0.250000  0.500000  1
