# generated using pymatgen
data_Y3ErTm2ReBi2
_symmetry_space_group_name_H-M   'P 1'
_cell_length_a   8.22496100
_cell_length_b   8.22602324
_cell_length_c   4.32589100
_cell_angle_alpha   90.00000000
_cell_angle_beta   90.00000000
_cell_angle_gamma   119.99572444
_symmetry_Int_Tables_number   1
_chemical_formula_structural   Y3ErTm2ReBi2
_chemical_formula_sum   'Y3 Er1 Tm2 Re1 Bi2'
_cell_volume   253.48291490
_cell_formula_units_Z   1
loop_
 _symmetry_equiv_pos_site_id
 _symmetry_equiv_pos_as_xyz
  1  'x, y, z'
loop_
 _atom_site_type_symbol
 _atom_site_label
 _atom_site_symmetry_multiplicity
 _atom_site_fract_x
 _atom_site_fract_y
 _atom_site_fract_z
 _atom_site_occupancy
  Y  Y0  1  0.610466  0.000000  0.000000  1
  Y  Y1  1  0.999755  0.609815  0.000000  1
  Y  Y2  1  0.389940  0.390185  0.000000  1
  Er  Er3  1  0.230495  0.000000  0.500000  1
  Tm  Tm4  1  0.999901  0.230051  0.500000  1
  Tm  Tm5  1  0.769851  0.769949  0.500000  1
  Re  Re6  1  0.999283  0.000000  0.000000  1
  Bi  Bi7  1  0.333347  0.666388  0.500000  1
  Bi  Bi8  1  0.666961  0.333612  0.500000  1
