# generated using pymatgen
data_TaCoB2Mo
_symmetry_space_group_name_H-M   'P 1'
_cell_length_a   4.57523003
_cell_length_b   4.57523045
_cell_length_c   4.57523012
_cell_angle_alpha   138.98127132
_cell_angle_beta   119.38886885
_cell_angle_gamma   75.80459908
_symmetry_Int_Tables_number   1
_chemical_formula_structural   TaCoB2Mo
_chemical_formula_sum   'Ta1 Co1 B2 Mo1'
_cell_volume   53.44176412
_cell_formula_units_Z   1
loop_
 _symmetry_equiv_pos_site_id
 _symmetry_equiv_pos_as_xyz
  1  'x, y, z'
loop_
 _atom_site_type_symbol
 _atom_site_label
 _atom_site_symmetry_multiplicity
 _atom_site_fract_x
 _atom_site_fract_y
 _atom_site_fract_z
 _atom_site_occupancy
  Ta  Ta0  1  0.706311  0.206311  0.500000  1
  Co  Co1  1  0.000175  0.000175  0.000000  1
  B  B2  1  0.701546  0.498321  0.203225  1
  B  B3  1  0.295095  0.498321  0.796775  1
  Mo  Mo4  1  0.296873  0.796873  0.500000  1
