# generated using pymatgen
data_Ca2Dy18Si15Ir
_symmetry_space_group_name_H-M   'P 1'
_cell_length_a   7.42217257
_cell_length_b   7.69307008
_cell_length_c   14.66636361
_cell_angle_alpha   89.88390459
_cell_angle_beta   89.81009202
_cell_angle_gamma   90.16454193
_symmetry_Int_Tables_number   1
_chemical_formula_structural   Ca2Dy18Si15Ir
_chemical_formula_sum   'Ca2 Dy18 Si15 Ir1'
_cell_volume   837.42921508
_cell_formula_units_Z   1
loop_
 _symmetry_equiv_pos_site_id
 _symmetry_equiv_pos_as_xyz
  1  'x, y, z'
loop_
 _atom_site_type_symbol
 _atom_site_label
 _atom_site_symmetry_multiplicity
 _atom_site_fract_x
 _atom_site_fract_y
 _atom_site_fract_z
 _atom_site_occupancy
  Ca  Ca0  1  0.647841  0.992443  0.248663  1
  Ca  Ca1  1  0.146972  0.509990  0.248859  1
  Dy  Dy2  1  0.847052  0.488169  0.758517  1
  Dy  Dy3  1  0.352949  0.010329  0.752083  1
  Dy  Dy4  1  0.971257  0.812501  0.094861  1
  Dy  Dy5  1  0.469256  0.684945  0.402318  1
  Dy  Dy6  1  0.530105  0.323939  0.902162  1
  Dy  Dy7  1  0.028575  0.183974  0.599849  1
  Dy  Dy8  1  0.028336  0.186522  0.902267  1
  Dy  Dy9  1  0.529447  0.318172  0.599071  1
  Dy  Dy10  1  0.474033  0.682009  0.098104  1
  Dy  Dy11  1  0.968867  0.815893  0.401922  1
  Dy  Dy12  1  0.684853  0.810439  0.882063  1
  Dy  Dy13  1  0.178916  0.682426  0.622211  1
  Dy  Dy14  1  0.819206  0.332651  0.116747  1
  Dy  Dy15  1  0.317146  0.179926  0.377533  1
  Dy  Dy16  1  0.321149  0.180891  0.122582  1
  Dy  Dy17  1  0.819346  0.317926  0.378000  1
  Dy  Dy18  1  0.176988  0.676469  0.877992  1
  Dy  Dy19  1  0.683665  0.818821  0.622613  1
  Si  Si20  1  0.758894  0.623722  0.252442  1
  Si  Si21  1  0.259508  0.877054  0.250621  1
  Si  Si22  1  0.732901  0.123108  0.748417  1
  Si  Si23  1  0.236109  0.373663  0.746436  1
  Si  Si24  1  0.024841  0.101101  0.249015  1
  Si  Si25  1  0.526507  0.399695  0.251272  1
  Si  Si26  1  0.471848  0.606736  0.746084  1
  Si  Si27  1  0.978216  0.899613  0.748373  1
  Si  Si28  1  0.353765  0.973136  0.539564  1
  Si  Si29  1  0.646269  0.029056  0.038791  1
  Si  Si30  1  0.147859  0.469835  0.462827  1
  Si  Si31  1  0.157292  0.470349  0.037667  1
  Si  Si32  1  0.645444  0.029859  0.462529  1
  Si  Si33  1  0.353985  0.969023  0.962049  1
  Si  Si34  1  0.854117  0.526946  0.539527  1
  Ir  Ir35  1  0.856486  0.518665  0.955967  1
