# generated using pymatgen
data_YbEr3Pd3PtO14
_symmetry_space_group_name_H-M   'P 1'
_cell_length_a   7.22465647
_cell_length_b   7.23100010
_cell_length_c   7.22465599
_cell_angle_alpha   59.84774002
_cell_angle_beta   59.78898091
_cell_angle_gamma   59.84774136
_symmetry_Int_Tables_number   1
_chemical_formula_structural   YbEr3Pd3PtO14
_chemical_formula_sum   'Yb1 Er3 Pd3 Pt1 O14'
_cell_volume   265.83993225
_cell_formula_units_Z   1
loop_
 _symmetry_equiv_pos_site_id
 _symmetry_equiv_pos_as_xyz
  1  'x, y, z'
loop_
 _atom_site_type_symbol
 _atom_site_label
 _atom_site_symmetry_multiplicity
 _atom_site_fract_x
 _atom_site_fract_y
 _atom_site_fract_z
 _atom_site_occupancy
  Yb  Yb0  1  0.625000  0.625000  0.625000  1
  Er  Er1  1  0.625000  0.625000  0.125000  1
  Er  Er2  1  0.625000  0.125000  0.625000  1
  Er  Er3  1  0.125000  0.625000  0.625000  1
  Pd  Pd4  1  0.625000  0.125000  0.125000  1
  Pd  Pd5  1  0.125000  0.125000  0.125000  1
  Pd  Pd6  1  0.125000  0.125000  0.625000  1
  Pt  Pt7  1  0.125000  0.625000  0.125000  1
  O  O8  1  0.045645  0.463325  0.459518  1
  O  O9  1  0.790482  0.786675  0.204355  1
  O  O10  1  0.784914  0.216129  0.214887  1
  O  O11  1  0.753073  0.751507  0.753073  1
  O  O12  1  0.035289  0.464592  0.035289  1
  O  O13  1  0.464078  0.039804  0.464078  1
  O  O14  1  0.035113  0.033871  0.465086  1
  O  O15  1  0.496927  0.498493  0.496927  1
  O  O16  1  0.214887  0.216129  0.784914  1
  O  O17  1  0.214711  0.785408  0.214711  1
  O  O18  1  0.785922  0.210196  0.785922  1
  O  O19  1  0.465086  0.033871  0.035113  1
  O  O20  1  0.459518  0.463325  0.045645  1
  O  O21  1  0.204355  0.786675  0.790482  1
