# generated using pymatgen
data_Zr3Nb3Si6Tc5Mo
_symmetry_space_group_name_H-M   'P 1'
_cell_length_a   7.69794291
_cell_length_b   7.72483818
_cell_length_c   7.69867944
_cell_angle_alpha   126.30455711
_cell_angle_beta   127.58451477
_cell_angle_gamma   78.28284019
_symmetry_Int_Tables_number   1
_chemical_formula_structural   Zr3Nb3Si6Tc5Mo
_chemical_formula_sum   'Zr3 Nb3 Si6 Tc5 Mo1'
_cell_volume   283.27071203
_cell_formula_units_Z   1
loop_
 _symmetry_equiv_pos_site_id
 _symmetry_equiv_pos_as_xyz
  1  'x, y, z'
loop_
 _atom_site_type_symbol
 _atom_site_label
 _atom_site_symmetry_multiplicity
 _atom_site_fract_x
 _atom_site_fract_y
 _atom_site_fract_z
 _atom_site_occupancy
  Zr  Zr0  1  0.548368  0.090379  0.041744  1
  Zr  Zr1  1  0.452969  0.493059  0.541717  1
  Zr  Zr2  1  0.949529  0.494263  0.043784  1
  Nb  Nb3  1  0.052755  0.093616  0.544576  1
  Nb  Nb4  1  0.747280  0.902483  0.652324  1
  Nb  Nb5  1  0.253141  0.903935  0.153323  1
  Si  Si6  1  0.748092  0.499912  0.252444  1
  Si  Si7  1  0.249933  0.502282  0.749842  1
  Si  Si8  1  0.331451  0.830228  0.491304  1
  Si  Si9  1  0.670802  0.156387  0.495805  1
  Si  Si10  1  0.840805  0.833260  0.001040  1
  Si  Si11  1  0.160116  0.156156  0.987383  1
  Tc  Tc12  1  0.000033  0.242852  0.244912  1
  Tc  Tc13  1  0.120989  0.752273  0.621310  1
  Tc  Tc14  1  0.878003  0.498436  0.628728  1
  Tc  Tc15  1  0.630747  0.753165  0.131868  1
  Tc  Tc16  1  0.368875  0.499095  0.120878  1
  Mo  Mo17  1  0.496108  0.240419  0.739216  1
