# generated using pymatgen
data_Hf8Fe7Si14Ir
_symmetry_space_group_name_H-M   'P 1'
_cell_length_a   9.52363540
_cell_length_b   9.51107769
_cell_length_c   9.52085715
_cell_angle_alpha   94.11781463
_cell_angle_beta   94.18363667
_cell_angle_gamma   148.77792085
_symmetry_Int_Tables_number   1
_chemical_formula_structural   Hf8Fe7Si14Ir
_chemical_formula_sum   'Hf8 Fe7 Si14 Ir1'
_cell_volume   430.55708075
_cell_formula_units_Z   1
loop_
 _symmetry_equiv_pos_site_id
 _symmetry_equiv_pos_as_xyz
  1  'x, y, z'
loop_
 _atom_site_type_symbol
 _atom_site_label
 _atom_site_symmetry_multiplicity
 _atom_site_fract_x
 _atom_site_fract_y
 _atom_site_fract_z
 _atom_site_occupancy
  Hf  Hf0  1  0.137864  0.137866  0.275771  1
  Hf  Hf1  1  0.861683  0.861705  0.723360  1
  Hf  Hf2  1  0.136227  0.860646  0.999273  1
  Hf  Hf3  1  0.863042  0.138640  0.999260  1
  Hf  Hf4  1  0.304942  0.500403  0.803143  1
  Hf  Hf5  1  0.697459  0.501942  0.195937  1
  Hf  Hf6  1  0.498480  0.694023  0.195955  1
  Hf  Hf7  1  0.498221  0.302793  0.803188  1
  Fe  Fe8  1  0.395157  0.895159  0.790381  1
  Fe  Fe9  1  0.902091  0.101202  0.502581  1
  Fe  Fe10  1  0.600473  0.401251  0.502555  1
  Fe  Fe11  1  0.600211  0.100160  0.200527  1
  Fe  Fe12  1  0.900459  0.400412  0.800914  1
  Fe  Fe13  1  0.101271  0.895719  0.498726  1
  Fe  Fe14  1  0.397404  0.603116  0.498718  1
  Si  Si15  1  0.289934  0.290030  0.579448  1
  Si  Si16  1  0.709879  0.709963  0.420358  1
  Si  Si17  1  0.302016  0.720740  0.994993  1
  Si  Si18  1  0.692983  0.274253  0.994988  1
  Si  Si19  1  0.089211  0.496215  0.591010  1
  Si  Si20  1  0.881523  0.476092  0.413561  1
  Si  Si21  1  0.531915  0.937261  0.413603  1
  Si  Si22  1  0.502114  0.095003  0.591059  1
  Si  Si23  1  0.249432  0.249619  0.999582  1
  Si  Si24  1  0.750136  0.749976  0.999600  1
  Si  Si25  1  0.313288  0.018174  0.301540  1
  Si  Si26  1  0.703203  0.002677  0.700159  1
  Si  Si27  1  0.996855  0.697344  0.700272  1
  Si  Si28  1  0.988556  0.283611  0.301683  1
  Ir  Ir29  1  0.103973  0.604004  0.207855  1
