# generated using pymatgen
data_Ho3ErB16Mo3W
_symmetry_space_group_name_H-M   'P 1'
_cell_length_a   3.61466100
_cell_length_b   6.02614502
_cell_length_c   11.64083108
_cell_angle_alpha   89.99793456
_cell_angle_beta   90.00000000
_cell_angle_gamma   90.00000000
_symmetry_Int_Tables_number   1
_chemical_formula_structural   Ho3ErB16Mo3W
_chemical_formula_sum   'Ho3 Er1 B16 Mo3 W1'
_cell_volume   253.56606962
_cell_formula_units_Z   1
loop_
 _symmetry_equiv_pos_site_id
 _symmetry_equiv_pos_as_xyz
  1  'x, y, z'
loop_
 _atom_site_type_symbol
 _atom_site_label
 _atom_site_symmetry_multiplicity
 _atom_site_fract_x
 _atom_site_fract_y
 _atom_site_fract_z
 _atom_site_occupancy
  Ho  Ho0  1  0.000000  0.627093  0.350547  1
  Ho  Ho1  1  0.000000  0.372886  0.649783  1
  Ho  Ho2  1  0.000000  0.127330  0.149561  1
  Er  Er3  1  0.000000  0.873191  0.850203  1
  B  B4  1  0.500000  0.787685  0.186786  1
  B  B5  1  0.500000  0.212780  0.813580  1
  B  B6  1  0.500000  0.286976  0.313588  1
  B  B7  1  0.500000  0.712932  0.686656  1
  B  B8  1  0.500000  0.867283  0.031687  1
  B  B9  1  0.500000  0.133145  0.967697  1
  B  B10  1  0.500000  0.367122  0.468065  1
  B  B11  1  0.500000  0.632899  0.532033  1
  B  B12  1  0.500000  0.885502  0.452442  1
  B  B13  1  0.500000  0.114388  0.547712  1
  B  B14  1  0.500000  0.385390  0.047325  1
  B  B15  1  0.500000  0.614265  0.952128  1
  B  B16  1  0.500000  0.976282  0.306319  1
  B  B17  1  0.500000  0.023897  0.693949  1
  B  B18  1  0.500000  0.475589  0.193755  1
  B  B19  1  0.500000  0.523716  0.806309  1
  Mo  Mo20  1  0.000000  0.369297  0.915689  1
  Mo  Mo21  1  0.000000  0.129920  0.416186  1
  Mo  Mo22  1  0.000000  0.869938  0.583879  1
  W  W23  1  0.000000  0.630493  0.084118  1
