# generated using pymatgen
data_Y2ErTm5(WO6)4
_symmetry_space_group_name_H-M   'P 1'
_cell_length_a   5.36172400
_cell_length_b   7.65579110
_cell_length_c   11.39984895
_cell_angle_alpha   75.32824312
_cell_angle_beta   90.00000000
_cell_angle_gamma   90.00000000
_symmetry_Int_Tables_number   1
_chemical_formula_structural   Y2ErTm5(WO6)4
_chemical_formula_sum   'Y2 Er1 Tm5 W4 O24'
_cell_volume   452.68535143
_cell_formula_units_Z   1
loop_
 _symmetry_equiv_pos_site_id
 _symmetry_equiv_pos_as_xyz
  1  'x, y, z'
loop_
 _atom_site_type_symbol
 _atom_site_label
 _atom_site_symmetry_multiplicity
 _atom_site_fract_x
 _atom_site_fract_y
 _atom_site_fract_z
 _atom_site_occupancy
  Y  Y0  1  0.684511  0.500000  0.750000  1
  Y  Y1  1  0.315319  0.500000  0.250000  1
  Er  Er2  1  0.740159  0.000000  0.750000  1
  Tm  Tm3  1  0.259993  0.000000  0.250000  1
  Tm  Tm4  1  0.185712  0.796333  0.578080  1
  Tm  Tm5  1  0.814423  0.796406  0.078296  1
  Tm  Tm6  1  0.185712  0.203667  0.921920  1
  Tm  Tm7  1  0.814423  0.203594  0.421704  1
  W  W8  1  0.254729  0.723957  0.885712  1
  W  W9  1  0.745231  0.724249  0.385561  1
  W  W10  1  0.254729  0.276043  0.614288  1
  W  W11  1  0.745231  0.275751  0.114439  1
  O  O12  1  0.041188  0.941179  0.896094  1
  O  O13  1  0.534508  0.848153  0.931304  1
  O  O14  1  0.959862  0.941381  0.395514  1
  O  O15  1  0.458845  0.791998  0.726270  1
  O  O16  1  0.465206  0.848670  0.430857  1
  O  O17  1  0.982161  0.713169  0.769816  1
  O  O18  1  0.540287  0.792778  0.226248  1
  O  O19  1  0.853897  0.636032  0.548909  1
  O  O20  1  0.358620  0.488117  0.887169  1
  O  O21  1  0.017933  0.713541  0.269727  1
  O  O22  1  0.358620  0.511883  0.612831  1
  O  O23  1  0.853897  0.363968  0.951091  1
  O  O24  1  0.145872  0.635710  0.049031  1
  O  O25  1  0.641535  0.488360  0.386998  1
  O  O26  1  0.982161  0.286831  0.730184  1
  O  O27  1  0.641535  0.511640  0.113002  1
  O  O28  1  0.145872  0.364290  0.450969  1
  O  O29  1  0.458845  0.208002  0.773730  1
  O  O30  1  0.017933  0.286459  0.230273  1
  O  O31  1  0.534508  0.151847  0.568696  1
  O  O32  1  0.540287  0.207222  0.273752  1
  O  O33  1  0.041188  0.058821  0.603906  1
  O  O34  1  0.465206  0.151330  0.069143  1
  O  O35  1  0.959862  0.058619  0.104486  1
