# generated using pymatgen
data_La8Nd7Y(CdRu)4
_symmetry_space_group_name_H-M   'P 1'
_cell_length_a   10.02352055
_cell_length_b   10.05229853
_cell_length_c   9.98681601
_cell_angle_alpha   59.76095679
_cell_angle_beta   59.77715761
_cell_angle_gamma   59.16472212
_symmetry_Int_Tables_number   1
_chemical_formula_structural   La8Nd7Y(CdRu)4
_chemical_formula_sum   'La8 Nd7 Y1 Cd4 Ru4'
_cell_volume   704.49047098
_cell_formula_units_Z   1
loop_
 _symmetry_equiv_pos_site_id
 _symmetry_equiv_pos_as_xyz
  1  'x, y, z'
loop_
 _atom_site_type_symbol
 _atom_site_label
 _atom_site_symmetry_multiplicity
 _atom_site_fract_x
 _atom_site_fract_y
 _atom_site_fract_z
 _atom_site_occupancy
  La  La0  1  0.317561  0.309993  0.690634  1
  La  La1  1  0.847401  0.846802  0.459666  1
  La  La2  1  0.689644  0.684881  0.315450  1
  La  La3  1  0.460642  0.844144  0.847568  1
  La  La4  1  0.061487  0.439050  0.060779  1
  La  La5  1  0.842581  0.463833  0.843761  1
  La  La6  1  0.441218  0.059895  0.441289  1
  La  La7  1  0.312293  0.689111  0.312532  1
  Nd  Nd8  1  0.439599  0.436161  0.062407  1
  Nd  Nd9  1  0.062615  0.063513  0.437822  1
  Nd  Nd10  1  0.440867  0.061932  0.060183  1
  Nd  Nd11  1  0.845191  0.849756  0.844887  1
  Nd  Nd12  1  0.694571  0.307909  0.311889  1
  Nd  Nd13  1  0.060128  0.438175  0.441435  1
  Nd  Nd14  1  0.310409  0.687603  0.694090  1
  Y  Y15  1  0.690256  0.308268  0.691270  1
  Cd  Cd16  1  0.079827  0.761440  0.077164  1
  Cd  Cd17  1  0.074090  0.080247  0.761282  1
  Cd  Cd18  1  0.761142  0.082246  0.074054  1
  Cd  Cd19  1  0.077735  0.079448  0.080441  1
  Ru  Ru20  1  0.627058  0.086541  0.642268  1
  Ru  Ru21  1  0.642645  0.642747  0.628722  1
  Ru  Ru22  1  0.631197  0.643359  0.089359  1
  Ru  Ru23  1  0.089843  0.632945  0.631046  1
