# generated using pymatgen
data_Cs2La8Nd2Os2Br17
_symmetry_space_group_name_H-M   'P 1'
_cell_length_a   9.63003666
_cell_length_b   11.40611290
_cell_length_c   11.37877451
_cell_angle_alpha   107.15556359
_cell_angle_beta   93.30790858
_cell_angle_gamma   93.28228326
_symmetry_Int_Tables_number   1
_chemical_formula_structural   Cs2La8Nd2Os2Br17
_chemical_formula_sum   'Cs2 La8 Nd2 Os2 Br17'
_cell_volume   1188.64027126
_cell_formula_units_Z   1
loop_
 _symmetry_equiv_pos_site_id
 _symmetry_equiv_pos_as_xyz
  1  'x, y, z'
loop_
 _atom_site_type_symbol
 _atom_site_label
 _atom_site_symmetry_multiplicity
 _atom_site_fract_x
 _atom_site_fract_y
 _atom_site_fract_z
 _atom_site_occupancy
  Cs  Cs0  1  0.000331  0.822503  0.177598  1
  Cs  Cs1  1  0.000756  0.177444  0.822379  1
  La  La2  1  0.824420  0.292573  0.291965  1
  La  La3  1  0.311967  0.427702  0.427059  1
  La  La4  1  0.425857  0.796298  0.488823  1
  La  La5  1  0.574556  0.195723  0.513766  1
  La  La6  1  0.689546  0.566232  0.565660  1
  La  La7  1  0.169262  0.710305  0.710308  1
  La  La8  1  0.425890  0.490012  0.797838  1
  La  La9  1  0.563339  0.840671  0.842137  1
  Nd  Nd10  1  0.439527  0.164977  0.164093  1
  Nd  Nd11  1  0.574166  0.511687  0.197210  1
  Os  Os12  1  0.572181  0.356527  0.356451  1
  Os  Os13  1  0.426802  0.645129  0.645201  1
  Br  Br14  1  0.578993  0.686391  0.021101  1
  Br  Br15  1  0.712248  0.067917  0.067809  1
  Br  Br16  1  0.853250  0.452732  0.118690  1
  Br  Br17  1  0.136434  0.205570  0.205258  1
  Br  Br18  1  0.286900  0.603135  0.253960  1
  Br  Br19  1  0.420344  0.979713  0.311566  1
  Br  Br20  1  0.715827  0.741147  0.391332  1
  Br  Br21  1  0.858521  0.118309  0.450589  1
  Br  Br22  1  0.000186  0.500036  0.499928  1
  Br  Br23  1  0.142205  0.881181  0.550353  1
  Br  Br24  1  0.282986  0.256258  0.604385  1
  Br  Br25  1  0.579115  0.018973  0.688173  1
  Br  Br26  1  0.717617  0.395064  0.743634  1
  Br  Br27  1  0.868286  0.794719  0.794654  1
  Br  Br28  1  0.141850  0.550633  0.881389  1
  Br  Br29  1  0.283977  0.934870  0.934763  1
  Br  Br30  1  0.422662  0.315569  0.981928  1
