# generated using pymatgen
data_RbBe3NiF9
_symmetry_space_group_name_H-M   'P 1'
_cell_length_a   6.75456300
_cell_length_b   6.75456312
_cell_length_c   9.74971500
_cell_angle_alpha   90.00000000
_cell_angle_beta   90.00000000
_cell_angle_gamma   120.00000431
_symmetry_Int_Tables_number   1
_chemical_formula_structural   RbBe3NiF9
_chemical_formula_sum   'Rb2 Be6 Ni2 F18'
_cell_volume   385.22729821
_cell_formula_units_Z   2
loop_
 _symmetry_equiv_pos_site_id
 _symmetry_equiv_pos_as_xyz
  1  'x, y, z'
loop_
 _atom_site_type_symbol
 _atom_site_label
 _atom_site_symmetry_multiplicity
 _atom_site_fract_x
 _atom_site_fract_y
 _atom_site_fract_z
 _atom_site_occupancy
  Rb  Rb0  1  0.333333  0.666667  0.500000  1
  Rb  Rb1  1  0.333333  0.666667  0.000000  1
  Be  Be2  1  0.876846  0.266169  0.250000  1
  Be  Be3  1  0.876846  0.610677  0.750000  1
  Be  Be4  1  0.389323  0.266169  0.750000  1
  Be  Be5  1  0.733831  0.123154  0.750000  1
  Be  Be6  1  0.733831  0.610677  0.250000  1
  Be  Be7  1  0.389323  0.123154  0.250000  1
  Ni  Ni8  1  0.000000  0.000000  0.500000  1
  Ni  Ni9  1  0.000000  0.000000  0.000000  1
  F  F10  1  0.755831  0.007631  0.618627  1
  F  F11  1  0.251800  0.244169  0.618627  1
  F  F12  1  0.992369  0.748200  0.618627  1
  F  F13  1  0.992369  0.244169  0.381373  1
  F  F14  1  0.907858  0.517386  0.250000  1
  F  F15  1  0.609528  0.092142  0.250000  1
  F  F16  1  0.482614  0.390472  0.250000  1
  F  F17  1  0.482614  0.092142  0.750000  1
  F  F18  1  0.609528  0.517386  0.750000  1
  F  F19  1  0.907858  0.390472  0.750000  1
  F  F20  1  0.992369  0.244169  0.118627  1
  F  F21  1  0.251800  0.007631  0.381373  1
  F  F22  1  0.755831  0.748200  0.381373  1
  F  F23  1  0.755831  0.748200  0.118627  1
  F  F24  1  0.251800  0.007631  0.118627  1
  F  F25  1  0.755831  0.007631  0.881373  1
  F  F26  1  0.251800  0.244169  0.881373  1
  F  F27  1  0.992369  0.748200  0.881373  1
