# generated using pymatgen
data_Li3EuY5Ir3
_symmetry_space_group_name_H-M   'P 1'
_cell_length_a   4.96190401
_cell_length_b   6.98459400
_cell_length_c   14.92221502
_cell_angle_alpha   90.00000000
_cell_angle_beta   90.00653152
_cell_angle_gamma   90.00000000
_symmetry_Int_Tables_number   1
_chemical_formula_structural   Li3EuY5Ir3
_chemical_formula_sum   'Li6 Eu2 Y10 Ir6'
_cell_volume   517.15748613
_cell_formula_units_Z   2
loop_
 _symmetry_equiv_pos_site_id
 _symmetry_equiv_pos_as_xyz
  1  'x, y, z'
loop_
 _atom_site_type_symbol
 _atom_site_label
 _atom_site_symmetry_multiplicity
 _atom_site_fract_x
 _atom_site_fract_y
 _atom_site_fract_z
 _atom_site_occupancy
  Li  Li0  1  0.000000  0.500000  0.000000  1
  Li  Li1  1  0.499651  0.000000  0.168347  1
  Li  Li2  1  0.999613  0.500000  0.333709  1
  Li  Li3  1  0.500002  0.000000  0.500000  1
  Li  Li4  1  0.000388  0.500000  0.666291  1
  Li  Li5  1  0.500352  0.000000  0.831652  1
  Eu  Eu6  1  0.500002  0.251387  0.000000  1
  Eu  Eu7  1  0.500002  0.748614  0.000000  1
  Y  Y8  1  0.999742  0.249623  0.168889  1
  Y  Y9  1  0.999742  0.750375  0.168889  1
  Y  Y10  1  0.499772  0.249854  0.334106  1
  Y  Y11  1  0.499772  0.750145  0.334106  1
  Y  Y12  1  0.000000  0.250230  0.500000  1
  Y  Y13  1  0.000000  0.749771  0.500000  1
  Y  Y14  1  0.500226  0.249854  0.665894  1
  Y  Y15  1  0.500226  0.750145  0.665894  1
  Y  Y16  1  0.000258  0.249623  0.831111  1
  Y  Y17  1  0.000258  0.750375  0.831111  1
  Ir  Ir18  1  0.000000  0.000000  0.000000  1
  Ir  Ir19  1  0.499732  0.500000  0.176331  1
  Ir  Ir20  1  0.999781  0.000000  0.333654  1
  Ir  Ir21  1  0.500002  0.500000  0.500000  1
  Ir  Ir22  1  0.000219  0.000000  0.666345  1
  Ir  Ir23  1  0.500270  0.500000  0.823669  1
