# generated using pymatgen
data_PaSe4Cl
_symmetry_space_group_name_H-M   'P 1'
_cell_length_a   7.58812274
_cell_length_b   8.09330966
_cell_length_c   7.53460356
_cell_angle_alpha   106.38960311
_cell_angle_beta   120.32183310
_cell_angle_gamma   88.99070279
_symmetry_Int_Tables_number   1
_chemical_formula_structural   PaSe4Cl
_chemical_formula_sum   'Pa2 Se8 Cl2'
_cell_volume   378.81420608
_cell_formula_units_Z   2
loop_
 _symmetry_equiv_pos_site_id
 _symmetry_equiv_pos_as_xyz
  1  'x, y, z'
loop_
 _atom_site_type_symbol
 _atom_site_label
 _atom_site_symmetry_multiplicity
 _atom_site_fract_x
 _atom_site_fract_y
 _atom_site_fract_z
 _atom_site_occupancy
  Pa  Pa0  1  0.314272  0.000698  0.127654  1
  Pa  Pa1  1  0.685723  0.999298  0.872334  1
  Se  Se2  1  0.502502  0.277547  0.058052  1
  Se  Se3  1  0.046813  0.282088  0.142807  1
  Se  Se4  1  0.011064  0.864293  0.200977  1
  Se  Se5  1  0.742371  0.152965  0.309629  1
  Se  Se6  1  0.257608  0.847045  0.690393  1
  Se  Se7  1  0.988980  0.135701  0.799038  1
  Se  Se8  1  0.953250  0.717897  0.857219  1
  Se  Se9  1  0.497470  0.722469  0.941981  1
  Cl  Cl10  1  0.548289  0.809559  0.428148  1
  Cl  Cl11  1  0.451659  0.190437  0.571771  1
