# generated using pymatgen
data_Y2Ho2(Ga8Pt3)3
_symmetry_space_group_name_H-M   'P 1'
_cell_length_a   7.51595324
_cell_length_b   7.58525282
_cell_length_c   13.37440964
_cell_angle_alpha   84.77263155
_cell_angle_beta   79.51958998
_cell_angle_gamma   60.21791242
_symmetry_Int_Tables_number   1
_chemical_formula_structural   Y2Ho2(Ga8Pt3)3
_chemical_formula_sum   'Y2 Ho2 Ga24 Pt9'
_cell_volume   650.73217939
_cell_formula_units_Z   1
loop_
 _symmetry_equiv_pos_site_id
 _symmetry_equiv_pos_as_xyz
  1  'x, y, z'
loop_
 _atom_site_type_symbol
 _atom_site_label
 _atom_site_symmetry_multiplicity
 _atom_site_fract_x
 _atom_site_fract_y
 _atom_site_fract_z
 _atom_site_occupancy
  Y  Y0  1  0.393189  0.168681  0.810842  1
  Y  Y1  1  0.606811  0.831319  0.189158  1
  Ho  Ho2  1  0.732453  0.497675  0.810869  1
  Ho  Ho3  1  0.267547  0.502325  0.189131  1
  Ga  Ga4  1  0.685363  0.833508  0.938355  1
  Ga  Ga5  1  0.314637  0.166492  0.061645  1
  Ga  Ga6  1  0.146173  0.832771  0.559192  1
  Ga  Ga7  1  0.853827  0.167229  0.440808  1
  Ga  Ga8  1  0.478689  0.166856  0.556099  1
  Ga  Ga9  1  0.521311  0.833144  0.443901  1
  Ga  Ga10  1  0.220019  0.165750  0.324279  1
  Ga  Ga11  1  0.779981  0.834250  0.675721  1
  Ga  Ga12  1  0.437365  0.504017  0.675115  1
  Ga  Ga13  1  0.562635  0.495983  0.324885  1
  Ga  Ga14  1  0.106578  0.163178  0.674518  1
  Ga  Ga15  1  0.893422  0.836822  0.325482  1
  Ga  Ga16  1  0.358024  0.497839  0.938632  1
  Ga  Ga17  1  0.641976  0.502161  0.061368  1
  Ga  Ga18  1  0.019198  0.170003  0.943640  1
  Ga  Ga19  1  0.980802  0.829997  0.056360  1
  Ga  Ga20  1  0.186636  0.499154  0.443073  1
  Ga  Ga21  1  0.813364  0.500846  0.556927  1
  Ga  Ga22  1  0.734551  0.163695  0.182177  1
  Ga  Ga23  1  0.265449  0.836305  0.817823  1
  Ga  Ga24  1  0.060582  0.631483  0.817161  1
  Ga  Ga25  1  0.939418  0.368517  0.182839  1
  Ga  Ga26  1  0.856013  0.040573  0.817082  1
  Ga  Ga27  1  0.143987  0.959427  0.182918  1
  Pt  Pt28  1  0.117695  0.495244  0.638999  1
  Pt  Pt29  1  0.882305  0.504756  0.361001  1
  Pt  Pt30  1  0.660174  0.169835  0.999449  1
  Pt  Pt31  1  0.339826  0.830165  0.000551  1
  Pt  Pt32  1  0.540196  0.167001  0.360356  1
  Pt  Pt33  1  0.459804  0.832999  0.639644  1
  Pt  Pt34  1  0.779344  0.172361  0.637144  1
  Pt  Pt35  1  0.220656  0.827639  0.362856  1
  Pt  Pt36  1  0.000000  0.500000  0.000000  1
