# generated using pymatgen
data_Sc4AlGaNi6
_symmetry_space_group_name_H-M   'P 1'
_cell_length_a   5.04656000
_cell_length_b   5.04655986
_cell_length_c   7.90067500
_cell_angle_alpha   90.00000000
_cell_angle_beta   90.00000000
_cell_angle_gamma   120.00000092
_symmetry_Int_Tables_number   1
_chemical_formula_structural   Sc4AlGaNi6
_chemical_formula_sum   'Sc4 Al1 Ga1 Ni6'
_cell_volume   174.25517915
_cell_formula_units_Z   1
loop_
 _symmetry_equiv_pos_site_id
 _symmetry_equiv_pos_as_xyz
  1  'x, y, z'
loop_
 _atom_site_type_symbol
 _atom_site_label
 _atom_site_symmetry_multiplicity
 _atom_site_fract_x
 _atom_site_fract_y
 _atom_site_fract_z
 _atom_site_occupancy
  Sc  Sc0  1  0.333333  0.666667  0.440980  1
  Sc  Sc1  1  0.666667  0.333333  0.559020  1
  Sc  Sc2  1  0.666667  0.333333  0.940997  1
  Sc  Sc3  1  0.333333  0.666667  0.059003  1
  Al  Al4  1  0.000000  0.000000  0.500000  1
  Ga  Ga5  1  0.000000  0.000000  0.000000  1
  Ni  Ni6  1  0.829273  0.170727  0.251096  1
  Ni  Ni7  1  0.829273  0.658546  0.251096  1
  Ni  Ni8  1  0.341454  0.170727  0.251096  1
  Ni  Ni9  1  0.170727  0.829273  0.748904  1
  Ni  Ni10  1  0.170727  0.341454  0.748904  1
  Ni  Ni11  1  0.658546  0.829273  0.748904  1
