# generated using pymatgen
data_Er8Ti2ReSi16Tc9
_symmetry_space_group_name_H-M   'P 1'
_cell_length_a   6.74510050
_cell_length_b   6.74510010
_cell_length_c   12.89009010
_cell_angle_alpha   90.02399767
_cell_angle_beta   89.97600274
_cell_angle_gamma   89.00194461
_symmetry_Int_Tables_number   1
_chemical_formula_structural   Er8Ti2ReSi16Tc9
_chemical_formula_sum   'Er8 Ti2 Re1 Si16 Tc9'
_cell_volume   586.36333550
_cell_formula_units_Z   1
loop_
 _symmetry_equiv_pos_site_id
 _symmetry_equiv_pos_as_xyz
  1  'x, y, z'
loop_
 _atom_site_type_symbol
 _atom_site_label
 _atom_site_symmetry_multiplicity
 _atom_site_fract_x
 _atom_site_fract_y
 _atom_site_fract_z
 _atom_site_occupancy
  Er  Er0  1  0.337771  0.001658  0.472589  1
  Er  Er1  1  0.512469  0.821259  0.716470  1
  Er  Er2  1  0.488550  0.178363  0.216882  1
  Er  Er3  1  0.821259  0.512469  0.283530  1
  Er  Er4  1  0.178363  0.488550  0.783118  1
  Er  Er5  1  0.662173  0.998614  0.972130  1
  Er  Er6  1  0.001658  0.337771  0.527411  1
  Er  Er7  1  0.998614  0.662173  0.027870  1
  Ti  Ti8  1  0.157716  0.842666  0.249701  1
  Ti  Ti9  1  0.842666  0.157716  0.750299  1
  Re  Re10  1  0.666658  0.666658  0.500000  1
  Si  Si11  1  0.211773  0.117999  0.682014  1
  Si  Si12  1  0.397440  0.682312  0.940839  1
  Si  Si13  1  0.602196  0.317465  0.440345  1
  Si  Si14  1  0.682312  0.397440  0.059161  1
  Si  Si15  1  0.317465  0.602196  0.559655  1
  Si  Si16  1  0.788519  0.881697  0.181288  1
  Si  Si17  1  0.117999  0.211773  0.317986  1
  Si  Si18  1  0.881697  0.788519  0.818712  1
  Si  Si19  1  0.263061  0.984177  0.055590  1
  Si  Si20  1  0.529647  0.805205  0.317492  1
  Si  Si21  1  0.469760  0.194767  0.817453  1
  Si  Si22  1  0.805205  0.529647  0.682508  1
  Si  Si23  1  0.194767  0.469760  0.182547  1
  Si  Si24  1  0.737252  0.016580  0.556164  1
  Si  Si25  1  0.984177  0.263061  0.944410  1
  Si  Si26  1  0.016580  0.737252  0.443836  1
  Tc  Tc27  1  0.333669  0.333669  0.000000  1
  Tc  Tc28  1  0.183097  0.978762  0.865046  1
  Tc  Tc29  1  0.472124  0.691839  0.134892  1
  Tc  Tc30  1  0.526176  0.307498  0.634550  1
  Tc  Tc31  1  0.691839  0.472124  0.865108  1
  Tc  Tc32  1  0.307498  0.526176  0.365450  1
  Tc  Tc33  1  0.816861  0.022227  0.365173  1
  Tc  Tc34  1  0.978762  0.183097  0.134954  1
  Tc  Tc35  1  0.022227  0.816861  0.634827  1
