# generated using pymatgen
data_Yb6Ag7Pt
_symmetry_space_group_name_H-M   'P 1'
_cell_length_a   8.22957460
_cell_length_b   8.22957424
_cell_length_c   8.22957257
_cell_angle_alpha   114.44466658
_cell_angle_beta   114.44466556
_cell_angle_gamma   114.44467773
_symmetry_Int_Tables_number   1
_chemical_formula_structural   Yb6Ag7Pt
_chemical_formula_sum   'Yb6 Ag7 Pt1'
_cell_volume   327.15758266
_cell_formula_units_Z   1
loop_
 _symmetry_equiv_pos_site_id
 _symmetry_equiv_pos_as_xyz
  1  'x, y, z'
loop_
 _atom_site_type_symbol
 _atom_site_label
 _atom_site_symmetry_multiplicity
 _atom_site_fract_x
 _atom_site_fract_y
 _atom_site_fract_z
 _atom_site_occupancy
  Yb  Yb0  1  0.618569  0.734298  0.984893  1
  Yb  Yb1  1  0.265702  0.015107  0.381431  1
  Yb  Yb2  1  0.734298  0.984893  0.618569  1
  Yb  Yb3  1  0.381431  0.265702  0.015107  1
  Yb  Yb4  1  0.984893  0.618569  0.734298  1
  Yb  Yb5  1  0.015107  0.381431  0.265702  1
  Ag  Ag6  1  0.566250  0.068839  0.231918  1
  Ag  Ag7  1  0.931161  0.768082  0.433750  1
  Ag  Ag8  1  0.068839  0.231918  0.566250  1
  Ag  Ag9  1  0.231918  0.566250  0.068839  1
  Ag  Ag10  1  0.768082  0.433750  0.931161  1
  Ag  Ag11  1  0.433750  0.931161  0.768082  1
  Ag  Ag12  1  0.500000  0.500000  0.500000  1
  Pt  Pt13  1  0.000000  0.000000  0.000000  1
