# generated using pymatgen
data_Gd5ThH18
_symmetry_space_group_name_H-M   'P 1'
_cell_length_a   6.50394100
_cell_length_b   6.50608024
_cell_length_c   6.68908253
_cell_angle_alpha   90.19170011
_cell_angle_beta   90.00000000
_cell_angle_gamma   119.98911867
_symmetry_Int_Tables_number   1
_chemical_formula_structural   Gd5ThH18
_chemical_formula_sum   'Gd5 Th1 H18'
_cell_volume   245.15319780
_cell_formula_units_Z   1
loop_
 _symmetry_equiv_pos_site_id
 _symmetry_equiv_pos_as_xyz
  1  'x, y, z'
loop_
 _atom_site_type_symbol
 _atom_site_label
 _atom_site_symmetry_multiplicity
 _atom_site_fract_x
 _atom_site_fract_y
 _atom_site_fract_z
 _atom_site_occupancy
  Gd  Gd0  1  0.000106  0.335040  0.249865  1
  Gd  Gd1  1  0.665066  0.664960  0.250135  1
  Gd  Gd2  1  0.669078  0.000000  0.750000  1
  Gd  Gd3  1  0.996059  0.661765  0.750759  1
  Gd  Gd4  1  0.334294  0.338235  0.749241  1
  Th  Th5  1  0.333303  0.000000  0.250000  1
  H  H6  1  0.992562  0.000000  0.250000  1
  H  H7  1  0.003281  0.000000  0.750000  1
  H  H8  1  0.332938  0.660371  0.201031  1
  H  H9  1  0.672567  0.339629  0.298969  1
  H  H10  1  0.663763  0.330735  0.804519  1
  H  H11  1  0.333026  0.669265  0.695481  1
  H  H12  1  0.343901  0.325307  0.091324  1
  H  H13  1  0.671908  0.019686  0.094451  1
  H  H14  1  0.990138  0.666229  0.097121  1
  H  H15  1  0.018595  0.674693  0.408676  1
  H  H16  1  0.652222  0.980314  0.405549  1
  H  H17  1  0.323910  0.333771  0.402879  1
  H  H18  1  0.654831  0.675856  0.908342  1
  H  H19  1  0.324219  0.974244  0.905161  1
  H  H20  1  0.020673  0.346062  0.908281  1
  H  H21  1  0.978975  0.324144  0.591658  1
  H  H22  1  0.349975  0.025756  0.594839  1
  H  H23  1  0.674611  0.653938  0.591719  1
