# generated using pymatgen
data_Er3TmLu4(FeB6)4
_symmetry_space_group_name_H-M   'P 1'
_cell_length_a   3.49701000
_cell_length_b   8.99665702
_cell_length_c   11.35886903
_cell_angle_alpha   89.99194984
_cell_angle_beta   90.00000000
_cell_angle_gamma   90.00000000
_symmetry_Int_Tables_number   1
_chemical_formula_structural   Er3TmLu4(FeB6)4
_chemical_formula_sum   'Er3 Tm1 Lu4 Fe4 B24'
_cell_volume   357.36591366
_cell_formula_units_Z   1
loop_
 _symmetry_equiv_pos_site_id
 _symmetry_equiv_pos_as_xyz
  1  'x, y, z'
loop_
 _atom_site_type_symbol
 _atom_site_label
 _atom_site_symmetry_multiplicity
 _atom_site_fract_x
 _atom_site_fract_y
 _atom_site_fract_z
 _atom_site_occupancy
  Er  Er0  1  0.000000  0.823206  0.085546  1
  Er  Er1  1  0.000000  0.176781  0.914453  1
  Er  Er2  1  0.000000  0.323238  0.414464  1
  Tm  Tm3  1  0.000000  0.676895  0.585489  1
  Lu  Lu4  1  0.000000  0.443453  0.129162  1
  Lu  Lu5  1  0.000000  0.556594  0.870785  1
  Lu  Lu6  1  0.000000  0.943352  0.370905  1
  Lu  Lu7  1  0.000000  0.056492  0.629145  1
  Fe  Fe8  1  0.000000  0.139114  0.179984  1
  Fe  Fe9  1  0.000000  0.860846  0.819969  1
  Fe  Fe10  1  0.000000  0.639116  0.320109  1
  Fe  Fe11  1  0.000000  0.361010  0.679927  1
  B  B12  1  0.500000  0.054484  0.067941  1
  B  B13  1  0.500000  0.945510  0.932053  1
  B  B14  1  0.500000  0.554581  0.432241  1
  B  B15  1  0.500000  0.445743  0.567915  1
  B  B16  1  0.500000  0.247802  0.081547  1
  B  B17  1  0.500000  0.752202  0.918441  1
  B  B18  1  0.500000  0.747726  0.418675  1
  B  B19  1  0.500000  0.252209  0.581569  1
  B  B20  1  0.500000  0.290527  0.233894  1
  B  B21  1  0.500000  0.709393  0.765925  1
  B  B22  1  0.500000  0.790502  0.266120  1
  B  B23  1  0.500000  0.209478  0.733886  1
  B  B24  1  0.500000  0.131536  0.314653  1
  B  B25  1  0.500000  0.868276  0.685225  1
  B  B26  1  0.500000  0.631548  0.185363  1
  B  B27  1  0.500000  0.368462  0.814645  1
  B  B28  1  0.500000  0.485142  0.287887  1
  B  B29  1  0.500000  0.515109  0.712002  1
  B  B30  1  0.500000  0.985111  0.212126  1
  B  B31  1  0.500000  0.014859  0.787882  1
  B  B32  1  0.500000  0.106640  0.470834  1
  B  B33  1  0.500000  0.893060  0.529245  1
  B  B34  1  0.500000  0.606646  0.029158  1
  B  B35  1  0.500000  0.393356  0.970834  1
