# generated using pymatgen
data_CaAl2Pd5
_symmetry_space_group_name_H-M   'P 1'
_cell_length_a   7.97625463
_cell_length_b   7.97625439
_cell_length_c   7.97625481
_cell_angle_alpha   149.60979395
_cell_angle_beta   149.60979244
_cell_angle_gamma   43.51448409
_symmetry_Int_Tables_number   1
_chemical_formula_structural   CaAl2Pd5
_chemical_formula_sum   'Ca1 Al2 Pd5'
_cell_volume   129.51439784
_cell_formula_units_Z   1
loop_
 _symmetry_equiv_pos_site_id
 _symmetry_equiv_pos_as_xyz
  1  'x, y, z'
loop_
 _atom_site_type_symbol
 _atom_site_label
 _atom_site_symmetry_multiplicity
 _atom_site_fract_x
 _atom_site_fract_y
 _atom_site_fract_z
 _atom_site_occupancy
  Ca  Ca0  1  0.000000  0.000000  0.000000  1
  Al  Al1  1  0.252751  0.252751  0.000000  1
  Al  Al2  1  0.747249  0.747249  0.000000  1
  Pd  Pd3  1  0.500000  0.500000  0.000000  1
  Pd  Pd4  1  0.646104  0.146103  0.500001  1
  Pd  Pd5  1  0.853897  0.353896  0.500001  1
  Pd  Pd6  1  0.146103  0.646104  0.500001  1
  Pd  Pd7  1  0.353896  0.853897  0.500001  1
