# generated using pymatgen
data_Y6Co18Si5P7
_symmetry_space_group_name_H-M   'P 1'
_cell_length_a   10.56687200
_cell_length_b   3.74146800
_cell_length_c   12.27978600
_cell_angle_alpha   90.00000000
_cell_angle_beta   90.00000000
_cell_angle_gamma   90.00000000
_symmetry_Int_Tables_number   1
_chemical_formula_structural   Y6Co18Si5P7
_chemical_formula_sum   'Y6 Co18 Si5 P7'
_cell_volume   485.48887252
_cell_formula_units_Z   1
loop_
 _symmetry_equiv_pos_site_id
 _symmetry_equiv_pos_as_xyz
  1  'x, y, z'
loop_
 _atom_site_type_symbol
 _atom_site_label
 _atom_site_symmetry_multiplicity
 _atom_site_fract_x
 _atom_site_fract_y
 _atom_site_fract_z
 _atom_site_occupancy
  Y  Y0  1  0.066137  0.750001  0.207281  1
  Y  Y1  1  0.433864  0.750001  0.207281  1
  Y  Y2  1  0.250000  0.750001  0.476708  1
  Y  Y3  1  0.750000  0.250000  0.527473  1
  Y  Y4  1  0.566177  0.250000  0.793540  1
  Y  Y5  1  0.933823  0.250000  0.793540  1
  Co  Co6  1  0.080683  0.250000  0.002363  1
  Co  Co7  1  0.419318  0.250000  0.002363  1
  Co  Co8  1  0.250000  0.750001  0.009631  1
  Co  Co9  1  0.750000  0.750001  0.154880  1
  Co  Co10  1  0.629571  0.250000  0.295156  1
  Co  Co11  1  0.870428  0.250000  0.295156  1
  Co  Co12  1  0.250000  0.250000  0.302360  1
  Co  Co13  1  0.544514  0.750001  0.433190  1
  Co  Co14  1  0.955486  0.750001  0.433190  1
  Co  Co15  1  0.044310  0.250000  0.568513  1
  Co  Co16  1  0.455690  0.250000  0.568513  1
  Co  Co17  1  0.750000  0.750001  0.700359  1
  Co  Co18  1  0.128196  0.750001  0.711218  1
  Co  Co19  1  0.371805  0.750001  0.711218  1
  Co  Co20  1  0.250000  0.250000  0.847028  1
  Co  Co21  1  0.750000  0.250000  0.975835  1
  Co  Co22  1  0.583901  0.750001  0.989687  1
  Co  Co23  1  0.916098  0.750001  0.989687  1
  Si  Si24  1  0.604951  0.250000  0.106241  1
  Si  Si25  1  0.895049  0.250000  0.106241  1
  Si  Si26  1  0.250000  0.250000  0.115615  1
  Si  Si27  1  0.750000  0.750001  0.342064  1
  Si  Si28  1  0.250000  0.250000  0.659851  1
  P  P29  1  0.058484  0.250000  0.384867  1
  P  P30  1  0.441517  0.250000  0.384867  1
  P  P31  1  0.557739  0.750001  0.617098  1
  P  P32  1  0.942261  0.750001  0.617098  1
  P  P33  1  0.750000  0.750001  0.880628  1
  P  P34  1  0.096668  0.750001  0.894629  1
  P  P35  1  0.403332  0.750001  0.894629  1
