# generated using pymatgen
data_Zr16Fe4Pt3Rh
_symmetry_space_group_name_H-M   'P 1'
_cell_length_a   8.74210988
_cell_length_b   8.74211093
_cell_length_c   8.74211117
_cell_angle_alpha   59.98170424
_cell_angle_beta   59.98169953
_cell_angle_gamma   59.98170904
_symmetry_Int_Tables_number   1
_chemical_formula_structural   Zr16Fe4Pt3Rh
_chemical_formula_sum   'Zr16 Fe4 Pt3 Rh1'
_cell_volume   472.23013030
_cell_formula_units_Z   1
loop_
 _symmetry_equiv_pos_site_id
 _symmetry_equiv_pos_as_xyz
  1  'x, y, z'
loop_
 _atom_site_type_symbol
 _atom_site_label
 _atom_site_symmetry_multiplicity
 _atom_site_fract_x
 _atom_site_fract_y
 _atom_site_fract_z
 _atom_site_occupancy
  Zr  Zr0  1  0.059983  0.646627  0.646627  1
  Zr  Zr1  1  0.646627  0.059983  0.646627  1
  Zr  Zr2  1  0.646627  0.646627  0.059983  1
  Zr  Zr3  1  0.646144  0.646144  0.646144  1
  Zr  Zr4  1  0.807393  0.807393  0.192609  1
  Zr  Zr5  1  0.192454  0.192454  0.807070  1
  Zr  Zr6  1  0.807393  0.192609  0.807393  1
  Zr  Zr7  1  0.192454  0.807070  0.192454  1
  Zr  Zr8  1  0.192609  0.807393  0.807393  1
  Zr  Zr9  1  0.807070  0.192454  0.192454  1
  Zr  Zr10  1  0.439140  0.439140  0.063794  1
  Zr  Zr11  1  0.061220  0.061220  0.439079  1
  Zr  Zr12  1  0.439140  0.063794  0.439140  1
  Zr  Zr13  1  0.061220  0.439079  0.061220  1
  Zr  Zr14  1  0.063794  0.439140  0.439140  1
  Zr  Zr15  1  0.439079  0.061220  0.061220  1
  Fe  Fe16  1  0.424592  0.858263  0.858263  1
  Fe  Fe17  1  0.858263  0.424592  0.858263  1
  Fe  Fe18  1  0.858263  0.858263  0.424592  1
  Fe  Fe19  1  0.858595  0.858595  0.858595  1
  Pt  Pt20  1  0.755102  0.414376  0.414376  1
  Pt  Pt21  1  0.414376  0.755102  0.414376  1
  Pt  Pt22  1  0.414376  0.414376  0.755102  1
  Rh  Rh23  1  0.414085  0.414085  0.414085  1
