# generated using pymatgen
data_Yb3Y2Ho3(ReC2)4
_symmetry_space_group_name_H-M   'P 1'
_cell_length_a   5.12030200
_cell_length_b   6.54706693
_cell_length_c   10.02994585
_cell_angle_alpha   89.42025720
_cell_angle_beta   90.00000000
_cell_angle_gamma   90.00000000
_symmetry_Int_Tables_number   1
_chemical_formula_structural   Yb3Y2Ho3(ReC2)4
_chemical_formula_sum   'Yb3 Y2 Ho3 Re4 C8'
_cell_volume   336.21626054
_cell_formula_units_Z   1
loop_
 _symmetry_equiv_pos_site_id
 _symmetry_equiv_pos_as_xyz
  1  'x, y, z'
loop_
 _atom_site_type_symbol
 _atom_site_label
 _atom_site_symmetry_multiplicity
 _atom_site_fract_x
 _atom_site_fract_y
 _atom_site_fract_z
 _atom_site_occupancy
  Yb  Yb0  1  0.750000  0.464008  0.776460  1
  Yb  Yb1  1  0.750000  0.963486  0.723954  1
  Yb  Yb2  1  0.250000  0.035521  0.277574  1
  Y  Y3  1  0.250000  0.184694  0.945073  1
  Y  Y4  1  0.250000  0.534828  0.222783  1
  Ho  Ho5  1  0.250000  0.688446  0.554778  1
  Ho  Ho6  1  0.750000  0.313908  0.446049  1
  Ho  Ho7  1  0.750000  0.817463  0.054425  1
  Re  Re8  1  0.250000  0.722733  0.861042  1
  Re  Re9  1  0.750000  0.275684  0.139376  1
  Re  Re10  1  0.750000  0.774573  0.361008  1
  Re  Re11  1  0.250000  0.227028  0.637069  1
  C  C12  1  0.250000  0.458103  0.758084  1
  C  C13  1  0.750000  0.542806  0.239507  1
  C  C14  1  0.750000  0.042775  0.261041  1
  C  C15  1  0.250000  0.957482  0.739564  1
  C  C16  1  0.250000  0.808621  0.042987  1
  C  C17  1  0.750000  0.177936  0.961108  1
  C  C18  1  0.750000  0.684852  0.541329  1
  C  C19  1  0.250000  0.325054  0.456789  1
