# generated using pymatgen
data_Ba3NaNpO6
_symmetry_space_group_name_H-M   'P 1'
_cell_length_a   7.37551027
_cell_length_b   7.37550958
_cell_length_c   7.37550970
_cell_angle_alpha   92.03404113
_cell_angle_beta   92.03404296
_cell_angle_gamma   92.03404238
_symmetry_Int_Tables_number   1
_chemical_formula_structural   Ba3NaNpO6
_chemical_formula_sum   'Ba6 Na2 Np2 O12'
_cell_volume   400.43720876
_cell_formula_units_Z   2
loop_
 _symmetry_equiv_pos_site_id
 _symmetry_equiv_pos_as_xyz
  1  'x, y, z'
loop_
 _atom_site_type_symbol
 _atom_site_label
 _atom_site_symmetry_multiplicity
 _atom_site_fract_x
 _atom_site_fract_y
 _atom_site_fract_z
 _atom_site_occupancy
  Ba  Ba0  1  0.250000  0.901242  0.598758  1
  Ba  Ba1  1  0.750000  0.098758  0.401242  1
  Ba  Ba2  1  0.901242  0.598758  0.250000  1
  Ba  Ba3  1  0.401242  0.750000  0.098758  1
  Ba  Ba4  1  0.098758  0.401242  0.750000  1
  Ba  Ba5  1  0.598758  0.250000  0.901242  1
  Na  Na6  1  0.750000  0.750000  0.750000  1
  Na  Na7  1  0.250000  0.250000  0.250000  1
  Np  Np8  1  0.000000  0.000000  0.000000  1
  Np  Np9  1  0.500000  0.500000  0.500000  1
  O  O10  1  0.722482  0.921004  0.051818  1
  O  O11  1  0.051818  0.722482  0.921004  1
  O  O12  1  0.078996  0.948182  0.277518  1
  O  O13  1  0.921004  0.051818  0.722482  1
  O  O14  1  0.448182  0.578996  0.777518  1
  O  O15  1  0.578996  0.777518  0.448182  1
  O  O16  1  0.277518  0.078996  0.948182  1
  O  O17  1  0.948182  0.277518  0.078996  1
  O  O18  1  0.222482  0.551818  0.421004  1
  O  O19  1  0.551818  0.421004  0.222482  1
  O  O20  1  0.421004  0.222482  0.551818  1
  O  O21  1  0.777518  0.448182  0.578996  1
