# generated using pymatgen
data_Sm3Tm3(CoSn6)2
_symmetry_space_group_name_H-M   'P 1'
_cell_length_a   8.46592917
_cell_length_b   8.46592830
_cell_length_c   13.23223831
_cell_angle_alpha   90.00423674
_cell_angle_beta   89.99575825
_cell_angle_gamma   148.70211267
_symmetry_Int_Tables_number   1
_chemical_formula_structural   Sm3Tm3(CoSn6)2
_chemical_formula_sum   'Sm3 Tm3 Co2 Sn12'
_cell_volume   492.67181669
_cell_formula_units_Z   1
loop_
 _symmetry_equiv_pos_site_id
 _symmetry_equiv_pos_as_xyz
  1  'x, y, z'
loop_
 _atom_site_type_symbol
 _atom_site_label
 _atom_site_symmetry_multiplicity
 _atom_site_fract_x
 _atom_site_fract_y
 _atom_site_fract_z
 _atom_site_occupancy
  Sm  Sm0  1  0.099757  0.900243  0.592932  1
  Sm  Sm1  1  0.099509  0.900491  0.907634  1
  Sm  Sm2  1  0.900526  0.099474  0.405669  1
  Tm  Tm3  1  0.898310  0.101690  0.094289  1
  Tm  Tm4  1  0.899938  0.100061  0.751703  1
  Tm  Tm5  1  0.100057  0.899943  0.248197  1
  Co  Co6  1  0.298456  0.701544  0.248719  1
  Co  Co7  1  0.702577  0.297422  0.751158  1
  Sn  Sn8  1  0.755925  0.244075  0.572126  1
  Sn  Sn9  1  0.426927  0.573073  0.578726  1
  Sn  Sn10  1  0.572753  0.427246  0.420543  1
  Sn  Sn11  1  0.732604  0.267396  0.249334  1
  Sn  Sn12  1  0.268030  0.731969  0.750188  1
  Sn  Sn13  1  0.244993  0.755008  0.071420  1
  Sn  Sn14  1  0.244057  0.755944  0.427169  1
  Sn  Sn15  1  0.572475  0.427525  0.077719  1
  Sn  Sn16  1  0.453824  0.546177  0.246941  1
  Sn  Sn17  1  0.545902  0.454097  0.750883  1
  Sn  Sn18  1  0.757356  0.242646  0.929226  1
  Sn  Sn19  1  0.426024  0.573975  0.925426  1
