# generated using pymatgen
data_Sr3LaPt6O18F
_symmetry_space_group_name_H-M   'P 1'
_cell_length_a   8.03275604
_cell_length_b   8.03275578
_cell_length_c   8.04887500
_cell_angle_alpha   109.51188046
_cell_angle_beta   109.51187981
_cell_angle_gamma   109.43053559
_symmetry_Int_Tables_number   1
_chemical_formula_structural   Sr3LaPt6O18F
_chemical_formula_sum   'Sr3 La1 Pt6 O18 F1'
_cell_volume   399.59885358
_cell_formula_units_Z   1
loop_
 _symmetry_equiv_pos_site_id
 _symmetry_equiv_pos_as_xyz
  1  'x, y, z'
loop_
 _atom_site_type_symbol
 _atom_site_label
 _atom_site_symmetry_multiplicity
 _atom_site_fract_x
 _atom_site_fract_y
 _atom_site_fract_z
 _atom_site_occupancy
  Sr  Sr0  1  0.666700  0.666098  0.666046  1
  Sr  Sr1  1  0.999398  0.333300  0.999346  1
  Sr  Sr2  1  0.333902  0.000602  0.999948  1
  La  La3  1  0.000000  0.000000  0.345123  1
  Pt  Pt4  1  0.499554  0.659007  0.157186  1
  Pt  Pt5  1  0.340993  0.840547  0.498179  1
  Pt  Pt6  1  0.840114  0.499752  0.340195  1
  Pt  Pt7  1  0.500248  0.340362  0.840443  1
  Pt  Pt8  1  0.159453  0.500446  0.657632  1
  Pt  Pt9  1  0.659638  0.159886  0.500081  1
  O  O10  1  0.654416  0.959983  0.266629  1
  O  O11  1  0.383468  0.734419  0.691151  1
  O  O12  1  0.690404  0.307614  0.040753  1
  O  O13  1  0.692386  0.382790  0.733138  1
  O  O14  1  0.040017  0.694433  0.306646  1
  O  O15  1  0.265581  0.649049  0.956732  1
  O  O16  1  0.297182  0.039543  0.681606  1
  O  O17  1  0.960457  0.257638  0.642063  1
  O  O18  1  0.742362  0.702818  0.384424  1
  O  O19  1  0.350951  0.616532  0.307683  1
  O  O20  1  0.617210  0.309596  0.350349  1
  O  O21  1  0.305567  0.345584  0.612213  1
  O  O22  1  0.653118  0.652025  0.001935  1
  O  O23  1  0.649325  0.000124  0.648029  1
  O  O24  1  0.998908  0.346882  0.348817  1
  O  O25  1  0.347975  0.001092  0.349909  1
  O  O26  1  0.999876  0.649201  0.647906  1
  O  O27  1  0.350799  0.350675  0.998705  1
  F  F28  1  0.000000  0.000000  0.027135  1
