# generated using pymatgen
data_Zr7Nb3Si4Ge2C
_symmetry_space_group_name_H-M   'P 1'
_cell_length_a   7.92770915
_cell_length_b   7.92889243
_cell_length_c   5.48222917
_cell_angle_alpha   89.98105138
_cell_angle_beta   89.99098810
_cell_angle_gamma   120.01522776
_symmetry_Int_Tables_number   1
_chemical_formula_structural   Zr7Nb3Si4Ge2C
_chemical_formula_sum   'Zr7 Nb3 Si4 Ge2 C1'
_cell_volume   298.38798871
_cell_formula_units_Z   1
loop_
 _symmetry_equiv_pos_site_id
 _symmetry_equiv_pos_as_xyz
  1  'x, y, z'
loop_
 _atom_site_type_symbol
 _atom_site_label
 _atom_site_symmetry_multiplicity
 _atom_site_fract_x
 _atom_site_fract_y
 _atom_site_fract_z
 _atom_site_occupancy
  Zr  Zr0  1  0.999316  0.755163  0.255975  1
  Zr  Zr1  1  0.243141  0.242376  0.256079  1
  Zr  Zr2  1  0.757463  0.000648  0.255884  1
  Zr  Zr3  1  0.999077  0.244638  0.743734  1
  Zr  Zr4  1  0.759385  0.755869  0.744443  1
  Zr  Zr5  1  0.241238  0.998159  0.744143  1
  Zr  Zr6  1  0.331426  0.666181  0.001142  1
  Nb  Nb7  1  0.669663  0.335505  0.002304  1
  Nb  Nb8  1  0.669240  0.335394  0.497922  1
  Nb  Nb9  1  0.330460  0.666025  0.497584  1
  Si  Si10  1  0.996710  0.398202  0.252318  1
  Si  Si11  1  0.601781  0.599125  0.252102  1
  Si  Si12  1  0.401724  0.004253  0.252022  1
  Si  Si13  1  0.996591  0.596789  0.747479  1
  Ge  Ge14  1  0.402264  0.398787  0.748428  1
  Ge  Ge15  1  0.600649  0.002668  0.748287  1
  C  C16  1  0.999870  0.000221  0.500154  1
