# generated using pymatgen
data_Y16MgHg3(IrPt)2
_symmetry_space_group_name_H-M   'P 1'
_cell_length_a   9.68396801
_cell_length_b   9.69184988
_cell_length_c   9.66641400
_cell_angle_alpha   60.08677857
_cell_angle_beta   60.05994514
_cell_angle_gamma   60.20382847
_symmetry_Int_Tables_number   1
_chemical_formula_structural   Y16MgHg3(IrPt)2
_chemical_formula_sum   'Y16 Mg1 Hg3 Ir2 Pt2'
_cell_volume   643.21635695
_cell_formula_units_Z   1
loop_
 _symmetry_equiv_pos_site_id
 _symmetry_equiv_pos_as_xyz
  1  'x, y, z'
loop_
 _atom_site_type_symbol
 _atom_site_label
 _atom_site_symmetry_multiplicity
 _atom_site_fract_x
 _atom_site_fract_y
 _atom_site_fract_z
 _atom_site_occupancy
  Y  Y0  1  0.601408  0.600142  0.595750  1
  Y  Y1  1  0.601408  0.600142  0.202699  1
  Y  Y2  1  0.607193  0.194415  0.599195  1
  Y  Y3  1  0.183912  0.609521  0.603283  1
  Y  Y4  1  0.054380  0.441786  0.442692  1
  Y  Y5  1  0.438216  0.058045  0.063675  1
  Y  Y6  1  0.438216  0.058045  0.440063  1
  Y  Y7  1  0.054380  0.441786  0.061141  1
  Y  Y8  1  0.439508  0.440440  0.060026  1
  Y  Y9  1  0.059086  0.059618  0.440647  1
  Y  Y10  1  0.186425  0.814593  0.811924  1
  Y  Y11  1  0.813354  0.188011  0.186637  1
  Y  Y12  1  0.813354  0.188011  0.811998  1
  Y  Y13  1  0.186425  0.814593  0.187059  1
  Y  Y14  1  0.812232  0.813787  0.186990  1
  Y  Y15  1  0.185792  0.188403  0.812903  1
  Mg  Mg16  1  0.535754  0.820556  0.821846  1
  Hg  Hg17  1  0.832568  0.837538  0.837679  1
  Hg  Hg18  1  0.832568  0.837538  0.492216  1
  Hg  Hg19  1  0.832429  0.491787  0.837892  1
  Ir  Ir20  1  0.388301  0.823229  0.394234  1
  Ir  Ir21  1  0.823623  0.391182  0.392598  1
  Pt  Pt22  1  0.389733  0.393416  0.396246  1
  Pt  Pt23  1  0.389733  0.393416  0.820604  1
