# generated using pymatgen
data_Y10Th2Os3Pt
_symmetry_space_group_name_H-M   'P 1'
_cell_length_a   6.44311001
_cell_length_b   7.35534485
_cell_length_c   9.41748300
_cell_angle_alpha   90.00000000
_cell_angle_beta   90.00000000
_cell_angle_gamma   90.03354852
_symmetry_Int_Tables_number   1
_chemical_formula_structural   Y10Th2Os3Pt
_chemical_formula_sum   'Y10 Th2 Os3 Pt1'
_cell_volume   446.30664812
_cell_formula_units_Z   1
loop_
 _symmetry_equiv_pos_site_id
 _symmetry_equiv_pos_as_xyz
  1  'x, y, z'
loop_
 _atom_site_type_symbol
 _atom_site_label
 _atom_site_symmetry_multiplicity
 _atom_site_fract_x
 _atom_site_fract_y
 _atom_site_fract_z
 _atom_site_occupancy
  Y  Y0  1  0.333282  0.671672  0.064647  1
  Y  Y1  1  0.174904  0.180169  0.436029  1
  Y  Y2  1  0.664556  0.324680  0.562633  1
  Y  Y3  1  0.831010  0.825410  0.933259  1
  Y  Y4  1  0.664556  0.324680  0.937367  1
  Y  Y5  1  0.831010  0.825410  0.566741  1
  Y  Y6  1  0.333282  0.671672  0.435353  1
  Y  Y7  1  0.174904  0.180169  0.063971  1
  Y  Y8  1  0.866547  0.531987  0.250000  1
  Y  Y9  1  0.629296  0.038827  0.250000  1
  Th  Th10  1  0.144428  0.453102  0.750000  1
  Th  Th11  1  0.350927  0.953538  0.750000  1
  Os  Os12  1  0.459209  0.381555  0.250000  1
  Os  Os13  1  0.963405  0.126671  0.750000  1
  Os  Os14  1  0.533688  0.626928  0.750000  1
  Pt  Pt15  1  0.044997  0.883532  0.250000  1
