# generated using pymatgen
data_Zr5CdSnBi2
_symmetry_space_group_name_H-M   'P 1'
_cell_length_a   8.90461365
_cell_length_b   8.90461318
_cell_length_c   5.99856900
_cell_angle_alpha   90.00000000
_cell_angle_beta   90.00000000
_cell_angle_gamma   119.82964994
_symmetry_Int_Tables_number   1
_chemical_formula_structural   Zr5CdSnBi2
_chemical_formula_sum   'Zr10 Cd2 Sn2 Bi4'
_cell_volume   412.62103692
_cell_formula_units_Z   2
loop_
 _symmetry_equiv_pos_site_id
 _symmetry_equiv_pos_as_xyz
  1  'x, y, z'
loop_
 _atom_site_type_symbol
 _atom_site_label
 _atom_site_symmetry_multiplicity
 _atom_site_fract_x
 _atom_site_fract_y
 _atom_site_fract_z
 _atom_site_occupancy
  Zr  Zr0  1  0.667262  0.330449  0.003119  1
  Zr  Zr1  1  0.330449  0.667262  0.003119  1
  Zr  Zr2  1  0.330449  0.667262  0.496881  1
  Zr  Zr3  1  0.667262  0.330449  0.496881  1
  Zr  Zr4  1  0.720834  0.720834  0.750000  1
  Zr  Zr5  1  0.279946  0.999539  0.750000  1
  Zr  Zr6  1  0.999539  0.279946  0.750000  1
  Zr  Zr7  1  0.281420  0.281420  0.250000  1
  Zr  Zr8  1  0.717684  0.005542  0.250000  1
  Zr  Zr9  1  0.005542  0.717684  0.250000  1
  Cd  Cd10  1  0.000343  0.000343  0.003934  1
  Cd  Cd11  1  0.000343  0.000343  0.496066  1
  Sn  Sn12  1  0.378691  0.000709  0.250000  1
  Sn  Sn13  1  0.000709  0.378691  0.250000  1
  Bi  Bi14  1  0.381183  0.381183  0.750000  1
  Bi  Bi15  1  0.618187  0.998851  0.750000  1
  Bi  Bi16  1  0.998851  0.618187  0.750000  1
  Bi  Bi17  1  0.621303  0.621303  0.250000  1
