# generated using pymatgen
data_Ce3Sc2Ir3
_symmetry_space_group_name_H-M   'P 1'
_cell_length_a   8.15075600
_cell_length_b   8.15075535
_cell_length_c   6.13124600
_cell_angle_alpha   90.00000000
_cell_angle_beta   90.00000000
_cell_angle_gamma   120.00000266
_symmetry_Int_Tables_number   1
_chemical_formula_structural   Ce3Sc2Ir3
_chemical_formula_sum   'Ce6 Sc4 Ir6'
_cell_volume   352.75657012
_cell_formula_units_Z   2
loop_
 _symmetry_equiv_pos_site_id
 _symmetry_equiv_pos_as_xyz
  1  'x, y, z'
loop_
 _atom_site_type_symbol
 _atom_site_label
 _atom_site_symmetry_multiplicity
 _atom_site_fract_x
 _atom_site_fract_y
 _atom_site_fract_z
 _atom_site_occupancy
  Ce  Ce0  1  0.258434  0.000000  0.250001  1
  Ce  Ce1  1  0.000000  0.258434  0.250001  1
  Ce  Ce2  1  0.741567  0.741566  0.250001  1
  Ce  Ce3  1  0.741567  0.000000  0.750001  1
  Ce  Ce4  1  0.258433  0.258434  0.750001  1
  Ce  Ce5  1  0.000000  0.741566  0.750001  1
  Sc  Sc6  1  0.666667  0.333334  0.000000  1
  Sc  Sc7  1  0.333333  0.666666  0.000000  1
  Sc  Sc8  1  0.666667  0.333334  0.500000  1
  Sc  Sc9  1  0.333333  0.666666  0.500000  1
  Ir  Ir10  1  0.607355  0.000000  0.250001  1
  Ir  Ir11  1  0.392645  0.392645  0.250001  1
  Ir  Ir12  1  0.000000  0.607355  0.250001  1
  Ir  Ir13  1  0.392645  0.000000  0.750001  1
  Ir  Ir14  1  0.000000  0.392645  0.750001  1
  Ir  Ir15  1  0.607355  0.607355  0.750001  1
