# generated using pymatgen
data_Tm4MnV3B16
_symmetry_space_group_name_H-M   'P 1'
_cell_length_a   3.41457000
_cell_length_b   5.94355143
_cell_length_c   11.49868577
_cell_angle_alpha   89.92044393
_cell_angle_beta   90.00000000
_cell_angle_gamma   90.00000000
_symmetry_Int_Tables_number   1
_chemical_formula_structural   Tm4MnV3B16
_chemical_formula_sum   'Tm4 Mn1 V3 B16'
_cell_volume   233.36183596
_cell_formula_units_Z   1
loop_
 _symmetry_equiv_pos_site_id
 _symmetry_equiv_pos_as_xyz
  1  'x, y, z'
loop_
 _atom_site_type_symbol
 _atom_site_label
 _atom_site_symmetry_multiplicity
 _atom_site_fract_x
 _atom_site_fract_y
 _atom_site_fract_z
 _atom_site_occupancy
  Tm  Tm0  1  0.500000  0.375621  0.150412  1
  Tm  Tm1  1  0.500000  0.625190  0.850773  1
  Tm  Tm2  1  0.500000  0.124353  0.651895  1
  Tm  Tm3  1  0.500000  0.876068  0.347034  1
  Mn  Mn4  1  0.500000  0.874888  0.081226  1
  V  V5  1  0.500000  0.372462  0.414631  1
  V  V6  1  0.500000  0.627590  0.582955  1
  V  V7  1  0.500000  0.125503  0.920113  1
  B  B8  1  0.000000  0.110383  0.049224  1
  B  B9  1  0.000000  0.883407  0.955205  1
  B  B10  1  0.000000  0.383796  0.547713  1
  B  B11  1  0.000000  0.615816  0.451566  1
  B  B12  1  0.000000  0.134176  0.467003  1
  B  B13  1  0.000000  0.865719  0.532563  1
  B  B14  1  0.000000  0.365552  0.969231  1
  B  B15  1  0.000000  0.637884  0.033307  1
  B  B16  1  0.000000  0.020667  0.190902  1
  B  B17  1  0.000000  0.975753  0.808539  1
  B  B18  1  0.000000  0.475422  0.693714  1
  B  B19  1  0.000000  0.526107  0.305256  1
  B  B20  1  0.000000  0.212654  0.312150  1
  B  B21  1  0.000000  0.786555  0.686994  1
  B  B22  1  0.000000  0.284984  0.815414  1
  B  B23  1  0.000000  0.719449  0.182178  1
