# generated using pymatgen
data_V2Sn(O3F)2
_symmetry_space_group_name_H-M   'P 1'
_cell_length_a   5.70710500
_cell_length_b   5.70710483
_cell_length_c   6.36040600
_cell_angle_alpha   90.00000000
_cell_angle_beta   90.00000000
_cell_angle_gamma   120.00000525
_symmetry_Int_Tables_number   1
_chemical_formula_structural   V2Sn(O3F)2
_chemical_formula_sum   'V2 Sn1 O6 F2'
_cell_volume   179.41021214
_cell_formula_units_Z   1
loop_
 _symmetry_equiv_pos_site_id
 _symmetry_equiv_pos_as_xyz
  1  'x, y, z'
loop_
 _atom_site_type_symbol
 _atom_site_label
 _atom_site_symmetry_multiplicity
 _atom_site_fract_x
 _atom_site_fract_y
 _atom_site_fract_z
 _atom_site_occupancy
  V  V0  1  0.333333  0.666667  0.271974  1
  V  V1  1  0.666666  0.333333  0.728026  1
  Sn  Sn2  1  0.000000  0.000000  0.000000  1
  O  O3  1  0.178576  0.338569  0.187533  1
  O  O4  1  0.159992  0.821423  0.187533  1
  O  O5  1  0.661431  0.840006  0.187533  1
  O  O6  1  0.338569  0.159992  0.812468  1
  O  O7  1  0.840008  0.178577  0.812468  1
  O  O8  1  0.821423  0.661431  0.812468  1
  F  F9  1  0.666666  0.333333  0.448412  1
  F  F10  1  0.333333  0.666667  0.551588  1
