# generated using pymatgen
data_YbGd3(IrOs3)2
_symmetry_space_group_name_H-M   'P 1'
_cell_length_a   5.25849500
_cell_length_b   5.25839425
_cell_length_c   9.07557300
_cell_angle_alpha   90.00045763
_cell_angle_beta   89.99994552
_cell_angle_gamma   119.99740665
_symmetry_Int_Tables_number   1
_chemical_formula_structural   YbGd3(IrOs3)2
_chemical_formula_sum   'Yb1 Gd3 Ir2 Os6'
_cell_volume   217.33548670
_cell_formula_units_Z   1
loop_
 _symmetry_equiv_pos_site_id
 _symmetry_equiv_pos_as_xyz
  1  'x, y, z'
loop_
 _atom_site_type_symbol
 _atom_site_label
 _atom_site_symmetry_multiplicity
 _atom_site_fract_x
 _atom_site_fract_y
 _atom_site_fract_z
 _atom_site_occupancy
  Yb  Yb0  1  0.666577  0.333442  0.935612  1
  Gd  Gd1  1  0.666636  0.333311  0.572690  1
  Gd  Gd2  1  0.333431  0.666657  0.431999  1
  Gd  Gd3  1  0.333357  0.666654  0.062176  1
  Ir  Ir4  1  0.000068  0.000024  0.498644  1
  Ir  Ir5  1  0.999912  0.000050  0.998376  1
  Os  Os6  1  0.170352  0.340862  0.750587  1
  Os  Os7  1  0.170525  0.829786  0.750519  1
  Os  Os8  1  0.659115  0.829607  0.750562  1
  Os  Os9  1  0.829151  0.658285  0.249650  1
  Os  Os10  1  0.829297  0.170629  0.249636  1
  Os  Os11  1  0.341579  0.170693  0.249548  1
