# generated using pymatgen
data_DyHoGa2NiIr
_symmetry_space_group_name_H-M   'P 1'
_cell_length_a   4.29790900
_cell_length_b   6.76444181
_cell_length_c   7.60580884
_cell_angle_alpha   90.08177009
_cell_angle_beta   90.00000000
_cell_angle_gamma   90.00000000
_symmetry_Int_Tables_number   1
_chemical_formula_structural   DyHoGa2NiIr
_chemical_formula_sum   'Dy2 Ho2 Ga4 Ni2 Ir2'
_cell_volume   221.12311551
_cell_formula_units_Z   2
loop_
 _symmetry_equiv_pos_site_id
 _symmetry_equiv_pos_as_xyz
  1  'x, y, z'
loop_
 _atom_site_type_symbol
 _atom_site_label
 _atom_site_symmetry_multiplicity
 _atom_site_fract_x
 _atom_site_fract_y
 _atom_site_fract_z
 _atom_site_occupancy
  Dy  Dy0  1  0.250000  0.523627  0.687553  1
  Dy  Dy1  1  0.750000  0.978972  0.188156  1
  Ho  Ho2  1  0.250000  0.024400  0.812278  1
  Ho  Ho3  1  0.750000  0.478780  0.311534  1
  Ga  Ga4  1  0.750000  0.343668  0.923048  1
  Ga  Ga5  1  0.250000  0.161553  0.439996  1
  Ga  Ga6  1  0.750000  0.843553  0.577217  1
  Ga  Ga7  1  0.250000  0.661892  0.060045  1
  Ni  Ni8  1  0.750000  0.720608  0.887668  1
  Ni  Ni9  1  0.750000  0.219490  0.612384  1
  Ir  Ir10  1  0.250000  0.272378  0.110295  1
  Ir  Ir11  1  0.250000  0.771076  0.389828  1
