# generated using pymatgen
data_Ho10OsPd5
_symmetry_space_group_name_H-M   'P 1'
_cell_length_a   11.05361500
_cell_length_b   11.05361500
_cell_length_c   6.39052800
_cell_angle_alpha   90.00000000
_cell_angle_beta   90.00000000
_cell_angle_gamma   90.00000000
_symmetry_Int_Tables_number   1
_chemical_formula_structural   Ho10OsPd5
_chemical_formula_sum   'Ho20 Os2 Pd10'
_cell_volume   780.81007750
_cell_formula_units_Z   2
loop_
 _symmetry_equiv_pos_site_id
 _symmetry_equiv_pos_as_xyz
  1  'x, y, z'
loop_
 _atom_site_type_symbol
 _atom_site_label
 _atom_site_symmetry_multiplicity
 _atom_site_fract_x
 _atom_site_fract_y
 _atom_site_fract_z
 _atom_site_occupancy
  Ho  Ho0  1  0.298960  0.085030  0.373874  1
  Ho  Ho1  1  0.298960  0.914970  0.873874  1
  Ho  Ho2  1  0.701040  0.085030  0.873874  1
  Ho  Ho3  1  0.701040  0.914970  0.373874  1
  Ho  Ho4  1  0.585030  0.798960  0.873874  1
  Ho  Ho5  1  0.585030  0.201040  0.373874  1
  Ho  Ho6  1  0.414970  0.798960  0.373874  1
  Ho  Ho7  1  0.414970  0.201040  0.873874  1
  Ho  Ho8  1  0.209179  0.410826  0.626205  1
  Ho  Ho9  1  0.209179  0.589174  0.126205  1
  Ho  Ho10  1  0.790821  0.410826  0.126205  1
  Ho  Ho11  1  0.790821  0.589174  0.626205  1
  Ho  Ho12  1  0.910826  0.709179  0.126205  1
  Ho  Ho13  1  0.910826  0.290821  0.626205  1
  Ho  Ho14  1  0.089174  0.709179  0.626205  1
  Ho  Ho15  1  0.089174  0.290821  0.126205  1
  Ho  Ho16  1  0.000000  0.000000  0.497166  1
  Ho  Ho17  1  0.000000  0.000000  0.997166  1
  Ho  Ho18  1  0.500000  0.500000  0.997166  1
  Ho  Ho19  1  0.500000  0.500000  0.497166  1
  Os  Os20  1  0.500000  0.000000  0.125607  1
  Os  Os21  1  0.500000  0.000000  0.625607  1
  Pd  Pd22  1  0.848572  0.155735  0.249733  1
  Pd  Pd23  1  0.848572  0.844265  0.749733  1
  Pd  Pd24  1  0.151428  0.155735  0.749733  1
  Pd  Pd25  1  0.151428  0.844265  0.249733  1
  Pd  Pd26  1  0.655735  0.348572  0.749733  1
  Pd  Pd27  1  0.655735  0.651428  0.249733  1
  Pd  Pd28  1  0.344265  0.348572  0.249733  1
  Pd  Pd29  1  0.344265  0.651428  0.749733  1
  Pd  Pd30  1  0.000000  0.500000  0.880818  1
  Pd  Pd31  1  0.000000  0.500000  0.380818  1
