# generated using pymatgen
data_Rb3Ba3ScAs4
_symmetry_space_group_name_H-M   'P 1'
_cell_length_a   10.94238900
_cell_length_b   10.94238888
_cell_length_c   8.10370300
_cell_angle_alpha   90.00000000
_cell_angle_beta   90.00000000
_cell_angle_gamma   119.99999735
_symmetry_Int_Tables_number   1
_chemical_formula_structural   Rb3Ba3ScAs4
_chemical_formula_sum   'Rb6 Ba6 Sc2 As8'
_cell_volume   840.30791428
_cell_formula_units_Z   2
loop_
 _symmetry_equiv_pos_site_id
 _symmetry_equiv_pos_as_xyz
  1  'x, y, z'
loop_
 _atom_site_type_symbol
 _atom_site_label
 _atom_site_symmetry_multiplicity
 _atom_site_fract_x
 _atom_site_fract_y
 _atom_site_fract_z
 _atom_site_occupancy
  Rb  Rb0  1  0.135008  0.864992  0.174410  1
  Rb  Rb1  1  0.270018  0.135008  0.674410  1
  Rb  Rb2  1  0.864992  0.729982  0.674410  1
  Rb  Rb3  1  0.135008  0.270018  0.174410  1
  Rb  Rb4  1  0.729982  0.864992  0.174410  1
  Rb  Rb5  1  0.864992  0.135008  0.674410  1
  Ba  Ba6  1  0.469543  0.939085  0.499046  1
  Ba  Ba7  1  0.530457  0.060915  0.999046  1
  Ba  Ba8  1  0.939085  0.469543  0.999046  1
  Ba  Ba9  1  0.469543  0.530457  0.499046  1
  Ba  Ba10  1  0.530457  0.469543  0.999046  1
  Ba  Ba11  1  0.060915  0.530457  0.499046  1
  Sc  Sc12  1  0.333333  0.666667  0.886676  1
  Sc  Sc13  1  0.666667  0.333333  0.386676  1
  As  As14  1  0.201958  0.798042  0.769962  1
  As  As15  1  0.403916  0.201958  0.269962  1
  As  As16  1  0.798042  0.596084  0.269962  1
  As  As17  1  0.201958  0.403916  0.769962  1
  As  As18  1  0.596084  0.798042  0.769962  1
  As  As19  1  0.798042  0.201958  0.269962  1
  As  As20  1  0.333333  0.666667  0.223749  1
  As  As21  1  0.666667  0.333333  0.723749  1
