# generated using pymatgen
data_Y11Cd8InPt4
_symmetry_space_group_name_H-M   'P 1'
_cell_length_a   13.15867300
_cell_length_b   13.15867232
_cell_length_c   3.69954600
_cell_angle_alpha   90.00000000
_cell_angle_beta   90.00000000
_cell_angle_gamma   111.68952915
_symmetry_Int_Tables_number   1
_chemical_formula_structural   Y11Cd8InPt4
_chemical_formula_sum   'Y11 Cd8 In1 Pt4'
_cell_volume   595.22595334
_cell_formula_units_Z   1
loop_
 _symmetry_equiv_pos_site_id
 _symmetry_equiv_pos_as_xyz
  1  'x, y, z'
loop_
 _atom_site_type_symbol
 _atom_site_label
 _atom_site_symmetry_multiplicity
 _atom_site_fract_x
 _atom_site_fract_y
 _atom_site_fract_z
 _atom_site_occupancy
  Y  Y0  1  0.076683  0.414728  0.000000  1
  Y  Y1  1  0.923317  0.585272  0.000000  1
  Y  Y2  1  0.414728  0.076683  0.000000  1
  Y  Y3  1  0.585272  0.923317  0.000000  1
  Y  Y4  1  0.627170  0.372830  0.000000  1
  Y  Y5  1  0.372830  0.627170  0.000000  1
  Y  Y6  1  0.836677  0.163323  0.000000  1
  Y  Y7  1  0.163323  0.836677  0.000000  1
  Y  Y8  1  0.000000  0.000000  0.000000  1
  Y  Y9  1  0.305525  0.305525  0.000000  1
  Y  Y10  1  0.694475  0.694475  0.000000  1
  Cd  Cd11  1  0.843352  0.365819  0.500000  1
  Cd  Cd12  1  0.156648  0.634181  0.500000  1
  Cd  Cd13  1  0.365819  0.843352  0.500000  1
  Cd  Cd14  1  0.634181  0.156648  0.500000  1
  Cd  Cd15  1  0.067805  0.213740  0.500000  1
  Cd  Cd16  1  0.932195  0.786260  0.500000  1
  Cd  Cd17  1  0.213740  0.067805  0.500000  1
  Cd  Cd18  1  0.786260  0.932195  0.500000  1
  In  In19  1  0.500000  0.500000  0.500000  1
  Pt  Pt20  1  0.248488  0.449348  0.500000  1
  Pt  Pt21  1  0.751512  0.550652  0.500000  1
  Pt  Pt22  1  0.449348  0.248488  0.500000  1
  Pt  Pt23  1  0.550652  0.751512  0.500000  1
