# generated using pymatgen
data_Li3Zn10
_symmetry_space_group_name_H-M   'P 1'
_cell_length_a   7.51915400
_cell_length_b   7.51915404
_cell_length_c   7.96504500
_cell_angle_alpha   90.00000000
_cell_angle_beta   90.00000000
_cell_angle_gamma   119.99999103
_symmetry_Int_Tables_number   1
_chemical_formula_structural   Li3Zn10
_chemical_formula_sum   'Li6 Zn20'
_cell_volume   389.99304884
_cell_formula_units_Z   2
loop_
 _symmetry_equiv_pos_site_id
 _symmetry_equiv_pos_as_xyz
  1  'x, y, z'
loop_
 _atom_site_type_symbol
 _atom_site_label
 _atom_site_symmetry_multiplicity
 _atom_site_fract_x
 _atom_site_fract_y
 _atom_site_fract_z
 _atom_site_occupancy
  Li  Li0  1  0.294752  0.315401  0.246738  1
  Li  Li1  1  0.020648  0.705248  0.246738  1
  Li  Li2  1  0.684600  0.979352  0.246738  1
  Li  Li3  1  0.315400  0.020648  0.746738  1
  Li  Li4  1  0.979352  0.294752  0.746738  1
  Li  Li5  1  0.705248  0.684600  0.746738  1
  Zn  Zn6  1  0.333333  0.666667  0.083920  1
  Zn  Zn7  1  0.351970  0.024241  0.081918  1
  Zn  Zn8  1  0.975760  0.327730  0.081918  1
  Zn  Zn9  1  0.672271  0.648031  0.081918  1
  Zn  Zn10  1  0.666667  0.333333  0.246526  1
  Zn  Zn11  1  0.353075  0.024813  0.411165  1
  Zn  Zn12  1  0.975187  0.328261  0.411165  1
  Zn  Zn13  1  0.671738  0.646926  0.411165  1
  Zn  Zn14  1  0.333333  0.666667  0.410625  1
  Zn  Zn15  1  0.000000  0.000000  0.491660  1
  Zn  Zn16  1  0.666667  0.333333  0.583920  1
  Zn  Zn17  1  0.327729  0.351969  0.581918  1
  Zn  Zn18  1  0.024241  0.672270  0.581918  1
  Zn  Zn19  1  0.648030  0.975760  0.581918  1
  Zn  Zn20  1  0.333333  0.666667  0.746525  1
  Zn  Zn21  1  0.328262  0.353075  0.911165  1
  Zn  Zn22  1  0.024812  0.671737  0.911165  1
  Zn  Zn23  1  0.646925  0.975187  0.911165  1
  Zn  Zn24  1  0.666667  0.333333  0.910625  1
  Zn  Zn25  1  0.000000  0.000000  0.991659  1
