# generated using pymatgen
data_MgNb6InSe12
_symmetry_space_group_name_H-M   'P 1'
_cell_length_a   6.07786100
_cell_length_b   6.07786123
_cell_length_c   14.93740400
_cell_angle_alpha   90.00000000
_cell_angle_beta   90.00000000
_cell_angle_gamma   120.00000421
_symmetry_Int_Tables_number   1
_chemical_formula_structural   MgNb6InSe12
_chemical_formula_sum   'Mg1 Nb6 In1 Se12'
_cell_volume   477.86726772
_cell_formula_units_Z   1
loop_
 _symmetry_equiv_pos_site_id
 _symmetry_equiv_pos_as_xyz
  1  'x, y, z'
loop_
 _atom_site_type_symbol
 _atom_site_label
 _atom_site_symmetry_multiplicity
 _atom_site_fract_x
 _atom_site_fract_y
 _atom_site_fract_z
 _atom_site_occupancy
  Mg  Mg0  1  0.000000  0.000000  0.500000  1
  Nb  Nb1  1  0.333333  0.666667  0.268854  1
  Nb  Nb2  1  0.000000  0.000000  0.269297  1
  Nb  Nb3  1  0.000000  0.000000  0.730703  1
  Nb  Nb4  1  0.333333  0.666667  0.731146  1
  Nb  Nb5  1  0.666667  0.333333  0.731146  1
  Nb  Nb6  1  0.666667  0.333333  0.268854  1
  In  In7  1  0.000000  0.000000  0.000000  1
  Se  Se8  1  0.000000  0.662223  0.618691  1
  Se  Se9  1  0.000000  0.667251  0.842174  1
  Se  Se10  1  0.000000  0.332749  0.157826  1
  Se  Se11  1  0.000000  0.337777  0.381309  1
  Se  Se12  1  0.337777  0.337777  0.618691  1
  Se  Se13  1  0.332749  0.332749  0.842174  1
  Se  Se14  1  0.667251  0.667251  0.157826  1
  Se  Se15  1  0.662223  0.662223  0.381309  1
  Se  Se16  1  0.332749  0.000000  0.157826  1
  Se  Se17  1  0.337777  0.000000  0.381309  1
  Se  Se18  1  0.662223  0.000000  0.618691  1
  Se  Se19  1  0.667251  0.000000  0.842174  1
