# generated using pymatgen
data_Ni8GeMo15C4
_symmetry_space_group_name_H-M   'P 1'
_cell_length_a   7.94807496
_cell_length_b   8.00716504
_cell_length_c   8.00716500
_cell_angle_alpha   60.00000429
_cell_angle_beta   59.75376633
_cell_angle_gamma   59.75375773
_symmetry_Int_Tables_number   1
_chemical_formula_structural   Ni8GeMo15C4
_chemical_formula_sum   'Ni8 Ge1 Mo15 C4'
_cell_volume   358.98645907
_cell_formula_units_Z   1
loop_
 _symmetry_equiv_pos_site_id
 _symmetry_equiv_pos_as_xyz
  1  'x, y, z'
loop_
 _atom_site_type_symbol
 _atom_site_label
 _atom_site_symmetry_multiplicity
 _atom_site_fract_x
 _atom_site_fract_y
 _atom_site_fract_z
 _atom_site_occupancy
  Ni  Ni0  1  0.909545  0.920594  0.249267  1
  Ni  Ni1  1  0.340455  0.329406  0.329406  1
  Ni  Ni2  1  0.246962  0.917679  0.917679  1
  Ni  Ni3  1  0.340455  0.000733  0.329406  1
  Ni  Ni4  1  0.003038  0.332321  0.332321  1
  Ni  Ni5  1  0.340455  0.329406  0.000733  1
  Ni  Ni6  1  0.909545  0.920594  0.920594  1
  Ni  Ni7  1  0.909545  0.249267  0.920594  1
  Ge  Ge8  1  0.625000  0.125000  0.125000  1
  Mo  Mo9  1  0.125000  0.125000  0.125000  1
  Mo  Mo10  1  0.688433  0.314081  0.314081  1
  Mo  Mo11  1  0.943687  0.941226  0.557543  1
  Mo  Mo12  1  0.688433  0.683405  0.314081  1
  Mo  Mo13  1  0.688433  0.314081  0.683405  1
  Mo  Mo14  1  0.306313  0.692457  0.308774  1
  Mo  Mo15  1  0.561567  0.935919  0.566595  1
  Mo  Mo16  1  0.561567  0.935919  0.935919  1
  Mo  Mo17  1  0.943687  0.557543  0.557543  1
  Mo  Mo18  1  0.943687  0.557543  0.941226  1
  Mo  Mo19  1  0.306313  0.308774  0.692457  1
  Mo  Mo20  1  0.561567  0.566595  0.935919  1
  Mo  Mo21  1  0.125000  0.125000  0.625000  1
  Mo  Mo22  1  0.125000  0.625000  0.125000  1
  Mo  Mo23  1  0.306313  0.692457  0.692457  1
  C  C24  1  0.625000  0.625000  0.625000  1
  C  C25  1  0.625000  0.625000  0.125000  1
  C  C26  1  0.125000  0.625000  0.625000  1
  C  C27  1  0.625000  0.125000  0.625000  1
