# generated using pymatgen
data_Tb5OsRhO12
_symmetry_space_group_name_H-M   'P 1'
_cell_length_a   6.91460525
_cell_length_b   6.91460559
_cell_length_c   7.41356824
_cell_angle_alpha   74.18491262
_cell_angle_beta   74.18491351
_cell_angle_gamma   49.94439837
_symmetry_Int_Tables_number   1
_chemical_formula_structural   Tb5OsRhO12
_chemical_formula_sum   'Tb5 Os1 Rh1 O12'
_cell_volume   258.75638741
_cell_formula_units_Z   1
loop_
 _symmetry_equiv_pos_site_id
 _symmetry_equiv_pos_as_xyz
  1  'x, y, z'
loop_
 _atom_site_type_symbol
 _atom_site_label
 _atom_site_symmetry_multiplicity
 _atom_site_fract_x
 _atom_site_fract_y
 _atom_site_fract_z
 _atom_site_occupancy
  Tb  Tb0  1  0.312679  0.288697  0.358710  1
  Tb  Tb1  1  0.711303  0.687321  0.641290  1
  Tb  Tb2  1  0.312195  0.306396  0.831335  1
  Tb  Tb3  1  0.693604  0.687805  0.168665  1
  Tb  Tb4  1  0.006518  0.993482  0.500000  1
  Os  Os5  1  0.226752  0.773248  0.000000  1
  Rh  Rh6  1  0.755702  0.244298  0.000000  1
  O  O7  1  0.907735  0.435774  0.914734  1
  O  O8  1  0.413247  0.908754  0.914764  1
  O  O9  1  0.091246  0.586753  0.085236  1
  O  O10  1  0.564226  0.092265  0.085266  1
  O  O11  1  0.105908  0.593423  0.569736  1
  O  O12  1  0.601554  0.089801  0.575998  1
  O  O13  1  0.910199  0.398446  0.424002  1
  O  O14  1  0.406577  0.894092  0.430264  1
  O  O15  1  0.002172  0.996681  0.807629  1
  O  O16  1  0.003319  0.997828  0.192371  1
  O  O17  1  0.488029  0.512964  0.821693  1
  O  O18  1  0.487036  0.511971  0.178307  1
