# generated using pymatgen
data_Nd3Mg2CdGa2Hg
_symmetry_space_group_name_H-M   'P 1'
_cell_length_a   7.56750990
_cell_length_b   7.58644020
_cell_length_c   4.53083100
_cell_angle_alpha   90.00000000
_cell_angle_beta   90.00000000
_cell_angle_gamma   120.08277601
_symmetry_Int_Tables_number   1
_chemical_formula_structural   Nd3Mg2CdGa2Hg
_chemical_formula_sum   'Nd3 Mg2 Cd1 Ga2 Hg1'
_cell_volume   225.07988236
_cell_formula_units_Z   1
loop_
 _symmetry_equiv_pos_site_id
 _symmetry_equiv_pos_as_xyz
  1  'x, y, z'
loop_
 _atom_site_type_symbol
 _atom_site_label
 _atom_site_symmetry_multiplicity
 _atom_site_fract_x
 _atom_site_fract_y
 _atom_site_fract_z
 _atom_site_occupancy
  Nd  Nd0  1  0.000000  0.428461  0.000000  1
  Nd  Nd1  1  0.577134  0.576204  0.000000  1
  Nd  Nd2  1  0.422866  0.999070  0.000000  1
  Mg  Mg3  1  0.245958  0.244742  0.500000  1
  Mg  Mg4  1  0.754042  0.998783  0.500000  1
  Cd  Cd5  1  0.000000  0.747306  0.500000  1
  Ga  Ga6  1  0.664519  0.331213  0.500000  1
  Ga  Ga7  1  0.335481  0.666695  0.500000  1
  Hg  Hg8  1  0.000000  0.007527  0.000000  1
