# generated using pymatgen
data_Ho5Tm(Sc2Sn3)2
_symmetry_space_group_name_H-M   'P 1'
_cell_length_a   6.25799000
_cell_length_b   8.75737040
_cell_length_c   8.76230200
_cell_angle_alpha   120.01615280
_cell_angle_beta   89.99933691
_cell_angle_gamma   90.00034946
_symmetry_Int_Tables_number   1
_chemical_formula_structural   Ho5Tm(Sc2Sn3)2
_chemical_formula_sum   'Ho5 Tm1 Sc4 Sn6'
_cell_volume   415.80214119
_cell_formula_units_Z   1
loop_
 _symmetry_equiv_pos_site_id
 _symmetry_equiv_pos_as_xyz
  1  'x, y, z'
loop_
 _atom_site_type_symbol
 _atom_site_label
 _atom_site_symmetry_multiplicity
 _atom_site_fract_x
 _atom_site_fract_y
 _atom_site_fract_z
 _atom_site_occupancy
  Ho  Ho0  1  0.750001  0.238640  0.999799  1
  Ho  Ho1  1  0.750001  0.761279  0.761135  1
  Ho  Ho2  1  0.750004  0.999992  0.239096  1
  Ho  Ho3  1  0.250004  0.761228  0.999929  1
  Ho  Ho4  1  0.250000  0.238831  0.238767  1
  Tm  Tm5  1  0.250002  0.000026  0.761039  1
  Sc  Sc6  1  0.499956  0.333356  0.666739  1
  Sc  Sc7  1  0.499958  0.666644  0.333327  1
  Sc  Sc8  1  0.000032  0.666642  0.333323  1
  Sc  Sc9  1  0.000036  0.333359  0.666735  1
  Sn  Sn10  1  0.749989  0.600265  0.999954  1
  Sn  Sn11  1  0.749986  0.399706  0.399688  1
  Sn  Sn12  1  0.749994  0.999995  0.600334  1
  Sn  Sn13  1  0.250007  0.399052  0.999529  1
  Sn  Sn14  1  0.250011  0.600970  0.600498  1
  Sn  Sn15  1  0.250012  0.000017  0.400106  1
