# generated using pymatgen
data_Th2BeGaCl2
_symmetry_space_group_name_H-M   'P 1'
_cell_length_a   3.89745700
_cell_length_b   3.89745608
_cell_length_c   12.09216900
_cell_angle_alpha   90.00000000
_cell_angle_beta   90.00000000
_cell_angle_gamma   119.99999931
_symmetry_Int_Tables_number   1
_chemical_formula_structural   Th2BeGaCl2
_chemical_formula_sum   'Th2 Be1 Ga1 Cl2'
_cell_volume   159.07334201
_cell_formula_units_Z   1
loop_
 _symmetry_equiv_pos_site_id
 _symmetry_equiv_pos_as_xyz
  1  'x, y, z'
loop_
 _atom_site_type_symbol
 _atom_site_label
 _atom_site_symmetry_multiplicity
 _atom_site_fract_x
 _atom_site_fract_y
 _atom_site_fract_z
 _atom_site_occupancy
  Th  Th0  1  0.000000  0.000000  0.828359  1
  Th  Th1  1  0.000000  0.000000  0.173278  1
  Be  Be2  1  0.333333  0.666667  0.993195  1
  Ga  Ga3  1  0.666667  0.333333  0.004437  1
  Cl  Cl4  1  0.666667  0.333333  0.670492  1
  Cl  Cl5  1  0.333333  0.666667  0.330239  1
