# generated using pymatgen
data_HoPa7(ZnRh)8
_symmetry_space_group_name_H-M   'P 1'
_cell_length_a   3.81385600
_cell_length_b   7.37075807
_cell_length_c   16.34712477
_cell_angle_alpha   90.31339012
_cell_angle_beta   90.00000000
_cell_angle_gamma   90.00000000
_symmetry_Int_Tables_number   1
_chemical_formula_structural   HoPa7(ZnRh)8
_chemical_formula_sum   'Ho1 Pa7 Zn8 Rh8'
_cell_volume   459.52731177
_cell_formula_units_Z   1
loop_
 _symmetry_equiv_pos_site_id
 _symmetry_equiv_pos_as_xyz
  1  'x, y, z'
loop_
 _atom_site_type_symbol
 _atom_site_label
 _atom_site_symmetry_multiplicity
 _atom_site_fract_x
 _atom_site_fract_y
 _atom_site_fract_z
 _atom_site_occupancy
  Ho  Ho0  1  0.250000  0.554706  0.787044  1
  Pa  Pa1  1  0.250000  0.168592  0.938936  1
  Pa  Pa2  1  0.250000  0.675760  0.561296  1
  Pa  Pa3  1  0.750000  0.336248  0.439627  1
  Pa  Pa4  1  0.750000  0.941964  0.285084  1
  Pa  Pa5  1  0.750000  0.829114  0.061533  1
  Pa  Pa6  1  0.750000  0.440385  0.215502  1
  Pa  Pa7  1  0.250000  0.053914  0.715337  1
  Zn  Zn8  1  0.750000  0.013837  0.557202  1
  Zn  Zn9  1  0.250000  0.612710  0.343784  1
  Zn  Zn10  1  0.750000  0.392445  0.659127  1
  Zn  Zn11  1  0.250000  0.492279  0.062162  1
  Zn  Zn12  1  0.750000  0.503881  0.937189  1
  Zn  Zn13  1  0.250000  0.997363  0.438523  1
  Zn  Zn14  1  0.250000  0.113786  0.156024  1
  Zn  Zn15  1  0.750000  0.870985  0.843959  1
  Rh  Rh16  1  0.750000  0.736944  0.440530  1
  Rh  Rh17  1  0.250000  0.241354  0.314312  1
  Rh  Rh18  1  0.750000  0.230514  0.815621  1
  Rh  Rh19  1  0.750000  0.776052  0.677816  1
  Rh  Rh20  1  0.250000  0.272727  0.557455  1
  Rh  Rh21  1  0.250000  0.742274  0.187176  1
  Rh  Rh22  1  0.750000  0.234401  0.057324  1
  Rh  Rh23  1  0.250000  0.767766  0.947434  1
