# generated using pymatgen
data_Y2ThSb3
_symmetry_space_group_name_H-M   'P 1'
_cell_length_a   4.44074100
_cell_length_b   4.44074167
_cell_length_c   10.77138400
_cell_angle_alpha   90.00000000
_cell_angle_beta   90.00000000
_cell_angle_gamma   120.00000247
_symmetry_Int_Tables_number   1
_chemical_formula_structural   Y2ThSb3
_chemical_formula_sum   'Y2 Th1 Sb3'
_cell_volume   183.95562978
_cell_formula_units_Z   1
loop_
 _symmetry_equiv_pos_site_id
 _symmetry_equiv_pos_as_xyz
  1  'x, y, z'
loop_
 _atom_site_type_symbol
 _atom_site_label
 _atom_site_symmetry_multiplicity
 _atom_site_fract_x
 _atom_site_fract_y
 _atom_site_fract_z
 _atom_site_occupancy
  Y  Y0  1  0.333333  0.666667  0.660559  1
  Y  Y1  1  0.666667  0.333333  0.339441  1
  Th  Th2  1  0.000000  0.000000  0.000000  1
  Sb  Sb3  1  0.333333  0.666667  0.173988  1
  Sb  Sb4  1  0.666667  0.333333  0.826012  1
  Sb  Sb5  1  0.000000  0.000000  0.500000  1
