# generated using pymatgen
data_PaPd7Pt
_symmetry_space_group_name_H-M   'P 1'
_cell_length_a   6.33923237
_cell_length_b   6.33923212
_cell_length_c   6.32673400
_cell_angle_alpha   96.20183508
_cell_angle_beta   96.20183572
_cell_angle_gamma   141.66185975
_symmetry_Int_Tables_number   1
_chemical_formula_structural   PaPd7Pt
_chemical_formula_sum   'Pa1 Pd7 Pt1'
_cell_volume   148.92872007
_cell_formula_units_Z   1
loop_
 _symmetry_equiv_pos_site_id
 _symmetry_equiv_pos_as_xyz
  1  'x, y, z'
loop_
 _atom_site_type_symbol
 _atom_site_label
 _atom_site_symmetry_multiplicity
 _atom_site_fract_x
 _atom_site_fract_y
 _atom_site_fract_z
 _atom_site_occupancy
  Pa  Pa0  1  0.000182  0.999818  0.000000  1
  Pd  Pd1  1  0.332900  0.667101  0.000000  1
  Pd  Pd2  1  0.331928  0.999943  0.331871  1
  Pd  Pd3  1  0.999785  0.331376  0.331161  1
  Pd  Pd4  1  0.667620  0.667804  0.335424  1
  Pd  Pd5  1  0.332197  0.332381  0.664577  1
  Pd  Pd6  1  0.668624  0.000215  0.668839  1
  Pd  Pd7  1  0.000057  0.668072  0.668129  1
  Pt  Pt8  1  0.666709  0.333292  0.000000  1
