# generated using pymatgen
data_Ca6LaPa(Si3Pd)4
_symmetry_space_group_name_H-M   'P 1'
_cell_length_a   8.24536700
_cell_length_b   8.24536600
_cell_length_c   8.40352100
_cell_angle_alpha   90.00000000
_cell_angle_beta   90.00000000
_cell_angle_gamma   119.99999197
_symmetry_Int_Tables_number   1
_chemical_formula_structural   Ca6LaPa(Si3Pd)4
_chemical_formula_sum   'Ca6 La1 Pa1 Si12 Pd4'
_cell_volume   494.77971443
_cell_formula_units_Z   1
loop_
 _symmetry_equiv_pos_site_id
 _symmetry_equiv_pos_as_xyz
  1  'x, y, z'
loop_
 _atom_site_type_symbol
 _atom_site_label
 _atom_site_symmetry_multiplicity
 _atom_site_fract_x
 _atom_site_fract_y
 _atom_site_fract_z
 _atom_site_occupancy
  Ca  Ca0  1  0.501295  0.002588  0.250000  1
  Ca  Ca1  1  0.498606  0.997215  0.750000  1
  Ca  Ca2  1  0.997412  0.498705  0.250000  1
  Ca  Ca3  1  0.002785  0.501394  0.750000  1
  Ca  Ca4  1  0.501295  0.498705  0.250000  1
  Ca  Ca5  1  0.498606  0.501394  0.750000  1
  La  La6  1  0.000000  0.000000  0.250000  1
  Pa  Pa7  1  0.000000  0.000000  0.750000  1
  Si  Si8  1  0.164760  0.329520  0.994479  1
  Si  Si9  1  0.835320  0.670639  0.991986  1
  Si  Si10  1  0.670480  0.835240  0.994479  1
  Si  Si11  1  0.835320  0.670639  0.508014  1
  Si  Si12  1  0.329361  0.164680  0.991986  1
  Si  Si13  1  0.164760  0.329520  0.505521  1
  Si  Si14  1  0.164760  0.835240  0.994479  1
  Si  Si15  1  0.329361  0.164680  0.508014  1
  Si  Si16  1  0.835320  0.164680  0.991986  1
  Si  Si17  1  0.670480  0.835240  0.505521  1
  Si  Si18  1  0.835320  0.164680  0.508014  1
  Si  Si19  1  0.164760  0.835240  0.505521  1
  Pd  Pd20  1  0.333333  0.666667  0.001649  1
  Pd  Pd21  1  0.666667  0.333333  0.996147  1
  Pd  Pd22  1  0.666667  0.333333  0.503853  1
  Pd  Pd23  1  0.333333  0.666667  0.498351  1
