# generated using pymatgen
data_Ca5V3(Ni4As3)4
_symmetry_space_group_name_H-M   'P 1'
_cell_length_a   12.68847200
_cell_length_b   12.68847156
_cell_length_c   3.90582300
_cell_angle_alpha   90.00000000
_cell_angle_beta   90.00000000
_cell_angle_gamma   120.00000637
_symmetry_Int_Tables_number   1
_chemical_formula_structural   Ca5V3(Ni4As3)4
_chemical_formula_sum   'Ca5 V3 Ni16 As12'
_cell_volume   544.58013909
_cell_formula_units_Z   1
loop_
 _symmetry_equiv_pos_site_id
 _symmetry_equiv_pos_as_xyz
  1  'x, y, z'
loop_
 _atom_site_type_symbol
 _atom_site_label
 _atom_site_symmetry_multiplicity
 _atom_site_fract_x
 _atom_site_fract_y
 _atom_site_fract_z
 _atom_site_occupancy
  Ca  Ca0  1  0.187998  0.187998  0.500000  1
  Ca  Ca1  1  0.812002  0.000000  0.500000  1
  Ca  Ca2  1  0.000000  0.812002  0.500000  1
  Ca  Ca3  1  0.333333  0.666667  0.000000  1
  Ca  Ca4  1  0.666667  0.333333  0.000000  1
  V  V5  1  0.563396  0.563396  0.000000  1
  V  V6  1  0.436604  0.000000  0.000000  1
  V  V7  1  0.000000  0.436604  0.000000  1
  Ni  Ni8  1  0.718647  0.718647  0.500000  1
  Ni  Ni9  1  0.281353  0.000000  0.500000  1
  Ni  Ni10  1  0.000000  0.281353  0.500000  1
  Ni  Ni11  1  0.182741  0.379537  0.000000  1
  Ni  Ni12  1  0.620463  0.803204  0.000000  1
  Ni  Ni13  1  0.196796  0.817259  0.000000  1
  Ni  Ni14  1  0.803204  0.620463  0.000000  1
  Ni  Ni15  1  0.817259  0.196796  0.000000  1
  Ni  Ni16  1  0.379537  0.182741  0.000000  1
  Ni  Ni17  1  0.359994  0.482282  0.500000  1
  Ni  Ni18  1  0.517718  0.877713  0.500000  1
  Ni  Ni19  1  0.122287  0.640006  0.500000  1
  Ni  Ni20  1  0.877713  0.517718  0.500000  1
  Ni  Ni21  1  0.640006  0.122287  0.500000  1
  Ni  Ni22  1  0.482282  0.359994  0.500000  1
  Ni  Ni23  1  0.000000  0.000000  0.000000  1
  As  As24  1  0.820436  0.820436  0.000000  1
  As  As25  1  0.179564  0.000000  0.000000  1
  As  As26  1  0.000000  0.179564  0.000000  1
  As  As27  1  0.164864  0.479319  0.500000  1
  As  As28  1  0.520681  0.685544  0.500000  1
  As  As29  1  0.314456  0.835136  0.500000  1
  As  As30  1  0.685544  0.520681  0.500000  1
  As  As31  1  0.835136  0.314456  0.500000  1
  As  As32  1  0.479319  0.164864  0.500000  1
  As  As33  1  0.367736  0.367736  0.000000  1
  As  As34  1  0.632264  0.000000  0.000000  1
  As  As35  1  0.000000  0.632264  0.000000  1
