# generated using pymatgen
data_LaNd2Ho2P12Ru19
_symmetry_space_group_name_H-M   'P 1'
_cell_length_a   12.60053301
_cell_length_b   12.60143489
_cell_length_c   4.01423100
_cell_angle_alpha   90.00000000
_cell_angle_beta   90.00000000
_cell_angle_gamma   120.00236214
_symmetry_Int_Tables_number   1
_chemical_formula_structural   LaNd2Ho2P12Ru19
_chemical_formula_sum   'La1 Nd2 Ho2 P12 Ru19'
_cell_volume   551.99045853
_cell_formula_units_Z   1
loop_
 _symmetry_equiv_pos_site_id
 _symmetry_equiv_pos_as_xyz
  1  'x, y, z'
loop_
 _atom_site_type_symbol
 _atom_site_label
 _atom_site_symmetry_multiplicity
 _atom_site_fract_x
 _atom_site_fract_y
 _atom_site_fract_z
 _atom_site_occupancy
  La  La0  1  0.000000  0.182942  0.500000  1
  Nd  Nd1  1  0.815671  0.815589  0.500000  1
  Nd  Nd2  1  0.184329  0.999918  0.500000  1
  Ho  Ho3  1  0.667197  0.334188  0.000000  1
  Ho  Ho4  1  0.332803  0.666992  0.000000  1
  P  P5  1  0.000000  0.812165  0.000000  1
  P  P6  1  0.190329  0.188378  0.000000  1
  P  P7  1  0.809671  0.998049  0.000000  1
  P  P8  1  0.695676  0.174283  0.500000  1
  P  P9  1  0.826235  0.521811  0.500000  1
  P  P10  1  0.479816  0.304754  0.500000  1
  P  P11  1  0.173765  0.695576  0.500000  1
  P  P12  1  0.520184  0.824938  0.500000  1
  P  P13  1  0.304324  0.478607  0.500000  1
  P  P14  1  0.000000  0.375250  0.000000  1
  P  P15  1  0.626029  0.625860  0.000000  1
  P  P16  1  0.373971  0.999831  0.000000  1
  Ru  Ru17  1  0.000000  0.554863  0.000000  1
  Ru  Ru18  1  0.446637  0.445970  0.000000  1
  Ru  Ru19  1  0.553363  0.999333  0.000000  1
  Ru  Ru20  1  0.000000  0.713621  0.500000  1
  Ru  Ru21  1  0.288427  0.287317  0.500000  1
  Ru  Ru22  1  0.711573  0.998890  0.500000  1
  Ru  Ru23  1  0.803561  0.185182  0.000000  1
  Ru  Ru24  1  0.814613  0.619551  0.000000  1
  Ru  Ru25  1  0.382068  0.195598  0.000000  1
  Ru  Ru26  1  0.185387  0.804938  0.000000  1
  Ru  Ru27  1  0.617932  0.813530  0.000000  1
  Ru  Ru28  1  0.196439  0.381621  0.000000  1
  Ru  Ru29  1  0.874111  0.368296  0.500000  1
  Ru  Ru30  1  0.632410  0.506500  0.500000  1
  Ru  Ru31  1  0.494292  0.125815  0.500000  1
  Ru  Ru32  1  0.367590  0.874090  0.500000  1
  Ru  Ru33  1  0.505708  0.631524  0.500000  1
  Ru  Ru34  1  0.125889  0.494184  0.500000  1
  Ru  Ru35  1  0.000000  0.000045  0.000000  1
