# generated using pymatgen
data_Yb7Y(HoIr2)2
_symmetry_space_group_name_H-M   'P 1'
_cell_length_a   6.50938645
_cell_length_b   7.33928119
_cell_length_c   8.55142826
_cell_angle_alpha   96.89044662
_cell_angle_beta   112.94403546
_cell_angle_gamma   90.35327947
_symmetry_Int_Tables_number   1
_chemical_formula_structural   Yb7Y(HoIr2)2
_chemical_formula_sum   'Yb7 Y1 Ho2 Ir4'
_cell_volume   372.87288977
_cell_formula_units_Z   1
loop_
 _symmetry_equiv_pos_site_id
 _symmetry_equiv_pos_as_xyz
  1  'x, y, z'
loop_
 _atom_site_type_symbol
 _atom_site_label
 _atom_site_symmetry_multiplicity
 _atom_site_fract_x
 _atom_site_fract_y
 _atom_site_fract_z
 _atom_site_occupancy
  Yb  Yb0  1  0.798031  0.575890  0.822791  1
  Yb  Yb1  1  0.026374  0.079827  0.822426  1
  Yb  Yb2  1  0.193320  0.418763  0.170838  1
  Yb  Yb3  1  0.638478  0.819695  0.433349  1
  Yb  Yb4  1  0.204412  0.681501  0.564632  1
  Yb  Yb5  1  0.362867  0.178181  0.565740  1
  Yb  Yb6  1  0.800814  0.318418  0.435088  1
  Y  Y7  1  0.972013  0.918415  0.165467  1
  Ho  Ho8  1  0.428166  0.748508  0.999095  1
  Ho  Ho9  1  0.564146  0.252387  0.001825  1
  Ir  Ir10  1  0.815131  0.583503  0.213837  1
  Ir  Ir11  1  0.614912  0.927299  0.806196  1
  Ir  Ir12  1  0.189246  0.423577  0.785935  1
  Ir  Ir13  1  0.392091  0.074038  0.212780  1
