# generated using pymatgen
data_Be3BW3
_symmetry_space_group_name_H-M   'P 1'
_cell_length_a   4.56424154
_cell_length_b   4.56424044
_cell_length_c   10.87167000
_cell_angle_alpha   90.00000000
_cell_angle_beta   90.00000000
_cell_angle_gamma   138.47863779
_symmetry_Int_Tables_number   1
_chemical_formula_structural   Be3BW3
_chemical_formula_sum   'Be6 B2 W6'
_cell_volume   150.13464415
_cell_formula_units_Z   2
loop_
 _symmetry_equiv_pos_site_id
 _symmetry_equiv_pos_as_xyz
  1  'x, y, z'
loop_
 _atom_site_type_symbol
 _atom_site_label
 _atom_site_symmetry_multiplicity
 _atom_site_fract_x
 _atom_site_fract_y
 _atom_site_fract_z
 _atom_site_occupancy
  Be  Be0  1  0.081608  0.918392  0.598368  1
  Be  Be1  1  0.918392  0.081608  0.401632  1
  Be  Be2  1  0.918392  0.081608  0.098368  1
  Be  Be3  1  0.081608  0.918392  0.901632  1
  Be  Be4  1  0.500000  0.500000  0.000000  1
  Be  Be5  1  0.500000  0.500000  0.500000  1
  B  B6  1  0.790107  0.209893  0.250000  1
  B  B7  1  0.209893  0.790107  0.750000  1
  W  W8  1  0.503314  0.496686  0.250000  1
  W  W9  1  0.496686  0.503314  0.750000  1
  W  W10  1  0.789643  0.210357  0.608393  1
  W  W11  1  0.210357  0.789643  0.391607  1
  W  W12  1  0.210357  0.789643  0.108393  1
  W  W13  1  0.789643  0.210357  0.891607  1
