# generated using pymatgen
data_Dy3Ho17FeNi3Sb8
_symmetry_space_group_name_H-M   'P 1'
_cell_length_a   7.87677113
_cell_length_b   8.76302700
_cell_length_c   12.11859007
_cell_angle_alpha   90.00000000
_cell_angle_beta   89.96395918
_cell_angle_gamma   90.00000000
_symmetry_Int_Tables_number   1
_chemical_formula_structural   Dy3Ho17FeNi3Sb8
_chemical_formula_sum   'Dy3 Ho17 Fe1 Ni3 Sb8'
_cell_volume   836.47773447
_cell_formula_units_Z   1
loop_
 _symmetry_equiv_pos_site_id
 _symmetry_equiv_pos_as_xyz
  1  'x, y, z'
loop_
 _atom_site_type_symbol
 _atom_site_label
 _atom_site_symmetry_multiplicity
 _atom_site_fract_x
 _atom_site_fract_y
 _atom_site_fract_z
 _atom_site_occupancy
  Dy  Dy0  1  0.873711  0.250000  0.802690  1
  Dy  Dy1  1  0.122824  0.750000  0.194870  1
  Dy  Dy2  1  0.846565  0.750000  0.798749  1
  Ho  Ho3  1  0.319648  0.539260  0.432843  1
  Ho  Ho4  1  0.178846  0.542770  0.935845  1
  Ho  Ho5  1  0.319648  0.960740  0.432843  1
  Ho  Ho6  1  0.374399  0.750000  0.694249  1
  Ho  Ho7  1  0.954770  0.750000  0.501319  1
  Ho  Ho8  1  0.456734  0.250000  0.998402  1
  Ho  Ho9  1  0.678778  0.459719  0.565902  1
  Ho  Ho10  1  0.821655  0.033278  0.064720  1
  Ho  Ho11  1  0.660981  0.750000  0.290007  1
  Ho  Ho12  1  0.546612  0.750000  0.001866  1
  Ho  Ho13  1  0.044352  0.250000  0.500407  1
  Ho  Ho14  1  0.678778  0.040281  0.565902  1
  Ho  Ho15  1  0.178846  0.957230  0.935845  1
  Ho  Ho16  1  0.625617  0.250000  0.304994  1
  Ho  Ho17  1  0.340485  0.250000  0.708305  1
  Ho  Ho18  1  0.821655  0.466722  0.064720  1
  Ho  Ho19  1  0.155990  0.250000  0.204408  1
  Fe  Fe20  1  0.928208  0.750000  0.013224  1
  Ni  Ni21  1  0.569324  0.750000  0.508095  1
  Ni  Ni22  1  0.072920  0.250000  0.986933  1
  Ni  Ni23  1  0.429149  0.250000  0.490408  1
  Sb  Sb24  1  0.929293  0.490457  0.328273  1
  Sb  Sb25  1  0.429515  0.507290  0.173238  1
  Sb  Sb26  1  0.429515  0.992710  0.173238  1
  Sb  Sb27  1  0.569841  0.492589  0.826750  1
  Sb  Sb28  1  0.071103  0.508795  0.672966  1
  Sb  Sb29  1  0.569841  0.007411  0.826750  1
  Sb  Sb30  1  0.929293  0.009543  0.328273  1
  Sb  Sb31  1  0.071103  0.991205  0.672966  1
