# generated using pymatgen
data_CdCu2Pd3
_symmetry_space_group_name_H-M   'P 1'
_cell_length_a   3.04498800
_cell_length_b   3.04498800
_cell_length_c   9.68750300
_cell_angle_alpha   90.00000000
_cell_angle_beta   90.00000000
_cell_angle_gamma   90.00000000
_symmetry_Int_Tables_number   1
_chemical_formula_structural   CdCu2Pd3
_chemical_formula_sum   'Cd1 Cu2 Pd3'
_cell_volume   89.82206204
_cell_formula_units_Z   1
loop_
 _symmetry_equiv_pos_site_id
 _symmetry_equiv_pos_as_xyz
  1  'x, y, z'
loop_
 _atom_site_type_symbol
 _atom_site_label
 _atom_site_symmetry_multiplicity
 _atom_site_fract_x
 _atom_site_fract_y
 _atom_site_fract_z
 _atom_site_occupancy
  Cd  Cd0  1  0.000000  0.000000  0.500000  1
  Cu  Cu1  1  0.000000  0.000000  0.153041  1
  Cu  Cu2  1  0.000000  0.000000  0.846959  1
  Pd  Pd3  1  0.499999  0.499999  0.000000  1
  Pd  Pd4  1  0.499999  0.499999  0.308832  1
  Pd  Pd5  1  0.499999  0.499999  0.691168  1
