# generated using pymatgen
data_Yb3Er(Ru2O7)2
_symmetry_space_group_name_H-M   'P 1'
_cell_length_a   7.21268190
_cell_length_b   7.21268278
_cell_length_c   7.21268250
_cell_angle_alpha   60.15992280
_cell_angle_beta   60.15992008
_cell_angle_gamma   60.15991543
_symmetry_Int_Tables_number   1
_chemical_formula_structural   Yb3Er(Ru2O7)2
_chemical_formula_sum   'Yb3 Er1 Ru4 O14'
_cell_volume   266.28435102
_cell_formula_units_Z   1
loop_
 _symmetry_equiv_pos_site_id
 _symmetry_equiv_pos_as_xyz
  1  'x, y, z'
loop_
 _atom_site_type_symbol
 _atom_site_label
 _atom_site_symmetry_multiplicity
 _atom_site_fract_x
 _atom_site_fract_y
 _atom_site_fract_z
 _atom_site_occupancy
  Yb  Yb0  1  0.625000  0.125000  0.125000  1
  Yb  Yb1  1  0.125000  0.125000  0.625000  1
  Yb  Yb2  1  0.125000  0.625000  0.125000  1
  Er  Er3  1  0.125000  0.125000  0.125000  1
  Ru  Ru4  1  0.625000  0.625000  0.625000  1
  Ru  Ru5  1  0.125000  0.625000  0.625000  1
  Ru  Ru6  1  0.625000  0.625000  0.125000  1
  Ru  Ru7  1  0.625000  0.125000  0.625000  1
  O  O8  1  0.003120  0.003120  0.003120  1
  O  O9  1  0.246880  0.246880  0.246880  1
  O  O10  1  0.296333  0.296333  0.704127  1
  O  O11  1  0.552950  0.552950  0.948116  1
  O  O12  1  0.697050  0.301884  0.697050  1
  O  O13  1  0.704127  0.296333  0.296333  1
  O  O14  1  0.301884  0.697050  0.697050  1
  O  O15  1  0.296333  0.704127  0.296333  1
  O  O16  1  0.697050  0.697050  0.301884  1
  O  O17  1  0.948116  0.552950  0.552950  1
  O  O18  1  0.545873  0.953667  0.953667  1
  O  O19  1  0.953667  0.953667  0.545873  1
  O  O20  1  0.953667  0.545873  0.953667  1
  O  O21  1  0.552950  0.948116  0.552950  1
