# generated using pymatgen
data_TbDy3(SbO4)4
_symmetry_space_group_name_H-M   'P 1'
_cell_length_a   5.40429530
_cell_length_b   7.67592935
_cell_length_c   7.57067416
_cell_angle_alpha   80.98609100
_cell_angle_beta   90.37813895
_cell_angle_gamma   92.05995383
_symmetry_Int_Tables_number   1
_chemical_formula_structural   TbDy3(SbO4)4
_chemical_formula_sum   'Tb1 Dy3 Sb4 O16'
_cell_volume   309.97513220
_cell_formula_units_Z   1
loop_
 _symmetry_equiv_pos_site_id
 _symmetry_equiv_pos_as_xyz
  1  'x, y, z'
loop_
 _atom_site_type_symbol
 _atom_site_label
 _atom_site_symmetry_multiplicity
 _atom_site_fract_x
 _atom_site_fract_y
 _atom_site_fract_z
 _atom_site_occupancy
  Tb  Tb0  1  0.263727  0.133276  0.612699  1
  Dy  Dy1  1  0.736029  0.867026  0.386529  1
  Dy  Dy2  1  0.212631  0.157339  0.108088  1
  Dy  Dy3  1  0.786753  0.842146  0.891793  1
  Sb  Sb4  1  0.239514  0.663315  0.194885  1
  Sb  Sb5  1  0.760579  0.336878  0.805447  1
  Sb  Sb6  1  0.725285  0.335630  0.307596  1
  Sb  Sb7  1  0.274676  0.664419  0.691955  1
  O  O8  1  0.087313  0.435262  0.690870  1
  O  O9  1  0.912945  0.564591  0.309473  1
  O  O10  1  0.612064  0.325877  0.560222  1
  O  O11  1  0.389729  0.674421  0.439719  1
  O  O12  1  0.872603  0.331967  0.060959  1
  O  O13  1  0.128325  0.669735  0.938682  1
  O  O14  1  0.400744  0.430877  0.196548  1
  O  O15  1  0.598467  0.568817  0.804302  1
  O  O16  1  0.040674  0.884932  0.173899  1
  O  O17  1  0.958598  0.114611  0.827535  1
  O  O18  1  0.508598  0.111677  0.322833  1
  O  O19  1  0.491902  0.887816  0.676845  1
  O  O20  1  0.466978  0.187210  0.878241  1
  O  O21  1  0.533300  0.813245  0.122370  1
  O  O22  1  0.990651  0.167327  0.379654  1
  O  O23  1  0.007915  0.831605  0.618857  1
