# generated using pymatgen
data_Ba2NdGaS5
_symmetry_space_group_name_H-M   'P 1'
_cell_length_a   7.19577242
_cell_length_b   8.62098670
_cell_length_c   9.29749547
_cell_angle_alpha   103.88852575
_cell_angle_beta   103.01093819
_cell_angle_gamma   107.78280773
_symmetry_Int_Tables_number   1
_chemical_formula_structural   Ba2NdGaS5
_chemical_formula_sum   'Ba4 Nd2 Ga2 S10'
_cell_volume   504.60126840
_cell_formula_units_Z   2
loop_
 _symmetry_equiv_pos_site_id
 _symmetry_equiv_pos_as_xyz
  1  'x, y, z'
loop_
 _atom_site_type_symbol
 _atom_site_label
 _atom_site_symmetry_multiplicity
 _atom_site_fract_x
 _atom_site_fract_y
 _atom_site_fract_z
 _atom_site_occupancy
  Ba  Ba0  1  0.633111  0.978070  0.294097  1
  Ba  Ba1  1  0.366889  0.021930  0.705903  1
  Ba  Ba2  1  0.334857  0.508113  0.701091  1
  Ba  Ba3  1  0.665143  0.491887  0.298909  1
  Nd  Nd4  1  0.996031  0.730447  0.996593  1
  Nd  Nd5  1  0.003969  0.269553  0.003407  1
  Ga  Ga6  1  0.807109  0.871937  0.686933  1
  Ga  Ga7  1  0.192891  0.128063  0.313067  1
  S  S8  1  0.989620  0.694322  0.681967  1
  S  S9  1  0.010380  0.305678  0.318033  1
  S  S10  1  0.986120  0.142795  0.687598  1
  S  S11  1  0.013880  0.857205  0.312402  1
  S  S12  1  0.708215  0.904430  0.915325  1
  S  S13  1  0.291785  0.095570  0.084675  1
  S  S14  1  0.703756  0.409404  0.948186  1
  S  S15  1  0.296244  0.590596  0.051814  1
  S  S16  1  0.499931  0.744060  0.495646  1
  S  S17  1  0.500069  0.255940  0.504354  1
