# generated using pymatgen
data_Er3Mg2CdSi2Au
_symmetry_space_group_name_H-M   'P 1'
_cell_length_a   7.22274200
_cell_length_b   7.15706548
_cell_length_c   4.31421900
_cell_angle_alpha   90.00000000
_cell_angle_beta   90.00000000
_cell_angle_gamma   120.30402195
_symmetry_Int_Tables_number   1
_chemical_formula_structural   Er3Mg2CdSi2Au
_chemical_formula_sum   'Er3 Mg2 Cd1 Si2 Au1'
_cell_volume   192.54456752
_cell_formula_units_Z   1
loop_
 _symmetry_equiv_pos_site_id
 _symmetry_equiv_pos_as_xyz
  1  'x, y, z'
loop_
 _atom_site_type_symbol
 _atom_site_label
 _atom_site_symmetry_multiplicity
 _atom_site_fract_x
 _atom_site_fract_y
 _atom_site_fract_z
 _atom_site_occupancy
  Er  Er0  1  0.580374  0.000000  0.000000  1
  Er  Er1  1  0.000670  0.582820  0.000000  1
  Er  Er2  1  0.417850  0.417180  0.000000  1
  Mg  Mg3  1  0.000637  0.245904  0.500000  1
  Mg  Mg4  1  0.754733  0.754096  0.500000  1
  Cd  Cd5  1  0.253285  0.000000  0.500000  1
  Si  Si6  1  0.333996  0.663510  0.500000  1
  Si  Si7  1  0.670487  0.336490  0.500000  1
  Au  Au8  1  0.987968  0.000000  0.000000  1
