# generated using pymatgen
data_K8ScMn3S4(O4F3)4
_symmetry_space_group_name_H-M   'P 1'
_cell_length_a   11.02287500
_cell_length_b   7.40239475
_cell_length_c   8.61656500
_cell_angle_alpha   87.58202785
_cell_angle_beta   90.00000000
_cell_angle_gamma   90.00000000
_symmetry_Int_Tables_number   1
_chemical_formula_structural   K8ScMn3S4(O4F3)4
_chemical_formula_sum   'K8 Sc1 Mn3 S4 O16 F12'
_cell_volume   702.44842682
_cell_formula_units_Z   1
loop_
 _symmetry_equiv_pos_site_id
 _symmetry_equiv_pos_as_xyz
  1  'x, y, z'
loop_
 _atom_site_type_symbol
 _atom_site_label
 _atom_site_symmetry_multiplicity
 _atom_site_fract_x
 _atom_site_fract_y
 _atom_site_fract_z
 _atom_site_occupancy
  K  K0  1  0.808362  0.182598  0.663609  1
  K  K1  1  0.808291  0.689111  0.333380  1
  K  K2  1  0.305036  0.816302  0.834152  1
  K  K3  1  0.191638  0.817402  0.336391  1
  K  K4  1  0.191709  0.310889  0.666620  1
  K  K5  1  0.306164  0.313123  0.167150  1
  K  K6  1  0.693836  0.686877  0.832850  1
  K  K7  1  0.694964  0.183698  0.165848  1
  Sc  Sc8  1  0.500000  0.000000  0.500000  1
  Mn  Mn9  1  0.000000  0.500000  0.000000  1
  Mn  Mn10  1  0.500000  0.500000  0.500000  1
  Mn  Mn11  1  0.000000  0.000000  0.000000  1
  S  S12  1  0.500472  0.747452  0.188153  1
  S  S13  1  0.999468  0.252531  0.310920  1
  S  S14  1  0.499528  0.252548  0.811847  1
  S  S15  1  0.000532  0.747469  0.689080  1
  O  O16  1  0.598843  0.830293  0.095255  1
  O  O17  1  0.099465  0.171643  0.402560  1
  O  O18  1  0.401157  0.169707  0.904745  1
  O  O19  1  0.900535  0.828357  0.597440  1
  O  O20  1  0.407395  0.660388  0.095596  1
  O  O21  1  0.907932  0.341302  0.405154  1
  O  O22  1  0.592605  0.339612  0.904404  1
  O  O23  1  0.092068  0.658698  0.594846  1
  O  O24  1  0.560730  0.607573  0.299842  1
  O  O25  1  0.059717  0.394513  0.199402  1
  O  O26  1  0.439270  0.392427  0.700158  1
  O  O27  1  0.940283  0.605487  0.800598  1
  O  O28  1  0.938986  0.114436  0.214492  1
  O  O29  1  0.559425  0.113700  0.713260  1
  O  O30  1  0.440575  0.886300  0.286740  1
  O  O31  1  0.061014  0.885564  0.785508  1
  F  F32  1  0.837042  0.976965  0.946223  1
  F  F33  1  0.326291  0.023428  0.559336  1
  F  F34  1  0.162958  0.023035  0.053777  1
  F  F35  1  0.673709  0.976572  0.440664  1
  F  F36  1  0.000444  0.237130  0.889694  1
  F  F37  1  0.500182  0.753732  0.616209  1
  F  F38  1  0.999556  0.762870  0.110306  1
  F  F39  1  0.499818  0.246268  0.383791  1
  F  F40  1  0.163087  0.522698  0.939049  1
  F  F41  1  0.836913  0.477302  0.060951  1
  F  F42  1  0.337469  0.524329  0.439121  1
  F  F43  1  0.662531  0.475671  0.560879  1
