# generated using pymatgen
data_Y4Ga18Ni2Ru3Rh
_symmetry_space_group_name_H-M   'P 1'
_cell_length_a   7.53553402
_cell_length_b   7.53553379
_cell_length_c   9.55850726
_cell_angle_alpha   90.08420861
_cell_angle_beta   90.08421151
_cell_angle_gamma   120.50233537
_symmetry_Int_Tables_number   1
_chemical_formula_structural   Y4Ga18Ni2Ru3Rh
_chemical_formula_sum   'Y4 Ga18 Ni2 Ru3 Rh1'
_cell_volume   467.65565078
_cell_formula_units_Z   1
loop_
 _symmetry_equiv_pos_site_id
 _symmetry_equiv_pos_as_xyz
  1  'x, y, z'
loop_
 _atom_site_type_symbol
 _atom_site_label
 _atom_site_symmetry_multiplicity
 _atom_site_fract_x
 _atom_site_fract_y
 _atom_site_fract_z
 _atom_site_occupancy
  Y  Y0  1  0.995938  0.661647  0.249498  1
  Y  Y1  1  0.004423  0.338579  0.750719  1
  Y  Y2  1  0.661421  0.995577  0.249281  1
  Y  Y3  1  0.338353  0.004062  0.750502  1
  Ga  Ga4  1  0.329854  0.331697  0.561051  1
  Ga  Ga5  1  0.668303  0.670146  0.438949  1
  Ga  Ga6  1  0.666735  0.666548  0.060467  1
  Ga  Ga7  1  0.333452  0.333265  0.939533  1
  Ga  Ga8  1  0.336758  0.544375  0.250561  1
  Ga  Ga9  1  0.664169  0.456782  0.750520  1
  Ga  Ga10  1  0.543218  0.335831  0.249480  1
  Ga  Ga11  1  0.455625  0.663242  0.749439  1
  Ga  Ga12  1  0.001031  0.327791  0.077349  1
  Ga  Ga13  1  0.999469  0.672040  0.923442  1
  Ga  Ga14  1  0.000284  0.671702  0.576348  1
  Ga  Ga15  1  0.328298  0.999716  0.423652  1
  Ga  Ga16  1  0.000948  0.328965  0.423462  1
  Ga  Ga17  1  0.671035  0.999052  0.576538  1
  Ga  Ga18  1  0.672209  0.998969  0.922651  1
  Ga  Ga19  1  0.327960  0.000531  0.076558  1
  Ga  Ga20  1  0.115793  0.114754  0.250607  1
  Ga  Ga21  1  0.885246  0.884207  0.749393  1
  Ni  Ni22  1  0.000245  0.999755  0.000000  1
  Ni  Ni23  1  0.999948  0.000052  0.500000  1
  Ru  Ru24  1  0.673233  0.326767  0.000000  1
  Ru  Ru25  1  0.327049  0.672951  0.000000  1
  Ru  Ru26  1  0.327352  0.672648  0.500000  1
  Rh  Rh27  1  0.671648  0.328352  0.500000  1
