# generated using pymatgen
data_Tm8InHg3
_symmetry_space_group_name_H-M   'P 1'
_cell_length_a   5.10173800
_cell_length_b   6.83558006
_cell_length_c   9.23853222
_cell_angle_alpha   89.59594122
_cell_angle_beta   90.00000000
_cell_angle_gamma   90.00000000
_symmetry_Int_Tables_number   1
_chemical_formula_structural   Tm8InHg3
_chemical_formula_sum   'Tm8 In1 Hg3'
_cell_volume   322.17045028
_cell_formula_units_Z   1
loop_
 _symmetry_equiv_pos_site_id
 _symmetry_equiv_pos_as_xyz
  1  'x, y, z'
loop_
 _atom_site_type_symbol
 _atom_site_label
 _atom_site_symmetry_multiplicity
 _atom_site_fract_x
 _atom_site_fract_y
 _atom_site_fract_z
 _atom_site_occupancy
  Tm  Tm0  1  0.250000  0.822219  0.927259  1
  Tm  Tm1  1  0.250000  0.331949  0.577911  1
  Tm  Tm2  1  0.750000  0.170221  0.064750  1
  Tm  Tm3  1  0.750000  0.687462  0.427350  1
  Tm  Tm4  1  0.250000  0.978347  0.295182  1
  Tm  Tm5  1  0.250000  0.477186  0.203222  1
  Tm  Tm6  1  0.750000  0.018889  0.705093  1
  Tm  Tm7  1  0.750000  0.520154  0.800611  1
  In  In8  1  0.750000  0.226022  0.395292  1
  Hg  Hg9  1  0.250000  0.266728  0.899345  1
  Hg  Hg10  1  0.250000  0.773067  0.602166  1
  Hg  Hg11  1  0.750000  0.727754  0.101820  1
