# generated using pymatgen
data_AcTmFe3Re14C3
_symmetry_space_group_name_H-M   'P 1'
_cell_length_a   6.96303452
_cell_length_b   6.96303655
_cell_length_c   6.96303523
_cell_angle_alpha   82.77447805
_cell_angle_beta   82.77446313
_cell_angle_gamma   82.77447482
_symmetry_Int_Tables_number   1
_chemical_formula_structural   AcTmFe3Re14C3
_chemical_formula_sum   'Ac1 Tm1 Fe3 Re14 C3'
_cell_volume   330.17417470
_cell_formula_units_Z   1
loop_
 _symmetry_equiv_pos_site_id
 _symmetry_equiv_pos_as_xyz
  1  'x, y, z'
loop_
 _atom_site_type_symbol
 _atom_site_label
 _atom_site_symmetry_multiplicity
 _atom_site_fract_x
 _atom_site_fract_y
 _atom_site_fract_z
 _atom_site_occupancy
  Ac  Ac0  1  0.647246  0.647246  0.647246  1
  Tm  Tm1  1  0.349383  0.349383  0.349383  1
  Fe  Fe2  1  0.997195  0.997195  0.501744  1
  Fe  Fe3  1  0.501744  0.997195  0.997195  1
  Fe  Fe4  1  0.997195  0.501744  0.997195  1
  Re  Re5  1  0.721824  0.276510  0.001719  1
  Re  Re6  1  0.001719  0.721824  0.276510  1
  Re  Re7  1  0.276510  0.001719  0.721824  1
  Re  Re8  1  0.001719  0.276510  0.721824  1
  Re  Re9  1  0.721824  0.001719  0.276510  1
  Re  Re10  1  0.276510  0.721824  0.001719  1
  Re  Re11  1  0.343301  0.343301  0.869187  1
  Re  Re12  1  0.869187  0.343301  0.343301  1
  Re  Re13  1  0.343301  0.869187  0.343301  1
  Re  Re14  1  0.653247  0.653247  0.140491  1
  Re  Re15  1  0.140491  0.653247  0.653247  1
  Re  Re16  1  0.653247  0.140491  0.653247  1
  Re  Re17  1  0.900143  0.900143  0.900143  1
  Re  Re18  1  0.101664  0.101664  0.101664  1
  C  C19  1  0.492008  0.492008  0.018536  1
  C  C20  1  0.018536  0.492008  0.492008  1
  C  C21  1  0.492008  0.018536  0.492008  1
