# generated using pymatgen
data_Cs12In8Bi7Sb5
_symmetry_space_group_name_H-M   'P 1'
_cell_length_a   11.87884885
_cell_length_b   11.89312985
_cell_length_c   17.06374991
_cell_angle_alpha   89.81265153
_cell_angle_beta   90.07622226
_cell_angle_gamma   141.91983742
_symmetry_Int_Tables_number   1
_chemical_formula_structural   Cs12In8Bi7Sb5
_chemical_formula_sum   'Cs12 In8 Bi7 Sb5'
_cell_volume   1486.82675966
_cell_formula_units_Z   1
loop_
 _symmetry_equiv_pos_site_id
 _symmetry_equiv_pos_as_xyz
  1  'x, y, z'
loop_
 _atom_site_type_symbol
 _atom_site_label
 _atom_site_symmetry_multiplicity
 _atom_site_fract_x
 _atom_site_fract_y
 _atom_site_fract_z
 _atom_site_occupancy
  Cs  Cs0  1  0.610608  0.929029  0.666643  1
  Cs  Cs1  1  0.572435  0.887910  0.167420  1
  Cs  Cs2  1  0.071561  0.388763  0.332526  1
  Cs  Cs3  1  0.111914  0.427661  0.830793  1
  Cs  Cs4  1  0.656387  0.656511  0.865783  1
  Cs  Cs5  1  0.427409  0.112153  0.832418  1
  Cs  Cs6  1  0.342942  0.342843  0.135533  1
  Cs  Cs7  1  0.929805  0.609772  0.667418  1
  Cs  Cs8  1  0.159139  0.160884  0.635681  1
  Cs  Cs9  1  0.888131  0.572176  0.169059  1
  Cs  Cs10  1  0.843507  0.841824  0.364299  1
  Cs  Cs11  1  0.387930  0.072276  0.333280  1
  In  In12  1  0.235450  0.755439  0.499700  1
  In  In13  1  0.259744  0.739548  0.000046  1
  In  In14  1  0.740105  0.260311  0.999817  1
  In  In15  1  0.918168  0.081928  0.999940  1
  In  In16  1  0.763720  0.243811  0.500100  1
  In  In17  1  0.081819  0.918126  0.999841  1
  In  In18  1  0.412953  0.579982  0.500071  1
  In  In19  1  0.585431  0.418275  0.498111  1
  Bi  Bi20  1  0.050154  0.396753  0.091919  1
  Bi  Bi21  1  0.662537  0.661738  0.612631  1
  Bi  Bi22  1  0.396150  0.049309  0.092116  1
  Bi  Bi23  1  0.603637  0.950568  0.907777  1
  Bi  Bi24  1  0.949751  0.603076  0.907990  1
  Bi  Bi25  1  0.447990  0.100663  0.590960  1
  Bi  Bi26  1  0.550224  0.898455  0.408324  1
  Sb  Sb27  1  0.158589  0.158447  0.889929  1
  Sb  Sb28  1  0.102311  0.451340  0.588109  1
  Sb  Sb29  1  0.841032  0.841224  0.109871  1
  Sb  Sb30  1  0.341949  0.342554  0.390758  1
  Sb  Sb31  1  0.896521  0.546651  0.411135  1
