# generated using pymatgen
data_Pt2(IBr)3
_symmetry_space_group_name_H-M   'P 1'
_cell_length_a   6.89040143
_cell_length_b   6.89040249
_cell_length_c   13.15328577
_cell_angle_alpha   84.24926049
_cell_angle_beta   84.24926122
_cell_angle_gamma   119.33982272
_symmetry_Int_Tables_number   1
_chemical_formula_structural   Pt2(IBr)3
_chemical_formula_sum   'Pt4 I6 Br6'
_cell_volume   533.55885218
_cell_formula_units_Z   2
loop_
 _symmetry_equiv_pos_site_id
 _symmetry_equiv_pos_as_xyz
  1  'x, y, z'
loop_
 _atom_site_type_symbol
 _atom_site_label
 _atom_site_symmetry_multiplicity
 _atom_site_fract_x
 _atom_site_fract_y
 _atom_site_fract_z
 _atom_site_occupancy
  Pt  Pt0  1  0.909475  0.090525  0.250000  1
  Pt  Pt1  1  0.091552  0.908448  0.750000  1
  Pt  Pt2  1  0.500741  0.000253  0.504687  1
  Pt  Pt3  1  0.999747  0.499259  0.995313  1
  I  I4  1  0.844593  0.343934  0.380637  1
  I  I5  1  0.656066  0.155407  0.119363  1
  I  I6  1  0.742374  0.550396  0.873862  1
  I  I7  1  0.449604  0.257626  0.626138  1
  I  I8  1  0.253404  0.446898  0.119482  1
  I  I9  1  0.553102  0.746595  0.380518  1
  Br  Br10  1  0.180106  0.059377  0.357452  1
  Br  Br11  1  0.940623  0.819894  0.142548  1
  Br  Br12  1  0.827173  0.941688  0.641610  1
  Br  Br13  1  0.058312  0.172827  0.858390  1
  Br  Br14  1  0.168385  0.675256  0.624176  1
  Br  Br15  1  0.324744  0.831615  0.875824  1
