# generated using pymatgen
data_Li4Y3ScPt4
_symmetry_space_group_name_H-M   'P 1'
_cell_length_a   3.98570200
_cell_length_b   6.94593241
_cell_length_c   8.40895000
_cell_angle_alpha   91.11276596
_cell_angle_beta   90.00000000
_cell_angle_gamma   90.00000000
_symmetry_Int_Tables_number   1
_chemical_formula_structural   Li4Y3ScPt4
_chemical_formula_sum   'Li4 Y3 Sc1 Pt4'
_cell_volume   232.75297279
_cell_formula_units_Z   1
loop_
 _symmetry_equiv_pos_site_id
 _symmetry_equiv_pos_as_xyz
  1  'x, y, z'
loop_
 _atom_site_type_symbol
 _atom_site_label
 _atom_site_symmetry_multiplicity
 _atom_site_fract_x
 _atom_site_fract_y
 _atom_site_fract_z
 _atom_site_occupancy
  Li  Li0  1  0.250000  0.879848  0.947721  1
  Li  Li1  1  0.250000  0.370106  0.554785  1
  Li  Li2  1  0.750000  0.124261  0.059506  1
  Li  Li3  1  0.750000  0.628330  0.440053  1
  Y  Y4  1  0.250000  0.455496  0.184363  1
  Y  Y5  1  0.750000  0.045759  0.672979  1
  Y  Y6  1  0.750000  0.551573  0.824184  1
  Sc  Sc7  1  0.250000  0.949414  0.323374  1
  Pt  Pt8  1  0.250000  0.257509  0.872658  1
  Pt  Pt9  1  0.250000  0.753430  0.615932  1
  Pt  Pt10  1  0.750000  0.757080  0.136850  1
  Pt  Pt11  1  0.750000  0.227196  0.367594  1
