# generated using pymatgen
data_Y3Al2(ReN4)3
_symmetry_space_group_name_H-M   'P 1'
_cell_length_a   10.78904378
_cell_length_b   10.78904351
_cell_length_c   10.78904400
_cell_angle_alpha   109.47122156
_cell_angle_beta   109.47122105
_cell_angle_gamma   109.47122074
_symmetry_Int_Tables_number   1
_chemical_formula_structural   Y3Al2(ReN4)3
_chemical_formula_sum   'Y12 Al8 Re12 N48'
_cell_volume   966.77845966
_cell_formula_units_Z   4
loop_
 _symmetry_equiv_pos_site_id
 _symmetry_equiv_pos_as_xyz
  1  'x, y, z'
loop_
 _atom_site_type_symbol
 _atom_site_label
 _atom_site_symmetry_multiplicity
 _atom_site_fract_x
 _atom_site_fract_y
 _atom_site_fract_z
 _atom_site_occupancy
  Y  Y0  1  0.250000  0.375000  0.125000  1
  Y  Y1  1  0.375001  0.750000  0.125000  1
  Y  Y2  1  0.375000  0.125000  0.250000  1
  Y  Y3  1  0.875000  0.625000  0.250000  1
  Y  Y4  1  0.750000  0.125000  0.375001  1
  Y  Y5  1  0.125000  0.250000  0.375000  1
  Y  Y6  1  0.875000  0.750000  0.625000  1
  Y  Y7  1  0.250000  0.875000  0.625000  1
  Y  Y8  1  0.125000  0.375001  0.750000  1
  Y  Y9  1  0.625000  0.875000  0.750000  1
  Y  Y10  1  0.625000  0.250000  0.875000  1
  Y  Y11  1  0.750000  0.625000  0.875000  1
  Al  Al12  1  0.000000  0.000000  0.000000  1
  Al  Al13  1  0.500000  0.000000  0.000000  1
  Al  Al14  1  0.000000  0.500000  0.000000  1
  Al  Al15  1  0.500000  0.500000  0.000000  1
  Al  Al16  1  0.000000  0.000000  0.500000  1
  Al  Al17  1  0.500000  0.000000  0.500000  1
  Al  Al18  1  0.000000  0.500000  0.500000  1
  Al  Al19  1  0.500000  0.500000  0.500000  1
  Re  Re20  1  0.875000  0.250000  0.125000  1
  Re  Re21  1  0.750000  0.874999  0.125000  1
  Re  Re22  1  0.625000  0.375000  0.250000  1
  Re  Re23  1  0.125000  0.875000  0.250000  1
  Re  Re24  1  0.250000  0.625000  0.375000  1
  Re  Re25  1  0.625000  0.750000  0.375000  1
  Re  Re26  1  0.375000  0.250000  0.625000  1
  Re  Re27  1  0.750000  0.375000  0.625000  1
  Re  Re28  1  0.874999  0.125000  0.750000  1
  Re  Re29  1  0.375000  0.625000  0.750000  1
  Re  Re30  1  0.250000  0.125000  0.875000  1
  Re  Re31  1  0.125000  0.750000  0.874999  1
  N  N32  1  0.318197  0.902739  0.019133  1
  N  N33  1  0.200937  0.116395  0.019133  1
  N  N34  1  0.883606  0.402739  0.084542  1
  N  N35  1  0.700936  0.681803  0.084542  1
  N  N36  1  0.616394  0.415457  0.097261  1
  N  N37  1  0.980867  0.681804  0.097261  1
  N  N38  1  0.597261  0.915458  0.116395  1
  N  N39  1  0.019133  0.200937  0.116395  1
  N  N40  1  0.200937  0.584542  0.181803  1
  N  N41  1  0.480867  0.597261  0.181803  1
  N  N42  1  0.116395  0.019133  0.200937  1
  N  N43  1  0.584542  0.181803  0.200937  1
  N  N44  1  0.480867  0.383606  0.299064  1
  N  N45  1  0.318196  0.915458  0.299064  1
  N  N46  1  0.902739  0.019133  0.318197  1
  N  N47  1  0.915458  0.299064  0.318196  1
  N  N48  1  0.299064  0.480867  0.383606  1
  N  N49  1  0.584542  0.902739  0.383606  1
  N  N50  1  0.818196  0.519133  0.402739  1
  N  N51  1  0.084542  0.883606  0.402739  1
  N  N52  1  0.097261  0.616394  0.415457  1
  N  N53  1  0.818197  0.799064  0.415458  1
  N  N54  1  0.597261  0.181803  0.480867  1
  N  N55  1  0.383606  0.299064  0.480867  1
  N  N56  1  0.616395  0.700937  0.519134  1
  N  N57  1  0.402739  0.818196  0.519133  1
  N  N58  1  0.181803  0.200937  0.584542  1
  N  N59  1  0.902739  0.383606  0.584542  1
  N  N60  1  0.915458  0.116395  0.597261  1
  N  N61  1  0.181803  0.480867  0.597261  1
  N  N62  1  0.415457  0.097261  0.616394  1
  N  N63  1  0.700937  0.519134  0.616395  1
  N  N64  1  0.084542  0.700936  0.681803  1
  N  N65  1  0.097261  0.980867  0.681804  1
  N  N66  1  0.681803  0.084542  0.700936  1
  N  N67  1  0.519134  0.616395  0.700937  1
  N  N68  1  0.415458  0.818197  0.799064  1
  N  N69  1  0.883606  0.980867  0.799064  1
  N  N70  1  0.519133  0.402739  0.818196  1
  N  N71  1  0.799064  0.415458  0.818197  1
  N  N72  1  0.402739  0.084542  0.883606  1
  N  N73  1  0.980867  0.799064  0.883606  1
  N  N74  1  0.019133  0.318197  0.902739  1
  N  N75  1  0.383606  0.584542  0.902739  1
  N  N76  1  0.299064  0.318196  0.915458  1
  N  N77  1  0.116395  0.597261  0.915458  1
  N  N78  1  0.681804  0.097261  0.980867  1
  N  N79  1  0.799064  0.883606  0.980867  1
