# generated using pymatgen
data_Nd2Th2MnNi13
_symmetry_space_group_name_H-M   'P 1'
_cell_length_a   4.99278524
_cell_length_b   4.99278562
_cell_length_c   12.71208049
_cell_angle_alpha   78.74874616
_cell_angle_beta   78.74874549
_cell_angle_gamma   60.69901439
_symmetry_Int_Tables_number   1
_chemical_formula_structural   Nd2Th2MnNi13
_chemical_formula_sum   'Nd2 Th2 Mn1 Ni13'
_cell_volume   269.18756626
_cell_formula_units_Z   1
loop_
 _symmetry_equiv_pos_site_id
 _symmetry_equiv_pos_as_xyz
  1  'x, y, z'
loop_
 _atom_site_type_symbol
 _atom_site_label
 _atom_site_symmetry_multiplicity
 _atom_site_fract_x
 _atom_site_fract_y
 _atom_site_fract_z
 _atom_site_occupancy
  Nd  Nd0  1  0.852041  0.852041  0.442709  1
  Nd  Nd1  1  0.147959  0.147959  0.557291  1
  Th  Th2  1  0.947595  0.947595  0.156849  1
  Th  Th3  1  0.052405  0.052405  0.843151  1
  Mn  Mn4  1  0.500000  0.500000  0.000000  1
  Ni  Ni5  1  0.500000  0.500000  0.500000  1
  Ni  Ni6  1  0.721577  0.721577  0.835015  1
  Ni  Ni7  1  0.278423  0.278423  0.164985  1
  Ni  Ni8  1  0.610800  0.610800  0.164195  1
  Ni  Ni9  1  0.389200  0.389200  0.835805  1
  Ni  Ni10  1  0.000000  0.500000  0.000000  1
  Ni  Ni11  1  0.500000  0.000000  0.000000  1
  Ni  Ni12  1  0.390902  0.390902  0.327301  1
  Ni  Ni13  1  0.889998  0.391553  0.326631  1
  Ni  Ni14  1  0.391553  0.889998  0.326631  1
  Ni  Ni15  1  0.609098  0.609098  0.672699  1
  Ni  Ni16  1  0.110002  0.608447  0.673369  1
  Ni  Ni17  1  0.608447  0.110002  0.673369  1
