# generated using pymatgen
data_Cs2Lu(TeO4)3
_symmetry_space_group_name_H-M   'P 1'
_cell_length_a   7.55865568
_cell_length_b   7.55850949
_cell_length_c   7.55865538
_cell_angle_alpha   58.79979382
_cell_angle_beta   58.79783321
_cell_angle_gamma   58.79181855
_symmetry_Int_Tables_number   1
_chemical_formula_structural   Cs2Lu(TeO4)3
_chemical_formula_sum   'Cs2 Lu1 Te3 O12'
_cell_volume   296.96583584
_cell_formula_units_Z   1
loop_
 _symmetry_equiv_pos_site_id
 _symmetry_equiv_pos_as_xyz
  1  'x, y, z'
loop_
 _atom_site_type_symbol
 _atom_site_label
 _atom_site_symmetry_multiplicity
 _atom_site_fract_x
 _atom_site_fract_y
 _atom_site_fract_z
 _atom_site_occupancy
  Cs  Cs0  1  0.120383  0.131426  0.624360  1
  Cs  Cs1  1  0.868513  0.879584  0.375706  1
  Lu  Lu2  1  0.497334  0.502705  0.000016  1
  Te  Te3  1  0.497661  0.002458  0.000022  1
  Te  Te4  1  0.997617  0.502341  0.999939  1
  Te  Te5  1  0.497598  0.502400  0.500064  1
  O  O6  1  0.815044  0.819654  0.922401  1
  O  O7  1  0.426894  0.430843  0.345114  1
  O  O8  1  0.426768  0.847699  0.928393  1
  O  O9  1  0.814884  0.424590  0.317205  1
  O  O10  1  0.842591  0.431245  0.928974  1
  O  O11  1  0.420414  0.819646  0.317344  1
  O  O12  1  0.180290  0.184906  0.077567  1
  O  O13  1  0.569216  0.573080  0.654928  1
  O  O14  1  0.568854  0.157395  0.071024  1
  O  O15  1  0.180293  0.579651  0.682590  1
  O  O16  1  0.152238  0.573326  0.071641  1
  O  O17  1  0.575408  0.185049  0.682711  1
