# generated using pymatgen
data_Ta2MnAl3
_symmetry_space_group_name_H-M   'P 1'
_cell_length_a   5.04693384
_cell_length_b   5.02178888
_cell_length_c   8.27800100
_cell_angle_alpha   90.00000000
_cell_angle_beta   90.00000000
_cell_angle_gamma   119.83532461
_symmetry_Int_Tables_number   1
_chemical_formula_structural   Ta2MnAl3
_chemical_formula_sum   'Ta4 Mn2 Al6'
_cell_volume   181.99541164
_cell_formula_units_Z   2
loop_
 _symmetry_equiv_pos_site_id
 _symmetry_equiv_pos_as_xyz
  1  'x, y, z'
loop_
 _atom_site_type_symbol
 _atom_site_label
 _atom_site_symmetry_multiplicity
 _atom_site_fract_x
 _atom_site_fract_y
 _atom_site_fract_z
 _atom_site_occupancy
  Ta  Ta0  1  0.335276  0.662234  0.061139  1
  Ta  Ta1  1  0.664724  0.326956  0.561139  1
  Ta  Ta2  1  0.664724  0.326956  0.938861  1
  Ta  Ta3  1  0.335276  0.662234  0.438861  1
  Mn  Mn4  1  0.836546  0.172341  0.250000  1
  Mn  Mn5  1  0.163454  0.335796  0.750000  1
  Al  Al6  1  0.000000  0.020196  0.000000  1
  Al  Al7  1  0.000000  0.020196  0.500000  1
  Al  Al8  1  0.831633  0.657519  0.250000  1
  Al  Al9  1  0.168367  0.825887  0.750000  1
  Al  Al10  1  0.651872  0.820779  0.750000  1
  Al  Al11  1  0.348128  0.168906  0.250000  1
