# generated using pymatgen
data_SmTh7(ZnRh)8
_symmetry_space_group_name_H-M   'P 1'
_cell_length_a   3.94887100
_cell_length_b   7.51055385
_cell_length_c   16.60545746
_cell_angle_alpha   89.46694972
_cell_angle_beta   90.00000000
_cell_angle_gamma   90.00000000
_symmetry_Int_Tables_number   1
_chemical_formula_structural   SmTh7(ZnRh)8
_chemical_formula_sum   'Sm1 Th7 Zn8 Rh8'
_cell_volume   492.46680264
_cell_formula_units_Z   1
loop_
 _symmetry_equiv_pos_site_id
 _symmetry_equiv_pos_as_xyz
  1  'x, y, z'
loop_
 _atom_site_type_symbol
 _atom_site_label
 _atom_site_symmetry_multiplicity
 _atom_site_fract_x
 _atom_site_fract_y
 _atom_site_fract_z
 _atom_site_occupancy
  Sm  Sm0  1  0.750000  0.938934  0.286221  1
  Th  Th1  1  0.750000  0.327668  0.438841  1
  Th  Th2  1  0.250000  0.064523  0.715137  1
  Th  Th3  1  0.250000  0.562468  0.785159  1
  Th  Th4  1  0.250000  0.676731  0.560071  1
  Th  Th5  1  0.750000  0.822284  0.061880  1
  Th  Th6  1  0.250000  0.171213  0.940301  1
  Th  Th7  1  0.750000  0.438610  0.215334  1
  Zn  Zn8  1  0.250000  0.106539  0.156678  1
  Zn  Zn9  1  0.250000  0.996794  0.436968  1
  Zn  Zn10  1  0.750000  0.888364  0.846915  1
  Zn  Zn11  1  0.750000  0.006145  0.558985  1
  Zn  Zn12  1  0.250000  0.489930  0.058457  1
  Zn  Zn13  1  0.750000  0.390184  0.653134  1
  Zn  Zn14  1  0.750000  0.503212  0.941009  1
  Zn  Zn15  1  0.250000  0.619775  0.346241  1
  Rh  Rh16  1  0.750000  0.260345  0.815068  1
  Rh  Rh17  1  0.250000  0.255624  0.314928  1
  Rh  Rh18  1  0.250000  0.754786  0.937427  1
  Rh  Rh19  1  0.250000  0.256508  0.561734  1
  Rh  Rh20  1  0.250000  0.727912  0.180908  1
  Rh  Rh21  1  0.750000  0.742363  0.440105  1
  Rh  Rh22  1  0.750000  0.237869  0.062738  1
  Rh  Rh23  1  0.750000  0.761219  0.685760  1
