# generated using pymatgen
data_Yb6AlCr3(SiO4)6
_symmetry_space_group_name_H-M   'P 1'
_cell_length_a   10.38068902
_cell_length_b   10.38068912
_cell_length_c   12.00200322
_cell_angle_alpha   54.85192450
_cell_angle_beta   54.85192490
_cell_angle_gamma   70.64155831
_symmetry_Int_Tables_number   1
_chemical_formula_structural   Yb6AlCr3(SiO4)6
_chemical_formula_sum   'Yb12 Al2 Cr6 Si12 O48'
_cell_volume   864.68714049
_cell_formula_units_Z   2
loop_
 _symmetry_equiv_pos_site_id
 _symmetry_equiv_pos_as_xyz
  1  'x, y, z'
loop_
 _atom_site_type_symbol
 _atom_site_label
 _atom_site_symmetry_multiplicity
 _atom_site_fract_x
 _atom_site_fract_y
 _atom_site_fract_z
 _atom_site_occupancy
  Yb  Yb0  1  0.624527  0.375473  0.750000  1
  Yb  Yb1  1  0.876189  0.123811  0.250000  1
  Yb  Yb2  1  0.750769  0.749446  0.625747  1
  Yb  Yb3  1  0.250554  0.249231  0.874253  1
  Yb  Yb4  1  0.625909  0.125822  0.624567  1
  Yb  Yb5  1  0.874178  0.374091  0.875433  1
  Yb  Yb6  1  0.375473  0.624527  0.250000  1
  Yb  Yb7  1  0.123811  0.876189  0.750000  1
  Yb  Yb8  1  0.249231  0.250554  0.374253  1
  Yb  Yb9  1  0.749446  0.750769  0.125747  1
  Yb  Yb10  1  0.374091  0.874178  0.375433  1
  Yb  Yb11  1  0.125822  0.625909  0.124567  1
  Al  Al12  1  0.000000  0.500000  0.500000  1
  Al  Al13  1  0.500000  0.000000  0.000000  1
  Cr  Cr14  1  0.500000  0.000000  0.500000  1
  Cr  Cr15  1  0.000000  0.500000  0.000000  1
  Cr  Cr16  1  0.500000  0.500000  0.000000  1
  Cr  Cr17  1  0.000000  0.000000  0.500000  1
  Cr  Cr18  1  0.500000  0.500000  0.500000  1
  Cr  Cr19  1  0.000000  0.000000  0.000000  1
  Si  Si20  1  0.374497  0.625503  0.750000  1
  Si  Si21  1  0.127785  0.872215  0.250000  1
  Si  Si22  1  0.747604  0.753157  0.876276  1
  Si  Si23  1  0.246843  0.252396  0.623724  1
  Si  Si24  1  0.876873  0.376455  0.375863  1
  Si  Si25  1  0.623545  0.123127  0.124137  1
  Si  Si26  1  0.625503  0.374497  0.250000  1
  Si  Si27  1  0.872215  0.127785  0.750000  1
  Si  Si28  1  0.252396  0.246843  0.123724  1
  Si  Si29  1  0.753157  0.747604  0.376276  1
  Si  Si30  1  0.123127  0.623545  0.624137  1
  Si  Si31  1  0.376455  0.876873  0.875863  1
  O  O32  1  0.312380  0.884334  0.197732  1
  O  O33  1  0.115666  0.687620  0.302268  1
  O  O34  1  0.193388  0.618086  0.894929  1
  O  O35  1  0.381914  0.806612  0.605071  1
  O  O36  1  0.197000  0.396350  0.490023  1
  O  O37  1  0.293470  0.107029  0.586610  1
  O  O38  1  0.892971  0.706530  0.913390  1
  O  O39  1  0.603650  0.803000  0.009977  1
  O  O40  1  0.488477  0.086991  0.305745  1
  O  O41  1  0.583067  0.988614  0.114754  1
  O  O42  1  0.913009  0.511523  0.194255  1
  O  O43  1  0.011386  0.416933  0.385246  1
  O  O44  1  0.687620  0.115666  0.802268  1
  O  O45  1  0.884334  0.312380  0.697732  1
  O  O46  1  0.806612  0.381914  0.105071  1
  O  O47  1  0.618086  0.193388  0.394929  1
  O  O48  1  0.803000  0.603650  0.509977  1
  O  O49  1  0.706530  0.892971  0.413390  1
  O  O50  1  0.107029  0.293470  0.086610  1
  O  O51  1  0.396350  0.197000  0.990023  1
  O  O52  1  0.511523  0.913009  0.694255  1
  O  O53  1  0.416933  0.011386  0.885246  1
  O  O54  1  0.086991  0.488477  0.805745  1
  O  O55  1  0.988614  0.583067  0.614754  1
  O  O56  1  0.793466  0.896227  0.693776  1
  O  O57  1  0.704701  0.606657  0.884124  1
  O  O58  1  0.103773  0.206534  0.806224  1
  O  O59  1  0.393343  0.295299  0.615876  1
  O  O60  1  0.512853  0.589454  0.793318  1
  O  O61  1  0.410546  0.487147  0.706682  1
  O  O62  1  0.089453  0.009322  0.105953  1
  O  O63  1  0.990678  0.910547  0.394047  1
  O  O64  1  0.694159  0.383110  0.512815  1
  O  O65  1  0.884541  0.195131  0.411163  1
  O  O66  1  0.804869  0.115459  0.088837  1
  O  O67  1  0.616890  0.305841  0.987185  1
  O  O68  1  0.206534  0.103773  0.306224  1
  O  O69  1  0.295299  0.393343  0.115876  1
  O  O70  1  0.896227  0.793466  0.193776  1
  O  O71  1  0.606657  0.704701  0.384124  1
  O  O72  1  0.487147  0.410546  0.206682  1
  O  O73  1  0.589454  0.512853  0.293318  1
  O  O74  1  0.910547  0.990678  0.894047  1
  O  O75  1  0.009322  0.089453  0.605953  1
  O  O76  1  0.305841  0.616890  0.487185  1
  O  O77  1  0.115459  0.804869  0.588837  1
  O  O78  1  0.195131  0.884541  0.911163  1
  O  O79  1  0.383110  0.694159  0.012815  1
