# generated using pymatgen
data_Ho4Al6ReRh
_symmetry_space_group_name_H-M   'P 1'
_cell_length_a   5.49594700
_cell_length_b   5.49594699
_cell_length_c   8.84932600
_cell_angle_alpha   90.00000000
_cell_angle_beta   90.00000000
_cell_angle_gamma   119.99999403
_symmetry_Int_Tables_number   1
_chemical_formula_structural   Ho4Al6ReRh
_chemical_formula_sum   'Ho4 Al6 Re1 Rh1'
_cell_volume   231.48663590
_cell_formula_units_Z   1
loop_
 _symmetry_equiv_pos_site_id
 _symmetry_equiv_pos_as_xyz
  1  'x, y, z'
loop_
 _atom_site_type_symbol
 _atom_site_label
 _atom_site_symmetry_multiplicity
 _atom_site_fract_x
 _atom_site_fract_y
 _atom_site_fract_z
 _atom_site_occupancy
  Ho  Ho0  1  0.666666  0.333333  0.051835  1
  Ho  Ho1  1  0.666666  0.333333  0.445106  1
  Ho  Ho2  1  0.333333  0.666666  0.554893  1
  Ho  Ho3  1  0.333333  0.666666  0.948166  1
  Al  Al4  1  0.162700  0.325401  0.248279  1
  Al  Al5  1  0.162700  0.837299  0.248279  1
  Al  Al6  1  0.674599  0.837299  0.248279  1
  Al  Al7  1  0.325400  0.162700  0.751721  1
  Al  Al8  1  0.837299  0.162700  0.751721  1
  Al  Al9  1  0.837299  0.674598  0.751721  1
  Re  Re10  1  0.000000  0.000000  0.500000  1
  Rh  Rh11  1  0.000000  0.000000  0.000000  1
