# generated using pymatgen
data_HoEr7Ti12Si15Pb
_symmetry_space_group_name_H-M   'P 1'
_cell_length_a   7.10033717
_cell_length_b   7.05624823
_cell_length_c   12.98407907
_cell_angle_alpha   89.98273361
_cell_angle_beta   89.67866228
_cell_angle_gamma   89.89270315
_symmetry_Int_Tables_number   1
_chemical_formula_structural   HoEr7Ti12Si15Pb
_chemical_formula_sum   'Ho1 Er7 Ti12 Si15 Pb1'
_cell_volume   650.51357565
_cell_formula_units_Z   1
loop_
 _symmetry_equiv_pos_site_id
 _symmetry_equiv_pos_as_xyz
  1  'x, y, z'
loop_
 _atom_site_type_symbol
 _atom_site_label
 _atom_site_symmetry_multiplicity
 _atom_site_fract_x
 _atom_site_fract_y
 _atom_site_fract_z
 _atom_site_occupancy
  Ho  Ho0  1  0.345110  0.998024  0.460070  1
  Er  Er1  1  0.507605  0.834481  0.718546  1
  Er  Er2  1  0.501922  0.159675  0.216807  1
  Er  Er3  1  0.841324  0.497813  0.282021  1
  Er  Er4  1  0.158752  0.511140  0.786637  1
  Er  Er5  1  0.661124  0.996557  0.969248  1
  Er  Er6  1  0.990524  0.350731  0.526109  1
  Er  Er7  1  0.999094  0.658758  0.034320  1
  Ti  Ti8  1  0.325941  0.326868  0.001347  1
  Ti  Ti9  1  0.173897  0.826142  0.249685  1
  Ti  Ti10  1  0.813573  0.175253  0.752586  1
  Ti  Ti11  1  0.672800  0.672881  0.499432  1
  Ti  Ti12  1  0.152060  0.007287  0.884235  1
  Ti  Ti13  1  0.492617  0.650176  0.126436  1
  Ti  Ti14  1  0.517350  0.355385  0.626268  1
  Ti  Ti15  1  0.653889  0.493551  0.876057  1
  Ti  Ti16  1  0.348088  0.509068  0.372973  1
  Ti  Ti17  1  0.847375  0.992587  0.375359  1
  Ti  Ti18  1  0.009175  0.151571  0.123796  1
  Ti  Ti19  1  0.977744  0.832176  0.618368  1
  Si  Si20  1  0.370448  0.703337  0.935576  1
  Si  Si21  1  0.628649  0.296926  0.431829  1
  Si  Si22  1  0.703691  0.368994  0.067231  1
  Si  Si23  1  0.297147  0.631241  0.566159  1
  Si  Si24  1  0.797050  0.869471  0.183670  1
  Si  Si25  1  0.130334  0.203262  0.315590  1
  Si  Si26  1  0.869878  0.799676  0.817135  1
  Si  Si27  1  0.292720  0.952268  0.067290  1
  Si  Si28  1  0.550057  0.789241  0.313132  1
  Si  Si29  1  0.460585  0.210370  0.821515  1
  Si  Si30  1  0.794846  0.544004  0.687294  1
  Si  Si31  1  0.209137  0.452942  0.185282  1
  Si  Si32  1  0.706783  0.048074  0.564392  1
  Si  Si33  1  0.952545  0.291856  0.935437  1
  Si  Si34  1  0.048465  0.711174  0.432387  1
  Pb  Pb35  1  0.197700  0.127038  0.675783  1
