# generated using pymatgen
data_Ho16AlZn3Rh4
_symmetry_space_group_name_H-M   'P 1'
_cell_length_a   9.44674065
_cell_length_b   9.44451577
_cell_length_c   9.44674100
_cell_angle_alpha   59.99220224
_cell_angle_beta   59.99999528
_cell_angle_gamma   59.99220381
_symmetry_Int_Tables_number   1
_chemical_formula_structural   Ho16AlZn3Rh4
_chemical_formula_sum   'Ho16 Al1 Zn3 Rh4'
_cell_volume   595.90563419
_cell_formula_units_Z   1
loop_
 _symmetry_equiv_pos_site_id
 _symmetry_equiv_pos_as_xyz
  1  'x, y, z'
loop_
 _atom_site_type_symbol
 _atom_site_label
 _atom_site_symmetry_multiplicity
 _atom_site_fract_x
 _atom_site_fract_y
 _atom_site_fract_z
 _atom_site_occupancy
  Ho  Ho0  1  0.186342  0.183331  0.815164  1
  Ho  Ho1  1  0.604741  0.604045  0.186474  1
  Ho  Ho2  1  0.439258  0.061067  0.439258  1
  Ho  Ho3  1  0.442101  0.439782  0.059058  1
  Ho  Ho4  1  0.815164  0.183331  0.815164  1
  Ho  Ho5  1  0.185887  0.813498  0.185887  1
  Ho  Ho6  1  0.439258  0.061067  0.060417  1
  Ho  Ho7  1  0.185887  0.813498  0.814728  1
  Ho  Ho8  1  0.059058  0.439782  0.059058  1
  Ho  Ho9  1  0.814728  0.813498  0.185887  1
  Ho  Ho10  1  0.186474  0.604045  0.604741  1
  Ho  Ho11  1  0.059058  0.439782  0.442101  1
  Ho  Ho12  1  0.060417  0.061067  0.439258  1
  Ho  Ho13  1  0.815164  0.183331  0.186342  1
  Ho  Ho14  1  0.604949  0.185154  0.604949  1
  Ho  Ho15  1  0.604741  0.604045  0.604741  1
  Al  Al16  1  0.826314  0.521059  0.826314  1
  Zn  Zn17  1  0.828973  0.829001  0.828973  1
  Zn  Zn18  1  0.828973  0.829001  0.513054  1
  Zn  Zn19  1  0.513054  0.829001  0.828973  1
  Rh  Rh20  1  0.393835  0.818496  0.393835  1
  Rh  Rh21  1  0.394156  0.394373  0.394156  1
  Rh  Rh22  1  0.817316  0.394373  0.394156  1
  Rh  Rh23  1  0.394156  0.394373  0.817316  1
