# generated using pymatgen
data_Cs3HoSb2
_symmetry_space_group_name_H-M   'P 1'
_cell_length_a   10.47873545
_cell_length_b   10.47873601
_cell_length_c   10.47873563
_cell_angle_alpha   127.43231329
_cell_angle_beta   70.80457746
_cell_angle_gamma   136.13441992
_symmetry_Int_Tables_number   1
_chemical_formula_structural   Cs3HoSb2
_chemical_formula_sum   'Cs6 Ho2 Sb4'
_cell_volume   620.49463078
_cell_formula_units_Z   2
loop_
 _symmetry_equiv_pos_site_id
 _symmetry_equiv_pos_as_xyz
  1  'x, y, z'
loop_
 _atom_site_type_symbol
 _atom_site_label
 _atom_site_symmetry_multiplicity
 _atom_site_fract_x
 _atom_site_fract_y
 _atom_site_fract_z
 _atom_site_occupancy
  Cs  Cs0  1  0.250000  0.250000  0.000000  1
  Cs  Cs1  1  0.750000  0.750000  0.000000  1
  Cs  Cs2  1  0.816869  0.295565  0.112435  1
  Cs  Cs3  1  0.683130  0.795566  0.478696  1
  Cs  Cs4  1  0.316869  0.204435  0.521304  1
  Cs  Cs5  1  0.183130  0.704435  0.887565  1
  Ho  Ho6  1  0.750000  0.250000  0.500000  1
  Ho  Ho7  1  0.250000  0.750000  0.500000  1
  Sb  Sb8  1  0.406094  0.815329  0.221422  1
  Sb  Sb9  1  0.093906  0.315329  0.409234  1
  Sb  Sb10  1  0.906094  0.684671  0.590767  1
  Sb  Sb11  1  0.593906  0.184671  0.778578  1
