# generated using pymatgen
data_Lu2ZnGaNi4
_symmetry_space_group_name_H-M   'P 1'
_cell_length_a   5.12239300
_cell_length_b   5.12239235
_cell_length_c   15.79320900
_cell_angle_alpha   90.00000000
_cell_angle_beta   90.00000000
_cell_angle_gamma   119.99999776
_symmetry_Int_Tables_number   1
_chemical_formula_structural   Lu2ZnGaNi4
_chemical_formula_sum   'Lu6 Zn3 Ga3 Ni12'
_cell_volume   358.87793673
_cell_formula_units_Z   3
loop_
 _symmetry_equiv_pos_site_id
 _symmetry_equiv_pos_as_xyz
  1  'x, y, z'
loop_
 _atom_site_type_symbol
 _atom_site_label
 _atom_site_symmetry_multiplicity
 _atom_site_fract_x
 _atom_site_fract_y
 _atom_site_fract_z
 _atom_site_occupancy
  Lu  Lu0  1  0.333333  0.666667  0.542780  1
  Lu  Lu1  1  0.666667  0.333333  0.456546  1
  Lu  Lu2  1  0.666667  0.333333  0.043454  1
  Lu  Lu3  1  0.333333  0.666667  0.957220  1
  Lu  Lu4  1  0.333333  0.666667  0.750000  1
  Lu  Lu5  1  0.666667  0.333333  0.250000  1
  Zn  Zn6  1  0.000000  0.000000  0.250000  1
  Zn  Zn7  1  0.000000  0.000000  0.750000  1
  Zn  Zn8  1  0.333333  0.666667  0.250000  1
  Ga  Ga9  1  0.666667  0.333333  0.750000  1
  Ga  Ga10  1  0.000000  0.000000  0.999575  1
  Ga  Ga11  1  0.000000  0.000000  0.500425  1
  Ni  Ni12  1  0.168965  0.337929  0.123643  1
  Ni  Ni13  1  0.831263  0.662528  0.875434  1
  Ni  Ni14  1  0.662071  0.831035  0.123643  1
  Ni  Ni15  1  0.831263  0.662528  0.624566  1
  Ni  Ni16  1  0.337472  0.168737  0.875434  1
  Ni  Ni17  1  0.168965  0.337929  0.376357  1
  Ni  Ni18  1  0.168965  0.831035  0.123643  1
  Ni  Ni19  1  0.337472  0.168737  0.624566  1
  Ni  Ni20  1  0.831263  0.168737  0.875434  1
  Ni  Ni21  1  0.662071  0.831035  0.376357  1
  Ni  Ni22  1  0.831263  0.168737  0.624566  1
  Ni  Ni23  1  0.168965  0.831035  0.376357  1
