# generated using pymatgen
data_Ba12NiRh
_symmetry_space_group_name_H-M   'P 1'
_cell_length_a   7.80837805
_cell_length_b   7.81946057
_cell_length_c   14.85598251
_cell_angle_alpha   90.28087568
_cell_angle_beta   89.79017826
_cell_angle_gamma   120.01994792
_symmetry_Int_Tables_number   1
_chemical_formula_structural   Ba12NiRh
_chemical_formula_sum   'Ba12 Ni1 Rh1'
_cell_volume   785.37425836
_cell_formula_units_Z   1
loop_
 _symmetry_equiv_pos_site_id
 _symmetry_equiv_pos_as_xyz
  1  'x, y, z'
loop_
 _atom_site_type_symbol
 _atom_site_label
 _atom_site_symmetry_multiplicity
 _atom_site_fract_x
 _atom_site_fract_y
 _atom_site_fract_z
 _atom_site_occupancy
  Ba  Ba0  1  0.667523  0.010022  0.117511  1
  Ba  Ba1  1  0.990078  0.657584  0.117602  1
  Ba  Ba2  1  0.342538  0.332307  0.117527  1
  Ba  Ba3  1  0.012068  0.344388  0.381401  1
  Ba  Ba4  1  0.655506  0.667884  0.381390  1
  Ba  Ba5  1  0.332024  0.987817  0.381480  1
  Ba  Ba6  1  0.012048  0.667795  0.618676  1
  Ba  Ba7  1  0.655508  0.987761  0.618656  1
  Ba  Ba8  1  0.332041  0.344445  0.618620  1
  Ba  Ba9  1  0.342446  0.009967  0.882509  1
  Ba  Ba10  1  0.667554  0.657596  0.882510  1
  Ba  Ba11  1  0.990257  0.332375  0.882436  1
  Ni  Ni12  1  0.667250  0.333351  0.999778  1
  Rh  Rh13  1  0.333139  0.666689  0.499960  1
