# generated using pymatgen
data_Ho2NbB4Ru10W3
_symmetry_space_group_name_H-M   'P 1'
_cell_length_a   9.56601124
_cell_length_b   9.56601025
_cell_length_c   3.01693000
_cell_angle_alpha   90.00000000
_cell_angle_beta   90.00000000
_cell_angle_gamma   90.70416649
_symmetry_Int_Tables_number   1
_chemical_formula_structural   Ho2NbB4Ru10W3
_chemical_formula_sum   'Ho2 Nb1 B4 Ru10 W3'
_cell_volume   276.05407514
_cell_formula_units_Z   1
loop_
 _symmetry_equiv_pos_site_id
 _symmetry_equiv_pos_as_xyz
  1  'x, y, z'
loop_
 _atom_site_type_symbol
 _atom_site_label
 _atom_site_symmetry_multiplicity
 _atom_site_fract_x
 _atom_site_fract_y
 _atom_site_fract_z
 _atom_site_occupancy
  Ho  Ho0  1  0.823487  0.676342  0.000000  1
  Ho  Ho1  1  0.176342  0.323487  0.000000  1
  Nb  Nb2  1  0.676105  0.176105  0.000000  1
  B  B3  1  0.620304  0.880138  0.000000  1
  B  B4  1  0.380138  0.120304  0.000000  1
  B  B5  1  0.121026  0.621026  0.000000  1
  B  B6  1  0.879273  0.379273  0.000000  1
  Ru  Ru7  1  0.558147  0.722146  0.500000  1
  Ru  Ru8  1  0.437610  0.277228  0.500000  1
  Ru  Ru9  1  0.083589  0.787520  0.500000  1
  Ru  Ru10  1  0.921790  0.214293  0.500000  1
  Ru  Ru11  1  0.287520  0.583589  0.500000  1
  Ru  Ru12  1  0.714293  0.421790  0.500000  1
  Ru  Ru13  1  0.222146  0.058147  0.500000  1
  Ru  Ru14  1  0.777228  0.937610  0.500000  1
  Ru  Ru15  1  0.496416  0.996416  0.500000  1
  Ru  Ru16  1  0.000972  0.500972  0.500000  1
  W  W17  1  0.324003  0.824003  0.000000  1
  W  W18  1  0.500778  0.498833  0.000000  1
  W  W19  1  0.998833  0.000778  0.000000  1
