# generated using pymatgen
data_Ca2Ce(InRh)3
_symmetry_space_group_name_H-M   'P 1'
_cell_length_a   7.48039883
_cell_length_b   7.48039886
_cell_length_c   3.99980800
_cell_angle_alpha   90.00000000
_cell_angle_beta   90.00000000
_cell_angle_gamma   116.42461263
_symmetry_Int_Tables_number   1
_chemical_formula_structural   Ca2Ce(InRh)3
_chemical_formula_sum   'Ca2 Ce1 In3 Rh3'
_cell_volume   200.43071259
_cell_formula_units_Z   1
loop_
 _symmetry_equiv_pos_site_id
 _symmetry_equiv_pos_as_xyz
  1  'x, y, z'
loop_
 _atom_site_type_symbol
 _atom_site_label
 _atom_site_symmetry_multiplicity
 _atom_site_fract_x
 _atom_site_fract_y
 _atom_site_fract_z
 _atom_site_occupancy
  Ca  Ca0  1  0.406036  0.997564  0.500000  1
  Ca  Ca1  1  0.997564  0.406036  0.500000  1
  Ce  Ce2  1  0.585002  0.585002  0.500000  1
  In  In3  1  0.742416  0.012158  0.000000  1
  In  In4  1  0.012158  0.742416  0.000000  1
  In  In5  1  0.238205  0.238205  0.000000  1
  Rh  Rh6  1  0.371840  0.657566  0.000000  1
  Rh  Rh7  1  0.657566  0.371840  0.000000  1
  Rh  Rh8  1  0.989215  0.989215  0.500000  1
