# generated using pymatgen
data_LaDy(Er2Rh9)2
_symmetry_space_group_name_H-M   'P 1'
_cell_length_a   5.27869100
_cell_length_b   5.27869031
_cell_length_c   17.53448100
_cell_angle_alpha   90.00000000
_cell_angle_beta   90.00000000
_cell_angle_gamma   119.99999804
_symmetry_Int_Tables_number   1
_chemical_formula_structural   LaDy(Er2Rh9)2
_chemical_formula_sum   'La1 Dy1 Er4 Rh18'
_cell_volume   423.13210667
_cell_formula_units_Z   1
loop_
 _symmetry_equiv_pos_site_id
 _symmetry_equiv_pos_as_xyz
  1  'x, y, z'
loop_
 _atom_site_type_symbol
 _atom_site_label
 _atom_site_symmetry_multiplicity
 _atom_site_fract_x
 _atom_site_fract_y
 _atom_site_fract_z
 _atom_site_occupancy
  La  La0  1  0.666667  0.333333  0.250000  1
  Dy  Dy1  1  0.333333  0.666667  0.750000  1
  Er  Er2  1  0.333333  0.666667  0.543018  1
  Er  Er3  1  0.666667  0.333333  0.039738  1
  Er  Er4  1  0.666667  0.333333  0.460262  1
  Er  Er5  1  0.333333  0.666667  0.956982  1
  Rh  Rh6  1  0.167475  0.334950  0.122940  1
  Rh  Rh7  1  0.832755  0.665509  0.625590  1
  Rh  Rh8  1  0.665050  0.832525  0.122940  1
  Rh  Rh9  1  0.167475  0.832525  0.122940  1
  Rh  Rh10  1  0.832755  0.167245  0.625590  1
  Rh  Rh11  1  0.334491  0.167245  0.625590  1
  Rh  Rh12  1  0.832755  0.665509  0.874410  1
  Rh  Rh13  1  0.832755  0.167245  0.874410  1
  Rh  Rh14  1  0.334491  0.167245  0.874410  1
  Rh  Rh15  1  0.665050  0.832525  0.377060  1
  Rh  Rh16  1  0.167475  0.832525  0.377060  1
  Rh  Rh17  1  0.167475  0.334950  0.377060  1
  Rh  Rh18  1  0.000000  0.000000  0.250000  1
  Rh  Rh19  1  0.000000  0.000000  0.750000  1
  Rh  Rh20  1  0.333333  0.666667  0.250000  1
  Rh  Rh21  1  0.666667  0.333333  0.750000  1
  Rh  Rh22  1  0.000000  0.000000  0.998693  1
  Rh  Rh23  1  0.000000  0.000000  0.501307  1
