# generated using pymatgen
data_TbYMn4Ni8P7
_symmetry_space_group_name_H-M   'P 1'
_cell_length_a   9.15602704
_cell_length_b   9.17217722
_cell_length_c   3.68280500
_cell_angle_alpha   90.00000000
_cell_angle_beta   90.00000000
_cell_angle_gamma   120.04411700
_symmetry_Int_Tables_number   1
_chemical_formula_structural   TbYMn4Ni8P7
_chemical_formula_sum   'Tb1 Y1 Mn4 Ni8 P7'
_cell_volume   267.72912674
_cell_formula_units_Z   1
loop_
 _symmetry_equiv_pos_site_id
 _symmetry_equiv_pos_as_xyz
  1  'x, y, z'
loop_
 _atom_site_type_symbol
 _atom_site_label
 _atom_site_symmetry_multiplicity
 _atom_site_fract_x
 _atom_site_fract_y
 _atom_site_fract_z
 _atom_site_occupancy
  Tb  Tb0  1  0.666597  0.332465  0.000000  1
  Y  Y1  1  0.334776  0.668188  0.500000  1
  Mn  Mn2  1  0.880307  0.155904  0.000000  1
  Mn  Mn3  1  0.097638  0.879735  0.500000  1
  Mn  Mn4  1  0.778733  0.899650  0.500000  1
  Mn  Mn5  1  0.123682  0.223546  0.500000  1
  Ni  Ni6  1  0.059151  0.624640  0.000000  1
  Ni  Ni7  1  0.564671  0.937352  0.000000  1
  Ni  Ni8  1  0.372330  0.433208  0.000000  1
  Ni  Ni9  1  0.276645  0.121865  0.000000  1
  Ni  Ni10  1  0.845747  0.721835  0.000000  1
  Ni  Ni11  1  0.436429  0.052223  0.500000  1
  Ni  Ni12  1  0.613801  0.563354  0.500000  1
  Ni  Ni13  1  0.949909  0.385643  0.500000  1
  P  P14  1  0.293884  0.886536  0.000000  1
  P  P15  1  0.593734  0.706591  0.000000  1
  P  P16  1  0.112144  0.406973  0.000000  1
  P  P17  1  0.404523  0.290390  0.500000  1
  P  P18  1  0.885927  0.596293  0.500000  1
  P  P19  1  0.712207  0.113293  0.500000  1
  P  P20  1  0.997164  0.000317  0.000000  1
