# generated using pymatgen
data_Er12GaCo3NiBi
_symmetry_space_group_name_H-M   'P 1'
_cell_length_a   8.28073911
_cell_length_b   8.28073803
_cell_length_c   8.28073875
_cell_angle_alpha   107.18054394
_cell_angle_beta   109.58575858
_cell_angle_gamma   111.67856457
_symmetry_Int_Tables_number   1
_chemical_formula_structural   Er12GaCo3NiBi
_chemical_formula_sum   'Er12 Ga1 Co3 Ni1 Bi1'
_cell_volume   436.43110251
_cell_formula_units_Z   1
loop_
 _symmetry_equiv_pos_site_id
 _symmetry_equiv_pos_as_xyz
  1  'x, y, z'
loop_
 _atom_site_type_symbol
 _atom_site_label
 _atom_site_symmetry_multiplicity
 _atom_site_fract_x
 _atom_site_fract_y
 _atom_site_fract_z
 _atom_site_occupancy
  Er  Er0  1  0.703799  0.271832  0.975632  1
  Er  Er1  1  0.295830  0.730284  0.026113  1
  Er  Er2  1  0.703799  0.728168  0.431967  1
  Er  Er3  1  0.295830  0.269716  0.565545  1
  Er  Er4  1  0.815035  0.133067  0.321200  1
  Er  Er5  1  0.815035  0.493836  0.681968  1
  Er  Er6  1  0.188133  0.866933  0.681968  1
  Er  Er7  1  0.188133  0.506164  0.321200  1
  Er  Er8  1  0.597114  0.778966  0.818148  1
  Er  Er9  1  0.959040  0.782197  0.176845  1
  Er  Er10  1  0.039183  0.221034  0.818148  1
  Er  Er11  1  0.394647  0.217803  0.176845  1
  Ga  Ga12  1  0.495815  0.500000  0.995815  1
  Co  Co13  1  0.156218  0.500000  0.656218  1
  Co  Co14  1  0.997709  0.113706  0.111416  1
  Co  Co15  1  0.997709  0.886294  0.884004  1
  Ni  Ni16  1  0.857237  0.500000  0.357237  1
  Bi  Bi17  1  0.499731  0.000000  0.499731  1
