# generated using pymatgen
data_Zr5ScBi10
_symmetry_space_group_name_H-M   'P 1'
_cell_length_a   7.05404100
_cell_length_b   7.05404100
_cell_length_c   17.31774600
_cell_angle_alpha   90.00000000
_cell_angle_beta   90.00000000
_cell_angle_gamma   90.00000000
_symmetry_Int_Tables_number   1
_chemical_formula_structural   Zr5ScBi10
_chemical_formula_sum   'Zr10 Sc2 Bi20'
_cell_volume   861.72228562
_cell_formula_units_Z   2
loop_
 _symmetry_equiv_pos_site_id
 _symmetry_equiv_pos_as_xyz
  1  'x, y, z'
loop_
 _atom_site_type_symbol
 _atom_site_label
 _atom_site_symmetry_multiplicity
 _atom_site_fract_x
 _atom_site_fract_y
 _atom_site_fract_z
 _atom_site_occupancy
  Zr  Zr0  1  0.000000  0.500000  0.587741  1
  Zr  Zr1  1  0.500000  0.000000  0.412259  1
  Zr  Zr2  1  0.500000  0.000000  0.087741  1
  Zr  Zr3  1  0.000000  0.500000  0.912259  1
  Zr  Zr4  1  0.000000  0.000000  0.000000  1
  Zr  Zr5  1  0.500000  0.500000  0.500000  1
  Zr  Zr6  1  0.000000  0.000000  0.325739  1
  Zr  Zr7  1  0.000000  0.000000  0.674261  1
  Zr  Zr8  1  0.500000  0.500000  0.825739  1
  Zr  Zr9  1  0.500000  0.500000  0.174261  1
  Sc  Sc10  1  0.000000  0.500000  0.250000  1
  Sc  Sc11  1  0.500000  0.000000  0.750000  1
  Bi  Bi12  1  0.342372  0.304283  0.651953  1
  Bi  Bi13  1  0.657628  0.695717  0.651953  1
  Bi  Bi14  1  0.304283  0.657628  0.348047  1
  Bi  Bi15  1  0.842372  0.195717  0.151953  1
  Bi  Bi16  1  0.695717  0.342372  0.348047  1
  Bi  Bi17  1  0.157628  0.804283  0.151953  1
  Bi  Bi18  1  0.804283  0.842372  0.848047  1
  Bi  Bi19  1  0.195717  0.157628  0.848047  1
  Bi  Bi20  1  0.330497  0.169503  0.250000  1
  Bi  Bi21  1  0.669503  0.830497  0.250000  1
  Bi  Bi22  1  0.169503  0.669503  0.750000  1
  Bi  Bi23  1  0.830497  0.330497  0.750000  1
  Bi  Bi24  1  0.231653  0.345003  0.051744  1
  Bi  Bi25  1  0.768347  0.654997  0.051744  1
  Bi  Bi26  1  0.345003  0.768347  0.948256  1
  Bi  Bi27  1  0.731653  0.154997  0.551744  1
  Bi  Bi28  1  0.654997  0.231653  0.948256  1
  Bi  Bi29  1  0.268347  0.845003  0.551744  1
  Bi  Bi30  1  0.845003  0.731653  0.448256  1
  Bi  Bi31  1  0.154997  0.268347  0.448256  1
