# generated using pymatgen
data_Ta5Nb(IrRh8)2
_symmetry_space_group_name_H-M   'P 1'
_cell_length_a   5.54900100
_cell_length_b   5.55011930
_cell_length_c   13.46468200
_cell_angle_alpha   90.00000205
_cell_angle_beta   89.99861884
_cell_angle_gamma   120.00667444
_symmetry_Int_Tables_number   1
_chemical_formula_structural   Ta5Nb(IrRh8)2
_chemical_formula_sum   'Ta5 Nb1 Ir2 Rh16'
_cell_volume   359.09936843
_cell_formula_units_Z   1
loop_
 _symmetry_equiv_pos_site_id
 _symmetry_equiv_pos_as_xyz
  1  'x, y, z'
loop_
 _atom_site_type_symbol
 _atom_site_label
 _atom_site_symmetry_multiplicity
 _atom_site_fract_x
 _atom_site_fract_y
 _atom_site_fract_z
 _atom_site_occupancy
  Ta  Ta0  1  0.998703  0.999351  0.249958  1
  Ta  Ta1  1  0.000214  0.000107  0.750089  1
  Ta  Ta2  1  0.333866  0.666934  0.411249  1
  Ta  Ta3  1  0.666817  0.333409  0.589522  1
  Ta  Ta4  1  0.666844  0.333422  0.910583  1
  Nb  Nb5  1  0.333934  0.666968  0.088788  1
  Ir  Ir6  1  0.503801  0.496597  0.250200  1
  Ir  Ir7  1  0.503801  0.007206  0.250200  1
  Rh  Rh8  1  0.993975  0.496987  0.250214  1
  Rh  Rh9  1  0.497027  0.503518  0.750040  1
  Rh  Rh10  1  0.497027  0.993509  0.750040  1
  Rh  Rh11  1  0.006828  0.503414  0.750040  1
  Rh  Rh12  1  0.165076  0.330250  0.917048  1
  Rh  Rh13  1  0.669429  0.834715  0.917323  1
  Rh  Rh14  1  0.165076  0.834825  0.917048  1
  Rh  Rh15  1  0.834115  0.669111  0.082326  1
  Rh  Rh16  1  0.330704  0.165353  0.082792  1
  Rh  Rh17  1  0.834115  0.165004  0.082326  1
  Rh  Rh18  1  0.834101  0.668953  0.417631  1
  Rh  Rh19  1  0.330752  0.165376  0.417208  1
  Rh  Rh20  1  0.834101  0.165148  0.417631  1
  Rh  Rh21  1  0.165354  0.330743  0.582663  1
  Rh  Rh22  1  0.668981  0.834491  0.582418  1
  Rh  Rh23  1  0.165354  0.834610  0.582663  1
