# generated using pymatgen
data_DyY(SnRu)2
_symmetry_space_group_name_H-M   'P 1'
_cell_length_a   4.52864100
_cell_length_b   4.52864100
_cell_length_c   6.74587300
_cell_angle_alpha   90.00000000
_cell_angle_beta   90.00000000
_cell_angle_gamma   90.00000000
_symmetry_Int_Tables_number   1
_chemical_formula_structural   DyY(SnRu)2
_chemical_formula_sum   'Dy1 Y1 Sn2 Ru2'
_cell_volume   138.34833887
_cell_formula_units_Z   1
loop_
 _symmetry_equiv_pos_site_id
 _symmetry_equiv_pos_as_xyz
  1  'x, y, z'
loop_
 _atom_site_type_symbol
 _atom_site_label
 _atom_site_symmetry_multiplicity
 _atom_site_fract_x
 _atom_site_fract_y
 _atom_site_fract_z
 _atom_site_occupancy
  Dy  Dy0  1  0.500000  0.000000  0.716122  1
  Y  Y1  1  0.000000  0.500000  0.285665  1
  Sn  Sn2  1  0.500000  0.000000  0.224830  1
  Sn  Sn3  1  0.000000  0.500000  0.775181  1
  Ru  Ru4  1  0.000000  0.000000  0.999101  1
  Ru  Ru5  1  0.500000  0.500000  0.999101  1
