# generated using pymatgen
data_Er13Tm3In4RuRh3
_symmetry_space_group_name_H-M   'P 1'
_cell_length_a   9.56837099
_cell_length_b   9.57008605
_cell_length_c   9.58343773
_cell_angle_alpha   59.89479313
_cell_angle_beta   59.94019503
_cell_angle_gamma   59.87291285
_symmetry_Int_Tables_number   1
_chemical_formula_structural   Er13Tm3In4RuRh3
_chemical_formula_sum   'Er13 Tm3 In4 Ru1 Rh3'
_cell_volume   619.15515779
_cell_formula_units_Z   1
loop_
 _symmetry_equiv_pos_site_id
 _symmetry_equiv_pos_as_xyz
  1  'x, y, z'
loop_
 _atom_site_type_symbol
 _atom_site_label
 _atom_site_symmetry_multiplicity
 _atom_site_fract_x
 _atom_site_fract_y
 _atom_site_fract_z
 _atom_site_occupancy
  Er  Er0  1  0.059733  0.058838  0.438667  1
  Er  Er1  1  0.441961  0.060459  0.436492  1
  Er  Er2  1  0.061368  0.439453  0.059792  1
  Er  Er3  1  0.046152  0.650425  0.649428  1
  Er  Er4  1  0.439031  0.439292  0.060029  1
  Er  Er5  1  0.650388  0.046064  0.650194  1
  Er  Er6  1  0.188787  0.810102  0.192926  1
  Er  Er7  1  0.190851  0.190566  0.809620  1
  Er  Er8  1  0.809625  0.809360  0.193681  1
  Er  Er9  1  0.438479  0.061792  0.060598  1
  Er  Er10  1  0.809668  0.189391  0.193503  1
  Er  Er11  1  0.061290  0.441157  0.436274  1
  Er  Er12  1  0.809713  0.191937  0.808835  1
  Tm  Tm13  1  0.192425  0.809111  0.808448  1
  Tm  Tm14  1  0.649734  0.650415  0.048480  1
  Tm  Tm15  1  0.652662  0.652246  0.649992  1
  In  In16  1  0.415725  0.417175  0.418259  1
  In  In17  1  0.749686  0.418179  0.415542  1
  In  In18  1  0.417513  0.749155  0.415860  1
  In  In19  1  0.417762  0.417299  0.747781  1
  Ru  Ru20  1  0.857320  0.858600  0.424696  1
  Rh  Rh21  1  0.859485  0.857337  0.860716  1
  Rh  Rh22  1  0.423997  0.856775  0.859768  1
  Rh  Rh23  1  0.856648  0.424873  0.860424  1
