# generated using pymatgen
data_Dy15Lu(In3Os)2
_symmetry_space_group_name_H-M   'P 1'
_cell_length_a   10.41023200
_cell_length_b   10.41026017
_cell_length_c   7.07345700
_cell_angle_alpha   89.99961905
_cell_angle_beta   89.99996729
_cell_angle_gamma   120.00031114
_symmetry_Int_Tables_number   1
_chemical_formula_structural   Dy15Lu(In3Os)2
_chemical_formula_sum   'Dy15 Lu1 In6 Os2'
_cell_volume   663.86990196
_cell_formula_units_Z   1
loop_
 _symmetry_equiv_pos_site_id
 _symmetry_equiv_pos_as_xyz
  1  'x, y, z'
loop_
 _atom_site_type_symbol
 _atom_site_label
 _atom_site_symmetry_multiplicity
 _atom_site_fract_x
 _atom_site_fract_y
 _atom_site_fract_z
 _atom_site_occupancy
  Dy  Dy0  1  0.533000  0.065999  0.523660  1
  Dy  Dy1  1  0.934000  0.467000  0.523660  1
  Dy  Dy2  1  0.532999  0.467000  0.523660  1
  Dy  Dy3  1  0.466969  0.933939  0.023647  1
  Dy  Dy4  1  0.066064  0.533031  0.023648  1
  Dy  Dy5  1  0.466968  0.533031  0.023648  1
  Dy  Dy6  1  0.176785  0.353568  0.730062  1
  Dy  Dy7  1  0.646431  0.823215  0.730061  1
  Dy  Dy8  1  0.176783  0.823215  0.730062  1
  Dy  Dy9  1  0.823276  0.646552  0.228894  1
  Dy  Dy10  1  0.353448  0.176725  0.228892  1
  Dy  Dy11  1  0.823276  0.176725  0.228893  1
  Dy  Dy12  1  0.666667  0.333333  0.900598  1
  Dy  Dy13  1  0.333333  0.666667  0.400388  1
  Dy  Dy14  1  0.000000  0.000001  0.508016  1
  Lu  Lu15  1  0.000001  0.000003  0.007103  1
  In  In16  1  0.837185  0.674372  0.771104  1
  In  In17  1  0.325630  0.162814  0.771100  1
  In  In18  1  0.837186  0.162814  0.771098  1
  In  In19  1  0.162772  0.325546  0.269524  1
  In  In20  1  0.674451  0.837227  0.269524  1
  In  In21  1  0.162776  0.837226  0.269524  1
  Os  Os22  1  0.666667  0.333333  0.299827  1
  Os  Os23  1  0.333331  0.666665  0.799084  1
