# generated using pymatgen
data_TmPu(Al3Ir)3
_symmetry_space_group_name_H-M   'P 1'
_cell_length_a   7.56351043
_cell_length_b   7.54145289
_cell_length_c   9.46622700
_cell_angle_alpha   90.00000000
_cell_angle_beta   90.00000000
_cell_angle_gamma   119.41822546
_symmetry_Int_Tables_number   1
_chemical_formula_structural   TmPu(Al3Ir)3
_chemical_formula_sum   'Tm2 Pu2 Al18 Ir6'
_cell_volume   470.32950939
_cell_formula_units_Z   2
loop_
 _symmetry_equiv_pos_site_id
 _symmetry_equiv_pos_as_xyz
  1  'x, y, z'
loop_
 _atom_site_type_symbol
 _atom_site_label
 _atom_site_symmetry_multiplicity
 _atom_site_fract_x
 _atom_site_fract_y
 _atom_site_fract_z
 _atom_site_occupancy
  Tm  Tm0  1  0.674535  0.998202  0.250000  1
  Tm  Tm1  1  0.325465  0.001798  0.750000  1
  Pu  Pu2  1  0.992728  0.671355  0.250000  1
  Pu  Pu3  1  0.007272  0.328645  0.750000  1
  Al  Al4  1  0.129611  0.129809  0.250000  1
  Al  Al5  1  0.870389  0.870191  0.750000  1
  Al  Al6  1  0.001542  0.336834  0.074028  1
  Al  Al7  1  0.998458  0.663166  0.925972  1
  Al  Al8  1  0.998458  0.663166  0.574028  1
  Al  Al9  1  0.335731  0.000310  0.424330  1
  Al  Al10  1  0.001542  0.336834  0.425972  1
  Al  Al11  1  0.664269  0.999690  0.575670  1
  Al  Al12  1  0.664269  0.999690  0.924330  1
  Al  Al13  1  0.335731  0.000310  0.075670  1
  Al  Al14  1  0.333815  0.332506  0.551706  1
  Al  Al15  1  0.666185  0.667494  0.448294  1
  Al  Al16  1  0.666185  0.667494  0.051706  1
  Al  Al17  1  0.333815  0.332506  0.948294  1
  Al  Al18  1  0.339534  0.552390  0.250000  1
  Al  Al19  1  0.660466  0.447610  0.750000  1
  Al  Al20  1  0.547645  0.340930  0.250000  1
  Al  Al21  1  0.452355  0.659070  0.750000  1
  Ir  Ir22  1  0.669366  0.326012  0.000466  1
  Ir  Ir23  1  0.330634  0.673988  0.999534  1
  Ir  Ir24  1  0.330634  0.673988  0.500466  1
  Ir  Ir25  1  0.669366  0.326012  0.499534  1
  Ir  Ir26  1  0.000000  0.000000  0.000000  1
  Ir  Ir27  1  0.000000  0.000000  0.500000  1
