# generated using pymatgen
data_Tm9Sc(SiBi)4
_symmetry_space_group_name_H-M   'P 1'
_cell_length_a   8.51881502
_cell_length_b   8.51881501
_cell_length_c   7.78113639
_cell_angle_alpha   89.98136007
_cell_angle_beta   89.98135904
_cell_angle_gamma   125.78535179
_symmetry_Int_Tables_number   1
_chemical_formula_structural   Tm9Sc(SiBi)4
_chemical_formula_sum   'Tm9 Sc1 Si4 Bi4'
_cell_volume   458.07477576
_cell_formula_units_Z   1
loop_
 _symmetry_equiv_pos_site_id
 _symmetry_equiv_pos_as_xyz
  1  'x, y, z'
loop_
 _atom_site_type_symbol
 _atom_site_label
 _atom_site_symmetry_multiplicity
 _atom_site_fract_x
 _atom_site_fract_y
 _atom_site_fract_z
 _atom_site_occupancy
  Tm  Tm0  1  0.543250  0.784407  0.165998  1
  Tm  Tm1  1  0.287050  0.044669  0.336362  1
  Tm  Tm2  1  0.215593  0.456750  0.834002  1
  Tm  Tm3  1  0.955331  0.712950  0.663638  1
  Tm  Tm4  1  0.712950  0.955331  0.663638  1
  Tm  Tm5  1  0.456750  0.215593  0.834002  1
  Tm  Tm6  1  0.784407  0.543250  0.165998  1
  Tm  Tm7  1  0.044669  0.287050  0.336362  1
  Tm  Tm8  1  0.000000  0.000000  0.000000  1
  Sc  Sc9  1  0.500000  0.500000  0.500000  1
  Si  Si10  1  0.633870  0.633870  0.864996  1
  Si  Si11  1  0.135677  0.135677  0.631850  1
  Si  Si12  1  0.864323  0.864323  0.368150  1
  Si  Si13  1  0.366130  0.366130  0.135004  1
  Bi  Bi14  1  0.294091  0.705909  0.500000  1
  Bi  Bi15  1  0.208023  0.791977  0.000000  1
  Bi  Bi16  1  0.705909  0.294091  0.500000  1
  Bi  Bi17  1  0.791977  0.208023  0.000000  1
