# generated using pymatgen
data_LaTb5TcOs
_symmetry_space_group_name_H-M   'P 1'
_cell_length_a   6.43604500
_cell_length_b   7.43586500
_cell_length_c   9.28566700
_cell_angle_alpha   90.00000000
_cell_angle_beta   90.00000000
_cell_angle_gamma   90.00000000
_symmetry_Int_Tables_number   1
_chemical_formula_structural   LaTb5TcOs
_chemical_formula_sum   'La2 Tb10 Tc2 Os2'
_cell_volume   444.38938188
_cell_formula_units_Z   2
loop_
 _symmetry_equiv_pos_site_id
 _symmetry_equiv_pos_as_xyz
  1  'x, y, z'
loop_
 _atom_site_type_symbol
 _atom_site_label
 _atom_site_symmetry_multiplicity
 _atom_site_fract_x
 _atom_site_fract_y
 _atom_site_fract_z
 _atom_site_occupancy
  La  La0  1  0.878801  0.551357  0.250000  1
  La  La1  1  0.621199  0.051357  0.250000  1
  Tb  Tb2  1  0.337134  0.675535  0.061345  1
  Tb  Tb3  1  0.162866  0.175535  0.438655  1
  Tb  Tb4  1  0.666263  0.325080  0.568507  1
  Tb  Tb5  1  0.833737  0.825080  0.931493  1
  Tb  Tb6  1  0.666263  0.325080  0.931493  1
  Tb  Tb7  1  0.833737  0.825080  0.568507  1
  Tb  Tb8  1  0.337134  0.675535  0.438655  1
  Tb  Tb9  1  0.162866  0.175535  0.061345  1
  Tb  Tb10  1  0.136735  0.457581  0.750000  1
  Tb  Tb11  1  0.363265  0.957581  0.750000  1
  Tc  Tc12  1  0.026915  0.873224  0.250000  1
  Tc  Tc13  1  0.473085  0.373224  0.250000  1
  Os  Os14  1  0.960525  0.116606  0.750000  1
  Os  Os15  1  0.539475  0.616606  0.750000  1
