# generated using pymatgen
data_Lu4Hf3ZrF28
_symmetry_space_group_name_H-M   'P 1'
_cell_length_a   5.55802327
_cell_length_b   8.82356029
_cell_length_c   11.87680500
_cell_angle_alpha   62.40053856
_cell_angle_beta   89.94816804
_cell_angle_gamma   90.02148033
_symmetry_Int_Tables_number   1
_chemical_formula_structural   Lu4Hf3ZrF28
_chemical_formula_sum   'Lu4 Hf3 Zr1 F28'
_cell_volume   516.17756744
_cell_formula_units_Z   1
loop_
 _symmetry_equiv_pos_site_id
 _symmetry_equiv_pos_as_xyz
  1  'x, y, z'
loop_
 _atom_site_type_symbol
 _atom_site_label
 _atom_site_symmetry_multiplicity
 _atom_site_fract_x
 _atom_site_fract_y
 _atom_site_fract_z
 _atom_site_occupancy
  Lu  Lu0  1  0.757232  0.815739  0.765368  1
  Lu  Lu1  1  0.256130  0.183311  0.734553  1
  Lu  Lu2  1  0.242804  0.183414  0.234739  1
  Lu  Lu3  1  0.743149  0.817765  0.265484  1
  Hf  Hf4  1  0.755361  0.274177  0.955854  1
  Hf  Hf5  1  0.256558  0.725535  0.544496  1
  Hf  Hf6  1  0.244374  0.725901  0.044479  1
  Zr  Zr7  1  0.743797  0.273783  0.456252  1
  F  F8  1  0.465247  0.709602  0.918116  1
  F  F9  1  0.954914  0.292244  0.588035  1
  F  F10  1  0.531825  0.290582  0.080821  1
  F  F11  1  0.036540  0.709927  0.417779  1
  F  F12  1  0.432238  0.276802  0.547334  1
  F  F13  1  0.946137  0.723197  0.949329  1
  F  F14  1  0.555253  0.720495  0.450477  1
  F  F15  1  0.052393  0.277579  0.051309  1
  F  F16  1  0.772994  0.527631  0.858638  1
  F  F17  1  0.272983  0.471659  0.642036  1
  F  F18  1  0.225559  0.472524  0.141858  1
  F  F19  1  0.727559  0.531386  0.355359  1
  F  F20  1  0.759116  0.019990  0.059264  1
  F  F21  1  0.261868  0.979803  0.442393  1
  F  F22  1  0.242175  0.980068  0.940440  1
  F  F23  1  0.740699  0.015355  0.557842  1
  F  F24  1  0.979528  0.729914  0.649938  1
  F  F25  1  0.481254  0.267499  0.849916  1
  F  F26  1  0.033864  0.269157  0.354064  1
  F  F27  1  0.521306  0.733284  0.148420  1
  F  F28  1  0.034541  0.748156  0.174224  1
  F  F29  1  0.540219  0.254430  0.320014  1
  F  F30  1  0.969509  0.253187  0.827417  1
  F  F31  1  0.466606  0.743688  0.675774  1
  F  F32  1  0.422820  0.971378  0.234311  1
  F  F33  1  0.922154  0.028845  0.268643  1
  F  F34  1  0.575862  0.029108  0.763497  1
  F  F35  1  0.075431  0.972884  0.731531  1
