# generated using pymatgen
data_Dy5Er(AuO7)2
_symmetry_space_group_name_H-M   'P 1'
_cell_length_a   6.48792131
_cell_length_b   6.49031022
_cell_length_c   7.43111400
_cell_angle_alpha   89.99902833
_cell_angle_beta   89.99989321
_cell_angle_gamma   108.84174052
_symmetry_Int_Tables_number   1
_chemical_formula_structural   Dy5Er(AuO7)2
_chemical_formula_sum   'Dy5 Er1 Au2 O14'
_cell_volume   296.14623586
_cell_formula_units_Z   1
loop_
 _symmetry_equiv_pos_site_id
 _symmetry_equiv_pos_as_xyz
  1  'x, y, z'
loop_
 _atom_site_type_symbol
 _atom_site_label
 _atom_site_symmetry_multiplicity
 _atom_site_fract_x
 _atom_site_fract_y
 _atom_site_fract_z
 _atom_site_occupancy
  Dy  Dy0  1  0.002120  0.471306  0.749902  1
  Dy  Dy1  1  0.997805  0.528561  0.249901  1
  Dy  Dy2  1  0.528614  0.997849  0.750102  1
  Dy  Dy3  1  0.500348  0.500164  0.499711  1
  Dy  Dy4  1  0.499368  0.499177  0.000288  1
  Er  Er5  1  0.471407  0.001971  0.250079  1
  Au  Au6  1  0.000041  0.000108  0.499554  1
  Au  Au7  1  0.000064  0.000130  0.000444  1
  O  O8  1  0.637983  0.361651  0.750004  1
  O  O9  1  0.362000  0.641133  0.249997  1
  O  O10  1  0.919645  0.079514  0.750000  1
  O  O11  1  0.081784  0.920816  0.250002  1
  O  O12  1  0.916609  0.669705  0.524399  1
  O  O13  1  0.083315  0.330522  0.024768  1
  O  O14  1  0.330826  0.081849  0.977081  1
  O  O15  1  0.669192  0.918315  0.473798  1
  O  O16  1  0.367739  0.632311  0.750001  1
  O  O17  1  0.631197  0.364533  0.250004  1
  O  O18  1  0.916935  0.669917  0.975437  1
  O  O19  1  0.082996  0.330312  0.475075  1
  O  O20  1  0.330608  0.081535  0.523087  1
  O  O21  1  0.669403  0.918623  0.026364  1
