# generated using pymatgen
data_Mn6CrRe6
_symmetry_space_group_name_H-M   'P 1'
_cell_length_a   9.06937255
_cell_length_b   9.06937230
_cell_length_c   9.06937275
_cell_angle_alpha   30.00643010
_cell_angle_beta   30.00643574
_cell_angle_gamma   30.00643156
_symmetry_Int_Tables_number   1
_chemical_formula_structural   Mn6CrRe6
_chemical_formula_sum   'Mn6 Cr1 Re6'
_cell_volume   165.26146040
_cell_formula_units_Z   1
loop_
 _symmetry_equiv_pos_site_id
 _symmetry_equiv_pos_as_xyz
  1  'x, y, z'
loop_
 _atom_site_type_symbol
 _atom_site_label
 _atom_site_symmetry_multiplicity
 _atom_site_fract_x
 _atom_site_fract_y
 _atom_site_fract_z
 _atom_site_occupancy
  Mn  Mn0  1  0.584575  0.094651  0.094651  1
  Mn  Mn1  1  0.094651  0.094651  0.584575  1
  Mn  Mn2  1  0.094651  0.584575  0.094651  1
  Mn  Mn3  1  0.905349  0.415425  0.905349  1
  Mn  Mn4  1  0.415425  0.905349  0.905349  1
  Mn  Mn5  1  0.905349  0.905349  0.415425  1
  Cr  Cr6  1  0.000000  0.000000  0.000000  1
  Re  Re7  1  0.165736  0.165736  0.165736  1
  Re  Re8  1  0.834264  0.834264  0.834264  1
  Re  Re9  1  0.348057  0.348057  0.348057  1
  Re  Re10  1  0.651943  0.651943  0.651943  1
  Re  Re11  1  0.451837  0.451837  0.451837  1
  Re  Re12  1  0.548163  0.548163  0.548163  1
