# generated using pymatgen
data_Y12Tc3Ag
_symmetry_space_group_name_H-M   'P 1'
_cell_length_a   6.37246675
_cell_length_b   7.50272000
_cell_length_c   9.29716700
_cell_angle_alpha   90.00000000
_cell_angle_beta   90.00000000
_cell_angle_gamma   90.21747362
_symmetry_Int_Tables_number   1
_chemical_formula_structural   Y12Tc3Ag
_chemical_formula_sum   'Y12 Tc3 Ag1'
_cell_volume   444.50210384
_cell_formula_units_Z   1
loop_
 _symmetry_equiv_pos_site_id
 _symmetry_equiv_pos_as_xyz
  1  'x, y, z'
loop_
 _atom_site_type_symbol
 _atom_site_label
 _atom_site_symmetry_multiplicity
 _atom_site_fract_x
 _atom_site_fract_y
 _atom_site_fract_z
 _atom_site_occupancy
  Y  Y0  1  0.616413  0.048720  0.250000  1
  Y  Y1  1  0.367098  0.955728  0.750000  1
  Y  Y2  1  0.125709  0.461862  0.750000  1
  Y  Y3  1  0.865640  0.523023  0.250000  1
  Y  Y4  1  0.167448  0.191073  0.053756  1
  Y  Y5  1  0.828446  0.825153  0.929268  1
  Y  Y6  1  0.667556  0.320066  0.934064  1
  Y  Y7  1  0.828446  0.825153  0.570732  1
  Y  Y8  1  0.347681  0.666235  0.056067  1
  Y  Y9  1  0.167448  0.191073  0.446244  1
  Y  Y10  1  0.347681  0.666235  0.443933  1
  Y  Y11  1  0.667556  0.320066  0.565936  1
  Tc  Tc12  1  0.449394  0.385376  0.250000  1
  Tc  Tc13  1  0.536470  0.614247  0.750000  1
  Tc  Tc14  1  0.964793  0.116254  0.750000  1
  Ag  Ag15  1  0.052219  0.889737  0.250000  1
