# generated using pymatgen
data_DyU3(TcB4)4
_symmetry_space_group_name_H-M   'P 1'
_cell_length_a   3.60861500
_cell_length_b   5.93713374
_cell_length_c   11.49042044
_cell_angle_alpha   89.94269513
_cell_angle_beta   90.00000000
_cell_angle_gamma   90.00000000
_symmetry_Int_Tables_number   1
_chemical_formula_structural   DyU3(TcB4)4
_chemical_formula_sum   'Dy1 U3 Tc4 B16'
_cell_volume   246.18017998
_cell_formula_units_Z   1
loop_
 _symmetry_equiv_pos_site_id
 _symmetry_equiv_pos_as_xyz
  1  'x, y, z'
loop_
 _atom_site_type_symbol
 _atom_site_label
 _atom_site_symmetry_multiplicity
 _atom_site_fract_x
 _atom_site_fract_y
 _atom_site_fract_z
 _atom_site_occupancy
  Dy  Dy0  1  0.000000  0.627933  0.649654  1
  U  U1  1  0.000000  0.371998  0.349696  1
  U  U2  1  0.000000  0.127385  0.849832  1
  U  U3  1  0.000000  0.871473  0.150193  1
  Tc  Tc4  1  0.000000  0.640191  0.909715  1
  Tc  Tc5  1  0.000000  0.359215  0.094879  1
  Tc  Tc6  1  0.000000  0.138293  0.590095  1
  Tc  Tc7  1  0.000000  0.862182  0.404511  1
  B  B8  1  0.500000  0.976735  0.692631  1
  B  B9  1  0.500000  0.026454  0.307166  1
  B  B10  1  0.500000  0.472777  0.808716  1
  B  B11  1  0.500000  0.526820  0.192915  1
  B  B12  1  0.500000  0.868904  0.967915  1
  B  B13  1  0.500000  0.133010  0.032372  1
  B  B14  1  0.500000  0.364311  0.530858  1
  B  B15  1  0.500000  0.634014  0.466919  1
  B  B16  1  0.500000  0.791622  0.814286  1
  B  B17  1  0.500000  0.209183  0.188391  1
  B  B18  1  0.500000  0.286073  0.688120  1
  B  B19  1  0.500000  0.709251  0.311694  1
  B  B20  1  0.500000  0.886440  0.546561  1
  B  B21  1  0.500000  0.114461  0.452961  1
  B  B22  1  0.500000  0.386030  0.953158  1
  B  B23  1  0.500000  0.615246  0.046760  1
