# generated using pymatgen
data_HfZr(Pa2Rh5)2
_symmetry_space_group_name_H-M   'P 1'
_cell_length_a   5.79159141
_cell_length_b   5.79159113
_cell_length_c   8.97780000
_cell_angle_alpha   90.00000000
_cell_angle_beta   90.00000000
_cell_angle_gamma   104.93487466
_symmetry_Int_Tables_number   1
_chemical_formula_structural   HfZr(Pa2Rh5)2
_chemical_formula_sum   'Hf1 Zr1 Pa4 Rh10'
_cell_volume   290.96549113
_cell_formula_units_Z   1
loop_
 _symmetry_equiv_pos_site_id
 _symmetry_equiv_pos_as_xyz
  1  'x, y, z'
loop_
 _atom_site_type_symbol
 _atom_site_label
 _atom_site_symmetry_multiplicity
 _atom_site_fract_x
 _atom_site_fract_y
 _atom_site_fract_z
 _atom_site_occupancy
  Hf  Hf0  1  0.588936  0.588936  0.750000  1
  Zr  Zr1  1  0.411730  0.411730  0.250000  1
  Pa  Pa2  1  0.793066  0.207313  0.500023  1
  Pa  Pa3  1  0.207313  0.793066  0.999977  1
  Pa  Pa4  1  0.207313  0.793066  0.500023  1
  Pa  Pa5  1  0.793066  0.207313  0.999977  1
  Rh  Rh6  1  0.704746  0.704746  0.034769  1
  Rh  Rh7  1  0.704746  0.704746  0.465231  1
  Rh  Rh8  1  0.296343  0.296343  0.961401  1
  Rh  Rh9  1  0.296343  0.296343  0.538599  1
  Rh  Rh10  1  0.488278  0.026555  0.750000  1
  Rh  Rh11  1  0.512486  0.971518  0.250000  1
  Rh  Rh12  1  0.015253  0.015253  0.250000  1
  Rh  Rh13  1  0.982310  0.982310  0.750000  1
  Rh  Rh14  1  0.026555  0.488278  0.750000  1
  Rh  Rh15  1  0.971518  0.512486  0.250000  1
