# generated using pymatgen
data_Ce2Cr2Fe2Co8P7
_symmetry_space_group_name_H-M   'P 1'
_cell_length_a   9.03279569
_cell_length_b   9.03301157
_cell_length_c   3.66961900
_cell_angle_alpha   90.00000000
_cell_angle_beta   90.00000000
_cell_angle_gamma   120.34491872
_symmetry_Int_Tables_number   1
_chemical_formula_structural   Ce2Cr2Fe2Co8P7
_chemical_formula_sum   'Ce2 Cr2 Fe2 Co8 P7'
_cell_volume   258.39636331
_cell_formula_units_Z   1
loop_
 _symmetry_equiv_pos_site_id
 _symmetry_equiv_pos_as_xyz
  1  'x, y, z'
loop_
 _atom_site_type_symbol
 _atom_site_label
 _atom_site_symmetry_multiplicity
 _atom_site_fract_x
 _atom_site_fract_y
 _atom_site_fract_z
 _atom_site_occupancy
  Ce  Ce0  1  0.999314  0.998464  0.000000  1
  Ce  Ce1  1  0.333075  0.665808  0.500000  1
  Cr  Cr2  1  0.883747  0.429198  0.500000  1
  Cr  Cr3  1  0.550834  0.116529  0.500000  1
  Fe  Fe4  1  0.390914  0.211671  0.000000  1
  Fe  Fe5  1  0.567842  0.452205  0.500000  1
  Co  Co6  1  0.098404  0.395758  0.000000  1
  Co  Co7  1  0.296422  0.900016  0.000000  1
  Co  Co8  1  0.603060  0.706164  0.000000  1
  Co  Co9  1  0.820044  0.608202  0.000000  1
  Co  Co10  1  0.789729  0.179715  0.000000  1
  Co  Co11  1  0.049071  0.767562  0.500000  1
  Co  Co12  1  0.719970  0.952166  0.500000  1
  Co  Co13  1  0.232159  0.283617  0.500000  1
  P  P14  1  0.069751  0.629418  0.000000  1
  P  P15  1  0.559385  0.929828  0.000000  1
  P  P16  1  0.369289  0.440194  0.000000  1
  P  P17  1  0.771975  0.730017  0.500000  1
  P  P18  1  0.958994  0.226554  0.500000  1
  P  P19  1  0.271039  0.045460  0.500000  1
  P  P20  1  0.664985  0.331453  0.000000  1
