# generated using pymatgen
data_Sm4Th(B3Os)2
_symmetry_space_group_name_H-M   'P 1'
_cell_length_a   5.57101721
_cell_length_b   5.57101883
_cell_length_c   8.59352745
_cell_angle_alpha   71.08650300
_cell_angle_beta   71.08649430
_cell_angle_gamma   60.00000667
_symmetry_Int_Tables_number   1
_chemical_formula_structural   Sm4Th(B3Os)2
_chemical_formula_sum   'Sm4 Th1 B6 Os2'
_cell_volume   214.18937995
_cell_formula_units_Z   1
loop_
 _symmetry_equiv_pos_site_id
 _symmetry_equiv_pos_as_xyz
  1  'x, y, z'
loop_
 _atom_site_type_symbol
 _atom_site_label
 _atom_site_symmetry_multiplicity
 _atom_site_fract_x
 _atom_site_fract_y
 _atom_site_fract_z
 _atom_site_occupancy
  Sm  Sm0  1  0.749509  0.749509  0.751474  1
  Sm  Sm1  1  0.250491  0.250491  0.248526  1
  Sm  Sm2  1  0.583760  0.583760  0.248719  1
  Sm  Sm3  1  0.416240  0.416240  0.751281  1
  Th  Th4  1  0.000000  0.000000  0.000000  1
  B  B5  1  0.500000  0.173635  0.500000  1
  B  B6  1  0.826365  0.500000  0.500000  1
  B  B7  1  0.173635  0.826366  0.500000  1
  B  B8  1  0.173635  0.500000  0.500000  1
  B  B9  1  0.826365  0.173635  0.500000  1
  B  B10  1  0.500000  0.826365  0.500000  1
  Os  Os11  1  0.887245  0.887245  0.338265  1
  Os  Os12  1  0.112755  0.112755  0.661735  1
