# generated using pymatgen
data_Er3ZnCd2Si2Au
_symmetry_space_group_name_H-M   'P 1'
_cell_length_a   7.11749493
_cell_length_b   7.11749648
_cell_length_c   4.30377700
_cell_angle_alpha   90.00000000
_cell_angle_beta   90.00000000
_cell_angle_gamma   120.94001931
_symmetry_Int_Tables_number   1
_chemical_formula_structural   Er3ZnCd2Si2Au
_chemical_formula_sum   'Er3 Zn1 Cd2 Si2 Au1'
_cell_volume   187.00044413
_cell_formula_units_Z   1
loop_
 _symmetry_equiv_pos_site_id
 _symmetry_equiv_pos_as_xyz
  1  'x, y, z'
loop_
 _atom_site_type_symbol
 _atom_site_label
 _atom_site_symmetry_multiplicity
 _atom_site_fract_x
 _atom_site_fract_y
 _atom_site_fract_z
 _atom_site_occupancy
  Er  Er0  1  0.582786  0.001878  0.000000  1
  Er  Er1  1  0.001878  0.582786  0.000000  1
  Er  Er2  1  0.424552  0.424552  0.000000  1
  Zn  Zn3  1  0.744972  0.744972  0.500000  1
  Cd  Cd4  1  0.250881  0.998079  0.500000  1
  Cd  Cd5  1  0.998079  0.250881  0.500000  1
  Si  Si6  1  0.346304  0.669218  0.500000  1
  Si  Si7  1  0.669218  0.346304  0.500000  1
  Au  Au8  1  0.981328  0.981328  0.000000  1
