# generated using pymatgen
data_Pt(SCl6)2
_symmetry_space_group_name_H-M   'P 1'
_cell_length_a   8.42793285
_cell_length_b   8.42793269
_cell_length_c   8.42793249
_cell_angle_alpha   78.71287869
_cell_angle_beta   78.71287446
_cell_angle_gamma   78.71288324
_symmetry_Int_Tables_number   1
_chemical_formula_structural   Pt(SCl6)2
_chemical_formula_sum   'Pt1 S2 Cl12'
_cell_volume   567.93859365
_cell_formula_units_Z   1
loop_
 _symmetry_equiv_pos_site_id
 _symmetry_equiv_pos_as_xyz
  1  'x, y, z'
loop_
 _atom_site_type_symbol
 _atom_site_label
 _atom_site_symmetry_multiplicity
 _atom_site_fract_x
 _atom_site_fract_y
 _atom_site_fract_z
 _atom_site_occupancy
  Pt  Pt0  1  0.000000  0.000000  0.000000  1
  S  S1  1  0.208612  0.208612  0.208612  1
  S  S2  1  0.791388  0.791388  0.791388  1
  Cl  Cl3  1  0.834595  0.834595  0.541210  1
  Cl  Cl4  1  0.872577  0.182757  0.182757  1
  Cl  Cl5  1  0.182757  0.182757  0.872577  1
  Cl  Cl6  1  0.182757  0.872577  0.182757  1
  Cl  Cl7  1  0.817243  0.127423  0.817243  1
  Cl  Cl8  1  0.127423  0.817243  0.817243  1
  Cl  Cl9  1  0.817243  0.817243  0.127423  1
  Cl  Cl10  1  0.458790  0.165405  0.165405  1
  Cl  Cl11  1  0.165405  0.165405  0.458790  1
  Cl  Cl12  1  0.165405  0.458790  0.165405  1
  Cl  Cl13  1  0.834595  0.541210  0.834595  1
  Cl  Cl14  1  0.541210  0.834595  0.834595  1
