# generated using pymatgen
data_BaLaGa3O7
_symmetry_space_group_name_H-M   'P 1'
_cell_length_a   8.25363766
_cell_length_b   8.25363832
_cell_length_c   5.49193200
_cell_angle_alpha   90.00000000
_cell_angle_beta   90.00000000
_cell_angle_gamma   91.23581375
_symmetry_Int_Tables_number   1
_chemical_formula_structural   BaLaGa3O7
_chemical_formula_sum   'Ba2 La2 Ga6 O14'
_cell_volume   374.03733561
_cell_formula_units_Z   2
loop_
 _symmetry_equiv_pos_site_id
 _symmetry_equiv_pos_as_xyz
  1  'x, y, z'
loop_
 _atom_site_type_symbol
 _atom_site_label
 _atom_site_symmetry_multiplicity
 _atom_site_fract_x
 _atom_site_fract_y
 _atom_site_fract_z
 _atom_site_occupancy
  Ba  Ba0  1  0.162997  0.837003  0.494242  1
  Ba  Ba1  1  0.837003  0.162997  0.494242  1
  La  La2  1  0.661615  0.661615  0.514974  1
  La  La3  1  0.338385  0.338385  0.514974  1
  Ga  Ga4  1  0.361621  0.638379  0.032924  1
  Ga  Ga5  1  0.850698  0.850698  0.969158  1
  Ga  Ga6  1  0.638379  0.361621  0.032924  1
  Ga  Ga7  1  0.149302  0.149302  0.969158  1
  Ga  Ga8  1  0.500000  0.000000  0.992943  1
  Ga  Ga9  1  0.000000  0.500000  0.992943  1
  O  O10  1  0.000000  0.000000  0.846345  1
  O  O11  1  0.500000  0.500000  0.207188  1
  O  O12  1  0.376180  0.623820  0.700394  1
  O  O13  1  0.839104  0.839104  0.299258  1
  O  O14  1  0.623820  0.376180  0.700394  1
  O  O15  1  0.160896  0.160896  0.299258  1
  O  O16  1  0.421656  0.832597  0.188678  1
  O  O17  1  0.903862  0.659054  0.795993  1
  O  O18  1  0.578344  0.167403  0.188678  1
  O  O19  1  0.096138  0.340946  0.795993  1
  O  O20  1  0.340946  0.096138  0.795993  1
  O  O21  1  0.832597  0.421656  0.188678  1
  O  O22  1  0.659054  0.903862  0.795993  1
  O  O23  1  0.167403  0.578344  0.188678  1
