# generated using pymatgen
data_Zr3Be2POs3
_symmetry_space_group_name_H-M   'P 1'
_cell_length_a   6.75083300
_cell_length_b   6.75083386
_cell_length_c   3.37830600
_cell_angle_alpha   90.00000000
_cell_angle_beta   90.00000000
_cell_angle_gamma   120.00001049
_symmetry_Int_Tables_number   1
_chemical_formula_structural   Zr3Be2POs3
_chemical_formula_sum   'Zr3 Be2 P1 Os3'
_cell_volume   133.33505822
_cell_formula_units_Z   1
loop_
 _symmetry_equiv_pos_site_id
 _symmetry_equiv_pos_as_xyz
  1  'x, y, z'
loop_
 _atom_site_type_symbol
 _atom_site_label
 _atom_site_symmetry_multiplicity
 _atom_site_fract_x
 _atom_site_fract_y
 _atom_site_fract_z
 _atom_site_occupancy
  Zr  Zr0  1  0.406928  0.399034  0.500000  1
  Zr  Zr1  1  0.600966  0.007894  0.500000  1
  Zr  Zr2  1  0.992106  0.593072  0.500000  1
  Be  Be3  1  0.666667  0.333333  0.000000  1
  Be  Be4  1  0.000000  0.000000  0.500000  1
  P  P5  1  0.333333  0.666667  0.000000  1
  Os  Os6  1  0.751319  0.753345  0.000000  1
  Os  Os7  1  0.246655  0.997974  0.000000  1
  Os  Os8  1  0.002026  0.248681  0.000000  1
