# generated using pymatgen
data_K6Li4TiSnAs6
_symmetry_space_group_name_H-M   'P 1'
_cell_length_a   10.18987142
_cell_length_b   10.18987293
_cell_length_c   15.38812300
_cell_angle_alpha   90.00000000
_cell_angle_beta   90.00000000
_cell_angle_gamma   143.06760249
_symmetry_Int_Tables_number   1
_chemical_formula_structural   K6Li4TiSnAs6
_chemical_formula_sum   'K12 Li8 Ti2 Sn2 As12'
_cell_volume   960.07532701
_cell_formula_units_Z   2
loop_
 _symmetry_equiv_pos_site_id
 _symmetry_equiv_pos_as_xyz
  1  'x, y, z'
loop_
 _atom_site_type_symbol
 _atom_site_label
 _atom_site_symmetry_multiplicity
 _atom_site_fract_x
 _atom_site_fract_y
 _atom_site_fract_z
 _atom_site_occupancy
  K  K0  1  0.599304  0.939407  0.827762  1
  K  K1  1  0.279060  0.277656  0.322305  1
  K  K2  1  0.220940  0.222344  0.822305  1
  K  K3  1  0.722344  0.720940  0.677695  1
  K  K4  1  0.439407  0.099304  0.672238  1
  K  K5  1  0.900696  0.560593  0.327762  1
  K  K6  1  0.060593  0.400696  0.172238  1
  K  K7  1  0.394150  0.052510  0.170322  1
  K  K8  1  0.552510  0.894150  0.329678  1
  K  K9  1  0.105850  0.447490  0.670322  1
  K  K10  1  0.947490  0.605850  0.829678  1
  K  K11  1  0.777656  0.779060  0.177695  1
  Li  Li12  1  0.082861  0.917139  0.000000  1
  Li  Li13  1  0.583609  0.416391  0.500000  1
  Li  Li14  1  0.916391  0.083609  0.000000  1
  Li  Li15  1  0.750480  0.249520  0.000000  1
  Li  Li16  1  0.749520  0.250480  0.500000  1
  Li  Li17  1  0.248061  0.751939  0.000000  1
  Li  Li18  1  0.251939  0.748061  0.500000  1
  Li  Li19  1  0.417139  0.582861  0.500000  1
  Ti  Ti20  1  0.914529  0.085471  0.500000  1
  Ti  Ti21  1  0.585471  0.414529  0.000000  1
  Sn  Sn22  1  0.086126  0.913874  0.500000  1
  Sn  Sn23  1  0.413874  0.586126  0.000000  1
  As  As24  1  0.064450  0.383984  0.408870  1
  As  As25  1  0.883984  0.564450  0.091130  1
  As  As26  1  0.435550  0.116016  0.908870  1
  As  As27  1  0.616016  0.935550  0.591130  1
  As  As28  1  0.922790  0.595353  0.598974  1
  As  As29  1  0.095353  0.422790  0.901026  1
  As  As30  1  0.577210  0.904647  0.098974  1
  As  As31  1  0.404647  0.077210  0.401026  1
  As  As32  1  0.223361  0.233418  0.593007  1
  As  As33  1  0.733418  0.723361  0.906993  1
  As  As34  1  0.276639  0.266582  0.093007  1
  As  As35  1  0.766582  0.776639  0.406993  1
