# generated using pymatgen
data_LuSc6CoBr12
_symmetry_space_group_name_H-M   'P 1'
_cell_length_a   8.76254644
_cell_length_b   8.76254724
_cell_length_c   8.76254755
_cell_angle_alpha   106.87617676
_cell_angle_beta   106.87618125
_cell_angle_gamma   106.87618700
_symmetry_Int_Tables_number   1
_chemical_formula_structural   LuSc6CoBr12
_chemical_formula_sum   'Lu1 Sc6 Co1 Br12'
_cell_volume   562.20268898
_cell_formula_units_Z   1
loop_
 _symmetry_equiv_pos_site_id
 _symmetry_equiv_pos_as_xyz
  1  'x, y, z'
loop_
 _atom_site_type_symbol
 _atom_site_label
 _atom_site_symmetry_multiplicity
 _atom_site_fract_x
 _atom_site_fract_y
 _atom_site_fract_z
 _atom_site_occupancy
  Lu  Lu0  1  0.500000  0.500000  0.500000  1
  Sc  Sc1  1  0.295338  0.092912  0.020991  1
  Sc  Sc2  1  0.092912  0.020991  0.295338  1
  Sc  Sc3  1  0.020991  0.295338  0.092912  1
  Sc  Sc4  1  0.704662  0.907088  0.979009  1
  Sc  Sc5  1  0.907088  0.979009  0.704662  1
  Sc  Sc6  1  0.979009  0.704662  0.907088  1
  Co  Co7  1  0.000000  0.000000  0.000000  1
  Br  Br8  1  0.219703  0.069776  0.680292  1
  Br  Br9  1  0.069776  0.680292  0.219703  1
  Br  Br10  1  0.680292  0.219703  0.069776  1
  Br  Br11  1  0.780297  0.930224  0.319708  1
  Br  Br12  1  0.930224  0.319708  0.780297  1
  Br  Br13  1  0.319708  0.780297  0.930224  1
  Br  Br14  1  0.383590  0.458496  0.157308  1
  Br  Br15  1  0.458496  0.157308  0.383590  1
  Br  Br16  1  0.157308  0.383590  0.458496  1
  Br  Br17  1  0.616410  0.541504  0.842692  1
  Br  Br18  1  0.541504  0.842692  0.616410  1
  Br  Br19  1  0.842692  0.616410  0.541504  1
