# generated using pymatgen
data_La4Mg4Re3H22
_symmetry_space_group_name_H-M   'P 1'
_cell_length_a   7.02326100
_cell_length_b   7.02326100
_cell_length_c   7.02326100
_cell_angle_alpha   90.00000000
_cell_angle_beta   90.00000000
_cell_angle_gamma   90.00000000
_symmetry_Int_Tables_number   1
_chemical_formula_structural   La4Mg4Re3H22
_chemical_formula_sum   'La4 Mg4 Re3 H22'
_cell_volume   346.43074214
_cell_formula_units_Z   1
loop_
 _symmetry_equiv_pos_site_id
 _symmetry_equiv_pos_as_xyz
  1  'x, y, z'
loop_
 _atom_site_type_symbol
 _atom_site_label
 _atom_site_symmetry_multiplicity
 _atom_site_fract_x
 _atom_site_fract_y
 _atom_site_fract_z
 _atom_site_occupancy
  La  La0  1  0.287770  0.287770  0.712230  1
  La  La1  1  0.287770  0.712230  0.287770  1
  La  La2  1  0.712230  0.287770  0.287770  1
  La  La3  1  0.712230  0.712230  0.712230  1
  Mg  Mg4  1  0.788538  0.788538  0.211462  1
  Mg  Mg5  1  0.788538  0.211462  0.788538  1
  Mg  Mg6  1  0.211462  0.788538  0.788538  1
  Mg  Mg7  1  0.211462  0.211462  0.211462  1
  Re  Re8  1  0.000000  0.000000  0.500000  1
  Re  Re9  1  0.000000  0.500000  0.000000  1
  Re  Re10  1  0.500000  0.000000  0.000000  1
  H  H11  1  0.000000  0.500000  0.252735  1
  H  H12  1  0.500000  0.747265  0.000000  1
  H  H13  1  0.747265  0.000000  0.500000  1
  H  H14  1  0.000000  0.747265  0.500000  1
  H  H15  1  0.500000  0.000000  0.252735  1
  H  H16  1  0.747265  0.500000  0.000000  1
  H  H17  1  0.000000  0.500000  0.747265  1
  H  H18  1  0.500000  0.252735  0.000000  1
  H  H19  1  0.000000  0.252735  0.500000  1
  H  H20  1  0.500000  0.000000  0.747265  1
  H  H21  1  0.252735  0.000000  0.500000  1
  H  H22  1  0.252735  0.500000  0.000000  1
  H  H23  1  0.000000  0.000000  0.247777  1
  H  H24  1  0.000000  0.752223  0.000000  1
  H  H25  1  0.752223  0.000000  0.000000  1
  H  H26  1  0.000000  0.000000  0.752223  1
  H  H27  1  0.000000  0.247777  0.000000  1
  H  H28  1  0.247777  0.000000  0.000000  1
  H  H29  1  0.628227  0.628227  0.371773  1
  H  H30  1  0.628227  0.371773  0.628227  1
  H  H31  1  0.371773  0.628227  0.628227  1
  H  H32  1  0.371773  0.371773  0.371773  1
