# generated using pymatgen
data_SmY3C2Cl3
_symmetry_space_group_name_H-M   'P 1'
_cell_length_a   3.68260100
_cell_length_b   10.56502300
_cell_length_c   19.99267600
_cell_angle_alpha   90.00000000
_cell_angle_beta   90.00000000
_cell_angle_gamma   90.00000000
_symmetry_Int_Tables_number   1
_chemical_formula_structural   SmY3C2Cl3
_chemical_formula_sum   'Sm4 Y12 C8 Cl12'
_cell_volume   777.85033215
_cell_formula_units_Z   4
loop_
 _symmetry_equiv_pos_site_id
 _symmetry_equiv_pos_as_xyz
  1  'x, y, z'
loop_
 _atom_site_type_symbol
 _atom_site_label
 _atom_site_symmetry_multiplicity
 _atom_site_fract_x
 _atom_site_fract_y
 _atom_site_fract_z
 _atom_site_occupancy
  Sm  Sm0  1  0.250000  0.862215  0.573133  1
  Sm  Sm1  1  0.750000  0.137785  0.426867  1
  Sm  Sm2  1  0.750000  0.637785  0.073133  1
  Sm  Sm3  1  0.250000  0.362215  0.926867  1
  Y  Y4  1  0.250000  0.864242  0.744363  1
  Y  Y5  1  0.750000  0.135758  0.255637  1
  Y  Y6  1  0.750000  0.635758  0.244363  1
  Y  Y7  1  0.250000  0.364242  0.755637  1
  Y  Y8  1  0.250000  0.873942  0.166354  1
  Y  Y9  1  0.750000  0.126058  0.833646  1
  Y  Y10  1  0.750000  0.626058  0.666354  1
  Y  Y11  1  0.250000  0.373942  0.333646  1
  Y  Y12  1  0.250000  0.898259  0.331259  1
  Y  Y13  1  0.750000  0.101741  0.668741  1
  Y  Y14  1  0.750000  0.601741  0.831259  1
  Y  Y15  1  0.250000  0.398259  0.168741  1
  C  C16  1  0.250000  0.613472  0.750508  1
  C  C17  1  0.750000  0.386528  0.249492  1
  C  C18  1  0.750000  0.886528  0.250508  1
  C  C19  1  0.250000  0.113472  0.749492  1
  C  C20  1  0.250000  0.634832  0.154330  1
  C  C21  1  0.750000  0.365168  0.845670  1
  C  C22  1  0.750000  0.865168  0.654330  1
  C  C23  1  0.250000  0.134832  0.345670  1
  Cl  Cl24  1  0.250000  0.608388  0.559435  1
  Cl  Cl25  1  0.750000  0.391612  0.440565  1
  Cl  Cl26  1  0.750000  0.891612  0.059435  1
  Cl  Cl27  1  0.250000  0.108388  0.940565  1
  Cl  Cl28  1  0.250000  0.626372  0.949553  1
  Cl  Cl29  1  0.750000  0.373628  0.050447  1
  Cl  Cl30  1  0.750000  0.873628  0.449553  1
  Cl  Cl31  1  0.250000  0.126372  0.550447  1
  Cl  Cl32  1  0.250000  0.637906  0.352883  1
  Cl  Cl33  1  0.750000  0.362094  0.647117  1
  Cl  Cl34  1  0.750000  0.862094  0.852883  1
  Cl  Cl35  1  0.250000  0.137906  0.147117  1
