# generated using pymatgen
data_Ac7Yb12HoSn16
_symmetry_space_group_name_H-M   'P 1'
_cell_length_a   8.16619328
_cell_length_b   8.64815982
_cell_length_c   16.43128400
_cell_angle_alpha   90.05876553
_cell_angle_beta   89.95716599
_cell_angle_gamma   89.98582626
_symmetry_Int_Tables_number   1
_chemical_formula_structural   Ac7Yb12HoSn16
_chemical_formula_sum   'Ac7 Yb12 Ho1 Sn16'
_cell_volume   1160.41811649
_cell_formula_units_Z   1
loop_
 _symmetry_equiv_pos_site_id
 _symmetry_equiv_pos_as_xyz
  1  'x, y, z'
loop_
 _atom_site_type_symbol
 _atom_site_label
 _atom_site_symmetry_multiplicity
 _atom_site_fract_x
 _atom_site_fract_y
 _atom_site_fract_z
 _atom_site_occupancy
  Ac  Ac0  1  0.493925  0.316172  0.904594  1
  Ac  Ac1  1  0.993269  0.181603  0.595633  1
  Ac  Ac2  1  0.506186  0.681347  0.404090  1
  Ac  Ac3  1  0.006314  0.820114  0.091856  1
  Ac  Ac4  1  0.508971  0.680930  0.094050  1
  Ac  Ac5  1  0.006484  0.818396  0.404100  1
  Ac  Ac6  1  0.493645  0.317743  0.597723  1
  Yb  Yb7  1  0.328605  0.830532  0.877657  1
  Yb  Yb8  1  0.830987  0.671327  0.625438  1
  Yb  Yb9  1  0.669247  0.171056  0.376403  1
  Yb  Yb10  1  0.167914  0.326605  0.122042  1
  Yb  Yb11  1  0.670501  0.170483  0.123079  1
  Yb  Yb12  1  0.169584  0.329632  0.376190  1
  Yb  Yb13  1  0.329527  0.830233  0.625663  1
  Yb  Yb14  1  0.830741  0.669783  0.876236  1
  Yb  Yb15  1  0.160756  0.504305  0.751669  1
  Yb  Yb16  1  0.660829  0.996015  0.752271  1
  Yb  Yb17  1  0.839660  0.493845  0.249019  1
  Yb  Yb18  1  0.338735  0.005561  0.249546  1
  Ho  Ho19  1  0.990234  0.192222  0.899699  1
  Sn  Sn20  1  0.336085  0.039128  0.038095  1
  Sn  Sn21  1  0.836643  0.461837  0.461002  1
  Sn  Sn22  1  0.662853  0.961288  0.540265  1
  Sn  Sn23  1  0.160565  0.529906  0.957875  1
  Sn  Sn24  1  0.673659  0.966711  0.958135  1
  Sn  Sn25  1  0.163550  0.539157  0.540341  1
  Sn  Sn26  1  0.336484  0.038584  0.461106  1
  Sn  Sn27  1  0.838069  0.454894  0.036431  1
  Sn  Sn28  1  0.533346  0.608135  0.751008  1
  Sn  Sn29  1  0.029810  0.894247  0.754066  1
  Sn  Sn30  1  0.467408  0.389819  0.249547  1
  Sn  Sn31  1  0.967540  0.109962  0.250101  1
  Sn  Sn32  1  0.281068  0.135014  0.753689  1
  Sn  Sn33  1  0.791533  0.363526  0.752695  1
  Sn  Sn34  1  0.712755  0.867233  0.249455  1
  Sn  Sn35  1  0.212520  0.632660  0.249229  1
