# generated using pymatgen
data_NdYRe7Si4Mo
_symmetry_space_group_name_H-M   'P 1'
_cell_length_a   7.15946736
_cell_length_b   7.76237302
_cell_length_c   4.17963200
_cell_angle_alpha   90.00000000
_cell_angle_beta   90.00000000
_cell_angle_gamma   90.47793001
_symmetry_Int_Tables_number   1
_chemical_formula_structural   NdYRe7Si4Mo
_chemical_formula_sum   'Nd1 Y1 Re7 Si4 Mo1'
_cell_volume   232.27269489
_cell_formula_units_Z   1
loop_
 _symmetry_equiv_pos_site_id
 _symmetry_equiv_pos_as_xyz
  1  'x, y, z'
loop_
 _atom_site_type_symbol
 _atom_site_label
 _atom_site_symmetry_multiplicity
 _atom_site_fract_x
 _atom_site_fract_y
 _atom_site_fract_z
 _atom_site_occupancy
  Nd  Nd0  1  0.998868  0.999937  0.500000  1
  Y  Y1  1  0.500661  0.498946  0.000000  1
  Re  Re2  1  0.156492  0.605071  0.500000  1
  Re  Re3  1  0.081772  0.341439  0.000000  1
  Re  Re4  1  0.920782  0.656083  0.000000  1
  Re  Re5  1  0.421450  0.838428  0.500000  1
  Re  Re6  1  0.576641  0.165547  0.500000  1
  Re  Re7  1  0.345090  0.109046  0.000000  1
  Re  Re8  1  0.845081  0.393655  0.500000  1
  Si  Si9  1  0.228283  0.805209  0.000000  1
  Si  Si10  1  0.773476  0.196810  0.000000  1
  Si  Si11  1  0.724542  0.689545  0.500000  1
  Si  Si12  1  0.275791  0.309187  0.500000  1
  Mo  Mo13  1  0.651070  0.891097  0.000000  1
