# generated using pymatgen
data_Ho8Tm4ZnCo4Sn
_symmetry_space_group_name_H-M   'P 1'
_cell_length_a   8.25756266
_cell_length_b   8.25756136
_cell_length_c   8.25756290
_cell_angle_alpha   111.99702544
_cell_angle_beta   109.30034145
_cell_angle_gamma   107.15283761
_symmetry_Int_Tables_number   1
_chemical_formula_structural   Ho8Tm4ZnCo4Sn
_chemical_formula_sum   'Ho8 Tm4 Zn1 Co4 Sn1'
_cell_volume   432.66467047
_cell_formula_units_Z   1
loop_
 _symmetry_equiv_pos_site_id
 _symmetry_equiv_pos_as_xyz
  1  'x, y, z'
loop_
 _atom_site_type_symbol
 _atom_site_label
 _atom_site_symmetry_multiplicity
 _atom_site_fract_x
 _atom_site_fract_y
 _atom_site_fract_z
 _atom_site_occupancy
  Ho  Ho0  1  0.429450  0.228691  0.200759  1
  Ho  Ho1  1  0.570550  0.771309  0.799241  1
  Ho  Ho2  1  0.027932  0.228691  0.799241  1
  Ho  Ho3  1  0.972068  0.771309  0.200759  1
  Ho  Ho4  1  0.181716  0.283614  0.465330  1
  Ho  Ho5  1  0.818284  0.716386  0.534670  1
  Ho  Ho6  1  0.181716  0.716386  0.898102  1
  Ho  Ho7  1  0.818284  0.283614  0.101898  1
  Tm  Tm8  1  0.323285  0.635590  0.312303  1
  Tm  Tm9  1  0.676715  0.364410  0.687697  1
  Tm  Tm10  1  0.323285  0.010982  0.687697  1
  Tm  Tm11  1  0.676715  0.989018  0.312303  1
  Zn  Zn12  1  0.000000  0.000000  0.000000  1
  Co  Co13  1  0.348382  0.000000  0.348382  1
  Co  Co14  1  0.651618  0.000000  0.651618  1
  Co  Co15  1  0.114895  0.614895  0.500000  1
  Co  Co16  1  0.885105  0.385105  0.500000  1
  Sn  Sn17  1  0.500000  0.500000  0.000000  1
