# generated using pymatgen
data_Na10NbAlP6
_symmetry_space_group_name_H-M   'P 1'
_cell_length_a   7.37576300
_cell_length_b   8.13650903
_cell_length_c   15.49145610
_cell_angle_alpha   59.14239299
_cell_angle_beta   90.00000000
_cell_angle_gamma   90.00000000
_symmetry_Int_Tables_number   1
_chemical_formula_structural   Na10NbAlP6
_chemical_formula_sum   'Na20 Nb2 Al2 P12'
_cell_volume   798.08582564
_cell_formula_units_Z   2
loop_
 _symmetry_equiv_pos_site_id
 _symmetry_equiv_pos_as_xyz
  1  'x, y, z'
loop_
 _atom_site_type_symbol
 _atom_site_label
 _atom_site_symmetry_multiplicity
 _atom_site_fract_x
 _atom_site_fract_y
 _atom_site_fract_z
 _atom_site_occupancy
  Na  Na0  1  0.738162  0.941471  0.245745  1
  Na  Na1  1  0.261838  0.941471  0.745745  1
  Na  Na2  1  0.773296  0.055318  0.760618  1
  Na  Na3  1  0.226704  0.055318  0.260618  1
  Na  Na4  1  0.266700  0.245076  0.418740  1
  Na  Na5  1  0.733300  0.245076  0.918740  1
  Na  Na6  1  0.218035  0.752120  0.579047  1
  Na  Na7  1  0.781965  0.752120  0.079047  1
  Na  Na8  1  0.087246  0.345751  0.582955  1
  Na  Na9  1  0.912754  0.345751  0.082955  1
  Na  Na10  1  0.405033  0.656981  0.418566  1
  Na  Na11  1  0.594967  0.656981  0.918566  1
  Na  Na12  1  0.596954  0.335709  0.242995  1
  Na  Na13  1  0.403046  0.335709  0.742995  1
  Na  Na14  1  0.909006  0.663091  0.760184  1
  Na  Na15  1  0.090994  0.663091  0.260184  1
  Na  Na16  1  0.771410  0.423270  0.407938  1
  Na  Na17  1  0.228590  0.423270  0.907938  1
  Na  Na18  1  0.741859  0.578803  0.589649  1
  Na  Na19  1  0.258141  0.578803  0.089649  1
  Nb  Nb20  1  0.616395  0.989474  0.578601  1
  Nb  Nb21  1  0.383605  0.989474  0.078601  1
  Al  Al22  1  0.888265  0.012123  0.416070  1
  Al  Al23  1  0.111735  0.012123  0.916070  1
  P  P24  1  0.979856  0.312781  0.274382  1
  P  P25  1  0.020144  0.312781  0.774382  1
  P  P26  1  0.520522  0.694239  0.724136  1
  P  P27  1  0.479478  0.694239  0.224136  1
  P  P28  1  0.943660  0.018837  0.571686  1
  P  P29  1  0.056340  0.018837  0.071686  1
  P  P30  1  0.548962  0.979689  0.428791  1
  P  P31  1  0.451038  0.979689  0.928791  1
  P  P32  1  0.002918  0.729646  0.421328  1
  P  P33  1  0.997082  0.729646  0.921328  1
  P  P34  1  0.491425  0.265621  0.578570  1
  P  P35  1  0.508575  0.265621  0.078570  1
