# generated using pymatgen
data_Pa2SnPdRh
_symmetry_space_group_name_H-M   'P 1'
_cell_length_a   7.72182560
_cell_length_b   7.72182543
_cell_length_c   3.68060700
_cell_angle_alpha   90.00000000
_cell_angle_beta   90.00000000
_cell_angle_gamma   89.93883620
_symmetry_Int_Tables_number   1
_chemical_formula_structural   Pa2SnPdRh
_chemical_formula_sum   'Pa4 Sn2 Pd2 Rh2'
_cell_volume   219.46191670
_cell_formula_units_Z   2
loop_
 _symmetry_equiv_pos_site_id
 _symmetry_equiv_pos_as_xyz
  1  'x, y, z'
loop_
 _atom_site_type_symbol
 _atom_site_label
 _atom_site_symmetry_multiplicity
 _atom_site_fract_x
 _atom_site_fract_y
 _atom_site_fract_z
 _atom_site_occupancy
  Pa  Pa0  1  0.679538  0.179538  0.500000  1
  Pa  Pa1  1  0.320462  0.820462  0.500000  1
  Pa  Pa2  1  0.168850  0.331150  0.500000  1
  Pa  Pa3  1  0.831150  0.668850  0.500000  1
  Sn  Sn4  1  0.000000  0.000000  0.000000  1
  Sn  Sn5  1  0.500000  0.500000  0.000000  1
  Pd  Pd6  1  0.628420  0.871580  0.000000  1
  Pd  Pd7  1  0.371580  0.128420  0.000000  1
  Rh  Rh8  1  0.132209  0.632209  0.000000  1
  Rh  Rh9  1  0.867791  0.367791  0.000000  1
