# generated using pymatgen
data_Hf3Zr7Pb8
_symmetry_space_group_name_H-M   'P 1'
_cell_length_a   9.00013500
_cell_length_b   9.00013514
_cell_length_c   6.05639100
_cell_angle_alpha   90.00000000
_cell_angle_beta   90.00000000
_cell_angle_gamma   119.99999580
_symmetry_Int_Tables_number   1
_chemical_formula_structural   Hf3Zr7Pb8
_chemical_formula_sum   'Hf3 Zr7 Pb8'
_cell_volume   424.85683544
_cell_formula_units_Z   1
loop_
 _symmetry_equiv_pos_site_id
 _symmetry_equiv_pos_as_xyz
  1  'x, y, z'
loop_
 _atom_site_type_symbol
 _atom_site_label
 _atom_site_symmetry_multiplicity
 _atom_site_fract_x
 _atom_site_fract_y
 _atom_site_fract_z
 _atom_site_occupancy
  Hf  Hf0  1  0.666666  0.333333  0.000000  1
  Hf  Hf1  1  0.333333  0.666666  0.000000  1
  Hf  Hf2  1  0.666666  0.333333  0.500000  1
  Zr  Zr3  1  0.283295  0.000273  0.249949  1
  Zr  Zr4  1  0.999727  0.283022  0.249949  1
  Zr  Zr5  1  0.716978  0.716705  0.249949  1
  Zr  Zr6  1  0.333333  0.666666  0.500000  1
  Zr  Zr7  1  0.716979  0.000273  0.750052  1
  Zr  Zr8  1  0.283294  0.283022  0.750052  1
  Zr  Zr9  1  0.999727  0.716705  0.750052  1
  Pb  Pb10  1  0.000000  0.000000  0.000000  1
  Pb  Pb11  1  0.615864  0.000310  0.249741  1
  Pb  Pb12  1  0.384446  0.384137  0.249741  1
  Pb  Pb13  1  0.999690  0.615554  0.249741  1
  Pb  Pb14  1  0.000000  0.000000  0.500000  1
  Pb  Pb15  1  0.384447  0.000310  0.750260  1
  Pb  Pb16  1  0.999690  0.384137  0.750260  1
  Pb  Pb17  1  0.615864  0.615554  0.750260  1
