# generated using pymatgen
data_Y2Er2Zn4Si3Ge
_symmetry_space_group_name_H-M   'P 1'
_cell_length_a   4.17751500
_cell_length_b   4.17751465
_cell_length_c   15.50411000
_cell_angle_alpha   90.00000000
_cell_angle_beta   90.00000000
_cell_angle_gamma   119.99999485
_symmetry_Int_Tables_number   1
_chemical_formula_structural   Y2Er2Zn4Si3Ge
_chemical_formula_sum   'Y2 Er2 Zn4 Si3 Ge1'
_cell_volume   234.32223165
_cell_formula_units_Z   1
loop_
 _symmetry_equiv_pos_site_id
 _symmetry_equiv_pos_as_xyz
  1  'x, y, z'
loop_
 _atom_site_type_symbol
 _atom_site_label
 _atom_site_symmetry_multiplicity
 _atom_site_fract_x
 _atom_site_fract_y
 _atom_site_fract_z
 _atom_site_occupancy
  Y  Y0  1  0.000000  0.000000  0.497920  1
  Y  Y1  1  0.000000  0.000000  0.000425  1
  Er  Er2  1  0.000000  0.000000  0.752212  1
  Er  Er3  1  0.000000  0.000000  0.249308  1
  Zn  Zn4  1  0.666667  0.333333  0.859244  1
  Zn  Zn5  1  0.666667  0.333333  0.647340  1
  Zn  Zn6  1  0.333333  0.666667  0.141815  1
  Zn  Zn7  1  0.333333  0.666667  0.356620  1
  Si  Si8  1  0.666667  0.333333  0.118862  1
  Si  Si9  1  0.666667  0.333333  0.379717  1
  Si  Si10  1  0.333333  0.666667  0.881191  1
  Ge  Ge11  1  0.333333  0.666667  0.615347  1
