# generated using pymatgen
data_Tb3Hg(Ir2O7)2
_symmetry_space_group_name_H-M   'P 1'
_cell_length_a   7.20465286
_cell_length_b   7.36802145
_cell_length_c   7.36802200
_cell_angle_alpha   59.99999754
_cell_angle_beta   59.24702209
_cell_angle_gamma   59.24701436
_symmetry_Int_Tables_number   1
_chemical_formula_structural   Tb3Hg(Ir2O7)2
_chemical_formula_sum   'Tb3 Hg1 Ir4 O14'
_cell_volume   273.37707124
_cell_formula_units_Z   1
loop_
 _symmetry_equiv_pos_site_id
 _symmetry_equiv_pos_as_xyz
  1  'x, y, z'
loop_
 _atom_site_type_symbol
 _atom_site_label
 _atom_site_symmetry_multiplicity
 _atom_site_fract_x
 _atom_site_fract_y
 _atom_site_fract_z
 _atom_site_occupancy
  Tb  Tb0  1  0.125000  0.625000  0.125000  1
  Tb  Tb1  1  0.125000  0.125000  0.625000  1
  Tb  Tb2  1  0.125000  0.125000  0.125000  1
  Hg  Hg3  1  0.625000  0.125000  0.125000  1
  Ir  Ir4  1  0.125000  0.625000  0.625000  1
  Ir  Ir5  1  0.625000  0.125000  0.625000  1
  Ir  Ir6  1  0.625000  0.625000  0.125000  1
  Ir  Ir7  1  0.625000  0.625000  0.625000  1
  O  O8  1  0.711819  0.691718  0.298232  1
  O  O9  1  0.285137  0.291039  0.711912  1
  O  O10  1  0.711819  0.298232  0.691718  1
  O  O11  1  0.285137  0.711912  0.291039  1
  O  O12  1  0.285137  0.711912  0.711912  1
  O  O13  1  0.711819  0.298232  0.298232  1
  O  O14  1  0.538181  0.558282  0.951768  1
  O  O15  1  0.964863  0.958961  0.538088  1
  O  O16  1  0.538181  0.951768  0.558282  1
  O  O17  1  0.964863  0.538088  0.958961  1
  O  O18  1  0.964863  0.538088  0.538088  1
  O  O19  1  0.538181  0.951768  0.951768  1
  O  O20  1  0.248292  0.250569  0.250569  1
  O  O21  1  0.001708  0.999431  0.999431  1
