# generated using pymatgen
data_Pr3YMg2Ir3
_symmetry_space_group_name_H-M   'P 1'
_cell_length_a   7.61643800
_cell_length_b   7.61886404
_cell_length_c   4.21615900
_cell_angle_alpha   90.00000000
_cell_angle_beta   90.00000000
_cell_angle_gamma   119.98946711
_symmetry_Int_Tables_number   1
_chemical_formula_structural   Pr3YMg2Ir3
_chemical_formula_sum   'Pr3 Y1 Mg2 Ir3'
_cell_volume   211.90237873
_cell_formula_units_Z   1
loop_
 _symmetry_equiv_pos_site_id
 _symmetry_equiv_pos_as_xyz
  1  'x, y, z'
loop_
 _atom_site_type_symbol
 _atom_site_label
 _atom_site_symmetry_multiplicity
 _atom_site_fract_x
 _atom_site_fract_y
 _atom_site_fract_z
 _atom_site_occupancy
  Pr  Pr0  1  0.393130  0.000000  0.500000  1
  Pr  Pr1  1  0.017228  0.433928  0.500000  1
  Pr  Pr2  1  0.583299  0.566072  0.500000  1
  Y  Y3  1  0.753956  0.000000  0.000000  1
  Mg  Mg4  1  0.243314  0.244427  0.000000  1
  Mg  Mg5  1  0.998887  0.755572  0.000000  1
  Ir  Ir6  1  0.669638  0.331044  0.000000  1
  Ir  Ir7  1  0.338594  0.668956  0.000000  1
  Ir  Ir8  1  0.001955  0.000000  0.500000  1
