# generated using pymatgen
data_YLu7ZnIn3
_symmetry_space_group_name_H-M   'P 1'
_cell_length_a   10.43720800
_cell_length_b   10.43720963
_cell_length_c   6.72044200
_cell_angle_alpha   90.00000000
_cell_angle_beta   90.00000000
_cell_angle_gamma   120.00000751
_symmetry_Int_Tables_number   1
_chemical_formula_structural   YLu7ZnIn3
_chemical_formula_sum   'Y2 Lu14 Zn2 In6'
_cell_volume   634.01156647
_cell_formula_units_Z   2
loop_
 _symmetry_equiv_pos_site_id
 _symmetry_equiv_pos_as_xyz
  1  'x, y, z'
loop_
 _atom_site_type_symbol
 _atom_site_label
 _atom_site_symmetry_multiplicity
 _atom_site_fract_x
 _atom_site_fract_y
 _atom_site_fract_z
 _atom_site_occupancy
  Y  Y0  1  0.000000  0.000000  0.498507  1
  Y  Y1  1  0.000000  0.000000  0.998507  1
  Lu  Lu2  1  0.478453  0.521547  0.476436  1
  Lu  Lu3  1  0.043095  0.521547  0.476436  1
  Lu  Lu4  1  0.478453  0.956905  0.476436  1
  Lu  Lu5  1  0.521547  0.478453  0.976436  1
  Lu  Lu6  1  0.956905  0.478453  0.976436  1
  Lu  Lu7  1  0.521547  0.043095  0.976436  1
  Lu  Lu8  1  0.825483  0.174517  0.265824  1
  Lu  Lu9  1  0.349033  0.174517  0.265824  1
  Lu  Lu10  1  0.825483  0.650967  0.265824  1
  Lu  Lu11  1  0.174517  0.825483  0.765824  1
  Lu  Lu12  1  0.650967  0.825483  0.765824  1
  Lu  Lu13  1  0.174517  0.349033  0.765824  1
  Lu  Lu14  1  0.333333  0.666667  0.122446  1
  Lu  Lu15  1  0.666667  0.333333  0.622446  1
  Zn  Zn16  1  0.333333  0.666667  0.691391  1
  Zn  Zn17  1  0.666667  0.333333  0.191391  1
  In  In18  1  0.165026  0.834974  0.244384  1
  In  In19  1  0.669948  0.834974  0.244384  1
  In  In20  1  0.165026  0.330052  0.244384  1
  In  In21  1  0.834974  0.165026  0.744384  1
  In  In22  1  0.330052  0.165026  0.744384  1
  In  In23  1  0.834974  0.669948  0.744384  1
