# generated using pymatgen
data_Ac(AgSn)2
_symmetry_space_group_name_H-M   'P 1'
_cell_length_a   6.82736708
_cell_length_b   6.82736767
_cell_length_c   6.82736879
_cell_angle_alpha   139.80816826
_cell_angle_beta   139.80817616
_cell_angle_gamma   58.14467414
_symmetry_Int_Tables_number   1
_chemical_formula_structural   Ac(AgSn)2
_chemical_formula_sum   'Ac1 Ag2 Sn2'
_cell_volume   131.34776422
_cell_formula_units_Z   1
loop_
 _symmetry_equiv_pos_site_id
 _symmetry_equiv_pos_as_xyz
  1  'x, y, z'
loop_
 _atom_site_type_symbol
 _atom_site_label
 _atom_site_symmetry_multiplicity
 _atom_site_fract_x
 _atom_site_fract_y
 _atom_site_fract_z
 _atom_site_occupancy
  Ac  Ac0  1  0.000000  0.000000  0.000000  1
  Ag  Ag1  1  0.750000  0.250000  0.500000  1
  Ag  Ag2  1  0.250000  0.750000  0.500000  1
  Sn  Sn3  1  0.380261  0.380261  0.000000  1
  Sn  Sn4  1  0.619740  0.619740  0.000000  1
