# generated using pymatgen
data_Hf8Th(In2Co)7
_symmetry_space_group_name_H-M   'P 1'
_cell_length_a   9.46093247
_cell_length_b   9.46093235
_cell_length_c   9.46093200
_cell_angle_alpha   60.00000124
_cell_angle_beta   60.00000165
_cell_angle_gamma   60.00000069
_symmetry_Int_Tables_number   1
_chemical_formula_structural   Hf8Th(In2Co)7
_chemical_formula_sum   'Hf8 Th1 In14 Co7'
_cell_volume   598.80692598
_cell_formula_units_Z   1
loop_
 _symmetry_equiv_pos_site_id
 _symmetry_equiv_pos_as_xyz
  1  'x, y, z'
loop_
 _atom_site_type_symbol
 _atom_site_label
 _atom_site_symmetry_multiplicity
 _atom_site_fract_x
 _atom_site_fract_y
 _atom_site_fract_z
 _atom_site_occupancy
  Hf  Hf0  1  0.119058  0.642826  0.119058  1
  Hf  Hf1  1  0.357174  0.880942  0.880942  1
  Hf  Hf2  1  0.880942  0.880942  0.880942  1
  Hf  Hf3  1  0.642826  0.119058  0.119058  1
  Hf  Hf4  1  0.880942  0.880942  0.357174  1
  Hf  Hf5  1  0.119058  0.119058  0.119058  1
  Hf  Hf6  1  0.880942  0.357174  0.880942  1
  Hf  Hf7  1  0.119058  0.119058  0.642826  1
  Th  Th8  1  0.500000  0.500000  0.500000  1
  In  In9  1  0.500000  0.847861  0.152139  1
  In  In10  1  0.500000  0.847861  0.500000  1
  In  In11  1  0.500000  0.152139  0.500000  1
  In  In12  1  0.500000  0.500000  0.847861  1
  In  In13  1  0.152139  0.500000  0.500000  1
  In  In14  1  0.847861  0.152139  0.500000  1
  In  In15  1  0.152139  0.847861  0.500000  1
  In  In16  1  0.500000  0.152139  0.847861  1
  In  In17  1  0.152139  0.500000  0.847861  1
  In  In18  1  0.500000  0.500000  0.152139  1
  In  In19  1  0.847861  0.500000  0.500000  1
  In  In20  1  0.847861  0.500000  0.152139  1
  In  In21  1  0.250000  0.250000  0.250000  1
  In  In22  1  0.750000  0.750000  0.750000  1
  Co  Co23  1  0.780266  0.780266  0.219734  1
  Co  Co24  1  0.000000  0.000000  0.000000  1
  Co  Co25  1  0.219734  0.780266  0.219734  1
  Co  Co26  1  0.219734  0.780266  0.780266  1
  Co  Co27  1  0.219734  0.219734  0.780266  1
  Co  Co28  1  0.780266  0.219734  0.780266  1
  Co  Co29  1  0.780266  0.219734  0.219734  1
