# generated using pymatgen
data_Pr2P7Ir5Ru7
_symmetry_space_group_name_H-M   'P 1'
_cell_length_a   9.59481044
_cell_length_b   9.56190301
_cell_length_c   3.93413700
_cell_angle_alpha   90.00000000
_cell_angle_beta   90.00000000
_cell_angle_gamma   119.72042240
_symmetry_Int_Tables_number   1
_chemical_formula_structural   Pr2P7Ir5Ru7
_chemical_formula_sum   'Pr2 P7 Ir5 Ru7'
_cell_volume   313.45663108
_cell_formula_units_Z   1
loop_
 _symmetry_equiv_pos_site_id
 _symmetry_equiv_pos_as_xyz
  1  'x, y, z'
loop_
 _atom_site_type_symbol
 _atom_site_label
 _atom_site_symmetry_multiplicity
 _atom_site_fract_x
 _atom_site_fract_y
 _atom_site_fract_z
 _atom_site_occupancy
  Pr  Pr0  1  0.334468  0.665840  0.000000  1
  Pr  Pr1  1  0.666168  0.335794  0.500000  1
  P  P2  1  0.114537  0.399171  0.500000  1
  P  P3  1  0.600764  0.708700  0.500000  1
  P  P4  1  0.286069  0.883312  0.500000  1
  P  P5  1  0.000430  0.998350  0.000000  1
  P  P6  1  0.406492  0.293993  0.000000  1
  P  P7  1  0.710133  0.116318  0.000000  1
  P  P8  1  0.880967  0.597171  0.000000  1
  Ir  Ir9  1  0.442706  0.066654  0.000000  1
  Ir  Ir10  1  0.932722  0.377677  0.000000  1
  Ir  Ir11  1  0.383279  0.439767  0.500000  1
  Ir  Ir12  1  0.555641  0.938579  0.500000  1
  Ir  Ir13  1  0.060145  0.614158  0.500000  1
  Ru  Ru14  1  0.623296  0.562966  0.000000  1
  Ru  Ru15  1  0.151095  0.266056  0.000000  1
  Ru  Ru16  1  0.734170  0.888750  0.000000  1
  Ru  Ru17  1  0.115783  0.844944  0.000000  1
  Ru  Ru18  1  0.244382  0.101320  0.500000  1
  Ru  Ru19  1  0.893860  0.141851  0.500000  1
  Ru  Ru20  1  0.862894  0.758630  0.500000  1
