# generated using pymatgen
data_Nd7Dy12ErSi15Rh
_symmetry_space_group_name_H-M   'P 1'
_cell_length_a   7.52039378
_cell_length_b   7.77540934
_cell_length_c   14.77270021
_cell_angle_alpha   89.55465636
_cell_angle_beta   89.82188731
_cell_angle_gamma   90.29551887
_symmetry_Int_Tables_number   1
_chemical_formula_structural   Nd7Dy12ErSi15Rh
_chemical_formula_sum   'Nd7 Dy12 Er1 Si15 Rh1'
_cell_volume   863.77907537
_cell_formula_units_Z   1
loop_
 _symmetry_equiv_pos_site_id
 _symmetry_equiv_pos_as_xyz
  1  'x, y, z'
loop_
 _atom_site_type_symbol
 _atom_site_label
 _atom_site_symmetry_multiplicity
 _atom_site_fract_x
 _atom_site_fract_y
 _atom_site_fract_z
 _atom_site_occupancy
  Nd  Nd0  1  0.022693  0.179110  0.099677  1
  Nd  Nd1  1  0.977761  0.818829  0.898990  1
  Nd  Nd2  1  0.477382  0.679154  0.901412  1
  Nd  Nd3  1  0.980504  0.820607  0.597348  1
  Nd  Nd4  1  0.521629  0.321289  0.097746  1
  Nd  Nd5  1  0.019097  0.179498  0.402925  1
  Nd  Nd6  1  0.520142  0.318603  0.401504  1
  Dy  Dy7  1  0.159673  0.511881  0.740768  1
  Dy  Dy8  1  0.845079  0.490107  0.252775  1
  Dy  Dy9  1  0.342167  0.005318  0.251723  1
  Dy  Dy10  1  0.656881  0.990778  0.747719  1
  Dy  Dy11  1  0.323284  0.191705  0.617523  1
  Dy  Dy12  1  0.671895  0.818883  0.377518  1
  Dy  Dy13  1  0.177265  0.663461  0.382735  1
  Dy  Dy14  1  0.679077  0.821948  0.124185  1
  Dy  Dy15  1  0.827284  0.325049  0.620810  1
  Dy  Dy16  1  0.323008  0.182161  0.876269  1
  Dy  Dy17  1  0.826523  0.319663  0.876333  1
  Dy  Dy18  1  0.176048  0.680458  0.122872  1
  Er  Er19  1  0.476888  0.678505  0.600726  1
  Si  Si20  1  0.033269  0.111098  0.749511  1
  Si  Si21  1  0.971042  0.884716  0.252352  1
  Si  Si22  1  0.468917  0.608839  0.249267  1
  Si  Si23  1  0.535123  0.391475  0.751481  1
  Si  Si24  1  0.277470  0.881680  0.748663  1
  Si  Si25  1  0.725931  0.121540  0.249863  1
  Si  Si26  1  0.228053  0.374962  0.249483  1
  Si  Si27  1  0.769107  0.623373  0.750327  1
  Si  Si28  1  0.843805  0.530048  0.459827  1
  Si  Si29  1  0.351049  0.964214  0.462425  1
  Si  Si30  1  0.852068  0.531729  0.038632  1
  Si  Si31  1  0.645490  0.028365  0.539785  1
  Si  Si32  1  0.146161  0.468649  0.962200  1
  Si  Si33  1  0.647515  0.030988  0.960779  1
  Si  Si34  1  0.354654  0.968878  0.038642  1
  Rh  Rh35  1  0.146067  0.482441  0.545206  1
