# generated using pymatgen
data_Ta6Co16Si4As2P
_symmetry_space_group_name_H-M   'P 1'
_cell_length_a   7.92476313
_cell_length_b   7.92818652
_cell_length_c   7.91108000
_cell_angle_alpha   60.07134163
_cell_angle_beta   60.05709168
_cell_angle_gamma   59.89105277
_symmetry_Int_Tables_number   1
_chemical_formula_structural   Ta6Co16Si4As2P
_chemical_formula_sum   'Ta6 Co16 Si4 As2 P1'
_cell_volume   351.51367266
_cell_formula_units_Z   1
loop_
 _symmetry_equiv_pos_site_id
 _symmetry_equiv_pos_as_xyz
  1  'x, y, z'
loop_
 _atom_site_type_symbol
 _atom_site_label
 _atom_site_symmetry_multiplicity
 _atom_site_fract_x
 _atom_site_fract_y
 _atom_site_fract_z
 _atom_site_occupancy
  Ta  Ta0  1  0.197866  0.796625  0.802038  1
  Ta  Ta1  1  0.197866  0.796625  0.203471  1
  Ta  Ta2  1  0.802134  0.203375  0.197962  1
  Ta  Ta3  1  0.802134  0.203375  0.796529  1
  Ta  Ta4  1  0.805298  0.794248  0.200227  1
  Ta  Ta5  1  0.194702  0.205752  0.799773  1
  Co  Co6  1  0.380933  0.387984  0.382021  1
  Co  Co7  1  0.495856  0.831346  0.836398  1
  Co  Co8  1  0.619067  0.612016  0.150937  1
  Co  Co9  1  0.162618  0.167293  0.503348  1
  Co  Co10  1  0.837382  0.832707  0.496652  1
  Co  Co11  1  0.162618  0.167293  0.166741  1
  Co  Co12  1  0.837382  0.832707  0.833259  1
  Co  Co13  1  0.380933  0.387984  0.849063  1
  Co  Co14  1  0.834560  0.497273  0.834084  1
  Co  Co15  1  0.619067  0.612016  0.617979  1
  Co  Co16  1  0.380443  0.846199  0.386680  1
  Co  Co17  1  0.148171  0.616629  0.617600  1
  Co  Co18  1  0.619557  0.153801  0.613320  1
  Co  Co19  1  0.165440  0.502727  0.165916  1
  Co  Co20  1  0.851829  0.383371  0.382400  1
  Co  Co21  1  0.504144  0.168654  0.163602  1
  Si  Si22  1  0.000000  0.000000  0.500000  1
  Si  Si23  1  0.000000  0.500000  0.000000  1
  Si  Si24  1  0.500000  0.500000  0.000000  1
  Si  Si25  1  0.000000  0.500000  0.500000  1
  As  As26  1  0.500000  0.000000  0.500000  1
  As  As27  1  0.500000  0.000000  0.000000  1
  P  P28  1  0.500000  0.500000  0.500000  1
