# generated using pymatgen
data_Sr4InPt4Pb
_symmetry_space_group_name_H-M   'P 1'
_cell_length_a   6.01433177
_cell_length_b   6.01433184
_cell_length_c   8.58289948
_cell_angle_alpha   78.34957637
_cell_angle_beta   78.34957472
_cell_angle_gamma   60.29499626
_symmetry_Int_Tables_number   1
_chemical_formula_structural   Sr4InPt4Pb
_chemical_formula_sum   'Sr4 In1 Pt4 Pb1'
_cell_volume   262.20767001
_cell_formula_units_Z   1
loop_
 _symmetry_equiv_pos_site_id
 _symmetry_equiv_pos_as_xyz
  1  'x, y, z'
loop_
 _atom_site_type_symbol
 _atom_site_label
 _atom_site_symmetry_multiplicity
 _atom_site_fract_x
 _atom_site_fract_y
 _atom_site_fract_z
 _atom_site_occupancy
  Sr  Sr0  1  0.504334  0.791192  0.352036  1
  Sr  Sr1  1  0.208808  0.495666  0.147964  1
  Sr  Sr2  1  0.495032  0.206883  0.647385  1
  Sr  Sr3  1  0.793117  0.504968  0.852615  1
  In  In4  1  0.132293  0.867707  0.750000  1
  Pt  Pt5  1  0.278947  0.994272  0.993375  1
  Pt  Pt6  1  0.005728  0.721053  0.506625  1
  Pt  Pt7  1  0.723915  0.997670  0.995326  1
  Pt  Pt8  1  0.002330  0.276085  0.504674  1
  Pb  Pb9  1  0.855496  0.144504  0.250000  1
