# generated using pymatgen
data_NdSm(Si4Ni9)2
_symmetry_space_group_name_H-M   'P 1'
_cell_length_a   7.94895526
_cell_length_b   7.94895524
_cell_length_c   7.94895495
_cell_angle_alpha   121.07135819
_cell_angle_beta   121.07136071
_cell_angle_gamma   88.15415577
_symmetry_Int_Tables_number   1
_chemical_formula_structural   NdSm(Si4Ni9)2
_chemical_formula_sum   'Nd1 Sm1 Si8 Ni18'
_cell_volume   349.20478854
_cell_formula_units_Z   1
loop_
 _symmetry_equiv_pos_site_id
 _symmetry_equiv_pos_as_xyz
  1  'x, y, z'
loop_
 _atom_site_type_symbol
 _atom_site_label
 _atom_site_symmetry_multiplicity
 _atom_site_fract_x
 _atom_site_fract_y
 _atom_site_fract_z
 _atom_site_occupancy
  Nd  Nd0  1  0.250000  0.250000  0.000000  1
  Sm  Sm1  1  0.750000  0.750000  0.000000  1
  Si  Si2  1  0.211063  0.712153  0.158868  1
  Si  Si3  1  0.553285  0.052196  0.841132  1
  Si  Si4  1  0.712153  0.553285  0.501090  1
  Si  Si5  1  0.052196  0.211063  0.498910  1
  Si  Si6  1  0.787847  0.288937  0.841132  1
  Si  Si7  1  0.447804  0.946715  0.158868  1
  Si  Si8  1  0.288937  0.447804  0.501090  1
  Si  Si9  1  0.946715  0.787847  0.498910  1
  Ni  Ni10  1  0.946207  0.446950  0.762822  1
  Ni  Ni11  1  0.684128  0.183385  0.237178  1
  Ni  Ni12  1  0.446950  0.684128  0.500744  1
  Ni  Ni13  1  0.183385  0.946207  0.499256  1
  Ni  Ni14  1  0.053050  0.553793  0.237178  1
  Ni  Ni15  1  0.316615  0.815872  0.762822  1
  Ni  Ni16  1  0.553793  0.316615  0.500744  1
  Ni  Ni17  1  0.815872  0.053050  0.499256  1
  Ni  Ni18  1  0.202993  0.068783  0.271862  1
  Ni  Ni19  1  0.796920  0.931130  0.728138  1
  Ni  Ni20  1  0.703080  0.431217  0.134210  1
  Ni  Ni21  1  0.297007  0.568870  0.865790  1
  Ni  Ni22  1  0.931130  0.202993  0.134210  1
  Ni  Ni23  1  0.068783  0.796920  0.865790  1
  Ni  Ni24  1  0.568870  0.703080  0.271862  1
  Ni  Ni25  1  0.431217  0.297007  0.728138  1
  Ni  Ni26  1  0.000000  0.500000  0.500000  1
  Ni  Ni27  1  0.500000  0.000000  0.500000  1
