# generated using pymatgen
data_Nd16MgCo(NiAg)3
_symmetry_space_group_name_H-M   'P 1'
_cell_length_a   9.74294425
_cell_length_b   9.82024373
_cell_length_c   9.82024296
_cell_angle_alpha   59.87517554
_cell_angle_beta   59.95471233
_cell_angle_gamma   59.95471323
_symmetry_Int_Tables_number   1
_chemical_formula_structural   Nd16MgCo(NiAg)3
_chemical_formula_sum   'Nd16 Mg1 Co1 Ni3 Ag3'
_cell_volume   663.30196906
_cell_formula_units_Z   1
loop_
 _symmetry_equiv_pos_site_id
 _symmetry_equiv_pos_as_xyz
  1  'x, y, z'
loop_
 _atom_site_type_symbol
 _atom_site_label
 _atom_site_symmetry_multiplicity
 _atom_site_fract_x
 _atom_site_fract_y
 _atom_site_fract_z
 _atom_site_occupancy
  Nd  Nd0  1  0.813248  0.189941  0.189941  1
  Nd  Nd1  1  0.189281  0.810039  0.810039  1
  Nd  Nd2  1  0.187116  0.815771  0.188162  1
  Nd  Nd3  1  0.806642  0.192619  0.806815  1
  Nd  Nd4  1  0.187116  0.188162  0.815771  1
  Nd  Nd5  1  0.806642  0.806815  0.192619  1
  Nd  Nd6  1  0.935632  0.564448  0.564448  1
  Nd  Nd7  1  0.561245  0.937561  0.937561  1
  Nd  Nd8  1  0.561973  0.937136  0.564301  1
  Nd  Nd9  1  0.936863  0.562157  0.936767  1
  Nd  Nd10  1  0.561973  0.564301  0.937136  1
  Nd  Nd11  1  0.936863  0.936767  0.562157  1
  Nd  Nd12  1  0.347183  0.346858  0.346858  1
  Nd  Nd13  1  0.345670  0.345095  0.959778  1
  Nd  Nd14  1  0.345670  0.959778  0.345095  1
  Nd  Nd15  1  0.946583  0.350529  0.350529  1
  Mg  Mg16  1  0.293533  0.568486  0.568486  1
  Co  Co17  1  0.139848  0.143220  0.143220  1
  Ni  Ni18  1  0.140217  0.144317  0.573284  1
  Ni  Ni19  1  0.140217  0.573284  0.144317  1
  Ni  Ni20  1  0.573672  0.142599  0.142599  1
  Ag  Ag21  1  0.581895  0.583600  0.583600  1
  Ag  Ag22  1  0.580462  0.583821  0.252698  1
  Ag  Ag23  1  0.580462  0.252698  0.583821  1
