# generated using pymatgen
data_DyY7(InPt)2
_symmetry_space_group_name_H-M   'P 1'
_cell_length_a   9.75565685
_cell_length_b   9.75565745
_cell_length_c   9.76850600
_cell_angle_alpha   59.95643002
_cell_angle_beta   59.95642797
_cell_angle_gamma   59.89401946
_symmetry_Int_Tables_number   1
_chemical_formula_structural   DyY7(InPt)2
_chemical_formula_sum   'Dy2 Y14 In4 Pt4'
_cell_volume   656.43432353
_cell_formula_units_Z   2
loop_
 _symmetry_equiv_pos_site_id
 _symmetry_equiv_pos_as_xyz
  1  'x, y, z'
loop_
 _atom_site_type_symbol
 _atom_site_label
 _atom_site_symmetry_multiplicity
 _atom_site_fract_x
 _atom_site_fract_y
 _atom_site_fract_z
 _atom_site_occupancy
  Dy  Dy0  1  0.350288  0.350288  0.350656  1
  Dy  Dy1  1  0.350288  0.350288  0.948768  1
  Y  Y2  1  0.351620  0.944509  0.351935  1
  Y  Y3  1  0.944509  0.351620  0.351935  1
  Y  Y4  1  0.810269  0.190889  0.189824  1
  Y  Y5  1  0.190889  0.810269  0.809019  1
  Y  Y6  1  0.190889  0.810269  0.189824  1
  Y  Y7  1  0.810269  0.190889  0.809019  1
  Y  Y8  1  0.190449  0.190449  0.809551  1
  Y  Y9  1  0.809813  0.809813  0.190187  1
  Y  Y10  1  0.937866  0.561491  0.561855  1
  Y  Y11  1  0.561491  0.937866  0.938788  1
  Y  Y12  1  0.561491  0.937866  0.561855  1
  Y  Y13  1  0.937866  0.561491  0.938788  1
  Y  Y14  1  0.562045  0.562045  0.937955  1
  Y  Y15  1  0.938832  0.938832  0.561168  1
  In  In16  1  0.583589  0.583589  0.583965  1
  In  In17  1  0.583589  0.583589  0.248856  1
  In  In18  1  0.582796  0.250438  0.583383  1
  In  In19  1  0.250438  0.582796  0.583383  1
  Pt  Pt20  1  0.143300  0.143300  0.143038  1
  Pt  Pt21  1  0.143300  0.143300  0.570364  1
  Pt  Pt22  1  0.143225  0.570889  0.142943  1
  Pt  Pt23  1  0.570889  0.143225  0.142943  1
