# generated using pymatgen
data_HoEr7In3Co
_symmetry_space_group_name_H-M   'P 1'
_cell_length_a   10.28191901
_cell_length_b   10.28191788
_cell_length_c   6.93165201
_cell_angle_alpha   89.99596357
_cell_angle_beta   90.00403139
_cell_angle_gamma   119.99884738
_symmetry_Int_Tables_number   1
_chemical_formula_structural   HoEr7In3Co
_chemical_formula_sum   'Ho2 Er14 In6 Co2'
_cell_volume   634.63020012
_cell_formula_units_Z   2
loop_
 _symmetry_equiv_pos_site_id
 _symmetry_equiv_pos_as_xyz
  1  'x, y, z'
loop_
 _atom_site_type_symbol
 _atom_site_label
 _atom_site_symmetry_multiplicity
 _atom_site_fract_x
 _atom_site_fract_y
 _atom_site_fract_z
 _atom_site_occupancy
  Ho  Ho0  1  0.534250  0.068582  0.791420  1
  Ho  Ho1  1  0.931418  0.465750  0.791420  1
  Er  Er2  1  0.534338  0.465662  0.791587  1
  Er  Er3  1  0.465447  0.930975  0.291445  1
  Er  Er4  1  0.069025  0.534553  0.291445  1
  Er  Er5  1  0.465566  0.534434  0.291608  1
  Er  Er6  1  0.821590  0.643421  0.499790  1
  Er  Er7  1  0.356579  0.178410  0.499790  1
  Er  Er8  1  0.821774  0.178226  0.499596  1
  Er  Er9  1  0.178499  0.356604  0.000152  1
  Er  Er10  1  0.643396  0.821501  0.000152  1
  Er  Er11  1  0.178258  0.821742  0.000288  1
  Er  Er12  1  0.666490  0.333510  0.182343  1
  Er  Er13  1  0.333418  0.666582  0.682031  1
  Er  Er14  1  0.000040  0.999960  0.779390  1
  Er  Er15  1  0.999989  0.000011  0.279414  1
  In  In16  1  0.837047  0.674202  0.037732  1
  In  In17  1  0.325798  0.162953  0.037732  1
  In  In18  1  0.837174  0.162826  0.037902  1
  In  In19  1  0.162994  0.325900  0.537623  1
  In  In20  1  0.674100  0.837006  0.537623  1
  In  In21  1  0.162947  0.837053  0.537599  1
  Co  Co22  1  0.666531  0.333469  0.568798  1
  Co  Co23  1  0.333333  0.666667  0.069028  1
