# generated using pymatgen
data_Dy3Ho7(In2Bi)2
_symmetry_space_group_name_H-M   'P 1'
_cell_length_a   9.00721400
_cell_length_b   9.00010591
_cell_length_c   6.57579800
_cell_angle_alpha   90.00000000
_cell_angle_beta   90.00000000
_cell_angle_gamma   119.97389313
_symmetry_Int_Tables_number   1
_chemical_formula_structural   Dy3Ho7(In2Bi)2
_chemical_formula_sum   'Dy3 Ho7 In4 Bi2'
_cell_volume   461.77603097
_cell_formula_units_Z   1
loop_
 _symmetry_equiv_pos_site_id
 _symmetry_equiv_pos_as_xyz
  1  'x, y, z'
loop_
 _atom_site_type_symbol
 _atom_site_label
 _atom_site_symmetry_multiplicity
 _atom_site_fract_x
 _atom_site_fract_y
 _atom_site_fract_z
 _atom_site_occupancy
  Dy  Dy0  1  0.769483  0.760781  0.750000  1
  Dy  Dy1  1  0.230517  0.991298  0.750000  1
  Dy  Dy2  1  0.000000  0.240669  0.750000  1
  Ho  Ho3  1  0.670572  0.337995  0.006473  1
  Ho  Ho4  1  0.329428  0.667424  0.006473  1
  Ho  Ho5  1  0.329428  0.667424  0.493527  1
  Ho  Ho6  1  0.670572  0.337995  0.493527  1
  Ho  Ho7  1  0.236791  0.237355  0.250000  1
  Ho  Ho8  1  0.763209  0.000564  0.250000  1
  Ho  Ho9  1  0.000000  0.761703  0.250000  1
  In  In10  1  0.000000  0.596513  0.750000  1
  In  In11  1  0.603909  0.606457  0.250000  1
  In  In12  1  0.396091  0.002548  0.250000  1
  In  In13  1  0.000000  0.397396  0.250000  1
  Bi  Bi14  1  0.395638  0.394758  0.750000  1
  Bi  Bi15  1  0.604362  0.999120  0.750000  1
