# generated using pymatgen
data_Yb2Y5Tm13Ir12
_symmetry_space_group_name_H-M   'P 1'
_cell_length_a   10.79461543
_cell_length_b   10.83379593
_cell_length_c   6.33613331
_cell_angle_alpha   90.03234328
_cell_angle_beta   90.26272020
_cell_angle_gamma   89.96498646
_symmetry_Int_Tables_number   1
_chemical_formula_structural   Yb2Y5Tm13Ir12
_chemical_formula_sum   'Yb2 Y5 Tm13 Ir12'
_cell_volume   740.98158751
_cell_formula_units_Z   1
loop_
 _symmetry_equiv_pos_site_id
 _symmetry_equiv_pos_as_xyz
  1  'x, y, z'
loop_
 _atom_site_type_symbol
 _atom_site_label
 _atom_site_symmetry_multiplicity
 _atom_site_fract_x
 _atom_site_fract_y
 _atom_site_fract_z
 _atom_site_occupancy
  Yb  Yb0  1  0.288105  0.089674  0.374600  1
  Yb  Yb1  1  0.287918  0.911605  0.874776  1
  Y  Y2  1  0.710513  0.087494  0.878036  1
  Y  Y3  1  0.710034  0.913094  0.378067  1
  Y  Y4  1  0.587639  0.790728  0.875559  1
  Y  Y5  1  0.587158  0.209583  0.375357  1
  Y  Y6  1  0.409971  0.792361  0.377471  1
  Tm  Tm7  1  0.410464  0.207199  0.879036  1
  Tm  Tm8  1  0.209234  0.413966  0.622351  1
  Tm  Tm9  1  0.208216  0.584738  0.122665  1
  Tm  Tm10  1  0.793021  0.414108  0.119510  1
  Tm  Tm11  1  0.792882  0.585863  0.620122  1
  Tm  Tm12  1  0.914372  0.707701  0.123206  1
  Tm  Tm13  1  0.914584  0.292320  0.623280  1
  Tm  Tm14  1  0.086305  0.707259  0.621202  1
  Tm  Tm15  1  0.086345  0.292498  0.120954  1
  Tm  Tm16  1  0.002312  0.999824  0.502812  1
  Tm  Tm17  1  0.002130  0.000656  0.002447  1
  Tm  Tm18  1  0.499590  0.498983  0.999865  1
  Tm  Tm19  1  0.499700  0.500240  0.499948  1
  Ir  Ir20  1  0.853861  0.155716  0.252024  1
  Ir  Ir21  1  0.853727  0.844343  0.751502  1
  Ir  Ir22  1  0.147028  0.160883  0.754169  1
  Ir  Ir23  1  0.144486  0.838935  0.252475  1
  Ir  Ir24  1  0.652031  0.348435  0.753032  1
  Ir  Ir25  1  0.653633  0.650155  0.252019  1
  Ir  Ir26  1  0.345291  0.353644  0.243879  1
  Ir  Ir27  1  0.344680  0.645057  0.747318  1
  Ir  Ir28  1  0.501947  0.001864  0.121136  1
  Ir  Ir29  1  0.501954  0.001472  0.625254  1
  Ir  Ir30  1  0.000505  0.500271  0.877652  1
  Ir  Ir31  1  0.000368  0.499330  0.378276  1
