# generated using pymatgen
data_K3Lu3(PS4)4
_symmetry_space_group_name_H-M   'P 1'
_cell_length_a   9.78142400
_cell_length_b   9.78142378
_cell_length_c   14.37857800
_cell_angle_alpha   89.22925568
_cell_angle_beta   89.22925569
_cell_angle_gamma   72.01230186
_symmetry_Int_Tables_number   1
_chemical_formula_structural   K3Lu3(PS4)4
_chemical_formula_sum   'K6 Lu6 P8 S32'
_cell_volume   1308.26782094
_cell_formula_units_Z   2
loop_
 _symmetry_equiv_pos_site_id
 _symmetry_equiv_pos_as_xyz
  1  'x, y, z'
loop_
 _atom_site_type_symbol
 _atom_site_label
 _atom_site_symmetry_multiplicity
 _atom_site_fract_x
 _atom_site_fract_y
 _atom_site_fract_z
 _atom_site_occupancy
  K  K0  1  0.612595  0.972122  0.836218  1
  K  K1  1  0.027878  0.387405  0.663782  1
  K  K2  1  0.972122  0.612595  0.336218  1
  K  K3  1  0.000000  0.000000  0.000000  1
  K  K4  1  0.387405  0.027878  0.163782  1
  K  K5  1  0.000000  0.000000  0.500000  1
  Lu  Lu6  1  0.514031  0.747105  0.488642  1
  Lu  Lu7  1  0.485969  0.252895  0.511358  1
  Lu  Lu8  1  0.747105  0.514031  0.988642  1
  Lu  Lu9  1  0.248591  0.751409  0.750000  1
  Lu  Lu10  1  0.751409  0.248591  0.250000  1
  Lu  Lu11  1  0.252895  0.485969  0.011358  1
  P  P12  1  0.398596  0.761006  0.976011  1
  P  P13  1  0.601404  0.238994  0.023989  1
  P  P14  1  0.238994  0.601404  0.523989  1
  P  P15  1  0.332549  0.037971  0.637996  1
  P  P16  1  0.037971  0.332549  0.137996  1
  P  P17  1  0.761006  0.398596  0.476011  1
  P  P18  1  0.667451  0.962029  0.362004  1
  P  P19  1  0.962029  0.667451  0.862004  1
  S  S20  1  0.262612  0.732992  0.416786  1
  S  S21  1  0.945872  0.677943  0.004050  1
  S  S22  1  0.526496  0.163899  0.329055  1
  S  S23  1  0.677943  0.945872  0.504050  1
  S  S24  1  0.737388  0.267008  0.583214  1
  S  S25  1  0.960355  0.859484  0.804081  1
  S  S26  1  0.836101  0.473504  0.170945  1
  S  S27  1  0.074529  0.705725  0.610519  1
  S  S28  1  0.140516  0.039645  0.695919  1
  S  S29  1  0.473504  0.836101  0.670945  1
  S  S30  1  0.801143  0.595800  0.814325  1
  S  S31  1  0.456837  0.578282  0.894327  1
  S  S32  1  0.421718  0.543163  0.605673  1
  S  S33  1  0.039645  0.140516  0.195919  1
  S  S34  1  0.267008  0.737388  0.083214  1
  S  S35  1  0.925471  0.294275  0.389481  1
  S  S36  1  0.322057  0.054128  0.495950  1
  S  S37  1  0.054128  0.322057  0.995950  1
  S  S38  1  0.705725  0.074529  0.110519  1
  S  S39  1  0.404200  0.198857  0.685675  1
  S  S40  1  0.584117  0.785473  0.026477  1
  S  S41  1  0.214527  0.415883  0.473523  1
  S  S42  1  0.294275  0.925471  0.889481  1
  S  S43  1  0.785473  0.584117  0.526477  1
  S  S44  1  0.859484  0.960355  0.304081  1
  S  S45  1  0.198857  0.404200  0.185675  1
  S  S46  1  0.543163  0.421718  0.105673  1
  S  S47  1  0.578282  0.456837  0.394327  1
  S  S48  1  0.163899  0.526496  0.829055  1
  S  S49  1  0.732992  0.262612  0.916786  1
  S  S50  1  0.415883  0.214527  0.973523  1
  S  S51  1  0.595800  0.801143  0.314325  1
