# generated using pymatgen
data_Yb(PrSi)2
_symmetry_space_group_name_H-M   'P 1'
_cell_length_a   7.74294600
_cell_length_b   7.74294600
_cell_length_c   4.40056000
_cell_angle_alpha   90.00000000
_cell_angle_beta   90.00000000
_cell_angle_gamma   90.00000000
_symmetry_Int_Tables_number   1
_chemical_formula_structural   Yb(PrSi)2
_chemical_formula_sum   'Yb2 Pr4 Si4'
_cell_volume   263.82770994
_cell_formula_units_Z   2
loop_
 _symmetry_equiv_pos_site_id
 _symmetry_equiv_pos_as_xyz
  1  'x, y, z'
loop_
 _atom_site_type_symbol
 _atom_site_label
 _atom_site_symmetry_multiplicity
 _atom_site_fract_x
 _atom_site_fract_y
 _atom_site_fract_z
 _atom_site_occupancy
  Yb  Yb0  1  0.500000  0.500000  0.000000  1
  Yb  Yb1  1  0.000000  0.000000  0.000000  1
  Pr  Pr2  1  0.680039  0.180039  0.500000  1
  Pr  Pr3  1  0.319961  0.819961  0.500000  1
  Pr  Pr4  1  0.180039  0.319961  0.500000  1
  Pr  Pr5  1  0.819961  0.680039  0.500000  1
  Si  Si6  1  0.109887  0.609887  0.000000  1
  Si  Si7  1  0.890113  0.390113  0.000000  1
  Si  Si8  1  0.609887  0.890113  0.000000  1
  Si  Si9  1  0.390113  0.109887  0.000000  1
