# generated using pymatgen
data_TbDyAl7Ga2Ir3
_symmetry_space_group_name_H-M   'P 1'
_cell_length_a   7.52900124
_cell_length_b   7.53266752
_cell_length_c   9.55937800
_cell_angle_alpha   90.00000000
_cell_angle_beta   90.00000000
_cell_angle_gamma   119.53439712
_symmetry_Int_Tables_number   1
_chemical_formula_structural   TbDyAl7Ga2Ir3
_chemical_formula_sum   'Tb2 Dy2 Al14 Ga4 Ir6'
_cell_volume   471.69900852
_cell_formula_units_Z   2
loop_
 _symmetry_equiv_pos_site_id
 _symmetry_equiv_pos_as_xyz
  1  'x, y, z'
loop_
 _atom_site_type_symbol
 _atom_site_label
 _atom_site_symmetry_multiplicity
 _atom_site_fract_x
 _atom_site_fract_y
 _atom_site_fract_z
 _atom_site_occupancy
  Tb  Tb0  1  0.997491  0.673151  0.750000  1
  Tb  Tb1  1  0.002509  0.326849  0.250000  1
  Dy  Dy2  1  0.669850  0.993416  0.750000  1
  Dy  Dy3  1  0.330150  0.006584  0.250000  1
  Al  Al4  1  0.001316  0.334696  0.572761  1
  Al  Al5  1  0.998684  0.665304  0.427239  1
  Al  Al6  1  0.998684  0.665304  0.072761  1
  Al  Al7  1  0.335585  0.002278  0.927295  1
  Al  Al8  1  0.001316  0.334696  0.927239  1
  Al  Al9  1  0.664415  0.997722  0.072705  1
  Al  Al10  1  0.664415  0.997722  0.427295  1
  Al  Al11  1  0.335585  0.002278  0.572705  1
  Al  Al12  1  0.334010  0.334201  0.054065  1
  Al  Al13  1  0.665990  0.665799  0.945935  1
  Al  Al14  1  0.665990  0.665799  0.554065  1
  Al  Al15  1  0.334010  0.334201  0.445935  1
  Al  Al16  1  0.548491  0.338621  0.750000  1
  Al  Al17  1  0.451509  0.661379  0.250000  1
  Ga  Ga18  1  0.130311  0.131183  0.750000  1
  Ga  Ga19  1  0.869689  0.868817  0.250000  1
  Ga  Ga20  1  0.338373  0.545718  0.750000  1
  Ga  Ga21  1  0.661627  0.454282  0.250000  1
  Ir  Ir22  1  0.671179  0.327923  0.502422  1
  Ir  Ir23  1  0.328821  0.672077  0.497578  1
  Ir  Ir24  1  0.328821  0.672077  0.002422  1
  Ir  Ir25  1  0.671179  0.327923  0.997578  1
  Ir  Ir26  1  0.000000  0.000000  0.500000  1
  Ir  Ir27  1  0.000000  0.000000  0.000000  1
