# generated using pymatgen
data_Eu2Si2B6PbO16
_symmetry_space_group_name_H-M   'P 1'
_cell_length_a   4.99314619
_cell_length_b   7.44106447
_cell_length_c   8.43925588
_cell_angle_alpha   103.37463458
_cell_angle_beta   102.18443687
_cell_angle_gamma   89.25149084
_symmetry_Int_Tables_number   1
_chemical_formula_structural   Eu2Si2B6PbO16
_chemical_formula_sum   'Eu2 Si2 B6 Pb1 O16'
_cell_volume   297.96804944
_cell_formula_units_Z   1
loop_
 _symmetry_equiv_pos_site_id
 _symmetry_equiv_pos_as_xyz
  1  'x, y, z'
loop_
 _atom_site_type_symbol
 _atom_site_label
 _atom_site_symmetry_multiplicity
 _atom_site_fract_x
 _atom_site_fract_y
 _atom_site_fract_z
 _atom_site_occupancy
  Eu  Eu0  1  0.406717  0.410099  0.251016  1
  Eu  Eu1  1  0.593283  0.589901  0.748984  1
  Si  Si2  1  0.791225  0.186219  0.945993  1
  Si  Si3  1  0.208775  0.813781  0.054007  1
  B  B4  1  0.223984  0.254060  0.806932  1
  B  B5  1  0.776016  0.745940  0.193068  1
  B  B6  1  0.034133  0.688719  0.464402  1
  B  B7  1  0.965867  0.311281  0.535598  1
  B  B8  1  0.962993  0.087149  0.250228  1
  B  B9  1  0.037007  0.912851  0.749772  1
  Pb  Pb10  1  0.500000  0.000000  0.500000  1
  O  O11  1  0.773564  0.181607  0.136763  1
  O  O12  1  0.226436  0.818393  0.863237  1
  O  O13  1  0.861902  0.617992  0.306680  1
  O  O14  1  0.138098  0.382008  0.693320  1
  O  O15  1  0.078405  0.294159  0.947541  1
  O  O16  1  0.921595  0.705841  0.052459  1
  O  O17  1  0.091966  0.225231  0.405942  1
  O  O18  1  0.908034  0.774769  0.594058  1
  O  O19  1  0.308647  0.668325  0.487959  1
  O  O20  1  0.691353  0.331675  0.512041  1
  O  O21  1  0.474943  0.700212  0.123813  1
  O  O22  1  0.525057  0.299788  0.876187  1
  O  O23  1  0.171380  0.063039  0.708916  1
  O  O24  1  0.828620  0.936961  0.291084  1
  O  O25  1  0.205793  0.021499  0.176473  1
  O  O26  1  0.794207  0.978501  0.823527  1
