# generated using pymatgen
data_Gd4VTc3B16
_symmetry_space_group_name_H-M   'P 1'
_cell_length_a   6.00734894
_cell_length_b   11.61492151
_cell_length_c   3.60266100
_cell_angle_alpha   90.00000000
_cell_angle_beta   90.00000000
_cell_angle_gamma   90.17445609
_symmetry_Int_Tables_number   1
_chemical_formula_structural   Gd4VTc3B16
_chemical_formula_sum   'Gd4 V1 Tc3 B16'
_cell_volume   251.37409668
_cell_formula_units_Z   1
loop_
 _symmetry_equiv_pos_site_id
 _symmetry_equiv_pos_as_xyz
  1  'x, y, z'
loop_
 _atom_site_type_symbol
 _atom_site_label
 _atom_site_symmetry_multiplicity
 _atom_site_fract_x
 _atom_site_fract_y
 _atom_site_fract_z
 _atom_site_occupancy
  Gd  Gd0  1  0.125405  0.150018  0.000000  1
  Gd  Gd1  1  0.874690  0.849767  0.000000  1
  Gd  Gd2  1  0.626648  0.349811  0.000000  1
  Gd  Gd3  1  0.373058  0.651300  0.000000  1
  V  V4  1  0.373069  0.918084  0.000000  1
  Tc  Tc5  1  0.133754  0.412815  0.000000  1
  Tc  Tc6  1  0.866536  0.586054  0.000000  1
  Tc  Tc7  1  0.625846  0.082991  0.000000  1
  B  B8  1  0.476884  0.191614  0.499998  1
  B  B9  1  0.523529  0.808350  0.499998  1
  B  B10  1  0.975248  0.308070  0.499998  1
  B  B11  1  0.024806  0.691877  0.499998  1
  B  B12  1  0.284454  0.314519  0.499998  1
  B  B13  1  0.715943  0.685195  0.499998  1
  B  B14  1  0.784215  0.184057  0.499998  1
  B  B15  1  0.215306  0.815483  0.499998  1
  B  B16  1  0.363620  0.468383  0.499998  1
  B  B17  1  0.636646  0.531603  0.499998  1
  B  B18  1  0.863482  0.032286  0.499998  1
  B  B19  1  0.135910  0.967790  0.499998  1
  B  B20  1  0.386818  0.046776  0.499998  1
  B  B21  1  0.613474  0.953273  0.499998  1
  B  B22  1  0.887492  0.453049  0.499998  1
  B  B23  1  0.113172  0.546834  0.499998  1
