# generated using pymatgen
data_Zr3Co2SnN
_symmetry_space_group_name_H-M   'P 1'
_cell_length_a   8.55206800
_cell_length_b   8.55206951
_cell_length_c   8.55206800
_cell_angle_alpha   120.00000189
_cell_angle_beta   90.00000000
_cell_angle_gamma   120.00000189
_symmetry_Int_Tables_number   1
_chemical_formula_structural   Zr3Co2SnN
_chemical_formula_sum   'Zr12 Co8 Sn4 N4'
_cell_volume   442.28121137
_cell_formula_units_Z   4
loop_
 _symmetry_equiv_pos_site_id
 _symmetry_equiv_pos_as_xyz
  1  'x, y, z'
loop_
 _atom_site_type_symbol
 _atom_site_label
 _atom_site_symmetry_multiplicity
 _atom_site_fract_x
 _atom_site_fract_y
 _atom_site_fract_z
 _atom_site_occupancy
  Zr  Zr0  1  0.313262  0.749999  0.186738  1
  Zr  Zr1  1  0.936737  0.373477  0.186738  1
  Zr  Zr2  1  0.936737  0.749999  0.186738  1
  Zr  Zr3  1  0.063262  0.250000  0.436738  1
  Zr  Zr4  1  0.686738  0.250000  0.436739  1
  Zr  Zr5  1  0.686738  0.873478  0.436739  1
  Zr  Zr6  1  0.313262  0.126523  0.563261  1
  Zr  Zr7  1  0.313262  0.749999  0.563261  1
  Zr  Zr8  1  0.936737  0.749999  0.563261  1
  Zr  Zr9  1  0.063262  0.250000  0.813261  1
  Zr  Zr10  1  0.063262  0.626522  0.813261  1
  Zr  Zr11  1  0.686738  0.250000  0.813262  1
  Co  Co12  1  0.714108  0.928215  0.142323  1
  Co  Co13  1  0.285893  0.071786  0.214108  1
  Co  Co14  1  0.285893  0.428216  0.214108  1
  Co  Co15  1  0.642324  0.428216  0.214108  1
  Co  Co16  1  0.357677  0.571785  0.785893  1
  Co  Co17  1  0.714108  0.571785  0.785893  1
  Co  Co18  1  0.714108  0.928215  0.785893  1
  Co  Co19  1  0.285892  0.071786  0.857677  1
  Sn  Sn20  1  0.000000  0.000000  0.000000  1
  Sn  Sn21  1  0.500000  0.000000  0.000000  1
  Sn  Sn22  1  0.500000  0.500000  0.000000  1
  Sn  Sn23  1  0.500000  0.500000  0.500000  1
  N  N24  1  0.000000  0.500000  0.000000  1
  N  N25  1  0.000000  0.000000  0.500000  1
  N  N26  1  0.500000  0.000000  0.500000  1
  N  N27  1  0.000000  0.500000  0.500000  1
