# generated using pymatgen
data_Tm15Lu3(ZrRh6)2
_symmetry_space_group_name_H-M   'P 1'
_cell_length_a   10.72147409
_cell_length_b   10.72373104
_cell_length_c   6.24830900
_cell_angle_alpha   89.99996794
_cell_angle_beta   89.99248631
_cell_angle_gamma   89.99508453
_symmetry_Int_Tables_number   1
_chemical_formula_structural   Tm15Lu3(ZrRh6)2
_chemical_formula_sum   'Tm15 Lu3 Zr2 Rh12'
_cell_volume   718.39434799
_cell_formula_units_Z   1
loop_
 _symmetry_equiv_pos_site_id
 _symmetry_equiv_pos_as_xyz
  1  'x, y, z'
loop_
 _atom_site_type_symbol
 _atom_site_label
 _atom_site_symmetry_multiplicity
 _atom_site_fract_x
 _atom_site_fract_y
 _atom_site_fract_z
 _atom_site_occupancy
  Tm  Tm0  1  0.289175  0.913481  0.874730  1
  Tm  Tm1  1  0.710819  0.086666  0.874649  1
  Tm  Tm2  1  0.710788  0.913329  0.374703  1
  Tm  Tm3  1  0.587749  0.792065  0.875076  1
  Tm  Tm4  1  0.587548  0.207922  0.375072  1
  Tm  Tm5  1  0.412163  0.792194  0.375046  1
  Tm  Tm6  1  0.412109  0.207927  0.875087  1
  Tm  Tm7  1  0.208010  0.412221  0.624880  1
  Tm  Tm8  1  0.207962  0.587774  0.124917  1
  Tm  Tm9  1  0.792044  0.412230  0.124917  1
  Tm  Tm10  1  0.792006  0.587779  0.624941  1
  Tm  Tm11  1  0.913306  0.710829  0.125297  1
  Tm  Tm12  1  0.913329  0.289187  0.625386  1
  Tm  Tm13  1  0.086693  0.710844  0.625282  1
  Tm  Tm14  1  0.086874  0.289044  0.125464  1
  Lu  Lu15  1  0.289608  0.086475  0.374979  1
  Lu  Lu16  1  0.499974  0.499995  0.999970  1
  Lu  Lu17  1  0.499975  0.499999  0.499927  1
  Zr  Zr18  1  0.000091  0.000074  0.499867  1
  Zr  Zr19  1  0.999992  0.999973  0.000053  1
  Rh  Rh20  1  0.853613  0.146379  0.249961  1
  Rh  Rh21  1  0.853664  0.853547  0.750030  1
  Rh  Rh22  1  0.146658  0.146194  0.749310  1
  Rh  Rh23  1  0.146575  0.853923  0.250224  1
  Rh  Rh24  1  0.654189  0.345850  0.750043  1
  Rh  Rh25  1  0.654169  0.654106  0.249985  1
  Rh  Rh26  1  0.345752  0.345404  0.250276  1
  Rh  Rh27  1  0.345867  0.654113  0.750018  1
  Rh  Rh28  1  0.499650  0.000229  0.123194  1
  Rh  Rh29  1  0.499627  0.000230  0.622400  1
  Rh  Rh30  1  0.999999  0.500029  0.877160  1
  Rh  Rh31  1  0.000024  0.499984  0.377154  1
