# generated using pymatgen
data_Tm4Si8Tc5Ru
_symmetry_space_group_name_H-M   'P 1'
_cell_length_a   6.74541215
_cell_length_b   6.74581668
_cell_length_c   6.74431308
_cell_angle_alpha   69.89184163
_cell_angle_beta   89.66012000
_cell_angle_gamma   88.17150365
_symmetry_Int_Tables_number   1
_chemical_formula_structural   Tm4Si8Tc5Ru
_chemical_formula_sum   'Tm4 Si8 Tc5 Ru1'
_cell_volume   288.03140736
_cell_formula_units_Z   1
loop_
 _symmetry_equiv_pos_site_id
 _symmetry_equiv_pos_as_xyz
  1  'x, y, z'
loop_
 _atom_site_type_symbol
 _atom_site_label
 _atom_site_symmetry_multiplicity
 _atom_site_fract_x
 _atom_site_fract_y
 _atom_site_fract_z
 _atom_site_occupancy
  Tm  Tm0  1  0.329354  0.553070  0.811639  1
  Tm  Tm1  1  0.831505  0.940229  0.190300  1
  Tm  Tm2  1  0.666158  0.442393  0.191840  1
  Tm  Tm3  1  0.169834  0.063370  0.805823  1
  Si  Si4  1  0.549738  0.868660  0.900414  1
  Si  Si5  1  0.054752  0.618429  0.107239  1
  Si  Si6  1  0.451271  0.125675  0.095643  1
  Si  Si7  1  0.935365  0.387182  0.890233  1
  Si  Si8  1  0.142345  0.866579  0.492461  1
  Si  Si9  1  0.646359  0.629364  0.526449  1
  Si  Si10  1  0.859620  0.130917  0.505742  1
  Si  Si11  1  0.357518  0.371434  0.481389  1
  Tc  Tc12  1  0.498241  0.990652  0.501836  1
  Tc  Tc13  1  0.000926  0.504947  0.501133  1
  Tc  Tc14  1  0.347213  0.752894  0.233550  1
  Tc  Tc15  1  0.144993  0.233244  0.234996  1
  Tc  Tc16  1  0.650756  0.244363  0.754235  1
  Ru  Ru17  1  0.864052  0.776598  0.775077  1
