# generated using pymatgen
data_Ti2V2GeAs
_symmetry_space_group_name_H-M   'P 1'
_cell_length_a   3.39680800
_cell_length_b   6.62707480
_cell_length_c   8.01171645
_cell_angle_alpha   89.65587117
_cell_angle_beta   90.00000000
_cell_angle_gamma   90.00000000
_symmetry_Int_Tables_number   1
_chemical_formula_structural   Ti2V2GeAs
_chemical_formula_sum   'Ti4 V4 Ge2 As2'
_cell_volume   180.34770031
_cell_formula_units_Z   2
loop_
 _symmetry_equiv_pos_site_id
 _symmetry_equiv_pos_as_xyz
  1  'x, y, z'
loop_
 _atom_site_type_symbol
 _atom_site_label
 _atom_site_symmetry_multiplicity
 _atom_site_fract_x
 _atom_site_fract_y
 _atom_site_fract_z
 _atom_site_occupancy
  Ti  Ti0  1  0.250000  0.553336  0.166361  1
  Ti  Ti1  1  0.750000  0.446664  0.833639  1
  Ti  Ti2  1  0.750000  0.949375  0.665265  1
  Ti  Ti3  1  0.250000  0.050625  0.334735  1
  V  V4  1  0.250000  0.626926  0.558450  1
  V  V5  1  0.750000  0.373074  0.441550  1
  V  V6  1  0.750000  0.875218  0.060006  1
  V  V7  1  0.250000  0.124782  0.939994  1
  Ge  Ge8  1  0.250000  0.746184  0.859143  1
  Ge  Ge9  1  0.750000  0.253816  0.140857  1
  As  As10  1  0.750000  0.751608  0.358986  1
  As  As11  1  0.250000  0.248392  0.641014  1
