# generated using pymatgen
data_Sc3Zn2SiRh6
_symmetry_space_group_name_H-M   'P 1'
_cell_length_a   4.43547001
_cell_length_b   6.17701200
_cell_length_c   13.16939503
_cell_angle_alpha   90.00000000
_cell_angle_beta   89.99272006
_cell_angle_gamma   90.00000000
_symmetry_Int_Tables_number   1
_chemical_formula_structural   Sc3Zn2SiRh6
_chemical_formula_sum   'Sc6 Zn4 Si2 Rh12'
_cell_volume   360.81444293
_cell_formula_units_Z   2
loop_
 _symmetry_equiv_pos_site_id
 _symmetry_equiv_pos_as_xyz
  1  'x, y, z'
loop_
 _atom_site_type_symbol
 _atom_site_label
 _atom_site_symmetry_multiplicity
 _atom_site_fract_x
 _atom_site_fract_y
 _atom_site_fract_z
 _atom_site_occupancy
  Sc  Sc0  1  0.999997  0.500000  0.997675  1
  Sc  Sc1  1  0.499897  0.000000  0.168999  1
  Sc  Sc2  1  0.999891  0.500000  0.335725  1
  Sc  Sc3  1  0.500001  0.000000  0.500192  1
  Sc  Sc4  1  0.000104  0.500000  0.666436  1
  Sc  Sc5  1  0.500106  0.000000  0.830985  1
  Zn  Zn6  1  0.999886  0.000000  0.332717  1
  Zn  Zn7  1  0.499998  0.500000  0.499348  1
  Zn  Zn8  1  0.000103  0.000000  0.667305  1
  Zn  Zn9  1  0.500108  0.500000  0.833925  1
  Si  Si10  1  0.999999  0.000000  0.998483  1
  Si  Si11  1  0.499900  0.500000  0.168211  1
  Rh  Rh12  1  0.499988  0.246323  0.005285  1
  Rh  Rh13  1  0.499988  0.753676  0.005285  1
  Rh  Rh14  1  0.999904  0.253678  0.161387  1
  Rh  Rh15  1  0.999904  0.746322  0.161387  1
  Rh  Rh16  1  0.499894  0.256761  0.326820  1
  Rh  Rh17  1  0.499894  0.743238  0.326820  1
  Rh  Rh18  1  0.000007  0.249346  0.499423  1
  Rh  Rh19  1  0.000007  0.750653  0.499423  1
  Rh  Rh20  1  0.500108  0.250601  0.667258  1
  Rh  Rh21  1  0.500108  0.749398  0.667258  1
  Rh  Rh22  1  0.000101  0.243238  0.839825  1
  Rh  Rh23  1  0.000101  0.756762  0.839825  1
