# generated using pymatgen
data_Rb2TlAsSe4
_symmetry_space_group_name_H-M   'P 1'
_cell_length_a   9.81486000
_cell_length_b   10.32231000
_cell_length_c   11.16920500
_cell_angle_alpha   90.00000000
_cell_angle_beta   90.00000000
_cell_angle_gamma   90.00000000
_symmetry_Int_Tables_number   1
_chemical_formula_structural   Rb2TlAsSe4
_chemical_formula_sum   'Rb8 Tl4 As4 Se16'
_cell_volume   1131.57480441
_cell_formula_units_Z   4
loop_
 _symmetry_equiv_pos_site_id
 _symmetry_equiv_pos_as_xyz
  1  'x, y, z'
loop_
 _atom_site_type_symbol
 _atom_site_label
 _atom_site_symmetry_multiplicity
 _atom_site_fract_x
 _atom_site_fract_y
 _atom_site_fract_z
 _atom_site_occupancy
  Rb  Rb0  1  0.068189  0.808363  0.955610  1
  Rb  Rb1  1  0.568189  0.691637  0.544390  1
  Rb  Rb2  1  0.431811  0.308363  0.044390  1
  Rb  Rb3  1  0.931811  0.191637  0.455610  1
  Rb  Rb4  1  0.931811  0.191637  0.044390  1
  Rb  Rb5  1  0.431811  0.308363  0.455610  1
  Rb  Rb6  1  0.568189  0.691637  0.955610  1
  Rb  Rb7  1  0.068189  0.808363  0.544390  1
  Tl  Tl8  1  0.612508  0.923323  0.250000  1
  Tl  Tl9  1  0.112508  0.576677  0.250000  1
  Tl  Tl10  1  0.887492  0.423323  0.750000  1
  Tl  Tl11  1  0.387492  0.076677  0.750000  1
  As  As12  1  0.764155  0.977660  0.750000  1
  As  As13  1  0.235845  0.022340  0.250000  1
  As  As14  1  0.735845  0.477660  0.250000  1
  As  As15  1  0.264155  0.522340  0.750000  1
  Se  Se16  1  0.367288  0.971165  0.076935  1
  Se  Se17  1  0.867288  0.528835  0.423065  1
  Se  Se18  1  0.132712  0.471165  0.923065  1
  Se  Se19  1  0.632712  0.028835  0.576935  1
  Se  Se20  1  0.026890  0.908615  0.250000  1
  Se  Se21  1  0.526890  0.591385  0.250000  1
  Se  Se22  1  0.473110  0.408615  0.750000  1
  Se  Se23  1  0.973110  0.091385  0.750000  1
  Se  Se24  1  0.632712  0.028835  0.923065  1
  Se  Se25  1  0.367288  0.971165  0.423065  1
  Se  Se26  1  0.867288  0.528835  0.076935  1
  Se  Se27  1  0.132712  0.471165  0.576935  1
  Se  Se28  1  0.813793  0.754495  0.750000  1
  Se  Se29  1  0.313793  0.745505  0.750000  1
  Se  Se30  1  0.686207  0.254495  0.250000  1
  Se  Se31  1  0.186207  0.245505  0.250000  1
