# generated using pymatgen
data_Dy4Si10IrOs5
_symmetry_space_group_name_H-M   'P 1'
_cell_length_a   8.12409344
_cell_length_b   8.11436270
_cell_length_c   5.80606586
_cell_angle_alpha   70.78012343
_cell_angle_beta   70.73822980
_cell_angle_gamma   94.18262321
_symmetry_Int_Tables_number   1
_chemical_formula_structural   Dy4Si10IrOs5
_chemical_formula_sum   'Dy4 Si10 Ir1 Os5'
_cell_volume   334.03197690
_cell_formula_units_Z   1
loop_
 _symmetry_equiv_pos_site_id
 _symmetry_equiv_pos_as_xyz
  1  'x, y, z'
loop_
 _atom_site_type_symbol
 _atom_site_label
 _atom_site_symmetry_multiplicity
 _atom_site_fract_x
 _atom_site_fract_y
 _atom_site_fract_z
 _atom_site_occupancy
  Dy  Dy0  1  0.866692  0.600294  0.754927  1
  Dy  Dy1  1  0.399719  0.131670  0.745545  1
  Dy  Dy2  1  0.131018  0.398012  0.249291  1
  Dy  Dy3  1  0.600637  0.869070  0.253999  1
  Si  Si4  1  0.064590  0.259250  0.835949  1
  Si  Si5  1  0.738465  0.932118  0.666192  1
  Si  Si6  1  0.932140  0.737868  0.166497  1
  Si  Si7  1  0.262751  0.066499  0.332770  1
  Si  Si8  1  0.209623  0.795603  0.745154  1
  Si  Si9  1  0.794416  0.207602  0.248032  1
  Si  Si10  1  0.514727  0.487069  0.750766  1
  Si  Si11  1  0.487896  0.513407  0.248043  1
  Si  Si12  1  0.773474  0.227262  0.751071  1
  Si  Si13  1  0.226213  0.776396  0.248865  1
  Ir  Ir14  1  0.255185  0.542636  0.631568  1
  Os  Os15  1  0.455355  0.743624  0.870588  1
  Os  Os16  1  0.742941  0.456304  0.369595  1
  Os  Os17  1  0.543297  0.257133  0.132027  1
  Os  Os18  1  0.004183  0.994690  0.749596  1
  Os  Os19  1  0.996680  0.003491  0.249525  1
