# generated using pymatgen
data_Cs2Tl4(TcH9)3
_symmetry_space_group_name_H-M   'P 1'
_cell_length_a   9.69363000
_cell_length_b   9.76231964
_cell_length_c   6.09548900
_cell_angle_alpha   90.00000000
_cell_angle_beta   90.00000000
_cell_angle_gamma   119.76751604
_symmetry_Int_Tables_number   1
_chemical_formula_structural   Cs2Tl4(TcH9)3
_chemical_formula_sum   'Cs2 Tl4 Tc3 H27'
_cell_volume   500.71579538
_cell_formula_units_Z   1
loop_
 _symmetry_equiv_pos_site_id
 _symmetry_equiv_pos_as_xyz
  1  'x, y, z'
loop_
 _atom_site_type_symbol
 _atom_site_label
 _atom_site_symmetry_multiplicity
 _atom_site_fract_x
 _atom_site_fract_y
 _atom_site_fract_z
 _atom_site_occupancy
  Cs  Cs0  1  0.002495  0.587946  0.000000  1
  Cs  Cs1  1  0.414549  0.412054  0.000000  1
  Tl  Tl2  1  0.268246  0.000000  0.500000  1
  Tl  Tl3  1  0.998466  0.256120  0.500000  1
  Tl  Tl4  1  0.742347  0.743880  0.500000  1
  Tl  Tl5  1  0.608045  0.000000  0.000000  1
  Tc  Tc6  1  0.984081  0.000000  0.000000  1
  Tc  Tc7  1  0.343775  0.677735  0.500000  1
  Tc  Tc8  1  0.666041  0.322265  0.500000  1
  H  H9  1  0.857587  0.000000  0.197409  1
  H  H10  1  0.992172  0.882647  0.195740  1
  H  H11  1  0.857587  0.000000  0.802591  1
  H  H12  1  0.992172  0.882647  0.804260  1
  H  H13  1  0.109525  0.117353  0.195740  1
  H  H14  1  0.109525  0.117353  0.804260  1
  H  H15  1  0.155113  0.000000  0.000000  1
  H  H16  1  0.997585  0.177836  0.000000  1
  H  H17  1  0.819749  0.822164  0.000000  1
  H  H18  1  0.237217  0.543380  0.304378  1
  H  H19  1  0.476359  0.706141  0.297724  1
  H  H20  1  0.237217  0.543380  0.695622  1
  H  H21  1  0.533537  0.218103  0.700757  1
  H  H22  1  0.315435  0.781897  0.299243  1
  H  H23  1  0.476359  0.706141  0.702276  1
  H  H24  1  0.693837  0.456620  0.695622  1
  H  H25  1  0.533537  0.218103  0.299243  1
  H  H26  1  0.315435  0.781897  0.700757  1
  H  H27  1  0.693837  0.456620  0.304378  1
  H  H28  1  0.770216  0.293859  0.702276  1
  H  H29  1  0.770216  0.293859  0.297724  1
  H  H30  1  0.381253  0.528864  0.500000  1
  H  H31  1  0.492159  0.863944  0.500000  1
  H  H32  1  0.517360  0.360999  0.500000  1
  H  H33  1  0.156362  0.639001  0.500000  1
  H  H34  1  0.852390  0.471136  0.500000  1
  H  H35  1  0.628214  0.136056  0.500000  1
