# generated using pymatgen
data_PrNd11Ir2(RhBr6)2
_symmetry_space_group_name_H-M   'P 1'
_cell_length_a   10.50021373
_cell_length_b   10.50021375
_cell_length_c   10.52051331
_cell_angle_alpha   109.49347923
_cell_angle_beta   109.49347568
_cell_angle_gamma   109.40236308
_symmetry_Int_Tables_number   1
_chemical_formula_structural   PrNd11Ir2(RhBr6)2
_chemical_formula_sum   'Pr1 Nd11 Ir2 Rh2 Br12'
_cell_volume   893.18506632
_cell_formula_units_Z   1
loop_
 _symmetry_equiv_pos_site_id
 _symmetry_equiv_pos_as_xyz
  1  'x, y, z'
loop_
 _atom_site_type_symbol
 _atom_site_label
 _atom_site_symmetry_multiplicity
 _atom_site_fract_x
 _atom_site_fract_y
 _atom_site_fract_z
 _atom_site_occupancy
  Pr  Pr0  1  0.234346  0.265654  0.750000  1
  Nd  Nd1  1  0.467800  0.484489  0.233992  1
  Nd  Nd2  1  0.751041  0.234379  0.266671  1
  Nd  Nd3  1  0.750385  0.016390  0.484067  1
  Nd  Nd4  1  0.233414  0.467875  0.484035  1
  Nd  Nd5  1  0.265621  0.748959  0.233329  1
  Nd  Nd6  1  0.032125  0.266586  0.015965  1
  Nd  Nd7  1  0.015511  0.032200  0.266008  1
  Nd  Nd8  1  0.483610  0.749615  0.015933  1
  Nd  Nd9  1  0.483981  0.233862  0.467759  1
  Nd  Nd10  1  0.016227  0.483773  0.750000  1
  Nd  Nd11  1  0.266138  0.016019  0.032241  1
  Ir  Ir12  1  0.999048  0.249460  0.498553  1
  Ir  Ir13  1  0.250540  0.500952  0.001447  1
  Rh  Rh14  1  0.250600  0.249400  0.250000  1
  Rh  Rh15  1  0.499360  0.000640  0.250000  1
  Br  Br16  1  0.250265  0.754515  0.746222  1
  Br  Br17  1  0.509687  0.506102  0.753769  1
  Br  Br18  1  0.991959  0.746311  0.995940  1
  Br  Br19  1  0.745485  0.249735  0.753778  1
  Br  Br20  1  0.993898  0.990313  0.746231  1
  Br  Br21  1  0.250024  0.994589  0.502476  1
  Br  Br22  1  0.753689  0.508041  0.504060  1
  Br  Br23  1  0.505411  0.249976  0.997524  1
  Br  Br24  1  0.754098  0.745902  0.250000  1
  Br  Br25  1  0.745976  0.995995  0.991890  1
  Br  Br26  1  0.995756  0.504244  0.250000  1
  Br  Br27  1  0.504005  0.754024  0.508110  1
