# generated using pymatgen
data_Ho10Tl6C
_symmetry_space_group_name_H-M   'P 1'
_cell_length_a   9.05165300
_cell_length_b   9.05165360
_cell_length_c   6.50584700
_cell_angle_alpha   90.00000000
_cell_angle_beta   90.00000000
_cell_angle_gamma   119.99998685
_symmetry_Int_Tables_number   1
_chemical_formula_structural   Ho10Tl6C
_chemical_formula_sum   'Ho10 Tl6 C1'
_cell_volume   461.62610145
_cell_formula_units_Z   1
loop_
 _symmetry_equiv_pos_site_id
 _symmetry_equiv_pos_as_xyz
  1  'x, y, z'
loop_
 _atom_site_type_symbol
 _atom_site_label
 _atom_site_symmetry_multiplicity
 _atom_site_fract_x
 _atom_site_fract_y
 _atom_site_fract_z
 _atom_site_occupancy
  Ho  Ho0  1  0.000000  0.778389  0.271489  1
  Ho  Ho1  1  0.221611  0.221611  0.271489  1
  Ho  Ho2  1  0.778389  0.000000  0.271489  1
  Ho  Ho3  1  0.000000  0.221611  0.728511  1
  Ho  Ho4  1  0.778389  0.778389  0.728511  1
  Ho  Ho5  1  0.221611  0.000000  0.728511  1
  Ho  Ho6  1  0.333333  0.666667  0.000000  1
  Ho  Ho7  1  0.666667  0.333333  0.000000  1
  Ho  Ho8  1  0.666667  0.333333  0.500000  1
  Ho  Ho9  1  0.333333  0.666667  0.500000  1
  Tl  Tl10  1  0.000000  0.404239  0.248071  1
  Tl  Tl11  1  0.595761  0.595761  0.248071  1
  Tl  Tl12  1  0.404239  0.000000  0.248071  1
  Tl  Tl13  1  0.000000  0.595761  0.751929  1
  Tl  Tl14  1  0.404239  0.404239  0.751929  1
  Tl  Tl15  1  0.595761  0.000000  0.751929  1
  C  C16  1  0.000000  0.000000  0.500000  1
