# generated using pymatgen
data_Dy10TcAg3
_symmetry_space_group_name_H-M   'P 1'
_cell_length_a   9.45097600
_cell_length_b   9.45097797
_cell_length_c   9.77859700
_cell_angle_alpha   90.00000000
_cell_angle_beta   90.00000000
_cell_angle_gamma   120.00000012
_symmetry_Int_Tables_number   1
_chemical_formula_structural   Dy10TcAg3
_chemical_formula_sum   'Dy20 Tc2 Ag6'
_cell_volume   756.41579743
_cell_formula_units_Z   2
loop_
 _symmetry_equiv_pos_site_id
 _symmetry_equiv_pos_as_xyz
  1  'x, y, z'
loop_
 _atom_site_type_symbol
 _atom_site_label
 _atom_site_symmetry_multiplicity
 _atom_site_fract_x
 _atom_site_fract_y
 _atom_site_fract_z
 _atom_site_occupancy
  Dy  Dy0  1  0.000000  0.000000  0.500000  1
  Dy  Dy1  1  0.000000  0.000000  0.000000  1
  Dy  Dy2  1  0.540356  0.459644  0.250000  1
  Dy  Dy3  1  0.540356  0.080710  0.250000  1
  Dy  Dy4  1  0.919290  0.459644  0.250000  1
  Dy  Dy5  1  0.459644  0.540356  0.750000  1
  Dy  Dy6  1  0.459644  0.919290  0.750000  1
  Dy  Dy7  1  0.080710  0.540356  0.750000  1
  Dy  Dy8  1  0.208793  0.791207  0.440615  1
  Dy  Dy9  1  0.208793  0.417587  0.440615  1
  Dy  Dy10  1  0.582413  0.791207  0.440615  1
  Dy  Dy11  1  0.791207  0.208793  0.559385  1
  Dy  Dy12  1  0.791207  0.582413  0.559385  1
  Dy  Dy13  1  0.417587  0.208793  0.559385  1
  Dy  Dy14  1  0.791207  0.208793  0.940615  1
  Dy  Dy15  1  0.791207  0.582413  0.940615  1
  Dy  Dy16  1  0.417587  0.208793  0.940615  1
  Dy  Dy17  1  0.208793  0.791207  0.059385  1
  Dy  Dy18  1  0.208793  0.417587  0.059385  1
  Dy  Dy19  1  0.582413  0.791207  0.059385  1
  Tc  Tc20  1  0.333333  0.666667  0.250000  1
  Tc  Tc21  1  0.666667  0.333333  0.750000  1
  Ag  Ag22  1  0.885041  0.114959  0.250000  1
  Ag  Ag23  1  0.885041  0.770083  0.250000  1
  Ag  Ag24  1  0.229917  0.114959  0.250000  1
  Ag  Ag25  1  0.114959  0.885041  0.750000  1
  Ag  Ag26  1  0.114959  0.229917  0.750000  1
  Ag  Ag27  1  0.770083  0.885041  0.750000  1
