# generated using pymatgen
data_Tb5Y5Si6C
_symmetry_space_group_name_H-M   'P 1'
_cell_length_a   8.49374201
_cell_length_b   8.49306869
_cell_length_c   6.41131901
_cell_angle_alpha   89.99222236
_cell_angle_beta   90.00389078
_cell_angle_gamma   119.99736558
_symmetry_Int_Tables_number   1
_chemical_formula_structural   Tb5Y5Si6C
_chemical_formula_sum   'Tb5 Y5 Si6 C1'
_cell_volume   400.54678064
_cell_formula_units_Z   1
loop_
 _symmetry_equiv_pos_site_id
 _symmetry_equiv_pos_as_xyz
  1  'x, y, z'
loop_
 _atom_site_type_symbol
 _atom_site_label
 _atom_site_symmetry_multiplicity
 _atom_site_fract_x
 _atom_site_fract_y
 _atom_site_fract_z
 _atom_site_occupancy
  Tb  Tb0  1  0.333347  0.666654  0.500015  1
  Tb  Tb1  1  0.666653  0.333306  0.500015  1
  Tb  Tb2  1  0.666657  0.333305  0.999990  1
  Tb  Tb3  1  0.333343  0.666649  0.999990  1
  Tb  Tb4  1  0.000000  0.764201  0.270992  1
  Y  Y5  1  0.235820  0.235843  0.271097  1
  Y  Y6  1  0.764180  0.000023  0.271097  1
  Y  Y7  1  0.000000  0.235834  0.728952  1
  Y  Y8  1  0.764177  0.764191  0.728908  1
  Y  Y9  1  0.235823  0.000013  0.728908  1
  Si  Si10  1  0.000000  0.398662  0.253296  1
  Si  Si11  1  0.601168  0.601230  0.253299  1
  Si  Si12  1  0.398832  0.000062  0.253299  1
  Si  Si13  1  0.000000  0.601308  0.746691  1
  Si  Si14  1  0.398720  0.398732  0.746698  1
  Si  Si15  1  0.601280  0.000012  0.746698  1
  C  C16  1  0.000000  0.999977  0.500056  1
