# generated using pymatgen
data_Sr4Mn(N2Cl)2
_symmetry_space_group_name_H-M   'P 1'
_cell_length_a   5.77010100
_cell_length_b   7.94760184
_cell_length_c   10.15283219
_cell_angle_alpha   81.67140051
_cell_angle_beta   90.00000000
_cell_angle_gamma   90.00000000
_symmetry_Int_Tables_number   1
_chemical_formula_structural   Sr4Mn(N2Cl)2
_chemical_formula_sum   'Sr8 Mn2 N8 Cl4'
_cell_volume   460.68297453
_cell_formula_units_Z   2
loop_
 _symmetry_equiv_pos_site_id
 _symmetry_equiv_pos_as_xyz
  1  'x, y, z'
loop_
 _atom_site_type_symbol
 _atom_site_label
 _atom_site_symmetry_multiplicity
 _atom_site_fract_x
 _atom_site_fract_y
 _atom_site_fract_z
 _atom_site_occupancy
  Sr  Sr0  1  0.750000  0.286712  0.292567  1
  Sr  Sr1  1  0.750000  0.002719  0.620620  1
  Sr  Sr2  1  0.750000  0.451165  0.615920  1
  Sr  Sr3  1  0.750000  0.814715  0.099017  1
  Sr  Sr4  1  0.250000  0.997281  0.379380  1
  Sr  Sr5  1  0.250000  0.548835  0.384080  1
  Sr  Sr6  1  0.250000  0.185285  0.900983  1
  Sr  Sr7  1  0.250000  0.713288  0.707433  1
  Mn  Mn8  1  0.750000  0.769987  0.400779  1
  Mn  Mn9  1  0.250000  0.230013  0.599221  1
  N  N10  1  0.250000  0.035204  0.702343  1
  N  N11  1  0.008754  0.247531  0.495398  1
  N  N12  1  0.508754  0.752469  0.504602  1
  N  N13  1  0.991246  0.752469  0.504602  1
  N  N14  1  0.750000  0.605362  0.303411  1
  N  N15  1  0.750000  0.964796  0.297657  1
  N  N16  1  0.491246  0.247531  0.495398  1
  N  N17  1  0.250000  0.394638  0.696589  1
  Cl  Cl18  1  0.250000  0.324189  0.161127  1
  Cl  Cl19  1  0.750000  0.675811  0.838873  1
  Cl  Cl20  1  0.250000  0.842573  0.091279  1
  Cl  Cl21  1  0.750000  0.157427  0.908721  1
