# generated using pymatgen
data_U8GaSe17
_symmetry_space_group_name_H-M   'P 1'
_cell_length_a   8.26305857
_cell_length_b   8.26305824
_cell_length_c   10.94553130
_cell_angle_alpha   79.79455028
_cell_angle_beta   79.79454921
_cell_angle_gamma   64.47083463
_symmetry_Int_Tables_number   1
_chemical_formula_structural   U8GaSe17
_chemical_formula_sum   'U8 Ga1 Se17'
_cell_volume   659.41448358
_cell_formula_units_Z   1
loop_
 _symmetry_equiv_pos_site_id
 _symmetry_equiv_pos_as_xyz
  1  'x, y, z'
loop_
 _atom_site_type_symbol
 _atom_site_label
 _atom_site_symmetry_multiplicity
 _atom_site_fract_x
 _atom_site_fract_y
 _atom_site_fract_z
 _atom_site_occupancy
  U  U0  1  0.819663  0.307889  0.302500  1
  U  U1  1  0.307889  0.819663  0.302500  1
  U  U2  1  0.180337  0.692111  0.697500  1
  U  U3  1  0.692111  0.180337  0.697500  1
  U  U4  1  0.797916  0.797916  0.459491  1
  U  U5  1  0.202084  0.202084  0.540509  1
  U  U6  1  0.323887  0.323887  0.012305  1
  U  U7  1  0.676113  0.676113  0.987695  1
  Ga  Ga8  1  0.000000  0.000000  0.000000  1
  Se  Se9  1  0.179773  0.566023  0.462511  1
  Se  Se10  1  0.566023  0.179773  0.462511  1
  Se  Se11  1  0.820227  0.433977  0.537489  1
  Se  Se12  1  0.433977  0.820227  0.537489  1
  Se  Se13  1  0.948110  0.326162  0.033549  1
  Se  Se14  1  0.326162  0.948110  0.033549  1
  Se  Se15  1  0.051890  0.673838  0.966451  1
  Se  Se16  1  0.673838  0.051890  0.966451  1
  Se  Se17  1  0.947779  0.947779  0.232171  1
  Se  Se18  1  0.052221  0.052221  0.767829  1
  Se  Se19  1  0.783995  0.783995  0.722617  1
  Se  Se20  1  0.216005  0.216005  0.277383  1
  Se  Se21  1  0.702914  0.702914  0.245568  1
  Se  Se22  1  0.297086  0.297086  0.754432  1
  Se  Se23  1  0.480479  0.480479  0.171236  1
  Se  Se24  1  0.519521  0.519521  0.828764  1
  Se  Se25  1  0.000000  0.000000  0.500000  1
