# generated using pymatgen
data_Zr4TiGaSn2
_symmetry_space_group_name_H-M   'P 1'
_cell_length_a   8.31459688
_cell_length_b   8.31459755
_cell_length_c   8.31459730
_cell_angle_alpha   96.19967609
_cell_angle_beta   96.19968746
_cell_angle_gamma   141.62943085
_symmetry_Int_Tables_number   1
_chemical_formula_structural   Zr4TiGaSn2
_chemical_formula_sum   'Zr8 Ti2 Ga2 Sn4'
_cell_volume   336.99301490
_cell_formula_units_Z   2
loop_
 _symmetry_equiv_pos_site_id
 _symmetry_equiv_pos_as_xyz
  1  'x, y, z'
loop_
 _atom_site_type_symbol
 _atom_site_label
 _atom_site_symmetry_multiplicity
 _atom_site_fract_x
 _atom_site_fract_y
 _atom_site_fract_z
 _atom_site_occupancy
  Zr  Zr0  1  0.785677  0.921313  0.706992  1
  Zr  Zr1  1  0.921313  0.214323  0.135636  1
  Zr  Zr2  1  0.078687  0.785677  0.864364  1
  Zr  Zr3  1  0.214323  0.078687  0.293008  1
  Zr  Zr4  1  0.578687  0.714323  0.293008  1
  Zr  Zr5  1  0.421313  0.285677  0.706992  1
  Zr  Zr6  1  0.285677  0.578687  0.864364  1
  Zr  Zr7  1  0.714323  0.421313  0.135636  1
  Ti  Ti8  1  0.250000  0.750000  0.500000  1
  Ti  Ti9  1  0.750000  0.250000  0.500000  1
  Ga  Ga10  1  0.750000  0.750000  0.000000  1
  Ga  Ga11  1  0.250000  0.250000  0.000000  1
  Sn  Sn12  1  0.341796  0.841796  0.183594  1
  Sn  Sn13  1  0.841796  0.658204  0.500000  1
  Sn  Sn14  1  0.158204  0.341796  0.500000  1
  Sn  Sn15  1  0.658204  0.158204  0.816406  1
