# generated using pymatgen
data_Eu2FeTe2(SO7)2
_symmetry_space_group_name_H-M   'P 1'
_cell_length_a   5.39371969
_cell_length_b   8.01780400
_cell_length_c   8.39211918
_cell_angle_alpha   114.87465512
_cell_angle_beta   106.52805312
_cell_angle_gamma   85.99982905
_symmetry_Int_Tables_number   1
_chemical_formula_structural   Eu2FeTe2(SO7)2
_chemical_formula_sum   'Eu2 Fe1 Te2 S2 O14'
_cell_volume   315.13073593
_cell_formula_units_Z   1
loop_
 _symmetry_equiv_pos_site_id
 _symmetry_equiv_pos_as_xyz
  1  'x, y, z'
loop_
 _atom_site_type_symbol
 _atom_site_label
 _atom_site_symmetry_multiplicity
 _atom_site_fract_x
 _atom_site_fract_y
 _atom_site_fract_z
 _atom_site_occupancy
  Eu  Eu0  1  0.094764  0.255516  0.991475  1
  Eu  Eu1  1  0.905236  0.744484  0.008525  1
  Fe  Fe2  1  0.000000  0.000000  0.500000  1
  Te  Te3  1  0.523190  0.268492  0.653925  1
  Te  Te4  1  0.476810  0.731508  0.346075  1
  S  S5  1  0.771291  0.243788  0.254098  1
  S  S6  1  0.228709  0.756212  0.745902  1
  O  O7  1  0.906749  0.404831  0.266700  1
  O  O8  1  0.093251  0.595169  0.733300  1
  O  O9  1  0.881061  0.214995  0.426595  1
  O  O10  1  0.118939  0.785005  0.573405  1
  O  O11  1  0.491155  0.270167  0.231248  1
  O  O12  1  0.508845  0.729833  0.768752  1
  O  O13  1  0.818397  0.080088  0.094073  1
  O  O14  1  0.181603  0.919912  0.905927  1
  O  O15  1  0.736267  0.425956  0.885572  1
  O  O16  1  0.263733  0.574044  0.114428  1
  O  O17  1  0.270635  0.180620  0.725833  1
  O  O18  1  0.729365  0.819380  0.274167  1
  O  O19  1  0.751362  0.070541  0.650988  1
  O  O20  1  0.248638  0.929459  0.349012  1
