# generated using pymatgen
data_Dy2Y3Lu5(Si5Ir2)4
_symmetry_space_group_name_H-M   'P 1'
_cell_length_a   12.60136701
_cell_length_b   12.60140249
_cell_length_c   4.23923100
_cell_angle_alpha   90.00000000
_cell_angle_beta   90.00000000
_cell_angle_gamma   89.97409246
_symmetry_Int_Tables_number   1
_chemical_formula_structural   Dy2Y3Lu5(Si5Ir2)4
_chemical_formula_sum   'Dy2 Y3 Lu5 Si20 Ir8'
_cell_volume   673.16818338
_cell_formula_units_Z   1
loop_
 _symmetry_equiv_pos_site_id
 _symmetry_equiv_pos_as_xyz
  1  'x, y, z'
loop_
 _atom_site_type_symbol
 _atom_site_label
 _atom_site_symmetry_multiplicity
 _atom_site_fract_x
 _atom_site_fract_y
 _atom_site_fract_z
 _atom_site_occupancy
  Dy  Dy0  1  0.823477  0.676538  0.500000  1
  Dy  Dy1  1  0.883786  0.383573  0.500000  1
  Y  Y2  1  0.116456  0.616239  0.500000  1
  Y  Y3  1  0.383867  0.116117  0.500000  1
  Y  Y4  1  0.615670  0.884316  0.500000  1
  Lu  Lu5  1  0.499905  0.500166  0.000000  1
  Lu  Lu6  1  0.999859  0.000064  0.000000  1
  Lu  Lu7  1  0.676339  0.175583  0.500000  1
  Lu  Lu8  1  0.324428  0.823684  0.500000  1
  Lu  Lu9  1  0.176178  0.323877  0.500000  1
  Si  Si10  1  0.566133  0.066607  0.000000  1
  Si  Si11  1  0.433386  0.933862  0.000000  1
  Si  Si12  1  0.066674  0.433256  0.000000  1
  Si  Si13  1  0.934300  0.565631  0.000000  1
  Si  Si14  1  0.662212  0.701212  0.000000  1
  Si  Si15  1  0.336637  0.298945  0.000000  1
  Si  Si16  1  0.163972  0.799366  0.000000  1
  Si  Si17  1  0.836647  0.201236  0.000000  1
  Si  Si18  1  0.298836  0.663305  0.000000  1
  Si  Si19  1  0.700700  0.335986  0.000000  1
  Si  Si20  1  0.201054  0.163356  0.000000  1
  Si  Si21  1  0.798787  0.837787  0.000000  1
  Si  Si22  1  0.654070  0.501991  0.500000  1
  Si  Si23  1  0.345200  0.496068  0.500000  1
  Si  Si24  1  0.154276  0.995972  0.500000  1
  Si  Si25  1  0.845140  0.003380  0.500000  1
  Si  Si26  1  0.496618  0.654862  0.500000  1
  Si  Si27  1  0.504035  0.345709  0.500000  1
  Si  Si28  1  0.003926  0.154792  0.500000  1
  Si  Si29  1  0.997988  0.845928  0.500000  1
  Ir  Ir30  1  0.743841  0.520954  0.000000  1
  Ir  Ir31  1  0.255418  0.477556  0.000000  1
  Ir  Ir32  1  0.244793  0.978080  0.000000  1
  Ir  Ir33  1  0.755119  0.022991  0.000000  1
  Ir  Ir34  1  0.476979  0.744886  0.000000  1
  Ir  Ir35  1  0.521903  0.255197  0.000000  1
  Ir  Ir36  1  0.022395  0.244669  0.000000  1
  Ir  Ir37  1  0.978994  0.756258  0.000000  1
