# generated using pymatgen
data_Pr8Be4Si11Ni
_symmetry_space_group_name_H-M   'P 1'
_cell_length_a   8.00109602
_cell_length_b   8.00109643
_cell_length_c   8.68762700
_cell_angle_alpha   89.99585379
_cell_angle_beta   90.00414621
_cell_angle_gamma   119.89401592
_symmetry_Int_Tables_number   1
_chemical_formula_structural   Pr8Be4Si11Ni
_chemical_formula_sum   'Pr8 Be4 Si11 Ni1'
_cell_volume   482.16269427
_cell_formula_units_Z   1
loop_
 _symmetry_equiv_pos_site_id
 _symmetry_equiv_pos_as_xyz
  1  'x, y, z'
loop_
 _atom_site_type_symbol
 _atom_site_label
 _atom_site_symmetry_multiplicity
 _atom_site_fract_x
 _atom_site_fract_y
 _atom_site_fract_z
 _atom_site_occupancy
  Pr  Pr0  1  0.498784  0.501216  0.752104  1
  Pr  Pr1  1  0.498842  0.501158  0.247922  1
  Pr  Pr2  1  0.998290  0.498226  0.751612  1
  Pr  Pr3  1  0.998124  0.498122  0.248361  1
  Pr  Pr4  1  0.501774  0.001710  0.751612  1
  Pr  Pr5  1  0.501878  0.001876  0.248361  1
  Pr  Pr6  1  0.999896  0.000104  0.749812  1
  Pr  Pr7  1  0.999938  0.000062  0.250236  1
  Be  Be8  1  0.671193  0.328807  0.999185  1
  Be  Be9  1  0.337411  0.662589  0.000683  1
  Be  Be10  1  0.333876  0.666124  0.499019  1
  Be  Be11  1  0.666483  0.333517  0.500960  1
  Si  Si12  1  0.172193  0.827807  0.000007  1
  Si  Si13  1  0.345703  0.177022  0.999985  1
  Si  Si14  1  0.172105  0.827895  0.500073  1
  Si  Si15  1  0.663754  0.842720  0.000077  1
  Si  Si16  1  0.828015  0.171985  0.499841  1
  Si  Si17  1  0.822978  0.654297  0.999985  1
  Si  Si18  1  0.655495  0.827364  0.500138  1
  Si  Si19  1  0.157280  0.336246  0.000077  1
  Si  Si20  1  0.344836  0.173230  0.499902  1
  Si  Si21  1  0.172636  0.344505  0.500138  1
  Si  Si22  1  0.826770  0.655164  0.499902  1
  Ni  Ni23  1  0.831746  0.168254  0.000014  1
