# generated using pymatgen
data_Be9VMo2
_symmetry_space_group_name_H-M   'P 1'
_cell_length_a   7.30534799
_cell_length_b   7.30534798
_cell_length_c   7.30534749
_cell_angle_alpha   34.87398591
_cell_angle_beta   34.87398227
_cell_angle_gamma   34.87398512
_symmetry_Int_Tables_number   1
_chemical_formula_structural   Be9VMo2
_chemical_formula_sum   'Be9 V1 Mo2'
_cell_volume   113.78124675
_cell_formula_units_Z   1
loop_
 _symmetry_equiv_pos_site_id
 _symmetry_equiv_pos_as_xyz
  1  'x, y, z'
loop_
 _atom_site_type_symbol
 _atom_site_label
 _atom_site_symmetry_multiplicity
 _atom_site_fract_x
 _atom_site_fract_y
 _atom_site_fract_z
 _atom_site_occupancy
  Be  Be0  1  0.584023  0.584023  0.078719  1
  Be  Be1  1  0.333898  0.333898  0.333898  1
  Be  Be2  1  0.922508  0.415343  0.415345  1
  Be  Be3  1  0.415343  0.922508  0.415345  1
  Be  Be4  1  0.500217  0.500217  0.500217  1
  Be  Be5  1  0.584023  0.078720  0.584021  1
  Be  Be6  1  0.078720  0.584023  0.584021  1
  Be  Be7  1  0.665137  0.665137  0.665137  1
  Be  Be8  1  0.415343  0.415343  0.922509  1
  V  V9  1  0.856721  0.856721  0.856721  1
  Mo  Mo10  1  0.000133  0.000133  0.000133  1
  Mo  Mo11  1  0.143935  0.143935  0.143935  1
