# generated using pymatgen
data_Ho2Cu2BRh4
_symmetry_space_group_name_H-M   'P 1'
_cell_length_a   5.79813582
_cell_length_b   5.79813514
_cell_length_c   5.65401800
_cell_angle_alpha   60.81886058
_cell_angle_beta   60.81886429
_cell_angle_gamma   59.93663073
_symmetry_Int_Tables_number   1
_chemical_formula_structural   Ho2Cu2BRh4
_chemical_formula_sum   'Ho2 Cu2 B1 Rh4'
_cell_volume   135.97885025
_cell_formula_units_Z   1
loop_
 _symmetry_equiv_pos_site_id
 _symmetry_equiv_pos_as_xyz
  1  'x, y, z'
loop_
 _atom_site_type_symbol
 _atom_site_label
 _atom_site_symmetry_multiplicity
 _atom_site_fract_x
 _atom_site_fract_y
 _atom_site_fract_z
 _atom_site_occupancy
  Ho  Ho0  1  0.248263  0.248263  0.252338  1
  Ho  Ho1  1  0.751737  0.751737  0.748864  1
  Cu  Cu2  1  0.735614  0.264387  0.259854  1
  Cu  Cu3  1  0.264387  0.735614  0.259854  1
  B  B4  1  0.000000  0.000000  0.992737  1
  Rh  Rh5  1  0.747300  0.747300  0.253932  1
  Rh  Rh6  1  0.252699  0.252699  0.748532  1
  Rh  Rh7  1  0.740845  0.259156  0.741945  1
  Rh  Rh8  1  0.259156  0.740845  0.741945  1
