# generated using pymatgen
data_Pr16Y4Si15Se
_symmetry_space_group_name_H-M   'P 1'
_cell_length_a   7.87156211
_cell_length_b   7.83187231
_cell_length_c   15.38274133
_cell_angle_alpha   89.72059762
_cell_angle_beta   89.33485371
_cell_angle_gamma   89.91300116
_symmetry_Int_Tables_number   1
_chemical_formula_structural   Pr16Y4Si15Se
_chemical_formula_sum   'Pr16 Y4 Si15 Se1'
_cell_volume   948.25549574
_cell_formula_units_Z   1
loop_
 _symmetry_equiv_pos_site_id
 _symmetry_equiv_pos_as_xyz
  1  'x, y, z'
loop_
 _atom_site_type_symbol
 _atom_site_label
 _atom_site_symmetry_multiplicity
 _atom_site_fract_x
 _atom_site_fract_y
 _atom_site_fract_z
 _atom_site_occupancy
  Pr  Pr0  1  0.381484  0.010822  0.442332  1
  Pr  Pr1  1  0.487928  0.876295  0.695807  1
  Pr  Pr2  1  0.512448  0.119666  0.194240  1
  Pr  Pr3  1  0.878809  0.485326  0.304093  1
  Pr  Pr4  1  0.123457  0.513065  0.805763  1
  Pr  Pr5  1  0.627300  0.983402  0.947175  1
  Pr  Pr6  1  0.005737  0.380900  0.550128  1
  Pr  Pr7  1  0.987734  0.620884  0.055506  1
  Pr  Pr8  1  0.134179  0.982787  0.875163  1
  Pr  Pr9  1  0.523453  0.626435  0.128009  1
  Pr  Pr10  1  0.472903  0.372222  0.631223  1
  Pr  Pr11  1  0.628589  0.526820  0.873772  1
  Pr  Pr12  1  0.372774  0.473120  0.372686  1
  Pr  Pr13  1  0.874897  0.023995  0.378055  1
  Pr  Pr14  1  0.976972  0.126419  0.122653  1
  Pr  Pr15  1  0.021693  0.870505  0.620385  1
  Y  Y16  1  0.310351  0.308703  0.000017  1
  Y  Y17  1  0.189644  0.808052  0.249792  1
  Y  Y18  1  0.798639  0.191675  0.751356  1
  Y  Y19  1  0.687978  0.690825  0.498693  1
  Si  Si20  1  0.326024  0.689502  0.957503  1
  Si  Si21  1  0.669288  0.312571  0.459389  1
  Si  Si22  1  0.691843  0.329490  0.043380  1
  Si  Si23  1  0.312462  0.671933  0.542673  1
  Si  Si24  1  0.812060  0.827255  0.208562  1
  Si  Si25  1  0.172726  0.187049  0.291208  1
  Si  Si26  1  0.834702  0.811847  0.791417  1
  Si  Si27  1  0.284852  0.921515  0.062362  1
  Si  Si28  1  0.579183  0.783969  0.312657  1
  Si  Si29  1  0.448521  0.213159  0.824670  1
  Si  Si30  1  0.787493  0.578554  0.685905  1
  Si  Si31  1  0.213327  0.422344  0.187150  1
  Si  Si32  1  0.707240  0.076672  0.563279  1
  Si  Si33  1  0.924911  0.288359  0.937282  1
  Si  Si34  1  0.078561  0.712497  0.436979  1
  Se  Se35  1  0.159836  0.181364  0.698737  1
