# generated using pymatgen
data_Dy3HoLu4(B6Rh)4
_symmetry_space_group_name_H-M   'P 1'
_cell_length_a   3.62225100
_cell_length_b   9.10704300
_cell_length_c   11.45117800
_cell_angle_alpha   90.00256433
_cell_angle_beta   90.00000000
_cell_angle_gamma   90.00000000
_symmetry_Int_Tables_number   1
_chemical_formula_structural   Dy3HoLu4(B6Rh)4
_chemical_formula_sum   'Dy3 Ho1 Lu4 B24 Rh4'
_cell_volume   377.75140945
_cell_formula_units_Z   1
loop_
 _symmetry_equiv_pos_site_id
 _symmetry_equiv_pos_as_xyz
  1  'x, y, z'
loop_
 _atom_site_type_symbol
 _atom_site_label
 _atom_site_symmetry_multiplicity
 _atom_site_fract_x
 _atom_site_fract_y
 _atom_site_fract_z
 _atom_site_occupancy
  Dy  Dy0  1  0.500000  0.321721  0.413728  1
  Dy  Dy1  1  0.500000  0.678284  0.586259  1
  Dy  Dy2  1  0.500000  0.178293  0.913748  1
  Ho  Ho3  1  0.500000  0.821616  0.086250  1
  Lu  Lu4  1  0.500000  0.444508  0.126770  1
  Lu  Lu5  1  0.500000  0.555598  0.873278  1
  Lu  Lu6  1  0.500000  0.055564  0.626779  1
  Lu  Lu7  1  0.500000  0.944419  0.373176  1
  B  B8  1  0.000000  0.106016  0.471335  1
  B  B9  1  0.000000  0.893970  0.528638  1
  B  B10  1  0.000000  0.393958  0.971341  1
  B  B11  1  0.000000  0.606313  0.028741  1
  B  B12  1  0.000000  0.132185  0.316769  1
  B  B13  1  0.000000  0.867808  0.683222  1
  B  B14  1  0.000000  0.367819  0.816800  1
  B  B15  1  0.000000  0.632366  0.183104  1
  B  B16  1  0.000000  0.054162  0.065653  1
  B  B17  1  0.000000  0.945535  0.934509  1
  B  B18  1  0.000000  0.445648  0.565658  1
  B  B19  1  0.000000  0.554350  0.434316  1
  B  B20  1  0.000000  0.482886  0.286060  1
  B  B21  1  0.000000  0.517159  0.713949  1
  B  B22  1  0.000000  0.017110  0.786080  1
  B  B23  1  0.000000  0.982659  0.213808  1
  B  B24  1  0.000000  0.251081  0.079998  1
  B  B25  1  0.000000  0.748984  0.920227  1
  B  B26  1  0.000000  0.248902  0.579978  1
  B  B27  1  0.000000  0.751094  0.419993  1
  B  B28  1  0.000000  0.294981  0.235684  1
  B  B29  1  0.000000  0.705035  0.764326  1
  B  B30  1  0.000000  0.205012  0.735712  1
  B  B31  1  0.000000  0.795054  0.264103  1
  Rh  Rh32  1  0.500000  0.140228  0.179817  1
  Rh  Rh33  1  0.500000  0.859604  0.820263  1
  Rh  Rh34  1  0.500000  0.359592  0.679899  1
  Rh  Rh35  1  0.500000  0.640486  0.320030  1
