# generated using pymatgen
data_Fe2Ag(P2O7)2
_symmetry_space_group_name_H-M   'P 1'
_cell_length_a   4.92473389
_cell_length_b   7.02018468
_cell_length_c   7.99354761
_cell_angle_alpha   90.74986527
_cell_angle_beta   85.51676756
_cell_angle_gamma   74.38375444
_symmetry_Int_Tables_number   1
_chemical_formula_structural   Fe2Ag(P2O7)2
_chemical_formula_sum   'Fe2 Ag1 P4 O14'
_cell_volume   265.17382424
_cell_formula_units_Z   1
loop_
 _symmetry_equiv_pos_site_id
 _symmetry_equiv_pos_as_xyz
  1  'x, y, z'
loop_
 _atom_site_type_symbol
 _atom_site_label
 _atom_site_symmetry_multiplicity
 _atom_site_fract_x
 _atom_site_fract_y
 _atom_site_fract_z
 _atom_site_occupancy
  Fe  Fe0  1  0.000000  0.500000  0.000000  1
  Fe  Fe1  1  0.500000  0.000000  0.500000  1
  Ag  Ag2  1  0.500000  0.000000  0.000000  1
  P  P3  1  0.122423  0.770540  0.292102  1
  P  P4  1  0.877577  0.229460  0.707898  1
  P  P5  1  0.480266  0.626778  0.755215  1
  P  P6  1  0.519734  0.373222  0.244785  1
  O  O7  1  0.032318  0.748620  0.114791  1
  O  O8  1  0.967682  0.251380  0.885209  1
  O  O9  1  0.669314  0.097313  0.715085  1
  O  O10  1  0.330686  0.902687  0.284915  1
  O  O11  1  0.409173  0.797026  0.639050  1
  O  O12  1  0.590827  0.202974  0.360950  1
  O  O13  1  0.221274  0.556061  0.804835  1
  O  O14  1  0.778726  0.443939  0.195165  1
  O  O15  1  0.373288  0.319166  0.090313  1
  O  O16  1  0.626712  0.680834  0.909687  1
  O  O17  1  0.884055  0.830315  0.429308  1
  O  O18  1  0.115945  0.169685  0.570692  1
  O  O19  1  0.708036  0.448972  0.653563  1
  O  O20  1  0.291964  0.551028  0.346437  1
