# generated using pymatgen
data_Pr2NdSn3RuPt2
_symmetry_space_group_name_H-M   'P 1'
_cell_length_a   7.65230730
_cell_length_b   7.65602413
_cell_length_c   4.14619500
_cell_angle_alpha   90.00000000
_cell_angle_beta   90.00000000
_cell_angle_gamma   120.01605125
_symmetry_Int_Tables_number   1
_chemical_formula_structural   Pr2NdSn3RuPt2
_chemical_formula_sum   'Pr2 Nd1 Sn3 Ru1 Pt2'
_cell_volume   210.33220942
_cell_formula_units_Z   1
loop_
 _symmetry_equiv_pos_site_id
 _symmetry_equiv_pos_as_xyz
  1  'x, y, z'
loop_
 _atom_site_type_symbol
 _atom_site_label
 _atom_site_symmetry_multiplicity
 _atom_site_fract_x
 _atom_site_fract_y
 _atom_site_fract_z
 _atom_site_occupancy
  Pr  Pr0  1  0.591112  0.591157  0.000000  1
  Pr  Pr1  1  0.408888  0.000045  0.000000  1
  Nd  Nd2  1  0.000000  0.408370  0.000000  1
  Sn  Sn3  1  0.000000  0.751328  0.500000  1
  Sn  Sn4  1  0.247841  0.248569  0.500000  1
  Sn  Sn5  1  0.752159  0.000728  0.500000  1
  Ru  Ru6  1  0.000000  0.000318  0.000000  1
  Pt  Pt7  1  0.332249  0.665867  0.500000  1
  Pt  Pt8  1  0.667751  0.333617  0.500000  1
