# generated using pymatgen
data_Ho15Tm4LuPb16
_symmetry_space_group_name_H-M   'P 1'
_cell_length_a   8.15537314
_cell_length_b   15.56100522
_cell_length_c   8.23464002
_cell_angle_alpha   90.00385360
_cell_angle_beta   90.06823618
_cell_angle_gamma   89.99166757
_symmetry_Int_Tables_number   1
_chemical_formula_structural   Ho15Tm4LuPb16
_chemical_formula_sum   'Ho15 Tm4 Lu1 Pb16'
_cell_volume   1045.02285860
_cell_formula_units_Z   1
loop_
 _symmetry_equiv_pos_site_id
 _symmetry_equiv_pos_as_xyz
  1  'x, y, z'
loop_
 _atom_site_type_symbol
 _atom_site_label
 _atom_site_symmetry_multiplicity
 _atom_site_fract_x
 _atom_site_fract_y
 _atom_site_fract_z
 _atom_site_occupancy
  Ho  Ho0  1  0.123065  0.879134  0.340919  1
  Ho  Ho1  1  0.377244  0.120685  0.841156  1
  Ho  Ho2  1  0.876835  0.379665  0.659186  1
  Ho  Ho3  1  0.377145  0.379213  0.840886  1
  Ho  Ho4  1  0.877107  0.120669  0.659151  1
  Ho  Ho5  1  0.622875  0.879230  0.159061  1
  Ho  Ho6  1  0.122797  0.620592  0.341094  1
  Ho  Ho7  1  0.465511  0.599769  0.676875  1
  Ho  Ho8  1  0.965377  0.900083  0.823460  1
  Ho  Ho9  1  0.534485  0.099807  0.323293  1
  Ho  Ho10  1  0.034701  0.400136  0.176777  1
  Ho  Ho11  1  0.534537  0.400592  0.323032  1
  Ho  Ho12  1  0.034453  0.099846  0.176561  1
  Ho  Ho13  1  0.465549  0.900020  0.676661  1
  Ho  Ho14  1  0.965361  0.599933  0.823607  1
  Tm  Tm15  1  0.623132  0.621003  0.158746  1
  Tm  Tm16  1  0.791209  0.749738  0.495797  1
  Tm  Tm17  1  0.291653  0.749782  0.004010  1
  Tm  Tm18  1  0.208520  0.249989  0.503905  1
  Lu  Lu19  1  0.708669  0.250167  0.996212  1
  Pb  Pb20  1  0.718597  0.457661  0.967748  1
  Pb  Pb21  1  0.218850  0.042905  0.532818  1
  Pb  Pb22  1  0.281019  0.957032  0.032867  1
  Pb  Pb23  1  0.780459  0.543060  0.465953  1
  Pb  Pb24  1  0.282304  0.543059  0.033238  1
  Pb  Pb25  1  0.781121  0.957002  0.467136  1
  Pb  Pb26  1  0.718881  0.043015  0.967148  1
  Pb  Pb27  1  0.218861  0.457058  0.532816  1
  Pb  Pb28  1  0.428928  0.749568  0.372294  1
  Pb  Pb29  1  0.928094  0.749685  0.127148  1
  Pb  Pb30  1  0.571587  0.250039  0.627263  1
  Pb  Pb31  1  0.071156  0.250058  0.872934  1
  Pb  Pb32  1  0.653315  0.749776  0.846999  1
  Pb  Pb33  1  0.153343  0.749961  0.653457  1
  Pb  Pb34  1  0.346659  0.250048  0.153346  1
  Pb  Pb35  1  0.846600  0.250021  0.346447  1
