# generated using pymatgen
data_TbHo(Co5P3)2
_symmetry_space_group_name_H-M   'P 1'
_cell_length_a   3.65346200
_cell_length_b   10.28607100
_cell_length_c   11.74171300
_cell_angle_alpha   90.00000000
_cell_angle_beta   90.00000000
_cell_angle_gamma   90.00000000
_symmetry_Int_Tables_number   1
_chemical_formula_structural   TbHo(Co5P3)2
_chemical_formula_sum   'Tb2 Ho2 Co20 P12'
_cell_volume   441.25086840
_cell_formula_units_Z   2
loop_
 _symmetry_equiv_pos_site_id
 _symmetry_equiv_pos_as_xyz
  1  'x, y, z'
loop_
 _atom_site_type_symbol
 _atom_site_label
 _atom_site_symmetry_multiplicity
 _atom_site_fract_x
 _atom_site_fract_y
 _atom_site_fract_z
 _atom_site_occupancy
  Tb  Tb0  1  0.750000  0.417227  0.297476  1
  Tb  Tb1  1  0.750000  0.082773  0.797476  1
  Ho  Ho2  1  0.250000  0.582908  0.702381  1
  Ho  Ho3  1  0.250000  0.917092  0.202381  1
  Co  Co4  1  0.250000  0.716320  0.991746  1
  Co  Co5  1  0.250000  0.783680  0.491746  1
  Co  Co6  1  0.750000  0.283611  0.008697  1
  Co  Co7  1  0.750000  0.216389  0.508697  1
  Co  Co8  1  0.250000  0.407085  0.488897  1
  Co  Co9  1  0.250000  0.092915  0.988897  1
  Co  Co10  1  0.750000  0.593492  0.512344  1
  Co  Co11  1  0.750000  0.906508  0.012344  1
  Co  Co12  1  0.250000  0.221226  0.176646  1
  Co  Co13  1  0.250000  0.278774  0.676646  1
  Co  Co14  1  0.750000  0.778298  0.823379  1
  Co  Co15  1  0.750000  0.721702  0.323379  1
  Co  Co16  1  0.250000  0.882029  0.698384  1
  Co  Co17  1  0.250000  0.617971  0.198384  1
  Co  Co18  1  0.750000  0.116629  0.301167  1
  Co  Co19  1  0.750000  0.383371  0.801167  1
  Co  Co20  1  0.250000  0.468417  0.931226  1
  Co  Co21  1  0.250000  0.031583  0.431226  1
  Co  Co22  1  0.750000  0.532915  0.067773  1
  Co  Co23  1  0.750000  0.967085  0.567773  1
  P  P24  1  0.250000  0.418751  0.111462  1
  P  P25  1  0.250000  0.081249  0.611462  1
  P  P26  1  0.750000  0.581452  0.887357  1
  P  P27  1  0.750000  0.918548  0.387357  1
  P  P28  1  0.250000  0.271405  0.870684  1
  P  P29  1  0.250000  0.228595  0.370684  1
  P  P30  1  0.750000  0.729487  0.129985  1
  P  P31  1  0.750000  0.770513  0.629985  1
  P  P32  1  0.250000  0.602549  0.391661  1
  P  P33  1  0.250000  0.897451  0.891661  1
  P  P34  1  0.750000  0.398364  0.608737  1
  P  P35  1  0.750000  0.101636  0.108737  1
