# generated using pymatgen
data_Ta7Nb5IrPt3
_symmetry_space_group_name_H-M   'P 1'
_cell_length_a   5.19662100
_cell_length_b   5.21602800
_cell_length_c   10.35842100
_cell_angle_alpha   90.00000000
_cell_angle_beta   90.00000000
_cell_angle_gamma   90.00000000
_symmetry_Int_Tables_number   1
_chemical_formula_structural   Ta7Nb5IrPt3
_chemical_formula_sum   'Ta7 Nb5 Ir1 Pt3'
_cell_volume   280.77246591
_cell_formula_units_Z   1
loop_
 _symmetry_equiv_pos_site_id
 _symmetry_equiv_pos_as_xyz
  1  'x, y, z'
loop_
 _atom_site_type_symbol
 _atom_site_label
 _atom_site_symmetry_multiplicity
 _atom_site_fract_x
 _atom_site_fract_y
 _atom_site_fract_z
 _atom_site_occupancy
  Ta  Ta0  1  0.500000  0.000000  0.375528  1
  Ta  Ta1  1  0.751985  0.500000  0.500350  1
  Ta  Ta2  1  0.000000  0.750296  0.252748  1
  Ta  Ta3  1  0.000000  0.750185  0.746554  1
  Ta  Ta4  1  0.248015  0.500000  0.500350  1
  Ta  Ta5  1  0.000000  0.249704  0.252748  1
  Ta  Ta6  1  0.000000  0.249815  0.746554  1
  Nb  Nb7  1  0.500000  0.000000  0.874316  1
  Nb  Nb8  1  0.750499  0.500000  0.000617  1
  Nb  Nb9  1  0.500000  0.000000  0.123944  1
  Nb  Nb10  1  0.500000  0.000000  0.626150  1
  Nb  Nb11  1  0.249501  0.500000  0.000617  1
  Ir  Ir12  1  0.000000  0.000000  0.498068  1
  Pt  Pt13  1  0.500000  0.500000  0.252421  1
  Pt  Pt14  1  0.500000  0.500000  0.749743  1
  Pt  Pt15  1  0.000000  0.000000  0.999293  1
