# generated using pymatgen
data_Li6SnBi5Rh12
_symmetry_space_group_name_H-M   'P 1'
_cell_length_a   4.46096100
_cell_length_b   6.31989400
_cell_length_c   13.49003100
_cell_angle_alpha   90.00000000
_cell_angle_beta   89.99922750
_cell_angle_gamma   90.00000000
_symmetry_Int_Tables_number   1
_chemical_formula_structural   Li6SnBi5Rh12
_chemical_formula_sum   'Li6 Sn1 Bi5 Rh12'
_cell_volume   380.32175499
_cell_formula_units_Z   1
loop_
 _symmetry_equiv_pos_site_id
 _symmetry_equiv_pos_as_xyz
  1  'x, y, z'
loop_
 _atom_site_type_symbol
 _atom_site_label
 _atom_site_symmetry_multiplicity
 _atom_site_fract_x
 _atom_site_fract_y
 _atom_site_fract_z
 _atom_site_occupancy
  Li  Li0  1  0.999996  0.499999  0.997932  1
  Li  Li1  1  0.499800  0.000000  0.165908  1
  Li  Li2  1  0.999796  0.499999  0.333313  1
  Li  Li3  1  0.499998  0.000000  0.500763  1
  Li  Li4  1  0.000188  0.499999  0.668752  1
  Li  Li5  1  0.500197  0.000000  0.833334  1
  Sn  Sn6  1  0.500174  0.499999  0.833344  1
  Bi  Bi7  1  0.999998  0.000000  0.997906  1
  Bi  Bi8  1  0.499829  0.499999  0.165322  1
  Bi  Bi9  1  0.999823  0.000000  0.333332  1
  Bi  Bi10  1  0.499997  0.499999  0.501344  1
  Bi  Bi11  1  0.000164  0.000000  0.668757  1
  Rh  Rh12  1  0.500006  0.253120  0.998241  1
  Rh  Rh13  1  0.500006  0.746880  0.998241  1
  Rh  Rh14  1  0.999827  0.248624  0.166490  1
  Rh  Rh15  1  0.999827  0.751376  0.166490  1
  Rh  Rh16  1  0.499832  0.251508  0.333335  1
  Rh  Rh17  1  0.499832  0.748492  0.333335  1
  Rh  Rh18  1  0.999998  0.248625  0.500169  1
  Rh  Rh19  1  0.999998  0.751375  0.500169  1
  Rh  Rh20  1  0.500172  0.253143  0.668434  1
  Rh  Rh21  1  0.500172  0.746857  0.668434  1
  Rh  Rh22  1  0.000186  0.254926  0.833326  1
  Rh  Rh23  1  0.000186  0.745074  0.833326  1
