# generated using pymatgen
data_YEr8Th3Co4
_symmetry_space_group_name_H-M   'P 1'
_cell_length_a   6.26971043
_cell_length_b   6.87782257
_cell_length_c   9.49543749
_cell_angle_alpha   90.01877306
_cell_angle_beta   90.06106585
_cell_angle_gamma   91.13796363
_symmetry_Int_Tables_number   1
_chemical_formula_structural   YEr8Th3Co4
_chemical_formula_sum   'Y1 Er8 Th3 Co4'
_cell_volume   409.38082213
_cell_formula_units_Z   1
loop_
 _symmetry_equiv_pos_site_id
 _symmetry_equiv_pos_as_xyz
  1  'x, y, z'
loop_
 _atom_site_type_symbol
 _atom_site_label
 _atom_site_symmetry_multiplicity
 _atom_site_fract_x
 _atom_site_fract_y
 _atom_site_fract_z
 _atom_site_occupancy
  Y  Y0  1  0.327559  0.672769  0.067088  1
  Er  Er1  1  0.170829  0.170463  0.431378  1
  Er  Er2  1  0.675735  0.329320  0.569284  1
  Er  Er3  1  0.824014  0.829601  0.928213  1
  Er  Er4  1  0.676257  0.328988  0.930477  1
  Er  Er5  1  0.823890  0.829219  0.571377  1
  Er  Er6  1  0.327690  0.672331  0.432445  1
  Er  Er7  1  0.170545  0.170460  0.068502  1
  Er  Er8  1  0.355468  0.957377  0.749505  1
  Th  Th9  1  0.845633  0.549755  0.250715  1
  Th  Th10  1  0.652998  0.052862  0.250358  1
  Th  Th11  1  0.157159  0.449149  0.749337  1
  Co  Co12  1  0.032994  0.872000  0.250895  1
  Co  Co13  1  0.463345  0.370218  0.250926  1
  Co  Co14  1  0.960531  0.132159  0.750009  1
  Co  Co15  1  0.535353  0.613331  0.749490  1
