# generated using pymatgen
data_Dy4P7Rh8
_symmetry_space_group_name_H-M   'P 1'
_cell_length_a   3.95370200
_cell_length_b   12.62889740
_cell_length_c   13.12758210
_cell_angle_alpha   80.70983881
_cell_angle_beta   90.00000000
_cell_angle_gamma   90.00000000
_symmetry_Int_Tables_number   1
_chemical_formula_structural   Dy4P7Rh8
_chemical_formula_sum   'Dy8 P14 Rh16'
_cell_volume   646.87441932
_cell_formula_units_Z   2
loop_
 _symmetry_equiv_pos_site_id
 _symmetry_equiv_pos_as_xyz
  1  'x, y, z'
loop_
 _atom_site_type_symbol
 _atom_site_label
 _atom_site_symmetry_multiplicity
 _atom_site_fract_x
 _atom_site_fract_y
 _atom_site_fract_z
 _atom_site_occupancy
  Dy  Dy0  1  0.250000  0.103724  0.789711  1
  Dy  Dy1  1  0.750000  0.896276  0.210289  1
  Dy  Dy2  1  0.250000  0.274910  0.099477  1
  Dy  Dy3  1  0.750000  0.725090  0.900523  1
  Dy  Dy4  1  0.250000  0.519182  0.292842  1
  Dy  Dy5  1  0.750000  0.480818  0.707158  1
  Dy  Dy6  1  0.250000  0.210199  0.437019  1
  Dy  Dy7  1  0.750000  0.789801  0.562981  1
  P  P8  1  0.250000  0.047344  0.102378  1
  P  P9  1  0.750000  0.952656  0.897622  1
  P  P10  1  0.250000  0.313800  0.690462  1
  P  P11  1  0.750000  0.686200  0.309538  1
  P  P12  1  0.250000  0.608624  0.564809  1
  P  P13  1  0.750000  0.391376  0.435191  1
  P  P14  1  0.250000  0.843276  0.719937  1
  P  P15  1  0.750000  0.156724  0.280063  1
  P  P16  1  0.750000  0.260775  0.924129  1
  P  P17  1  0.250000  0.739225  0.075871  1
  P  P18  1  0.750000  0.091916  0.586647  1
  P  P19  1  0.250000  0.908084  0.413353  1
  P  P20  1  0.750000  0.470154  0.129132  1
  P  P21  1  0.250000  0.529846  0.870868  1
  Rh  Rh22  1  0.250000  0.988265  0.574964  1
  Rh  Rh23  1  0.750000  0.011735  0.425036  1
  Rh  Rh24  1  0.250000  0.662858  0.727985  1
  Rh  Rh25  1  0.750000  0.337142  0.272015  1
  Rh  Rh26  1  0.250000  0.550972  0.047661  1
  Rh  Rh27  1  0.750000  0.449028  0.952339  1
  Rh  Rh28  1  0.250000  0.059424  0.275318  1
  Rh  Rh29  1  0.750000  0.940576  0.724682  1
  Rh  Rh30  1  0.250000  0.422986  0.526238  1
  Rh  Rh31  1  0.750000  0.577014  0.473762  1
  Rh  Rh32  1  0.250000  0.914980  0.996916  1
  Rh  Rh33  1  0.750000  0.085020  0.003084  1
  Rh  Rh34  1  0.250000  0.728743  0.394744  1
  Rh  Rh35  1  0.750000  0.271257  0.605256  1
  Rh  Rh36  1  0.250000  0.343220  0.859605  1
  Rh  Rh37  1  0.750000  0.656780  0.140395  1
