# generated using pymatgen
data_Zr8In4CuIr3Au4
_symmetry_space_group_name_H-M   'P 1'
_cell_length_a   7.59494947
_cell_length_b   7.59495043
_cell_length_c   6.96424815
_cell_angle_alpha   90.12519396
_cell_angle_beta   90.12518971
_cell_angle_gamma   90.61624286
_symmetry_Int_Tables_number   1
_chemical_formula_structural   Zr8In4CuIr3Au4
_chemical_formula_sum   'Zr8 In4 Cu1 Ir3 Au4'
_cell_volume   401.69539582
_cell_formula_units_Z   1
loop_
 _symmetry_equiv_pos_site_id
 _symmetry_equiv_pos_as_xyz
  1  'x, y, z'
loop_
 _atom_site_type_symbol
 _atom_site_label
 _atom_site_symmetry_multiplicity
 _atom_site_fract_x
 _atom_site_fract_y
 _atom_site_fract_z
 _atom_site_occupancy
  Zr  Zr0  1  0.158069  0.158069  0.003735  1
  Zr  Zr1  1  0.834606  0.834606  0.995605  1
  Zr  Zr2  1  0.646221  0.357609  0.495340  1
  Zr  Zr3  1  0.357609  0.646221  0.495340  1
  Zr  Zr4  1  0.675958  0.329511  0.004245  1
  Zr  Zr5  1  0.329511  0.675958  0.004245  1
  Zr  Zr6  1  0.800672  0.800672  0.502426  1
  Zr  Zr7  1  0.200004  0.200004  0.496943  1
  In  In8  1  0.501021  0.003247  0.244939  1
  In  In9  1  0.497651  0.003624  0.752332  1
  In  In10  1  0.003247  0.501021  0.244939  1
  In  In11  1  0.003624  0.497651  0.752332  1
  Cu  Cu12  1  0.369707  0.369707  0.795806  1
  Ir  Ir13  1  0.368120  0.368120  0.218936  1
  Ir  Ir14  1  0.621074  0.621074  0.774001  1
  Ir  Ir15  1  0.632719  0.632719  0.218668  1
  Au  Au16  1  0.869658  0.130562  0.713531  1
  Au  Au17  1  0.870630  0.129336  0.286553  1
  Au  Au18  1  0.129336  0.870630  0.286553  1
  Au  Au19  1  0.130562  0.869658  0.713531  1
