# generated using pymatgen
data_Er7Hf(Si3Pt)4
_symmetry_space_group_name_H-M   'P 1'
_cell_length_a   8.10845800
_cell_length_b   8.10845833
_cell_length_c   7.94865000
_cell_angle_alpha   90.00000000
_cell_angle_beta   90.00000000
_cell_angle_gamma   119.99999863
_symmetry_Int_Tables_number   1
_chemical_formula_structural   Er7Hf(Si3Pt)4
_chemical_formula_sum   'Er7 Hf1 Si12 Pt4'
_cell_volume   452.58543437
_cell_formula_units_Z   1
loop_
 _symmetry_equiv_pos_site_id
 _symmetry_equiv_pos_as_xyz
  1  'x, y, z'
loop_
 _atom_site_type_symbol
 _atom_site_label
 _atom_site_symmetry_multiplicity
 _atom_site_fract_x
 _atom_site_fract_y
 _atom_site_fract_z
 _atom_site_occupancy
  Er  Er0  1  0.000000  0.000000  0.750000  1
  Er  Er1  1  0.497881  0.502119  0.250000  1
  Er  Er2  1  0.497881  0.995761  0.250000  1
  Er  Er3  1  0.004239  0.502119  0.250000  1
  Er  Er4  1  0.502043  0.497957  0.750000  1
  Er  Er5  1  0.995914  0.497957  0.750000  1
  Er  Er6  1  0.502043  0.004086  0.750000  1
  Hf  Hf7  1  0.000000  0.000000  0.250000  1
  Si  Si8  1  0.835490  0.164510  0.495485  1
  Si  Si9  1  0.835490  0.670981  0.495485  1
  Si  Si10  1  0.329019  0.164510  0.495485  1
  Si  Si11  1  0.835490  0.164510  0.004515  1
  Si  Si12  1  0.835490  0.670981  0.004515  1
  Si  Si13  1  0.329019  0.164510  0.004515  1
  Si  Si14  1  0.164617  0.835383  0.000850  1
  Si  Si15  1  0.670769  0.835383  0.000850  1
  Si  Si16  1  0.164617  0.329231  0.000850  1
  Si  Si17  1  0.164617  0.835383  0.499150  1
  Si  Si18  1  0.670769  0.835383  0.499150  1
  Si  Si19  1  0.164617  0.329231  0.499150  1
  Pt  Pt20  1  0.666667  0.333333  0.494224  1
  Pt  Pt21  1  0.666667  0.333333  0.005776  1
  Pt  Pt22  1  0.333333  0.666667  0.995889  1
  Pt  Pt23  1  0.333333  0.666667  0.504111  1
