# generated using pymatgen
data_Tb5Ho(Er7Bi6)2
_symmetry_space_group_name_H-M   'P 1'
_cell_length_a   8.24274914
_cell_length_b   9.48850149
_cell_length_c   11.99904023
_cell_angle_alpha   89.98517919
_cell_angle_beta   90.02119142
_cell_angle_gamma   89.99847796
_symmetry_Int_Tables_number   1
_chemical_formula_structural   Tb5Ho(Er7Bi6)2
_chemical_formula_sum   'Tb5 Ho1 Er14 Bi12'
_cell_volume   938.46088961
_cell_formula_units_Z   1
loop_
 _symmetry_equiv_pos_site_id
 _symmetry_equiv_pos_as_xyz
  1  'x, y, z'
loop_
 _atom_site_type_symbol
 _atom_site_label
 _atom_site_symmetry_multiplicity
 _atom_site_fract_x
 _atom_site_fract_y
 _atom_site_fract_z
 _atom_site_occupancy
  Tb  Tb0  1  0.193311  0.563776  0.441016  1
  Tb  Tb1  1  0.312633  0.250033  0.218968  1
  Tb  Tb2  1  0.812689  0.249956  0.281015  1
  Tb  Tb3  1  0.687445  0.749888  0.781041  1
  Tb  Tb4  1  0.187462  0.750212  0.719045  1
  Ho  Ho5  1  0.693370  0.935863  0.058984  1
  Er  Er6  1  0.353080  0.750188  0.216093  1
  Er  Er7  1  0.852840  0.750128  0.283810  1
  Er  Er8  1  0.647380  0.249818  0.783856  1
  Er  Er9  1  0.147392  0.250203  0.716092  1
  Er  Er10  1  0.693316  0.564749  0.058993  1
  Er  Er11  1  0.193230  0.935480  0.441000  1
  Er  Er12  1  0.306819  0.064861  0.941135  1
  Er  Er13  1  0.806882  0.435135  0.558876  1
  Er  Er14  1  0.306465  0.435162  0.940918  1
  Er  Er15  1  0.806433  0.064711  0.559093  1
  Er  Er16  1  0.475601  0.249855  0.488577  1
  Er  Er17  1  0.975475  0.250155  0.011390  1
  Er  Er18  1  0.525136  0.750240  0.511663  1
  Er  Er19  1  0.024903  0.749838  0.988409  1
  Bi  Bi20  1  0.406750  0.749650  0.958039  1
  Bi  Bi21  1  0.906451  0.750590  0.542062  1
  Bi  Bi22  1  0.592648  0.251005  0.041586  1
  Bi  Bi23  1  0.092449  0.248340  0.458481  1
  Bi  Bi24  1  0.565031  0.994602  0.325749  1
  Bi  Bi25  1  0.064937  0.505432  0.174078  1
  Bi  Bi26  1  0.434785  0.494496  0.674507  1
  Bi  Bi27  1  0.934749  0.005564  0.825592  1
  Bi  Bi28  1  0.434775  0.005591  0.674287  1
  Bi  Bi29  1  0.934706  0.494454  0.825761  1
  Bi  Bi30  1  0.565524  0.505480  0.325546  1
  Bi  Bi31  1  0.065338  0.994545  0.174336  1
