# generated using pymatgen
data_LuZr9(Sn3S)2
_symmetry_space_group_name_H-M   'P 1'
_cell_length_a   8.61939806
_cell_length_b   8.61939854
_cell_length_c   6.02715900
_cell_angle_alpha   90.00000000
_cell_angle_beta   90.00000000
_cell_angle_gamma   119.94305493
_symmetry_Int_Tables_number   1
_chemical_formula_structural   LuZr9(Sn3S)2
_chemical_formula_sum   'Lu1 Zr9 Sn6 S2'
_cell_volume   388.01284193
_cell_formula_units_Z   1
loop_
 _symmetry_equiv_pos_site_id
 _symmetry_equiv_pos_as_xyz
  1  'x, y, z'
loop_
 _atom_site_type_symbol
 _atom_site_label
 _atom_site_symmetry_multiplicity
 _atom_site_fract_x
 _atom_site_fract_y
 _atom_site_fract_z
 _atom_site_occupancy
  Lu  Lu0  1  0.748568  0.748568  0.750000  1
  Zr  Zr1  1  0.666562  0.332377  0.000112  1
  Zr  Zr2  1  0.332377  0.666562  0.000112  1
  Zr  Zr3  1  0.332377  0.666562  0.499888  1
  Zr  Zr4  1  0.666562  0.332377  0.499888  1
  Zr  Zr5  1  0.251084  0.999372  0.750000  1
  Zr  Zr6  1  0.999372  0.251084  0.750000  1
  Zr  Zr7  1  0.251951  0.251951  0.250000  1
  Zr  Zr8  1  0.747667  0.999955  0.250000  1
  Zr  Zr9  1  0.999955  0.747667  0.250000  1
  Sn  Sn10  1  0.396229  0.396229  0.750000  1
  Sn  Sn11  1  0.598752  0.000755  0.750000  1
  Sn  Sn12  1  0.000755  0.598752  0.750000  1
  Sn  Sn13  1  0.600432  0.600432  0.250000  1
  Sn  Sn14  1  0.399163  0.000186  0.250000  1
  Sn  Sn15  1  0.000186  0.399163  0.250000  1
  S  S16  1  0.004004  0.004004  0.001841  1
  S  S17  1  0.004004  0.004004  0.498159  1
