# generated using pymatgen
data_YHoCo9Tc3As7
_symmetry_space_group_name_H-M   'P 1'
_cell_length_a   3.83597900
_cell_length_b   9.38151807
_cell_length_c   9.38152000
_cell_angle_alpha   119.99999974
_cell_angle_beta   90.00000000
_cell_angle_gamma   90.00000000
_symmetry_Int_Tables_number   1
_chemical_formula_structural   YHoCo9Tc3As7
_chemical_formula_sum   'Y1 Ho1 Co9 Tc3 As7'
_cell_volume   292.38371653
_cell_formula_units_Z   1
loop_
 _symmetry_equiv_pos_site_id
 _symmetry_equiv_pos_as_xyz
  1  'x, y, z'
loop_
 _atom_site_type_symbol
 _atom_site_label
 _atom_site_symmetry_multiplicity
 _atom_site_fract_x
 _atom_site_fract_y
 _atom_site_fract_z
 _atom_site_occupancy
  Y  Y0  1  0.500000  0.333333  0.666667  1
  Ho  Ho1  1  0.000000  0.666667  0.333333  1
  Co  Co2  1  0.000000  0.569043  0.940983  1
  Co  Co3  1  0.000000  0.371940  0.430957  1
  Co  Co4  1  0.000000  0.059017  0.628060  1
  Co  Co5  1  0.000000  0.875389  0.157379  1
  Co  Co6  1  0.000000  0.281989  0.124611  1
  Co  Co7  1  0.000000  0.842621  0.718011  1
  Co  Co8  1  0.500000  0.946406  0.380698  1
  Co  Co9  1  0.500000  0.434291  0.053594  1
  Co  Co10  1  0.500000  0.619302  0.565709  1
  Tc  Tc11  1  0.500000  0.782777  0.900430  1
  Tc  Tc12  1  0.500000  0.117653  0.217223  1
  Tc  Tc13  1  0.500000  0.099570  0.882347  1
  As  As14  1  0.000000  0.000000  0.000000  1
  As  As15  1  0.500000  0.706542  0.116861  1
  As  As16  1  0.500000  0.410320  0.293458  1
  As  As17  1  0.500000  0.883139  0.589680  1
  As  As18  1  0.000000  0.587785  0.701685  1
  As  As19  1  0.000000  0.113900  0.412215  1
  As  As20  1  0.000000  0.298315  0.886100  1
