# generated using pymatgen
data_Ho3Er2Tm(Si3Ru)8
_symmetry_space_group_name_H-M   'P 1'
_cell_length_a   10.09319293
_cell_length_b   10.09318072
_cell_length_c   8.11900433
_cell_angle_alpha   90.00591001
_cell_angle_beta   90.02452906
_cell_angle_gamma   132.58653886
_symmetry_Int_Tables_number   1
_chemical_formula_structural   Ho3Er2Tm(Si3Ru)8
_chemical_formula_sum   'Ho3 Er2 Tm1 Si24 Ru8'
_cell_volume   608.95920226
_cell_formula_units_Z   1
loop_
 _symmetry_equiv_pos_site_id
 _symmetry_equiv_pos_as_xyz
  1  'x, y, z'
loop_
 _atom_site_type_symbol
 _atom_site_label
 _atom_site_symmetry_multiplicity
 _atom_site_fract_x
 _atom_site_fract_y
 _atom_site_fract_z
 _atom_site_occupancy
  Ho  Ho0  1  0.997439  0.497316  0.250231  1
  Ho  Ho1  1  0.497308  0.997443  0.250232  1
  Ho  Ho2  1  0.002551  0.502680  0.749763  1
  Er  Er3  1  0.999972  0.999997  0.999992  1
  Er  Er4  1  0.502642  0.002512  0.749741  1
  Tm  Tm5  1  0.500000  0.499999  0.500015  1
  Si  Si6  1  0.794512  0.205229  0.500145  1
  Si  Si7  1  0.295102  0.705147  0.999873  1
  Si  Si8  1  0.205487  0.794764  0.500127  1
  Si  Si9  1  0.704884  0.294844  0.999868  1
  Si  Si10  1  0.332066  0.332051  0.833538  1
  Si  Si11  1  0.667946  0.667957  0.166473  1
  Si  Si12  1  0.167031  0.167012  0.332857  1
  Si  Si13  1  0.832977  0.832990  0.667141  1
  Si  Si14  1  0.122066  0.887462  0.728516  1
  Si  Si15  1  0.112576  0.877990  0.271429  1
  Si  Si16  1  0.611641  0.377173  0.228815  1
  Si  Si17  1  0.622797  0.388331  0.771256  1
  Si  Si18  1  0.878051  0.112630  0.271436  1
  Si  Si19  1  0.887327  0.121899  0.728497  1
  Si  Si20  1  0.388472  0.622964  0.771239  1
  Si  Si21  1  0.377109  0.611585  0.228818  1
  Si  Si22  1  0.345319  0.111538  0.505236  1
  Si  Si23  1  0.888390  0.654628  0.494844  1
  Si  Si24  1  0.387732  0.154360  0.005149  1
  Si  Si25  1  0.845705  0.612319  0.994772  1
  Si  Si26  1  0.654711  0.888455  0.494958  1
  Si  Si27  1  0.111599  0.345358  0.505129  1
  Si  Si28  1  0.612259  0.845657  0.994664  1
  Si  Si29  1  0.154277  0.387667  0.005256  1
  Ru  Ru30  1  0.668792  0.330794  0.500207  1
  Ru  Ru31  1  0.169727  0.830719  0.999848  1
  Ru  Ru32  1  0.331216  0.669219  0.500145  1
  Ru  Ru33  1  0.830263  0.169270  0.999805  1
  Ru  Ru34  1  0.126929  0.126922  0.626472  1
  Ru  Ru35  1  0.873106  0.873098  0.373501  1
  Ru  Ru36  1  0.374075  0.374082  0.128279  1
  Ru  Ru37  1  0.625942  0.625941  0.871735  1
