# generated using pymatgen
data_Pr6Cr3TcC12
_symmetry_space_group_name_H-M   'P 1'
_cell_length_a   8.30413300
_cell_length_b   8.30413350
_cell_length_c   5.23489000
_cell_angle_alpha   90.00000000
_cell_angle_beta   90.00000000
_cell_angle_gamma   119.99999403
_symmetry_Int_Tables_number   1
_chemical_formula_structural   Pr6Cr3TcC12
_chemical_formula_sum   'Pr6 Cr3 Tc1 C12'
_cell_volume   312.62725465
_cell_formula_units_Z   1
loop_
 _symmetry_equiv_pos_site_id
 _symmetry_equiv_pos_as_xyz
  1  'x, y, z'
loop_
 _atom_site_type_symbol
 _atom_site_label
 _atom_site_symmetry_multiplicity
 _atom_site_fract_x
 _atom_site_fract_y
 _atom_site_fract_z
 _atom_site_occupancy
  Pr  Pr0  1  0.612995  0.686906  0.750000  1
  Pr  Pr1  1  0.923574  0.612912  0.250000  1
  Pr  Pr2  1  0.689338  0.076426  0.250000  1
  Pr  Pr3  1  0.313094  0.926090  0.750000  1
  Pr  Pr4  1  0.073910  0.387005  0.750000  1
  Pr  Pr5  1  0.387088  0.310662  0.250000  1
  Cr  Cr6  1  0.000000  0.000000  0.505095  1
  Cr  Cr7  1  0.000000  0.000000  0.994905  1
  Cr  Cr8  1  0.666667  0.333333  0.750000  1
  Tc  Tc9  1  0.333333  0.666667  0.250000  1
  C  C10  1  0.954166  0.772919  0.750000  1
  C  C11  1  0.178088  0.957154  0.250000  1
  C  C12  1  0.779068  0.821912  0.250000  1
  C  C13  1  0.227081  0.181248  0.750000  1
  C  C14  1  0.818752  0.045834  0.750000  1
  C  C15  1  0.042846  0.220932  0.250000  1
  C  C16  1  0.857532  0.580702  0.750000  1
  C  C17  1  0.278413  0.868554  0.250000  1
  C  C18  1  0.590140  0.721587  0.250000  1
  C  C19  1  0.419298  0.276830  0.750000  1
  C  C20  1  0.131446  0.409860  0.250000  1
  C  C21  1  0.723170  0.142468  0.750000  1
