# generated using pymatgen
data_Rb8Zr6BeI20
_symmetry_space_group_name_H-M   'P 1'
_cell_length_a   12.90193298
_cell_length_b   12.90193335
_cell_length_c   12.90193300
_cell_angle_alpha   60.00000345
_cell_angle_beta   60.00000251
_cell_angle_gamma   60.00000410
_symmetry_Int_Tables_number   1
_chemical_formula_structural   Rb8Zr6BeI20
_chemical_formula_sum   'Rb8 Zr6 Be1 I20'
_cell_volume   1518.62097133
_cell_formula_units_Z   1
loop_
 _symmetry_equiv_pos_site_id
 _symmetry_equiv_pos_as_xyz
  1  'x, y, z'
loop_
 _atom_site_type_symbol
 _atom_site_label
 _atom_site_symmetry_multiplicity
 _atom_site_fract_x
 _atom_site_fract_y
 _atom_site_fract_z
 _atom_site_occupancy
  Rb  Rb0  1  0.361561  0.361561  0.361561  1
  Rb  Rb1  1  0.638439  0.638439  0.638439  1
  Rb  Rb2  1  0.361561  0.361561  0.915316  1
  Rb  Rb3  1  0.361561  0.915316  0.361561  1
  Rb  Rb4  1  0.638439  0.638439  0.084684  1
  Rb  Rb5  1  0.638439  0.084684  0.638439  1
  Rb  Rb6  1  0.915316  0.361561  0.361561  1
  Rb  Rb7  1  0.084684  0.638439  0.638439  1
  Zr  Zr8  1  0.865782  0.134218  0.134218  1
  Zr  Zr9  1  0.134218  0.865782  0.865782  1
  Zr  Zr10  1  0.134218  0.865782  0.134218  1
  Zr  Zr11  1  0.865782  0.134218  0.865782  1
  Zr  Zr12  1  0.134218  0.134218  0.865782  1
  Zr  Zr13  1  0.865782  0.865782  0.134218  1
  Be  Be14  1  0.000000  0.000000  0.000000  1
  I  I15  1  0.318973  0.000000  0.000000  1
  I  I16  1  0.681027  0.000000  0.000000  1
  I  I17  1  0.000000  0.318973  0.681027  1
  I  I18  1  0.000000  0.681027  0.318973  1
  I  I19  1  0.000000  0.318973  0.000000  1
  I  I20  1  0.681027  0.000000  0.318973  1
  I  I21  1  0.000000  0.681027  0.000000  1
  I  I22  1  0.318973  0.000000  0.681027  1
  I  I23  1  0.000000  0.000000  0.318973  1
  I  I24  1  0.000000  0.000000  0.681027  1
  I  I25  1  0.681027  0.318973  0.000000  1
  I  I26  1  0.318973  0.681027  0.000000  1
  I  I27  1  0.689255  0.310745  0.310745  1
  I  I28  1  0.310745  0.689255  0.689255  1
  I  I29  1  0.310745  0.689255  0.310745  1
  I  I30  1  0.689255  0.310745  0.689255  1
  I  I31  1  0.310745  0.310745  0.689255  1
  I  I32  1  0.689255  0.689255  0.310745  1
  I  I33  1  0.250000  0.250000  0.250000  1
  I  I34  1  0.750000  0.750000  0.750000  1
