# generated using pymatgen
data_Y3CdPd8
_symmetry_space_group_name_H-M   'P 1'
_cell_length_a   4.21250300
_cell_length_b   5.87287906
_cell_length_c   17.58004100
_cell_angle_alpha   89.99645857
_cell_angle_beta   90.00027203
_cell_angle_gamma   90.00759994
_symmetry_Int_Tables_number   1
_chemical_formula_structural   Y3CdPd8
_chemical_formula_sum   'Y6 Cd2 Pd16'
_cell_volume   434.92178306
_cell_formula_units_Z   2
loop_
 _symmetry_equiv_pos_site_id
 _symmetry_equiv_pos_as_xyz
  1  'x, y, z'
loop_
 _atom_site_type_symbol
 _atom_site_label
 _atom_site_symmetry_multiplicity
 _atom_site_fract_x
 _atom_site_fract_y
 _atom_site_fract_z
 _atom_site_occupancy
  Y  Y0  1  0.524832  0.339261  0.046878  1
  Y  Y1  1  0.524648  0.839445  0.206212  1
  Y  Y2  1  0.525872  0.339472  0.365516  1
  Y  Y3  1  0.527196  0.740259  0.546758  1
  Y  Y4  1  0.527395  0.239114  0.706084  1
  Y  Y5  1  0.526168  0.738595  0.865445  1
  Cd  Cd6  1  0.026566  0.039994  0.456144  1
  Cd  Cd7  1  0.025349  0.039009  0.956128  1
  Pd  Pd8  1  0.524909  0.828570  0.036875  1
  Pd  Pd9  1  0.024499  0.087868  0.123083  1
  Pd  Pd10  1  0.024563  0.590532  0.122990  1
  Pd  Pd11  1  0.524595  0.339662  0.206241  1
  Pd  Pd12  1  0.025211  0.590374  0.289451  1
  Pd  Pd13  1  0.025102  0.087707  0.289391  1
  Pd  Pd14  1  0.525958  0.828593  0.375493  1
  Pd  Pd15  1  0.026626  0.540020  0.456124  1
  Pd  Pd16  1  0.527129  0.251228  0.536777  1
  Pd  Pd17  1  0.027543  0.991602  0.622864  1
  Pd  Pd18  1  0.027503  0.488951  0.622856  1
  Pd  Pd19  1  0.527475  0.738859  0.706067  1
  Pd  Pd20  1  0.026856  0.487446  0.789363  1
  Pd  Pd21  1  0.026957  0.990084  0.789187  1
  Pd  Pd22  1  0.525934  0.249287  0.875420  1
  Pd  Pd23  1  0.025449  0.539034  0.956191  1
