# generated using pymatgen
data_HoTl(TeO3)2
_symmetry_space_group_name_H-M   'P 1'
_cell_length_a   6.14459200
_cell_length_b   8.81386700
_cell_length_c   14.00441500
_cell_angle_alpha   90.00000000
_cell_angle_beta   90.00000000
_cell_angle_gamma   90.00000000
_symmetry_Int_Tables_number   1
_chemical_formula_structural   HoTl(TeO3)2
_chemical_formula_sum   'Ho4 Tl4 Te8 O24'
_cell_volume   758.44573908
_cell_formula_units_Z   4
loop_
 _symmetry_equiv_pos_site_id
 _symmetry_equiv_pos_as_xyz
  1  'x, y, z'
loop_
 _atom_site_type_symbol
 _atom_site_label
 _atom_site_symmetry_multiplicity
 _atom_site_fract_x
 _atom_site_fract_y
 _atom_site_fract_z
 _atom_site_occupancy
  Ho  Ho0  1  0.250000  0.788379  0.905089  1
  Ho  Ho1  1  0.250000  0.711621  0.405089  1
  Ho  Ho2  1  0.750000  0.211621  0.094911  1
  Ho  Ho3  1  0.750000  0.288379  0.594911  1
  Tl  Tl4  1  0.250000  0.003963  0.631310  1
  Tl  Tl5  1  0.250000  0.496037  0.131310  1
  Tl  Tl6  1  0.750000  0.996037  0.368690  1
  Tl  Tl7  1  0.750000  0.503963  0.868690  1
  Te  Te8  1  0.750000  0.004368  0.804735  1
  Te  Te9  1  0.750000  0.495632  0.304735  1
  Te  Te10  1  0.250000  0.995632  0.195265  1
  Te  Te11  1  0.250000  0.504368  0.695265  1
  Te  Te12  1  0.750000  0.716448  0.575547  1
  Te  Te13  1  0.750000  0.783552  0.075547  1
  Te  Te14  1  0.250000  0.283552  0.424453  1
  Te  Te15  1  0.250000  0.216448  0.924453  1
  O  O16  1  0.987512  0.868273  0.801989  1
  O  O17  1  0.512488  0.631727  0.301989  1
  O  O18  1  0.487512  0.131727  0.198011  1
  O  O19  1  0.012488  0.368273  0.698011  1
  O  O20  1  0.012488  0.131727  0.198011  1
  O  O21  1  0.487512  0.368273  0.698011  1
  O  O22  1  0.512488  0.868273  0.801989  1
  O  O23  1  0.987512  0.631727  0.301989  1
  O  O24  1  0.750000  0.059916  0.673372  1
  O  O25  1  0.750000  0.440084  0.173372  1
  O  O26  1  0.250000  0.940084  0.326628  1
  O  O27  1  0.250000  0.559916  0.826628  1
  O  O28  1  0.987728  0.798358  0.506328  1
  O  O29  1  0.512272  0.701642  0.006328  1
  O  O30  1  0.487728  0.201642  0.493672  1
  O  O31  1  0.012272  0.298358  0.993672  1
  O  O32  1  0.012272  0.201642  0.493672  1
  O  O33  1  0.487728  0.298358  0.993672  1
  O  O34  1  0.512272  0.798358  0.506328  1
  O  O35  1  0.987728  0.701642  0.006328  1
  O  O36  1  0.750000  0.518478  0.524984  1
  O  O37  1  0.750000  0.981522  0.024984  1
  O  O38  1  0.250000  0.481522  0.475016  1
  O  O39  1  0.250000  0.018478  0.975016  1
