# generated using pymatgen
data_EuNi2P2Pd
_symmetry_space_group_name_H-M   'P 1'
_cell_length_a   7.97980820
_cell_length_b   7.97980886
_cell_length_c   9.71025689
_cell_angle_alpha   74.20809949
_cell_angle_beta   74.20809821
_cell_angle_gamma   27.17895635
_symmetry_Int_Tables_number   1
_chemical_formula_structural   EuNi2P2Pd
_chemical_formula_sum   'Eu3 Ni6 P6 Pd3'
_cell_volume   271.13646837
_cell_formula_units_Z   3
loop_
 _symmetry_equiv_pos_site_id
 _symmetry_equiv_pos_as_xyz
  1  'x, y, z'
loop_
 _atom_site_type_symbol
 _atom_site_label
 _atom_site_symmetry_multiplicity
 _atom_site_fract_x
 _atom_site_fract_y
 _atom_site_fract_z
 _atom_site_occupancy
  Eu  Eu0  1  0.848722  0.848722  0.694870  1
  Eu  Eu1  1  0.151278  0.151278  0.305130  1
  Eu  Eu2  1  0.000000  0.000000  0.000000  1
  Ni  Ni3  1  0.947445  0.947445  0.330827  1
  Ni  Ni4  1  0.052555  0.052555  0.669173  1
  Ni  Ni5  1  0.780581  0.780581  0.398293  1
  Ni  Ni6  1  0.219419  0.219419  0.601707  1
  Ni  Ni7  1  0.368064  0.368064  0.216067  1
  Ni  Ni8  1  0.631936  0.631936  0.783933  1
  P  P9  1  0.799523  0.799523  0.153683  1
  P  P10  1  0.200477  0.200477  0.846317  1
  P  P11  1  0.523318  0.523318  0.226159  1
  P  P12  1  0.476682  0.476682  0.773841  1
  P  P13  1  0.644827  0.644827  0.549499  1
  P  P14  1  0.355173  0.355173  0.450501  1
  Pd  Pd15  1  0.500000  0.500000  0.500000  1
  Pd  Pd16  1  0.673480  0.673480  0.033154  1
  Pd  Pd17  1  0.326520  0.326520  0.966846  1
