# generated using pymatgen
data_YLu3(AlPd)4
_symmetry_space_group_name_H-M   'P 1'
_cell_length_a   4.42069900
_cell_length_b   6.80579825
_cell_length_c   7.74552106
_cell_angle_alpha   88.89006928
_cell_angle_beta   90.00000000
_cell_angle_gamma   90.00000000
_symmetry_Int_Tables_number   1
_chemical_formula_structural   YLu3(AlPd)4
_chemical_formula_sum   'Y1 Lu3 Al4 Pd4'
_cell_volume   232.99100840
_cell_formula_units_Z   1
loop_
 _symmetry_equiv_pos_site_id
 _symmetry_equiv_pos_as_xyz
  1  'x, y, z'
loop_
 _atom_site_type_symbol
 _atom_site_label
 _atom_site_symmetry_multiplicity
 _atom_site_fract_x
 _atom_site_fract_y
 _atom_site_fract_z
 _atom_site_occupancy
  Y  Y0  1  0.750000  0.469434  0.820242  1
  Lu  Lu1  1  0.250000  0.030259  0.318780  1
  Lu  Lu2  1  0.250000  0.533742  0.182087  1
  Lu  Lu3  1  0.750000  0.968429  0.677980  1
  Al  Al4  1  0.250000  0.147248  0.939760  1
  Al  Al5  1  0.250000  0.645871  0.560818  1
  Al  Al6  1  0.750000  0.856265  0.060163  1
  Al  Al7  1  0.750000  0.352778  0.439310  1
  Pd  Pd8  1  0.250000  0.263154  0.614423  1
  Pd  Pd9  1  0.250000  0.775570  0.880672  1
  Pd  Pd10  1  0.750000  0.729345  0.380323  1
  Pd  Pd11  1  0.750000  0.227904  0.125440  1
