# generated using pymatgen
data_Dy2(YPb)3
_symmetry_space_group_name_H-M   'P 1'
_cell_length_a   9.09226800
_cell_length_b   9.09226844
_cell_length_c   6.66269600
_cell_angle_alpha   90.00000000
_cell_angle_beta   90.00000000
_cell_angle_gamma   120.00000567
_symmetry_Int_Tables_number   1
_chemical_formula_structural   Dy2(YPb)3
_chemical_formula_sum   'Dy4 Y6 Pb6'
_cell_volume   477.00736302
_cell_formula_units_Z   2
loop_
 _symmetry_equiv_pos_site_id
 _symmetry_equiv_pos_as_xyz
  1  'x, y, z'
loop_
 _atom_site_type_symbol
 _atom_site_label
 _atom_site_symmetry_multiplicity
 _atom_site_fract_x
 _atom_site_fract_y
 _atom_site_fract_z
 _atom_site_occupancy
  Dy  Dy0  1  0.666667  0.333333  0.000000  1
  Dy  Dy1  1  0.333333  0.666667  0.000000  1
  Dy  Dy2  1  0.333333  0.666667  0.500000  1
  Dy  Dy3  1  0.666667  0.333333  0.500000  1
  Y  Y4  1  0.761511  0.761511  0.750000  1
  Y  Y5  1  0.238489  0.000000  0.750000  1
  Y  Y6  1  0.000000  0.238489  0.750000  1
  Y  Y7  1  0.238489  0.238489  0.250000  1
  Y  Y8  1  0.761511  0.000000  0.250000  1
  Y  Y9  1  0.000000  0.761511  0.250000  1
  Pb  Pb10  1  0.394622  0.394622  0.750000  1
  Pb  Pb11  1  0.605378  0.000000  0.750000  1
  Pb  Pb12  1  0.000000  0.605378  0.750000  1
  Pb  Pb13  1  0.605378  0.605378  0.250000  1
  Pb  Pb14  1  0.394622  0.000000  0.250000  1
  Pb  Pb15  1  0.000000  0.394622  0.250000  1
