# generated using pymatgen
data_La6Pd7Rh
_symmetry_space_group_name_H-M   'P 1'
_cell_length_a   8.26528616
_cell_length_b   8.26528560
_cell_length_c   8.26528625
_cell_angle_alpha   114.46086949
_cell_angle_beta   114.46086685
_cell_angle_gamma   114.46087358
_symmetry_Int_Tables_number   1
_chemical_formula_structural   La6Pd7Rh
_chemical_formula_sum   'La6 Pd7 Rh1'
_cell_volume   331.00017135
_cell_formula_units_Z   1
loop_
 _symmetry_equiv_pos_site_id
 _symmetry_equiv_pos_as_xyz
  1  'x, y, z'
loop_
 _atom_site_type_symbol
 _atom_site_label
 _atom_site_symmetry_multiplicity
 _atom_site_fract_x
 _atom_site_fract_y
 _atom_site_fract_z
 _atom_site_occupancy
  La  La0  1  0.971316  0.602048  0.724545  1
  La  La1  1  0.724545  0.971316  0.602048  1
  La  La2  1  0.602048  0.724545  0.971316  1
  La  La3  1  0.028684  0.397952  0.275455  1
  La  La4  1  0.275455  0.028684  0.397952  1
  La  La5  1  0.397952  0.275455  0.028684  1
  Pd  Pd6  1  0.500000  0.500000  0.500000  1
  Pd  Pd7  1  0.942510  0.777326  0.444534  1
  Pd  Pd8  1  0.444534  0.942510  0.777326  1
  Pd  Pd9  1  0.777326  0.444534  0.942510  1
  Pd  Pd10  1  0.057490  0.222674  0.555466  1
  Pd  Pd11  1  0.555466  0.057490  0.222674  1
  Pd  Pd12  1  0.222674  0.555466  0.057490  1
  Rh  Rh13  1  0.000000  0.000000  0.000000  1
