# generated using pymatgen
data_U2Tl2O7
_symmetry_space_group_name_H-M   'P 1'
_cell_length_a   7.43685643
_cell_length_b   7.43685705
_cell_length_c   7.51854200
_cell_angle_alpha   67.75828756
_cell_angle_beta   67.75828563
_cell_angle_gamma   33.20951840
_symmetry_Int_Tables_number   1
_chemical_formula_structural   U2Tl2O7
_chemical_formula_sum   'U2 Tl2 O7'
_cell_volume   209.23029936
_cell_formula_units_Z   1
loop_
 _symmetry_equiv_pos_site_id
 _symmetry_equiv_pos_as_xyz
  1  'x, y, z'
loop_
 _atom_site_type_symbol
 _atom_site_label
 _atom_site_symmetry_multiplicity
 _atom_site_fract_x
 _atom_site_fract_y
 _atom_site_fract_z
 _atom_site_occupancy
  U  U0  1  0.147002  0.147002  0.502824  1
  U  U1  1  0.852998  0.852998  0.497176  1
  Tl  Tl2  1  0.384655  0.384655  0.955645  1
  Tl  Tl3  1  0.615345  0.615345  0.044355  1
  O  O4  1  0.799407  0.799407  0.774786  1
  O  O5  1  0.307942  0.307942  0.498125  1
  O  O6  1  0.091233  0.091233  0.775478  1
  O  O7  1  0.000000  0.000000  0.500000  1
  O  O8  1  0.692058  0.692058  0.501875  1
  O  O9  1  0.908767  0.908767  0.224522  1
  O  O10  1  0.200593  0.200593  0.225214  1
