# generated using pymatgen
data_Dy9Er(In2Au)4
_symmetry_space_group_name_H-M   'P 1'
_cell_length_a   3.67456500
_cell_length_b   8.21216213
_cell_length_c   18.44322830
_cell_angle_alpha   89.97940365
_cell_angle_beta   90.00000000
_cell_angle_gamma   90.00000000
_symmetry_Int_Tables_number   1
_chemical_formula_structural   Dy9Er(In2Au)4
_chemical_formula_sum   'Dy9 Er1 In8 Au4'
_cell_volume   556.54509976
_cell_formula_units_Z   1
loop_
 _symmetry_equiv_pos_site_id
 _symmetry_equiv_pos_as_xyz
  1  'x, y, z'
loop_
 _atom_site_type_symbol
 _atom_site_label
 _atom_site_symmetry_multiplicity
 _atom_site_fract_x
 _atom_site_fract_y
 _atom_site_fract_z
 _atom_site_occupancy
  Dy  Dy0  1  0.000000  0.499721  0.499936  1
  Dy  Dy1  1  0.000000  0.000031  0.000023  1
  Dy  Dy2  1  0.000000  0.736510  0.281848  1
  Dy  Dy3  1  0.000000  0.263644  0.718176  1
  Dy  Dy4  1  0.000000  0.763666  0.781734  1
  Dy  Dy5  1  0.000000  0.236041  0.218374  1
  Dy  Dy6  1  0.000000  0.618324  0.079457  1
  Dy  Dy7  1  0.000000  0.381521  0.920504  1
  Dy  Dy8  1  0.000000  0.881554  0.579264  1
  Er  Er9  1  0.000000  0.118388  0.419929  1
  In  In10  1  0.500000  0.712097  0.932393  1
  In  In11  1  0.500000  0.287752  0.067739  1
  In  In12  1  0.500000  0.788927  0.432625  1
  In  In13  1  0.500000  0.212036  0.566939  1
  In  In14  1  0.500000  0.581248  0.646453  1
  In  In15  1  0.500000  0.417842  0.353847  1
  In  In16  1  0.500000  0.919442  0.146755  1
  In  In17  1  0.500000  0.080865  0.853430  1
  Au  Au18  1  0.500000  0.525859  0.196500  1
  Au  Au19  1  0.500000  0.473831  0.803510  1
  Au  Au20  1  0.500000  0.973943  0.696139  1
  Au  Au21  1  0.500000  0.026759  0.304425  1
