# generated using pymatgen
data_Pr2NdTh(Re2Si)8
_symmetry_space_group_name_H-M   'P 1'
_cell_length_a   4.17091000
_cell_length_b   7.33720145
_cell_length_c   15.62206174
_cell_angle_alpha   90.13594008
_cell_angle_beta   90.00000000
_cell_angle_gamma   90.00000000
_symmetry_Int_Tables_number   1
_chemical_formula_structural   Pr2NdTh(Re2Si)8
_chemical_formula_sum   'Pr2 Nd1 Th1 Re16 Si8'
_cell_volume   478.07759289
_cell_formula_units_Z   1
loop_
 _symmetry_equiv_pos_site_id
 _symmetry_equiv_pos_as_xyz
  1  'x, y, z'
loop_
 _atom_site_type_symbol
 _atom_site_label
 _atom_site_symmetry_multiplicity
 _atom_site_fract_x
 _atom_site_fract_y
 _atom_site_fract_z
 _atom_site_occupancy
  Pr  Pr0  1  0.000000  0.579976  0.118435  1
  Pr  Pr1  1  0.000000  0.418188  0.882744  1
  Nd  Nd2  1  0.500000  0.080839  0.381290  1
  Th  Th3  1  0.500000  0.918656  0.617891  1
  Re  Re4  1  0.000000  0.136047  0.052048  1
  Re  Re5  1  0.000000  0.861413  0.947557  1
  Re  Re6  1  0.500000  0.641292  0.448688  1
  Re  Re7  1  0.500000  0.363165  0.551491  1
  Re  Re8  1  0.000000  0.735055  0.320855  1
  Re  Re9  1  0.000000  0.264268  0.678620  1
  Re  Re10  1  0.500000  0.233881  0.179646  1
  Re  Re11  1  0.500000  0.766031  0.820858  1
  Re  Re12  1  0.000000  0.434842  0.418817  1
  Re  Re13  1  0.000000  0.571307  0.580288  1
  Re  Re14  1  0.500000  0.932493  0.081082  1
  Re  Re15  1  0.500000  0.065305  0.918581  1
  Re  Re16  1  0.000000  0.994027  0.206559  1
  Re  Re17  1  0.000000  0.005607  0.793124  1
  Re  Re18  1  0.500000  0.493746  0.293864  1
  Re  Re19  1  0.500000  0.505180  0.706060  1
  Si  Si20  1  0.000000  0.830251  0.474526  1
  Si  Si21  1  0.000000  0.174140  0.523839  1
  Si  Si22  1  0.500000  0.325758  0.025094  1
  Si  Si23  1  0.500000  0.671839  0.975453  1
  Si  Si24  1  0.000000  0.295184  0.274377  1
  Si  Si25  1  0.000000  0.700236  0.727407  1
  Si  Si26  1  0.500000  0.795976  0.226369  1
  Si  Si27  1  0.500000  0.205299  0.774436  1
