# generated using pymatgen
data_Ho4Tm8Ni5Bi
_symmetry_space_group_name_H-M   'P 1'
_cell_length_a   8.23945488
_cell_length_b   8.23234001
_cell_length_c   8.23945381
_cell_angle_alpha   109.48612582
_cell_angle_beta   111.74922153
_cell_angle_gamma   107.24273794
_symmetry_Int_Tables_number   1
_chemical_formula_structural   Ho4Tm8Ni5Bi
_chemical_formula_sum   'Ho4 Tm8 Ni5 Bi1'
_cell_volume   429.38666144
_cell_formula_units_Z   1
loop_
 _symmetry_equiv_pos_site_id
 _symmetry_equiv_pos_as_xyz
  1  'x, y, z'
loop_
 _atom_site_type_symbol
 _atom_site_label
 _atom_site_symmetry_multiplicity
 _atom_site_fract_x
 _atom_site_fract_y
 _atom_site_fract_z
 _atom_site_occupancy
  Ho  Ho0  1  0.293231  0.179026  0.472217  1
  Ho  Ho1  1  0.706769  0.820974  0.527783  1
  Ho  Ho2  1  0.293191  0.820974  0.114205  1
  Ho  Ho3  1  0.706809  0.179026  0.885795  1
  Tm  Tm4  1  0.628531  0.320668  0.307809  1
  Tm  Tm5  1  0.371469  0.679332  0.692191  1
  Tm  Tm6  1  0.012859  0.320668  0.692137  1
  Tm  Tm7  1  0.987141  0.679332  0.307863  1
  Tm  Tm8  1  0.208530  0.401499  0.192971  1
  Tm  Tm9  1  0.791470  0.598501  0.807029  1
  Tm  Tm10  1  0.208299  0.015136  0.806837  1
  Tm  Tm11  1  0.791701  0.984864  0.193163  1
  Ni  Ni12  1  0.999991  0.365719  0.365728  1
  Ni  Ni13  1  0.000009  0.634281  0.634272  1
  Ni  Ni14  1  0.373379  0.872312  0.498933  1
  Ni  Ni15  1  0.626621  0.127688  0.501067  1
  Ni  Ni16  1  0.000000  0.000000  0.000000  1
  Bi  Bi17  1  0.500000  0.500000  0.000000  1
