# generated using pymatgen
data_Pr2Dy6Cd2OsPt
_symmetry_space_group_name_H-M   'P 1'
_cell_length_a   9.74806898
_cell_length_b   9.75232402
_cell_length_c   9.80155592
_cell_angle_alpha   59.80410045
_cell_angle_beta   59.84711112
_cell_angle_gamma   59.87104497
_symmetry_Int_Tables_number   1
_chemical_formula_structural   Pr2Dy6Cd2OsPt
_chemical_formula_sum   'Pr4 Dy12 Cd4 Os2 Pt2'
_cell_volume   656.49887626
_cell_formula_units_Z   2
loop_
 _symmetry_equiv_pos_site_id
 _symmetry_equiv_pos_as_xyz
  1  'x, y, z'
loop_
 _atom_site_type_symbol
 _atom_site_label
 _atom_site_symmetry_multiplicity
 _atom_site_fract_x
 _atom_site_fract_y
 _atom_site_fract_z
 _atom_site_occupancy
  Pr  Pr0  1  0.556701  0.938526  0.565297  1
  Pr  Pr1  1  0.938526  0.556701  0.939475  1
  Pr  Pr2  1  0.563357  0.563357  0.936643  1
  Pr  Pr3  1  0.939791  0.939791  0.560209  1
  Dy  Dy4  1  0.349387  0.348433  0.350427  1
  Dy  Dy5  1  0.348433  0.349387  0.951754  1
  Dy  Dy6  1  0.344269  0.957540  0.350130  1
  Dy  Dy7  1  0.957540  0.344269  0.348061  1
  Dy  Dy8  1  0.818380  0.184143  0.188950  1
  Dy  Dy9  1  0.184143  0.818380  0.808527  1
  Dy  Dy10  1  0.187188  0.815526  0.189371  1
  Dy  Dy11  1  0.815526  0.187188  0.807915  1
  Dy  Dy12  1  0.187810  0.187810  0.812190  1
  Dy  Dy13  1  0.809414  0.809414  0.190586  1
  Dy  Dy14  1  0.945056  0.547730  0.560657  1
  Dy  Dy15  1  0.547730  0.945056  0.946556  1
  Cd  Cd16  1  0.582499  0.577766  0.578707  1
  Cd  Cd17  1  0.577766  0.582499  0.261029  1
  Cd  Cd18  1  0.579201  0.258935  0.582447  1
  Cd  Cd19  1  0.258935  0.579201  0.579416  1
  Os  Os20  1  0.149436  0.141179  0.134587  1
  Os  Os21  1  0.141179  0.149436  0.574799  1
  Pt  Pt22  1  0.142445  0.575286  0.143256  1
  Pt  Pt23  1  0.575286  0.142445  0.139013  1
