# generated using pymatgen
data_Ce2Dy3Lu3(P3Ir4)4
_symmetry_space_group_name_H-M   'P 1'
_cell_length_a   12.99742389
_cell_length_b   12.92694386
_cell_length_c   3.98984000
_cell_angle_alpha   90.00000000
_cell_angle_beta   90.00000000
_cell_angle_gamma   119.81145775
_symmetry_Int_Tables_number   1
_chemical_formula_structural   Ce2Dy3Lu3(P3Ir4)4
_chemical_formula_sum   'Ce2 Dy3 Lu3 P12 Ir16'
_cell_volume   581.64933010
_cell_formula_units_Z   1
loop_
 _symmetry_equiv_pos_site_id
 _symmetry_equiv_pos_as_xyz
  1  'x, y, z'
loop_
 _atom_site_type_symbol
 _atom_site_label
 _atom_site_symmetry_multiplicity
 _atom_site_fract_x
 _atom_site_fract_y
 _atom_site_fract_z
 _atom_site_occupancy
  Ce  Ce0  1  0.333718  0.666694  0.500000  1
  Ce  Ce1  1  0.000240  0.817989  0.000000  1
  Dy  Dy2  1  0.666758  0.333684  0.500000  1
  Dy  Dy3  1  0.188441  0.188796  0.000000  1
  Dy  Dy4  1  0.811059  0.999351  0.000000  1
  Lu  Lu5  1  0.999068  0.443821  0.500000  1
  Lu  Lu6  1  0.555341  0.553425  0.500000  1
  Lu  Lu7  1  0.445671  0.000112  0.500000  1
  P  P8  1  0.999432  0.649615  0.500000  1
  P  P9  1  0.349031  0.349591  0.500000  1
  P  P10  1  0.651496  0.001644  0.500000  1
  P  P11  1  0.519562  0.687796  0.000000  1
  P  P12  1  0.310872  0.831389  0.000000  1
  P  P13  1  0.168804  0.479833  0.000000  1
  P  P14  1  0.484479  0.171756  0.000000  1
  P  P15  1  0.688425  0.516778  0.000000  1
  P  P16  1  0.827894  0.311386  0.000000  1
  P  P17  1  0.999688  0.174829  0.500000  1
  P  P18  1  0.821831  0.823295  0.500000  1
  P  P19  1  0.178581  0.002165  0.500000  1
  Ir  Ir20  1  0.506661  0.865162  0.000000  1
  Ir  Ir21  1  0.132746  0.642284  0.000000  1
  Ir  Ir22  1  0.356728  0.489594  0.000000  1
  Ir  Ir23  1  0.492602  0.357682  0.000000  1
  Ir  Ir24  1  0.866585  0.509388  0.000000  1
  Ir  Ir25  1  0.643963  0.132775  0.000000  1
  Ir  Ir26  1  0.999812  0.273456  0.000000  1
  Ir  Ir27  1  0.723927  0.724672  0.000000  1
  Ir  Ir28  1  0.276563  0.001298  0.000000  1
  Ir  Ir29  1  0.629418  0.809388  0.500000  1
  Ir  Ir30  1  0.193292  0.821155  0.500000  1
  Ir  Ir31  1  0.178390  0.370514  0.500000  1
  Ir  Ir32  1  0.369777  0.179319  0.500000  1
  Ir  Ir33  1  0.806752  0.628193  0.500000  1
  Ir  Ir34  1  0.822306  0.191996  0.500000  1
  Ir  Ir35  1  0.000087  0.999175  0.500000  1
