# generated using pymatgen
data_HoErCr3Co9As7
_symmetry_space_group_name_H-M   'P 1'
_cell_length_a   3.73854600
_cell_length_b   9.41142550
_cell_length_c   9.41142800
_cell_angle_alpha   119.99999473
_cell_angle_beta   90.00000000
_cell_angle_gamma   90.00000000
_symmetry_Int_Tables_number   1
_chemical_formula_structural   HoErCr3Co9As7
_chemical_formula_sum   'Ho1 Er1 Cr3 Co9 As7'
_cell_volume   286.77699933
_cell_formula_units_Z   1
loop_
 _symmetry_equiv_pos_site_id
 _symmetry_equiv_pos_as_xyz
  1  'x, y, z'
loop_
 _atom_site_type_symbol
 _atom_site_label
 _atom_site_symmetry_multiplicity
 _atom_site_fract_x
 _atom_site_fract_y
 _atom_site_fract_z
 _atom_site_occupancy
  Ho  Ho0  1  0.500000  0.333333  0.666667  1
  Er  Er1  1  0.000000  0.666667  0.333333  1
  Cr  Cr2  1  0.500000  0.775638  0.894158  1
  Cr  Cr3  1  0.500000  0.118520  0.224362  1
  Cr  Cr4  1  0.500000  0.105842  0.881480  1
  Co  Co5  1  0.000000  0.569393  0.940102  1
  Co  Co6  1  0.000000  0.370708  0.430607  1
  Co  Co7  1  0.000000  0.059898  0.629292  1
  Co  Co8  1  0.000000  0.877983  0.158288  1
  Co  Co9  1  0.000000  0.280305  0.122017  1
  Co  Co10  1  0.000000  0.841712  0.719695  1
  Co  Co11  1  0.500000  0.947493  0.382597  1
  Co  Co12  1  0.500000  0.435103  0.052507  1
  Co  Co13  1  0.500000  0.617403  0.564897  1
  As  As14  1  0.000000  0.000000  0.000000  1
  As  As15  1  0.500000  0.708136  0.118797  1
  As  As16  1  0.500000  0.410660  0.291864  1
  As  As17  1  0.500000  0.881203  0.589340  1
  As  As18  1  0.000000  0.586622  0.701131  1
  As  As19  1  0.000000  0.114508  0.413378  1
  As  As20  1  0.000000  0.298869  0.885492  1
