# generated using pymatgen
data_Ce3ErLu4(ReB6)4
_symmetry_space_group_name_H-M   'P 1'
_cell_length_a   3.67910200
_cell_length_b   9.12650689
_cell_length_c   11.51596013
_cell_angle_alpha   90.05075835
_cell_angle_beta   90.00000000
_cell_angle_gamma   90.00000000
_symmetry_Int_Tables_number   1
_chemical_formula_structural   Ce3ErLu4(ReB6)4
_chemical_formula_sum   'Ce3 Er1 Lu4 Re4 B24'
_cell_volume   386.67526950
_cell_formula_units_Z   1
loop_
 _symmetry_equiv_pos_site_id
 _symmetry_equiv_pos_as_xyz
  1  'x, y, z'
loop_
 _atom_site_type_symbol
 _atom_site_label
 _atom_site_symmetry_multiplicity
 _atom_site_fract_x
 _atom_site_fract_y
 _atom_site_fract_z
 _atom_site_occupancy
  Ce  Ce0  1  0.000000  0.321037  0.414614  1
  Ce  Ce1  1  0.000000  0.678646  0.586127  1
  Ce  Ce2  1  0.000000  0.823094  0.085261  1
  Er  Er3  1  0.000000  0.178004  0.914049  1
  Lu  Lu4  1  0.000000  0.944624  0.372198  1
  Lu  Lu5  1  0.000000  0.056135  0.628645  1
  Lu  Lu6  1  0.000000  0.443110  0.127617  1
  Lu  Lu7  1  0.000000  0.555488  0.871817  1
  Re  Re8  1  0.000000  0.639168  0.320026  1
  Re  Re9  1  0.000000  0.361559  0.679688  1
  Re  Re10  1  0.000000  0.139214  0.179859  1
  Re  Re11  1  0.000000  0.860531  0.820111  1
  B  B12  1  0.500000  0.554978  0.431465  1
  B  B13  1  0.500000  0.445027  0.568703  1
  B  B14  1  0.500000  0.054987  0.067193  1
  B  B15  1  0.500000  0.946210  0.932138  1
  B  B16  1  0.500000  0.750968  0.418045  1
  B  B17  1  0.500000  0.248713  0.582687  1
  B  B18  1  0.500000  0.250495  0.080607  1
  B  B19  1  0.500000  0.749840  0.917921  1
  B  B20  1  0.500000  0.792516  0.265478  1
  B  B21  1  0.500000  0.206836  0.735276  1
  B  B22  1  0.500000  0.292239  0.233554  1
  B  B23  1  0.500000  0.707830  0.765949  1
  B  B24  1  0.500000  0.630191  0.184838  1
  B  B25  1  0.500000  0.368843  0.815882  1
  B  B26  1  0.500000  0.130380  0.314547  1
  B  B27  1  0.500000  0.870462  0.685615  1
  B  B28  1  0.500000  0.983133  0.212699  1
  B  B29  1  0.500000  0.018580  0.787233  1
  B  B30  1  0.500000  0.482624  0.286448  1
  B  B31  1  0.500000  0.516794  0.713856  1
  B  B32  1  0.500000  0.599658  0.027529  1
  B  B33  1  0.500000  0.398102  0.971691  1
  B  B34  1  0.500000  0.101487  0.472400  1
  B  B35  1  0.500000  0.898496  0.528234  1
