# generated using pymatgen
data_Pa2Al9Ir2W
_symmetry_space_group_name_H-M   'P 1'
_cell_length_a   7.59007927
_cell_length_b   7.59008013
_cell_length_c   9.37771000
_cell_angle_alpha   90.00000000
_cell_angle_beta   90.00000000
_cell_angle_gamma   117.04923678
_symmetry_Int_Tables_number   1
_chemical_formula_structural   Pa2Al9Ir2W
_chemical_formula_sum   'Pa4 Al18 Ir4 W2'
_cell_volume   481.14945008
_cell_formula_units_Z   2
loop_
 _symmetry_equiv_pos_site_id
 _symmetry_equiv_pos_as_xyz
  1  'x, y, z'
loop_
 _atom_site_type_symbol
 _atom_site_label
 _atom_site_symmetry_multiplicity
 _atom_site_fract_x
 _atom_site_fract_y
 _atom_site_fract_z
 _atom_site_occupancy
  Pa  Pa0  1  0.996483  0.706173  0.250000  1
  Pa  Pa1  1  0.003517  0.293827  0.750000  1
  Pa  Pa2  1  0.706173  0.996483  0.250000  1
  Pa  Pa3  1  0.293827  0.003517  0.750000  1
  Al  Al4  1  0.157206  0.157206  0.250000  1
  Al  Al5  1  0.842794  0.842794  0.750000  1
  Al  Al6  1  0.009930  0.352929  0.082116  1
  Al  Al7  1  0.990070  0.647071  0.917884  1
  Al  Al8  1  0.990070  0.647071  0.582116  1
  Al  Al9  1  0.352929  0.009930  0.417884  1
  Al  Al10  1  0.009930  0.352929  0.417884  1
  Al  Al11  1  0.647071  0.990070  0.582116  1
  Al  Al12  1  0.647071  0.990070  0.917884  1
  Al  Al13  1  0.352929  0.009930  0.082116  1
  Al  Al14  1  0.337303  0.337303  0.541656  1
  Al  Al15  1  0.662697  0.662697  0.458344  1
  Al  Al16  1  0.662697  0.662697  0.041656  1
  Al  Al17  1  0.337303  0.337303  0.958344  1
  Al  Al18  1  0.349973  0.566826  0.250000  1
  Al  Al19  1  0.650027  0.433174  0.750000  1
  Al  Al20  1  0.566826  0.349973  0.250000  1
  Al  Al21  1  0.433174  0.650027  0.750000  1
  Ir  Ir22  1  0.674023  0.325977  0.000000  1
  Ir  Ir23  1  0.325977  0.674023  0.000000  1
  Ir  Ir24  1  0.325977  0.674023  0.500000  1
  Ir  Ir25  1  0.674023  0.325977  0.500000  1
  W  W26  1  0.000000  0.000000  0.000000  1
  W  W27  1  0.000000  0.000000  0.500000  1
