# generated using pymatgen
data_La2Ga10Pd
_symmetry_space_group_name_H-M   'P 1'
_cell_length_a   4.52005495
_cell_length_b   4.52005534
_cell_length_c   13.34892163
_cell_angle_alpha   99.74735292
_cell_angle_beta   99.74735402
_cell_angle_gamma   90.00001351
_symmetry_Int_Tables_number   1
_chemical_formula_structural   La2Ga10Pd
_chemical_formula_sum   'La2 Ga10 Pd1'
_cell_volume   264.79758836
_cell_formula_units_Z   1
loop_
 _symmetry_equiv_pos_site_id
 _symmetry_equiv_pos_as_xyz
  1  'x, y, z'
loop_
 _atom_site_type_symbol
 _atom_site_label
 _atom_site_symmetry_multiplicity
 _atom_site_fract_x
 _atom_site_fract_y
 _atom_site_fract_z
 _atom_site_occupancy
  La  La0  1  0.645351  0.645351  0.290704  1
  La  La1  1  0.354649  0.354649  0.709296  1
  Ga  Ga2  1  0.551619  0.051619  0.103236  1
  Ga  Ga3  1  0.051619  0.551619  0.103236  1
  Ga  Ga4  1  0.103363  0.103363  0.206727  1
  Ga  Ga5  1  0.198295  0.198295  0.396590  1
  Ga  Ga6  1  0.750000  0.250000  0.500000  1
  Ga  Ga7  1  0.250000  0.750000  0.500000  1
  Ga  Ga8  1  0.801705  0.801705  0.603410  1
  Ga  Ga9  1  0.896637  0.896637  0.793272  1
  Ga  Ga10  1  0.948381  0.448381  0.896763  1
  Ga  Ga11  1  0.448381  0.948381  0.896763  1
  Pd  Pd12  1  0.500000  0.500000  0.000000  1
