# generated using pymatgen
data_Ce6SiSn5Ge4
_symmetry_space_group_name_H-M   'P 1'
_cell_length_a   4.54695600
_cell_length_b   4.54695515
_cell_length_c   23.09412000
_cell_angle_alpha   90.00000000
_cell_angle_beta   90.00000000
_cell_angle_gamma   119.99999164
_symmetry_Int_Tables_number   1
_chemical_formula_structural   Ce6SiSn5Ge4
_chemical_formula_sum   'Ce6 Si1 Sn5 Ge4'
_cell_volume   413.49809049
_cell_formula_units_Z   1
loop_
 _symmetry_equiv_pos_site_id
 _symmetry_equiv_pos_as_xyz
  1  'x, y, z'
loop_
 _atom_site_type_symbol
 _atom_site_label
 _atom_site_symmetry_multiplicity
 _atom_site_fract_x
 _atom_site_fract_y
 _atom_site_fract_z
 _atom_site_occupancy
  Ce  Ce0  1  0.333333  0.666667  0.071766  1
  Ce  Ce1  1  0.666667  0.333333  0.923936  1
  Ce  Ce2  1  0.666667  0.333333  0.579635  1
  Ce  Ce3  1  0.333333  0.666667  0.428505  1
  Ce  Ce4  1  0.333333  0.666667  0.249756  1
  Ce  Ce5  1  0.666667  0.333333  0.746826  1
  Si  Si6  1  0.333333  0.666667  0.660057  1
  Sn  Sn7  1  0.666667  0.333333  0.343861  1
  Sn  Sn8  1  0.666667  0.333333  0.156806  1
  Sn  Sn9  1  0.333333  0.666667  0.838917  1
  Sn  Sn10  1  0.000000  0.000000  0.996504  1
  Sn  Sn11  1  0.000000  0.000000  0.504515  1
  Ge  Ge12  1  0.000000  0.000000  0.166952  1
  Ge  Ge13  1  0.000000  0.000000  0.829051  1
  Ge  Ge14  1  0.000000  0.000000  0.669225  1
  Ge  Ge15  1  0.000000  0.000000  0.333688  1
