# generated using pymatgen
data_Th3Mg2AlPt3
_symmetry_space_group_name_H-M   'P 1'
_cell_length_a   7.53712412
_cell_length_b   7.47354900
_cell_length_c   4.15209200
_cell_angle_alpha   90.00000000
_cell_angle_beta   90.00000000
_cell_angle_gamma   119.72137422
_symmetry_Int_Tables_number   1
_chemical_formula_structural   Th3Mg2AlPt3
_chemical_formula_sum   'Th3 Mg2 Al1 Pt3'
_cell_volume   203.11530629
_cell_formula_units_Z   1
loop_
 _symmetry_equiv_pos_site_id
 _symmetry_equiv_pos_as_xyz
  1  'x, y, z'
loop_
 _atom_site_type_symbol
 _atom_site_label
 _atom_site_symmetry_multiplicity
 _atom_site_fract_x
 _atom_site_fract_y
 _atom_site_fract_z
 _atom_site_occupancy
  Th  Th0  1  0.412063  0.412276  0.500000  1
  Th  Th1  1  0.587937  0.000214  0.500000  1
  Th  Th2  1  0.000000  0.577779  0.500000  1
  Mg  Mg3  1  0.763226  0.763379  0.000000  1
  Mg  Mg4  1  0.236774  0.000152  0.000000  1
  Al  Al5  1  0.000000  0.235478  0.000000  1
  Pt  Pt6  1  0.675570  0.334091  0.000000  1
  Pt  Pt7  1  0.324430  0.658521  0.000000  1
  Pt  Pt8  1  0.000000  0.018110  0.500000  1
