# generated using pymatgen
data_Er19Lu(Ir3Os)3
_symmetry_space_group_name_H-M   'P 1'
_cell_length_a   10.75946600
_cell_length_b   10.75868900
_cell_length_c   6.35882000
_cell_angle_alpha   90.00000000
_cell_angle_beta   90.00000000
_cell_angle_gamma   89.99906274
_symmetry_Int_Tables_number   1
_chemical_formula_structural   Er19Lu(Ir3Os)3
_chemical_formula_sum   'Er19 Lu1 Ir9 Os3'
_cell_volume   736.08268627
_cell_formula_units_Z   1
loop_
 _symmetry_equiv_pos_site_id
 _symmetry_equiv_pos_as_xyz
  1  'x, y, z'
loop_
 _atom_site_type_symbol
 _atom_site_label
 _atom_site_symmetry_multiplicity
 _atom_site_fract_x
 _atom_site_fract_y
 _atom_site_fract_z
 _atom_site_occupancy
  Er  Er0  1  0.293440  0.086158  0.376813  1
  Er  Er1  1  0.293646  0.914007  0.876797  1
  Er  Er2  1  0.706354  0.085993  0.876797  1
  Er  Er3  1  0.706560  0.913842  0.376813  1
  Er  Er4  1  0.585987  0.793776  0.876912  1
  Er  Er5  1  0.586296  0.206221  0.376799  1
  Er  Er6  1  0.413704  0.793779  0.376799  1
  Er  Er7  1  0.414013  0.206224  0.876912  1
  Er  Er8  1  0.207953  0.413241  0.624780  1
  Er  Er9  1  0.207573  0.586930  0.120857  1
  Er  Er10  1  0.792427  0.413070  0.120857  1
  Er  Er11  1  0.792047  0.586759  0.624780  1
  Er  Er12  1  0.913124  0.707711  0.121010  1
  Er  Er13  1  0.913333  0.291704  0.624781  1
  Er  Er14  1  0.086667  0.708296  0.624781  1
  Er  Er15  1  0.086876  0.292289  0.121010  1
  Er  Er16  1  0.000000  0.000000  0.999894  1
  Er  Er17  1  0.500000  0.500000  0.999865  1
  Er  Er18  1  0.500000  0.500000  0.499688  1
  Lu  Lu19  1  0.000000  0.000000  0.499714  1
  Ir  Ir20  1  0.848493  0.152825  0.250976  1
  Ir  Ir21  1  0.848282  0.847420  0.749047  1
  Ir  Ir22  1  0.151718  0.152580  0.749047  1
  Ir  Ir23  1  0.151507  0.847175  0.250976  1
  Ir  Ir24  1  0.652999  0.347889  0.749692  1
  Ir  Ir25  1  0.653213  0.651884  0.250291  1
  Ir  Ir26  1  0.346787  0.348116  0.250291  1
  Ir  Ir27  1  0.347001  0.652111  0.749692  1
  Ir  Ir28  1  0.000000  0.500000  0.379020  1
  Os  Os29  1  0.500000  0.000000  0.123468  1
  Os  Os30  1  0.500000  0.000000  0.623152  1
  Os  Os31  1  0.000000  0.500000  0.877688  1
