# generated using pymatgen
data_La4LuRuRh
_symmetry_space_group_name_H-M   'P 1'
_cell_length_a   6.59240914
_cell_length_b   7.27774369
_cell_length_c   9.17586900
_cell_angle_alpha   95.20740975
_cell_angle_beta   111.05261595
_cell_angle_gamma   90.00000003
_symmetry_Int_Tables_number   1
_chemical_formula_structural   La4LuRuRh
_chemical_formula_sum   'La8 Lu2 Ru2 Rh2'
_cell_volume   408.90551401
_cell_formula_units_Z   2
loop_
 _symmetry_equiv_pos_site_id
 _symmetry_equiv_pos_as_xyz
  1  'x, y, z'
loop_
 _atom_site_type_symbol
 _atom_site_label
 _atom_site_symmetry_multiplicity
 _atom_site_fract_x
 _atom_site_fract_y
 _atom_site_fract_z
 _atom_site_occupancy
  La  La0  1  0.810155  0.583845  0.817468  1
  La  La1  1  0.992687  0.916155  0.182532  1
  La  La2  1  0.203149  0.409500  0.182665  1
  La  La3  1  0.020485  0.090500  0.817335  1
  La  La4  1  0.214887  0.682581  0.582494  1
  La  La5  1  0.632394  0.817419  0.417506  1
  La  La6  1  0.784989  0.313242  0.426355  1
  La  La7  1  0.358633  0.186758  0.573645  1
  Lu  Lu8  1  0.435352  0.750000  0.000000  1
  Lu  Lu9  1  0.567815  0.250000  0.000000  1
  Ru  Ru10  1  0.398575  0.075529  0.216726  1
  Ru  Ru11  1  0.181850  0.424471  0.783274  1
  Rh  Rh12  1  0.595124  0.924470  0.791216  1
  Rh  Rh13  1  0.803907  0.575530  0.208784  1
