# generated using pymatgen
data_Sr12Ta3IrO22
_symmetry_space_group_name_H-M   'P 1'
_cell_length_a   6.04187828
_cell_length_b   6.02425276
_cell_length_c   23.95827200
_cell_angle_alpha   58.52025922
_cell_angle_beta   59.04667969
_cell_angle_gamma   59.99685435
_symmetry_Int_Tables_number   1
_chemical_formula_structural   Sr12Ta3IrO22
_chemical_formula_sum   'Sr12 Ta3 Ir1 O22'
_cell_volume   604.99523923
_cell_formula_units_Z   1
loop_
 _symmetry_equiv_pos_site_id
 _symmetry_equiv_pos_as_xyz
  1  'x, y, z'
loop_
 _atom_site_type_symbol
 _atom_site_label
 _atom_site_symmetry_multiplicity
 _atom_site_fract_x
 _atom_site_fract_y
 _atom_site_fract_z
 _atom_site_occupancy
  Sr  Sr0  1  0.115635  0.333952  0.077013  1
  Sr  Sr1  1  0.441776  0.613841  0.108226  1
  Sr  Sr2  1  0.181599  0.356704  0.291215  1
  Sr  Sr3  1  0.367110  0.543044  0.388198  1
  Sr  Sr4  1  0.631022  0.801470  0.204277  1
  Sr  Sr5  1  0.218095  0.240525  0.581186  1
  Sr  Sr6  1  0.506225  0.512480  0.609083  1
  Sr  Sr7  1  0.224986  0.297457  0.791133  1
  Sr  Sr8  1  0.647631  0.859610  0.420331  1
  Sr  Sr9  1  0.457984  0.476023  0.888206  1
  Sr  Sr10  1  0.683844  0.742958  0.706622  1
  Sr  Sr11  1  0.728738  0.764603  0.915299  1
  Ta  Ta12  1  0.001026  0.048241  0.997678  1
  Ta  Ta13  1  0.906216  0.080159  0.248704  1
  Ta  Ta14  1  0.935138  0.967958  0.499037  1
  Ir  Ir15  1  0.965566  0.012005  0.748456  1
  O  O16  1  0.087419  0.379033  0.183561  1
  O  O17  1  0.209277  0.846094  0.191643  1
  O  O18  1  0.812681  0.376875  0.025580  1
  O  O19  1  0.785146  0.833087  0.078498  1
  O  O20  1  0.688619  0.230067  0.187589  1
  O  O21  1  0.607348  0.330845  0.300850  1
  O  O22  1  0.144906  0.189481  0.418286  1
  O  O23  1  0.111807  0.929403  0.312793  1
  O  O24  1  0.733671  0.774028  0.314517  1
  O  O25  1  0.606563  0.161036  0.470406  1
  O  O26  1  0.727563  0.065251  0.579831  1
  O  O27  1  0.146244  0.788059  0.686274  1
  O  O28  1  0.263189  0.711423  0.528371  1
  O  O29  1  0.329793  0.046432  0.998017  1
  O  O30  1  0.934666  0.637983  0.499501  1
  O  O31  1  0.754178  0.323297  0.685437  1
  O  O32  1  0.255086  0.187801  0.694596  1
  O  O33  1  0.783058  0.229620  0.810066  1
  O  O34  1  0.255340  0.722233  0.968128  1
  O  O35  1  0.188093  0.707882  0.810354  1
  O  O36  1  0.661052  0.848425  0.804143  1
  O  O37  1  0.897217  0.262111  0.917117  1
