# generated using pymatgen
data_Sr3Cd2HgAu3
_symmetry_space_group_name_H-M   'P 1'
_cell_length_a   8.27892200
_cell_length_b   8.14861498
_cell_length_c   4.24103300
_cell_angle_alpha   90.00000000
_cell_angle_beta   90.00000000
_cell_angle_gamma   120.53041328
_symmetry_Int_Tables_number   1
_chemical_formula_structural   Sr3Cd2HgAu3
_chemical_formula_sum   'Sr3 Cd2 Hg1 Au3'
_cell_volume   246.44144984
_cell_formula_units_Z   1
loop_
 _symmetry_equiv_pos_site_id
 _symmetry_equiv_pos_as_xyz
  1  'x, y, z'
loop_
 _atom_site_type_symbol
 _atom_site_label
 _atom_site_symmetry_multiplicity
 _atom_site_fract_x
 _atom_site_fract_y
 _atom_site_fract_z
 _atom_site_occupancy
  Sr  Sr0  1  0.407908  0.000000  0.000000  1
  Sr  Sr1  1  0.599588  0.605945  0.000000  1
  Sr  Sr2  1  0.993643  0.394055  0.000000  1
  Cd  Cd3  1  0.258305  0.254803  0.500000  1
  Cd  Cd4  1  0.003501  0.745197  0.500000  1
  Hg  Hg5  1  0.739898  0.000000  0.500000  1
  Au  Au6  1  0.664991  0.343859  0.500000  1
  Au  Au7  1  0.321130  0.656141  0.500000  1
  Au  Au8  1  0.011036  0.000000  0.000000  1
