# generated using pymatgen
data_TmScCo9CuP6
_symmetry_space_group_name_H-M   'P 1'
_cell_length_a   3.62510000
_cell_length_b   10.17579400
_cell_length_c   11.73389000
_cell_angle_alpha   90.00000000
_cell_angle_beta   90.00000000
_cell_angle_gamma   90.00000000
_symmetry_Int_Tables_number   1
_chemical_formula_structural   TmScCo9CuP6
_chemical_formula_sum   'Tm2 Sc2 Co18 Cu2 P12'
_cell_volume   432.84291220
_cell_formula_units_Z   2
loop_
 _symmetry_equiv_pos_site_id
 _symmetry_equiv_pos_as_xyz
  1  'x, y, z'
loop_
 _atom_site_type_symbol
 _atom_site_label
 _atom_site_symmetry_multiplicity
 _atom_site_fract_x
 _atom_site_fract_y
 _atom_site_fract_z
 _atom_site_occupancy
  Tm  Tm0  1  0.750000  0.419096  0.296146  1
  Tm  Tm1  1  0.750000  0.080904  0.796146  1
  Sc  Sc2  1  0.250000  0.577968  0.701988  1
  Sc  Sc3  1  0.250000  0.922032  0.201988  1
  Co  Co4  1  0.750000  0.285994  0.008692  1
  Co  Co5  1  0.750000  0.214006  0.508692  1
  Co  Co6  1  0.250000  0.406609  0.487442  1
  Co  Co7  1  0.250000  0.093391  0.987442  1
  Co  Co8  1  0.750000  0.592694  0.519159  1
  Co  Co9  1  0.750000  0.907306  0.019159  1
  Co  Co10  1  0.250000  0.223071  0.175670  1
  Co  Co11  1  0.250000  0.276929  0.675670  1
  Co  Co12  1  0.750000  0.777456  0.826064  1
  Co  Co13  1  0.750000  0.722544  0.326064  1
  Co  Co14  1  0.250000  0.880076  0.699127  1
  Co  Co15  1  0.250000  0.619924  0.199127  1
  Co  Co16  1  0.750000  0.118970  0.298594  1
  Co  Co17  1  0.750000  0.381030  0.798594  1
  Co  Co18  1  0.250000  0.466453  0.929437  1
  Co  Co19  1  0.250000  0.033547  0.429437  1
  Co  Co20  1  0.750000  0.537571  0.065647  1
  Co  Co21  1  0.750000  0.962429  0.565647  1
  Cu  Cu22  1  0.250000  0.712556  0.991445  1
  Cu  Cu23  1  0.250000  0.787444  0.491445  1
  P  P24  1  0.250000  0.421325  0.111374  1
  P  P25  1  0.250000  0.078675  0.611374  1
  P  P26  1  0.750000  0.576656  0.880158  1
  P  P27  1  0.750000  0.923344  0.380158  1
  P  P28  1  0.250000  0.267424  0.868615  1
  P  P29  1  0.250000  0.232576  0.368615  1
  P  P30  1  0.750000  0.735776  0.139995  1
  P  P31  1  0.750000  0.764224  0.639995  1
  P  P32  1  0.250000  0.598506  0.391074  1
  P  P33  1  0.250000  0.901494  0.891074  1
  P  P34  1  0.750000  0.399324  0.609374  1
  P  P35  1  0.750000  0.100676  0.109374  1
