# generated using pymatgen
data_Sr4PrNd(CoO3)4
_symmetry_space_group_name_H-M   'P 1'
_cell_length_a   6.58831003
_cell_length_b   6.58283788
_cell_length_c   6.57634816
_cell_angle_alpha   92.00795428
_cell_angle_beta   91.91217434
_cell_angle_gamma   91.77646707
_symmetry_Int_Tables_number   1
_chemical_formula_structural   Sr4PrNd(CoO3)4
_chemical_formula_sum   'Sr4 Pr1 Nd1 Co4 O12'
_cell_volume   284.73310678
_cell_formula_units_Z   1
loop_
 _symmetry_equiv_pos_site_id
 _symmetry_equiv_pos_as_xyz
  1  'x, y, z'
loop_
 _atom_site_type_symbol
 _atom_site_label
 _atom_site_symmetry_multiplicity
 _atom_site_fract_x
 _atom_site_fract_y
 _atom_site_fract_z
 _atom_site_occupancy
  Sr  Sr0  1  0.249694  0.619219  0.884361  1
  Sr  Sr1  1  0.612482  0.882251  0.249087  1
  Sr  Sr2  1  0.382269  0.113477  0.750105  1
  Sr  Sr3  1  0.118755  0.750130  0.384671  1
  Pr  Pr4  1  0.887551  0.251133  0.614784  1
  Nd  Nd5  1  0.751554  0.387703  0.114801  1
  Co  Co6  1  0.993975  0.003121  0.002284  1
  Co  Co7  1  0.745914  0.754516  0.748679  1
  Co  Co8  1  0.504169  0.495013  0.500519  1
  Co  Co9  1  0.255961  0.247202  0.246979  1
  O  O10  1  0.216797  0.406436  0.543008  1
  O  O11  1  0.418457  0.530362  0.215429  1
  O  O12  1  0.553251  0.217902  0.411220  1
  O  O13  1  0.904277  0.714854  0.044196  1
  O  O14  1  0.716836  0.054545  0.913661  1
  O  O15  1  0.029792  0.914478  0.717728  1
  O  O16  1  0.787225  0.570201  0.450269  1
  O  O17  1  0.603913  0.452681  0.784384  1
  O  O18  1  0.468478  0.777592  0.592725  1
  O  O19  1  0.071526  0.286457  0.953322  1
  O  O20  1  0.275555  0.966597  0.093819  1
  O  O21  1  0.951566  0.104130  0.283969  1
