# generated using pymatgen
data_Tm8HfSi16W11
_symmetry_space_group_name_H-M   'P 1'
_cell_length_a   6.72836370
_cell_length_b   6.92412454
_cell_length_c   12.96558940
_cell_angle_alpha   89.91132916
_cell_angle_beta   90.05308852
_cell_angle_gamma   90.05706514
_symmetry_Int_Tables_number   1
_chemical_formula_structural   Tm8HfSi16W11
_chemical_formula_sum   'Tm8 Hf1 Si16 W11'
_cell_volume   604.03996316
_cell_formula_units_Z   1
loop_
 _symmetry_equiv_pos_site_id
 _symmetry_equiv_pos_as_xyz
  1  'x, y, z'
loop_
 _atom_site_type_symbol
 _atom_site_label
 _atom_site_symmetry_multiplicity
 _atom_site_fract_x
 _atom_site_fract_y
 _atom_site_fract_z
 _atom_site_occupancy
  Tm  Tm0  1  0.997961  0.170304  0.093493  1
  Tm  Tm1  1  0.002952  0.831805  0.905202  1
  Tm  Tm2  1  0.500882  0.667198  0.906425  1
  Tm  Tm3  1  0.003723  0.830486  0.593228  1
  Tm  Tm4  1  0.498706  0.328283  0.094279  1
  Tm  Tm5  1  0.997730  0.171759  0.408408  1
  Tm  Tm6  1  0.497484  0.328775  0.407988  1
  Tm  Tm7  1  0.502824  0.668527  0.593416  1
  Hf  Hf8  1  0.168155  0.669054  0.124464  1
  Si  Si9  1  0.033252  0.126397  0.748942  1
  Si  Si10  1  0.964311  0.880021  0.254470  1
  Si  Si11  1  0.471547  0.625151  0.252952  1
  Si  Si12  1  0.530977  0.372418  0.748763  1
  Si  Si13  1  0.300925  0.864080  0.749358  1
  Si  Si14  1  0.702156  0.136266  0.250585  1
  Si  Si15  1  0.203932  0.362100  0.250723  1
  Si  Si16  1  0.799430  0.635422  0.749888  1
  Si  Si17  1  0.163925  0.457175  0.545384  1
  Si  Si18  1  0.835887  0.543718  0.456717  1
  Si  Si19  1  0.336520  0.957852  0.455513  1
  Si  Si20  1  0.829443  0.541462  0.041228  1
  Si  Si21  1  0.662393  0.040588  0.547326  1
  Si  Si22  1  0.160707  0.454595  0.950402  1
  Si  Si23  1  0.662565  0.039491  0.953342  1
  Si  Si24  1  0.341513  0.965946  0.041939  1
  W  W25  1  0.159882  0.496417  0.748625  1
  W  W26  1  0.841685  0.506306  0.252257  1
  W  W27  1  0.338234  0.998704  0.252679  1
  W  W28  1  0.665589  0.998235  0.749400  1
  W  W29  1  0.329019  0.162343  0.624078  1
  W  W30  1  0.668623  0.837516  0.376590  1
  W  W31  1  0.168959  0.660786  0.377793  1
  W  W32  1  0.670964  0.834169  0.125268  1
  W  W33  1  0.828673  0.338290  0.624689  1
  W  W34  1  0.333358  0.163378  0.871040  1
  W  W35  1  0.825113  0.334981  0.873146  1
