# generated using pymatgen
data_Er4Al11Si7Os5Pd
_symmetry_space_group_name_H-M   'P 1'
_cell_length_a   7.49925360
_cell_length_b   7.45073680
_cell_length_c   9.28930821
_cell_angle_alpha   90.03331115
_cell_angle_beta   90.01012244
_cell_angle_gamma   120.03469860
_symmetry_Int_Tables_number   1
_chemical_formula_structural   Er4Al11Si7Os5Pd
_chemical_formula_sum   'Er4 Al11 Si7 Os5 Pd1'
_cell_volume   449.34423503
_cell_formula_units_Z   1
loop_
 _symmetry_equiv_pos_site_id
 _symmetry_equiv_pos_as_xyz
  1  'x, y, z'
loop_
 _atom_site_type_symbol
 _atom_site_label
 _atom_site_symmetry_multiplicity
 _atom_site_fract_x
 _atom_site_fract_y
 _atom_site_fract_z
 _atom_site_occupancy
  Er  Er0  1  0.996796  0.666053  0.252341  1
  Er  Er1  1  0.006199  0.336120  0.749896  1
  Er  Er2  1  0.680573  0.007288  0.250915  1
  Er  Er3  1  0.317085  0.994795  0.748018  1
  Al  Al4  1  0.663332  0.991635  0.579954  1
  Al  Al5  1  0.661147  0.995836  0.922864  1
  Al  Al6  1  0.341301  0.004248  0.071703  1
  Al  Al7  1  0.334936  0.337743  0.563479  1
  Al  Al8  1  0.660482  0.670076  0.435342  1
  Al  Al9  1  0.662416  0.665899  0.059006  1
  Al  Al10  1  0.339782  0.333983  0.941066  1
  Al  Al11  1  0.333892  0.547257  0.248979  1
  Al  Al12  1  0.669646  0.455520  0.753729  1
  Al  Al13  1  0.544038  0.336994  0.247762  1
  Al  Al14  1  0.450174  0.660774  0.749577  1
  Si  Si15  1  0.131377  0.125053  0.248907  1
  Si  Si16  1  0.870163  0.877513  0.750580  1
  Si  Si17  1  0.002981  0.329650  0.066104  1
  Si  Si18  1  0.997903  0.668293  0.936100  1
  Si  Si19  1  0.995228  0.670096  0.574920  1
  Si  Si20  1  0.332444  0.999161  0.423498  1
  Si  Si21  1  0.010532  0.329752  0.426047  1
  Os  Os22  1  0.690667  0.335912  0.003267  1
  Os  Os23  1  0.310387  0.662401  0.998750  1
  Os  Os24  1  0.309459  0.670988  0.499278  1
  Os  Os25  1  0.001301  0.999131  0.000848  1
  Os  Os26  1  0.006386  0.998900  0.498364  1
  Pd  Pd27  1  0.679373  0.328932  0.498707  1
