# generated using pymatgen
data_Li28ScSi8Ag
_symmetry_space_group_name_H-M   'P 1'
_cell_length_a   9.18955670
_cell_length_b   9.18955759
_cell_length_c   9.18955703
_cell_angle_alpha   109.53750821
_cell_angle_beta   109.53751148
_cell_angle_gamma   109.33872793
_symmetry_Int_Tables_number   1
_chemical_formula_structural   Li28ScSi8Ag
_chemical_formula_sum   'Li28 Sc1 Si8 Ag1'
_cell_volume   597.39294096
_cell_formula_units_Z   1
loop_
 _symmetry_equiv_pos_site_id
 _symmetry_equiv_pos_as_xyz
  1  'x, y, z'
loop_
 _atom_site_type_symbol
 _atom_site_label
 _atom_site_symmetry_multiplicity
 _atom_site_fract_x
 _atom_site_fract_y
 _atom_site_fract_z
 _atom_site_occupancy
  Li  Li0  1  0.066602  0.542911  0.278307  1
  Li  Li1  1  0.264604  0.788296  0.721693  1
  Li  Li2  1  0.181698  0.960041  0.969831  1
  Li  Li3  1  0.990210  0.211866  0.030169  1
  Li  Li4  1  0.039959  0.009790  0.221656  1
  Li  Li5  1  0.788134  0.818302  0.778344  1
  Li  Li6  1  0.457089  0.735396  0.523692  1
  Li  Li7  1  0.211704  0.933398  0.476308  1
  Li  Li8  1  0.709021  0.351376  0.058334  1
  Li  Li9  1  0.970310  0.409812  0.883768  1
  Li  Li10  1  0.293042  0.650687  0.941666  1
  Li  Li11  1  0.526044  0.086543  0.116232  1
  Li  Li12  1  0.684333  0.846771  0.092261  1
  Li  Li13  1  0.476179  0.883530  0.329203  1
  Li  Li14  1  0.554327  0.146976  0.670797  1
  Li  Li15  1  0.754509  0.592071  0.907739  1
  Li  Li16  1  0.853024  0.523821  0.407352  1
  Li  Li17  1  0.407929  0.315667  0.162439  1
  Li  Li18  1  0.153229  0.245491  0.837561  1
  Li  Li19  1  0.116470  0.445673  0.592648  1
  Li  Li20  1  0.913457  0.029690  0.439502  1
  Li  Li21  1  0.349313  0.290979  0.642355  1
  Li  Li22  1  0.590188  0.473956  0.560498  1
  Li  Li23  1  0.648624  0.706958  0.357645  1
  Li  Li24  1  0.002646  0.877788  0.627289  1
  Li  Li25  1  0.250500  0.375358  0.372711  1
  Li  Li26  1  0.122212  0.749500  0.124858  1
  Li  Li27  1  0.624642  0.997354  0.875142  1
  Sc  Sc28  1  0.750000  0.250000  0.500000  1
  Si  Si29  1  0.287643  0.535333  0.165984  1
  Si  Si30  1  0.369349  0.121659  0.834016  1
  Si  Si31  1  0.951960  0.614375  0.742464  1
  Si  Si32  1  0.871911  0.209496  0.257536  1
  Si  Si33  1  0.385625  0.128089  0.337586  1
  Si  Si34  1  0.790504  0.048040  0.662414  1
  Si  Si35  1  0.464667  0.630651  0.752309  1
  Si  Si36  1  0.878341  0.712357  0.247691  1
  Ag  Ag37  1  0.500000  0.500000  0.000000  1
