# generated using pymatgen
data_Yb2YTm(Al8Pt3)3
_symmetry_space_group_name_H-M   'P 1'
_cell_length_a   7.53294134
_cell_length_b   7.55075902
_cell_length_c   13.24481063
_cell_angle_alpha   84.64001900
_cell_angle_beta   79.11363527
_cell_angle_gamma   59.75133248
_symmetry_Int_Tables_number   1
_chemical_formula_structural   Yb2YTm(Al8Pt3)3
_chemical_formula_sum   'Yb2 Y1 Tm1 Al24 Pt9'
_cell_volume   639.07246694
_cell_formula_units_Z   1
loop_
 _symmetry_equiv_pos_site_id
 _symmetry_equiv_pos_as_xyz
  1  'x, y, z'
loop_
 _atom_site_type_symbol
 _atom_site_label
 _atom_site_symmetry_multiplicity
 _atom_site_fract_x
 _atom_site_fract_y
 _atom_site_fract_z
 _atom_site_occupancy
  Yb  Yb0  1  0.605657  0.831143  0.192700  1
  Yb  Yb1  1  0.733813  0.499485  0.807499  1
  Y  Y2  1  0.395010  0.167859  0.808144  1
  Tm  Tm3  1  0.266753  0.500626  0.192876  1
  Al  Al4  1  0.684608  0.833382  0.945998  1
  Al  Al5  1  0.315602  0.166658  0.056014  1
  Al  Al6  1  0.147447  0.831536  0.560744  1
  Al  Al7  1  0.852573  0.168680  0.438934  1
  Al  Al8  1  0.480128  0.166036  0.558541  1
  Al  Al9  1  0.520277  0.833894  0.440981  1
  Al  Al10  1  0.217558  0.164869  0.328703  1
  Al  Al11  1  0.782647  0.834472  0.670779  1
  Al  Al12  1  0.436845  0.507334  0.670412  1
  Al  Al13  1  0.563466  0.493177  0.328708  1
  Al  Al14  1  0.109111  0.160416  0.668849  1
  Al  Al15  1  0.890358  0.839679  0.330488  1
  Al  Al16  1  0.352247  0.500123  0.945524  1
  Al  Al17  1  0.647382  0.500144  0.054696  1
  Al  Al18  1  0.015140  0.167761  0.954622  1
  Al  Al19  1  0.984691  0.831805  0.046393  1
  Al  Al20  1  0.186318  0.499931  0.441058  1
  Al  Al21  1  0.814013  0.500209  0.558560  1
  Al  Al22  1  0.731515  0.167810  0.183209  1
  Al  Al23  1  0.265208  0.837214  0.816858  1
  Al  Al24  1  0.063395  0.630138  0.815696  1
  Al  Al25  1  0.940918  0.368151  0.184238  1
  Al  Al26  1  0.853981  0.040418  0.816140  1
  Al  Al27  1  0.143585  0.956962  0.183695  1
  Pt  Pt28  1  0.120171  0.492295  0.637970  1
  Pt  Pt29  1  0.880310  0.507772  0.361470  1
  Pt  Pt30  1  0.657576  0.171223  0.999751  1
  Pt  Pt31  1  0.342271  0.828921  0.000468  1
  Pt  Pt32  1  0.537769  0.167270  0.361529  1
  Pt  Pt33  1  0.461473  0.833146  0.637907  1
  Pt  Pt34  1  0.780038  0.174066  0.636666  1
  Pt  Pt35  1  0.219857  0.825490  0.362961  1
  Pt  Pt36  1  0.000292  0.499906  0.000219  1
