# generated using pymatgen
data_Nd16Dy3TmSn16
_symmetry_space_group_name_H-M   'P 1'
_cell_length_a   8.23528401
_cell_length_b   8.38892001
_cell_length_c   15.92658900
_cell_angle_alpha   90.00000000
_cell_angle_beta   90.00000000
_cell_angle_gamma   89.99556771
_symmetry_Int_Tables_number   1
_chemical_formula_structural   Nd16Dy3TmSn16
_chemical_formula_sum   'Nd16 Dy3 Tm1 Sn16'
_cell_volume   1100.29060769
_cell_formula_units_Z   1
loop_
 _symmetry_equiv_pos_site_id
 _symmetry_equiv_pos_as_xyz
  1  'x, y, z'
loop_
 _atom_site_type_symbol
 _atom_site_label
 _atom_site_symmetry_multiplicity
 _atom_site_fract_x
 _atom_site_fract_y
 _atom_site_fract_z
 _atom_site_occupancy
  Nd  Nd0  1  0.017963  0.180959  0.401395  1
  Nd  Nd1  1  0.367852  0.837458  0.120902  1
  Nd  Nd2  1  0.131928  0.337601  0.620900  1
  Nd  Nd3  1  0.482161  0.680893  0.901373  1
  Nd  Nd4  1  0.867873  0.662558  0.120849  1
  Nd  Nd5  1  0.131928  0.337601  0.879100  1
  Nd  Nd6  1  0.482161  0.680893  0.598627  1
  Nd  Nd7  1  0.632255  0.162674  0.620923  1
  Nd  Nd8  1  0.867873  0.662558  0.379151  1
  Nd  Nd9  1  0.017963  0.180959  0.098605  1
  Nd  Nd10  1  0.981985  0.818948  0.901402  1
  Nd  Nd11  1  0.632255  0.162674  0.879077  1
  Nd  Nd12  1  0.517938  0.319027  0.098588  1
  Nd  Nd13  1  0.367852  0.837458  0.379098  1
  Nd  Nd14  1  0.981985  0.818948  0.598598  1
  Nd  Nd15  1  0.517938  0.319027  0.401412  1
  Dy  Dy16  1  0.199148  0.502041  0.250000  1
  Dy  Dy17  1  0.699152  0.997921  0.250000  1
  Dy  Dy18  1  0.300867  0.002003  0.750000  1
  Tm  Tm19  1  0.800529  0.497922  0.750000  1
  Sn  Sn20  1  0.791943  0.464912  0.543940  1
  Sn  Sn21  1  0.708068  0.964867  0.456254  1
  Sn  Sn22  1  0.675433  0.853168  0.750000  1
  Sn  Sn23  1  0.208068  0.535177  0.456253  1
  Sn  Sn24  1  0.291932  0.035103  0.956229  1
  Sn  Sn25  1  0.824568  0.353672  0.250000  1
  Sn  Sn26  1  0.791943  0.464912  0.956060  1
  Sn  Sn27  1  0.564597  0.616429  0.250000  1
  Sn  Sn28  1  0.208068  0.535177  0.043747  1
  Sn  Sn29  1  0.435891  0.383658  0.750000  1
  Sn  Sn30  1  0.175322  0.646286  0.750000  1
  Sn  Sn31  1  0.935351  0.116568  0.750000  1
  Sn  Sn32  1  0.291932  0.035103  0.543771  1
  Sn  Sn33  1  0.708068  0.964867  0.043746  1
  Sn  Sn34  1  0.324634  0.146400  0.250000  1
  Sn  Sn35  1  0.064576  0.883577  0.250000  1
