# generated using pymatgen
data_Ti15CuAs12
_symmetry_space_group_name_H-M   'P 1'
_cell_length_a   7.30610448
_cell_length_b   7.30610451
_cell_length_c   18.81081497
_cell_angle_alpha   89.72620383
_cell_angle_beta   90.27379614
_cell_angle_gamma   152.01466796
_symmetry_Int_Tables_number   1
_chemical_formula_structural   Ti15CuAs12
_chemical_formula_sum   'Ti15 Cu1 As12'
_cell_volume   471.16630898
_cell_formula_units_Z   1
loop_
 _symmetry_equiv_pos_site_id
 _symmetry_equiv_pos_as_xyz
  1  'x, y, z'
loop_
 _atom_site_type_symbol
 _atom_site_label
 _atom_site_symmetry_multiplicity
 _atom_site_fract_x
 _atom_site_fract_y
 _atom_site_fract_z
 _atom_site_occupancy
  Ti  Ti0  1  0.732745  0.267255  0.163569  1
  Ti  Ti1  1  0.267255  0.732745  0.836431  1
  Ti  Ti2  1  0.266660  0.733340  0.660642  1
  Ti  Ti3  1  0.733340  0.266660  0.339358  1
  Ti  Ti4  1  0.536009  0.463991  0.120388  1
  Ti  Ti5  1  0.463991  0.536009  0.879612  1
  Ti  Ti6  1  0.463141  0.536859  0.615511  1
  Ti  Ti7  1  0.536859  0.463141  0.384489  1
  Ti  Ti8  1  0.664313  0.335687  0.973659  1
  Ti  Ti9  1  0.335687  0.664313  0.026341  1
  Ti  Ti10  1  0.338978  0.661022  0.473128  1
  Ti  Ti11  1  0.661022  0.338978  0.526872  1
  Ti  Ti12  1  0.000000  0.000000  0.000000  1
  Ti  Ti13  1  0.061225  0.938775  0.748864  1
  Ti  Ti14  1  0.938775  0.061225  0.251136  1
  Cu  Cu15  1  0.000000  0.000000  0.500000  1
  As  As16  1  0.901975  0.098025  0.117047  1
  As  As17  1  0.098025  0.901975  0.882953  1
  As  As18  1  0.095021  0.904979  0.615082  1
  As  As19  1  0.904979  0.095021  0.384918  1
  As  As20  1  0.839921  0.160079  0.924035  1
  As  As21  1  0.160079  0.839921  0.075965  1
  As  As22  1  0.163588  0.836412  0.425445  1
  As  As23  1  0.836412  0.163588  0.574555  1
  As  As24  1  0.700033  0.299967  0.748437  1
  As  As25  1  0.299967  0.700033  0.251563  1
  As  As26  1  0.419626  0.580374  0.747630  1
  As  As27  1  0.580374  0.419626  0.252370  1
