# generated using pymatgen
data_LiHo3ZnIn3Ir
_symmetry_space_group_name_H-M   'P 1'
_cell_length_a   7.91322600
_cell_length_b   7.91322536
_cell_length_c   3.64619700
_cell_angle_alpha   90.00000000
_cell_angle_beta   90.00000000
_cell_angle_gamma   120.00000269
_symmetry_Int_Tables_number   1
_chemical_formula_structural   LiHo3ZnIn3Ir
_chemical_formula_sum   'Li1 Ho3 Zn1 In3 Ir1'
_cell_volume   197.73240679
_cell_formula_units_Z   1
loop_
 _symmetry_equiv_pos_site_id
 _symmetry_equiv_pos_as_xyz
  1  'x, y, z'
loop_
 _atom_site_type_symbol
 _atom_site_label
 _atom_site_symmetry_multiplicity
 _atom_site_fract_x
 _atom_site_fract_y
 _atom_site_fract_z
 _atom_site_occupancy
  Li  Li0  1  0.000000  0.000000  0.500000  1
  Ho  Ho1  1  0.392047  0.973576  0.500000  1
  Ho  Ho2  1  0.026424  0.418471  0.500000  1
  Ho  Ho3  1  0.581529  0.607953  0.500000  1
  Zn  Zn4  1  0.666667  0.333333  0.000000  1
  In  In5  1  0.742203  0.010940  0.000000  1
  In  In6  1  0.989060  0.731262  0.000000  1
  In  In7  1  0.268738  0.257797  0.000000  1
  Ir  Ir8  1  0.333333  0.666667  0.000000  1
