# generated using pymatgen
data_Yb8Al3(GaO4)5
_symmetry_space_group_name_H-M   'P 1'
_cell_length_a   5.41893116
_cell_length_b   8.25000563
_cell_length_c   10.49087800
_cell_angle_alpha   108.52993064
_cell_angle_beta   90.00691919
_cell_angle_gamma   109.07022214
_symmetry_Int_Tables_number   1
_chemical_formula_structural   Yb8Al3(GaO4)5
_chemical_formula_sum   'Yb8 Al3 Ga5 O20'
_cell_volume   417.45025146
_cell_formula_units_Z   1
loop_
 _symmetry_equiv_pos_site_id
 _symmetry_equiv_pos_as_xyz
  1  'x, y, z'
loop_
 _atom_site_type_symbol
 _atom_site_label
 _atom_site_symmetry_multiplicity
 _atom_site_fract_x
 _atom_site_fract_y
 _atom_site_fract_z
 _atom_site_occupancy
  Yb  Yb0  1  0.372227  0.790221  0.446389  1
  Yb  Yb1  1  0.373050  0.791487  0.946444  1
  Yb  Yb2  1  0.627877  0.209814  0.551596  1
  Yb  Yb3  1  0.626833  0.208523  0.050480  1
  Yb  Yb4  1  0.080978  0.209680  0.300985  1
  Yb  Yb5  1  0.081606  0.208923  0.799274  1
  Yb  Yb6  1  0.918093  0.790850  0.694054  1
  Yb  Yb7  1  0.919275  0.790463  0.196926  1
  Al  Al8  1  0.499715  0.999434  0.748592  1
  Al  Al9  1  0.500312  0.000548  0.255440  1
  Al  Al10  1  0.000002  0.000053  0.501377  1
  Ga  Ga11  1  0.999971  0.999950  0.002310  1
  Ga  Ga12  1  0.320588  0.503856  0.101231  1
  Ga  Ga13  1  0.318404  0.499825  0.599404  1
  Ga  Ga14  1  0.679914  0.497028  0.848966  1
  Ga  Ga15  1  0.681045  0.499345  0.349897  1
  O  O16  1  0.302863  0.726281  0.691148  1
  O  O17  1  0.306744  0.728939  0.197483  1
  O  O18  1  0.696644  0.274677  0.334625  1
  O  O19  1  0.693820  0.270187  0.826306  1
  O  O20  1  0.079120  0.274170  0.581997  1
  O  O21  1  0.073373  0.283387  0.087171  1
  O  O22  1  0.920909  0.726027  0.443169  1
  O  O23  1  0.926599  0.716356  0.947234  1
  O  O24  1  0.256748  0.020515  0.382226  1
  O  O25  1  0.262567  0.021605  0.878333  1
  O  O26  1  0.736655  0.976638  0.867031  1
  O  O27  1  0.744187  0.981225  0.372366  1
  O  O28  1  0.737494  0.979612  0.619885  1
  O  O29  1  0.729996  0.977852  0.123542  1
  O  O30  1  0.270958  0.023651  0.134971  1
  O  O31  1  0.261554  0.018894  0.629792  1
  O  O32  1  0.356171  0.499376  0.418169  1
  O  O33  1  0.356978  0.499885  0.918705  1
  O  O34  1  0.643665  0.501428  0.668837  1
  O  O35  1  0.643063  0.499299  0.168449  1
