# generated using pymatgen
data_Cs3Lu(IO3)6
_symmetry_space_group_name_H-M   'P 1'
_cell_length_a   7.42125574
_cell_length_b   7.40711218
_cell_length_c   11.22745304
_cell_angle_alpha   87.91211760
_cell_angle_beta   107.79238638
_cell_angle_gamma   107.24534346
_symmetry_Int_Tables_number   1
_chemical_formula_structural   Cs3Lu(IO3)6
_chemical_formula_sum   'Cs3 Lu1 I6 O18'
_cell_volume   560.23972518
_cell_formula_units_Z   1
loop_
 _symmetry_equiv_pos_site_id
 _symmetry_equiv_pos_as_xyz
  1  'x, y, z'
loop_
 _atom_site_type_symbol
 _atom_site_label
 _atom_site_symmetry_multiplicity
 _atom_site_fract_x
 _atom_site_fract_y
 _atom_site_fract_z
 _atom_site_occupancy
  Cs  Cs0  1  0.000000  0.000000  0.000000  1
  Cs  Cs1  1  0.833513  0.027181  0.599528  1
  Cs  Cs2  1  0.166487  0.972819  0.400472  1
  Lu  Lu3  1  0.500000  0.500000  0.000000  1
  I  I4  1  0.017174  0.472339  0.190417  1
  I  I5  1  0.982826  0.527661  0.809583  1
  I  I6  1  0.555937  0.949452  0.189026  1
  I  I7  1  0.444063  0.050548  0.810974  1
  I  I8  1  0.421747  0.553694  0.643472  1
  I  I9  1  0.578253  0.446306  0.356528  1
  O  O10  1  0.825665  0.534428  0.056496  1
  O  O11  1  0.174335  0.465572  0.943504  1
  O  O12  1  0.951857  0.547476  0.319741  1
  O  O13  1  0.048143  0.452524  0.680259  1
  O  O14  1  0.914555  0.214981  0.185372  1
  O  O15  1  0.085445  0.785019  0.814628  1
  O  O16  1  0.567574  0.807236  0.058501  1
  O  O17  1  0.432426  0.192764  0.941499  1
  O  O18  1  0.299023  0.842805  0.186108  1
  O  O19  1  0.700977  0.157195  0.813892  1
  O  O20  1  0.687810  0.841312  0.322261  1
  O  O21  1  0.312190  0.158688  0.677739  1
  O  O22  1  0.519104  0.589464  0.816907  1
  O  O23  1  0.480896  0.410536  0.183093  1
  O  O24  1  0.660272  0.567731  0.619948  1
  O  O25  1  0.339728  0.432269  0.380052  1
  O  O26  1  0.412401  0.794362  0.611418  1
  O  O27  1  0.587599  0.205638  0.388582  1
