# generated using pymatgen
data_Nb8VPbS16
_symmetry_space_group_name_H-M   'P 1'
_cell_length_a   6.73869200
_cell_length_b   6.73869210
_cell_length_c   13.54683800
_cell_angle_alpha   90.00000000
_cell_angle_beta   90.00000000
_cell_angle_gamma   120.00000932
_symmetry_Int_Tables_number   1
_chemical_formula_structural   Nb8VPbS16
_chemical_formula_sum   'Nb8 V1 Pb1 S16'
_cell_volume   532.74544911
_cell_formula_units_Z   1
loop_
 _symmetry_equiv_pos_site_id
 _symmetry_equiv_pos_as_xyz
  1  'x, y, z'
loop_
 _atom_site_type_symbol
 _atom_site_label
 _atom_site_symmetry_multiplicity
 _atom_site_fract_x
 _atom_site_fract_y
 _atom_site_fract_z
 _atom_site_occupancy
  Nb  Nb0  1  0.000000  0.000000  0.272447  1
  Nb  Nb1  1  0.000000  0.000000  0.727553  1
  Nb  Nb2  1  0.504510  0.009020  0.274591  1
  Nb  Nb3  1  0.495490  0.990980  0.725409  1
  Nb  Nb4  1  0.990980  0.495490  0.274591  1
  Nb  Nb5  1  0.009020  0.504510  0.725409  1
  Nb  Nb6  1  0.504510  0.495490  0.274591  1
  Nb  Nb7  1  0.495490  0.504510  0.725409  1
  V  V8  1  0.000000  0.000000  0.500000  1
  Pb  Pb9  1  0.000000  0.000000  0.000000  1
  S  S10  1  0.333333  0.666667  0.609355  1
  S  S11  1  0.666667  0.333333  0.390645  1
  S  S12  1  0.666667  0.333333  0.157035  1
  S  S13  1  0.333333  0.666667  0.842965  1
  S  S14  1  0.169309  0.338617  0.158934  1
  S  S15  1  0.830691  0.661383  0.841066  1
  S  S16  1  0.661383  0.830691  0.158934  1
  S  S17  1  0.835391  0.670781  0.611029  1
  S  S18  1  0.338617  0.169309  0.841066  1
  S  S19  1  0.164609  0.329219  0.388971  1
  S  S20  1  0.169309  0.830691  0.158934  1
  S  S21  1  0.329219  0.164609  0.611029  1
  S  S22  1  0.830691  0.169309  0.841066  1
  S  S23  1  0.670781  0.835391  0.388971  1
  S  S24  1  0.835391  0.164609  0.611029  1
  S  S25  1  0.164609  0.835391  0.388971  1
