# generated using pymatgen
data_Li2Y3Er2P12Ru17
_symmetry_space_group_name_H-M   'P 1'
_cell_length_a   12.71933700
_cell_length_b   12.50640735
_cell_length_c   3.95806100
_cell_angle_alpha   90.00000000
_cell_angle_beta   90.00000000
_cell_angle_gamma   120.56482293
_symmetry_Int_Tables_number   1
_chemical_formula_structural   Li2Y3Er2P12Ru17
_chemical_formula_sum   'Li2 Y3 Er2 P12 Ru17'
_cell_volume   542.13833117
_cell_formula_units_Z   1
loop_
 _symmetry_equiv_pos_site_id
 _symmetry_equiv_pos_as_xyz
  1  'x, y, z'
loop_
 _atom_site_type_symbol
 _atom_site_label
 _atom_site_symmetry_multiplicity
 _atom_site_fract_x
 _atom_site_fract_y
 _atom_site_fract_z
 _atom_site_occupancy
  Li  Li0  1  0.000577  0.562343  0.000000  1
  Li  Li1  1  0.438234  0.437657  0.000000  1
  Y  Y2  1  0.000799  0.181863  0.500000  1
  Y  Y3  1  0.818935  0.818137  0.500000  1
  Y  Y4  1  0.182276  0.000000  0.500000  1
  Er  Er5  1  0.663442  0.325496  0.000000  1
  Er  Er6  1  0.337945  0.674504  0.000000  1
  P  P7  1  0.998508  0.809017  0.000000  1
  P  P8  1  0.189491  0.190983  0.000000  1
  P  P9  1  0.818324  0.000000  0.000000  1
  P  P10  1  0.691722  0.169977  0.500000  1
  P  P11  1  0.816265  0.514523  0.500000  1
  P  P12  1  0.477858  0.301371  0.500000  1
  P  P13  1  0.176487  0.698629  0.500000  1
  P  P14  1  0.521745  0.830023  0.500000  1
  P  P15  1  0.301741  0.485477  0.500000  1
  P  P16  1  0.002371  0.370885  0.000000  1
  P  P17  1  0.631487  0.629115  0.000000  1
  P  P18  1  0.376416  0.000000  0.000000  1
  Ru  Ru19  1  0.556923  0.000000  0.000000  1
  Ru  Ru20  1  0.998010  0.711622  0.500000  1
  Ru  Ru21  1  0.286387  0.288378  0.500000  1
  Ru  Ru22  1  0.718068  0.000000  0.500000  1
  Ru  Ru23  1  0.808806  0.185878  0.000000  1
  Ru  Ru24  1  0.811616  0.614098  0.000000  1
  Ru  Ru25  1  0.377729  0.191756  0.000000  1
  Ru  Ru26  1  0.185973  0.808244  0.000000  1
  Ru  Ru27  1  0.622929  0.814122  0.000000  1
  Ru  Ru28  1  0.197520  0.385902  0.000000  1
  Ru  Ru29  1  0.872929  0.366145  0.500000  1
  Ru  Ru30  1  0.629006  0.509648  0.500000  1
  Ru  Ru31  1  0.492274  0.124672  0.500000  1
  Ru  Ru32  1  0.367602  0.875328  0.500000  1
  Ru  Ru33  1  0.506784  0.633855  0.500000  1
  Ru  Ru34  1  0.119358  0.490352  0.500000  1
  Ru  Ru35  1  0.003461  0.000000  0.000000  1
