# generated using pymatgen
data_LuPa3Ga20Pt11
_symmetry_space_group_name_H-M   'P 1'
_cell_length_a   4.25906477
_cell_length_b   10.85742963
_cell_length_c   13.73153880
_cell_angle_alpha   82.12845300
_cell_angle_beta   80.93979059
_cell_angle_gamma   78.55702149
_symmetry_Int_Tables_number   1
_chemical_formula_structural   LuPa3Ga20Pt11
_chemical_formula_sum   'Lu1 Pa3 Ga20 Pt11'
_cell_volume   610.91736522
_cell_formula_units_Z   1
loop_
 _symmetry_equiv_pos_site_id
 _symmetry_equiv_pos_as_xyz
  1  'x, y, z'
loop_
 _atom_site_type_symbol
 _atom_site_label
 _atom_site_symmetry_multiplicity
 _atom_site_fract_x
 _atom_site_fract_y
 _atom_site_fract_z
 _atom_site_occupancy
  Lu  Lu0  1  0.122119  0.087667  0.667737  1
  Pa  Pa1  1  0.877958  0.913965  0.331137  1
  Pa  Pa2  1  0.773630  0.628182  0.822821  1
  Pa  Pa3  1  0.227029  0.371508  0.177125  1
  Ga  Ga4  1  0.014091  0.065597  0.907947  1
  Ga  Ga5  1  0.988040  0.934614  0.088030  1
  Ga  Ga6  1  0.062908  0.677650  0.194058  1
  Ga  Ga7  1  0.937592  0.320999  0.805319  1
  Ga  Ga8  1  0.102312  0.341632  0.454521  1
  Ga  Ga9  1  0.897660  0.657106  0.546069  1
  Ga  Ga10  1  0.198120  0.607287  0.995616  1
  Ga  Ga11  1  0.802045  0.392086  0.004189  1
  Ga  Ga12  1  0.261471  0.779929  0.696346  1
  Ga  Ga13  1  0.736152  0.223815  0.305403  1
  Ga  Ga14  1  0.300922  0.902641  0.495890  1
  Ga  Ga15  1  0.696557  0.098892  0.507615  1
  Ga  Ga16  1  0.389117  0.521643  0.698567  1
  Ga  Ga17  1  0.611412  0.477108  0.302332  1
  Ga  Ga18  1  0.396915  0.201731  0.001239  1
  Ga  Ga19  1  0.602400  0.798322  0.998849  1
  Ga  Ga20  1  0.545902  0.279731  0.628793  1
  Ga  Ga21  1  0.456057  0.715669  0.372165  1
  Ga  Ga22  1  0.639017  0.932794  0.792665  1
  Ga  Ga23  1  0.361441  0.070543  0.203565  1
  Pt  Pt24  1  0.500970  0.498035  0.500002  1
  Pt  Pt25  1  0.026764  0.576560  0.370892  1
  Pt  Pt26  1  0.973008  0.424207  0.629147  1
  Pt  Pt27  1  0.145803  0.826299  0.885475  1
  Pt  Pt28  1  0.852197  0.174139  0.117485  1
  Pt  Pt29  1  0.241517  0.127671  0.389842  1
  Pt  Pt30  1  0.760826  0.871033  0.607542  1
  Pt  Pt31  1  0.343847  0.424089  0.889608  1
  Pt  Pt32  1  0.655418  0.576146  0.110874  1
  Pt  Pt33  1  0.507689  0.167467  0.817246  1
  Pt  Pt34  1  0.491093  0.833245  0.183887  1
