# generated using pymatgen
data_La3NdHo2(RuI3)2
_symmetry_space_group_name_H-M   'P 1'
_cell_length_a   4.33796000
_cell_length_b   9.43382587
_cell_length_c   12.40445365
_cell_angle_alpha   86.38851779
_cell_angle_beta   90.00000000
_cell_angle_gamma   90.00000000
_symmetry_Int_Tables_number   1
_chemical_formula_structural   La3NdHo2(RuI3)2
_chemical_formula_sum   'La3 Nd1 Ho2 Ru2 I6'
_cell_volume   506.62629577
_cell_formula_units_Z   1
loop_
 _symmetry_equiv_pos_site_id
 _symmetry_equiv_pos_as_xyz
  1  'x, y, z'
loop_
 _atom_site_type_symbol
 _atom_site_label
 _atom_site_symmetry_multiplicity
 _atom_site_fract_x
 _atom_site_fract_y
 _atom_site_fract_z
 _atom_site_occupancy
  La  La0  1  0.250000  0.315268  0.884853  1
  La  La1  1  0.250000  0.885396  0.328458  1
  La  La2  1  0.750000  0.112330  0.670793  1
  Nd  Nd3  1  0.750000  0.686905  0.115912  1
  Ho  Ho4  1  0.250000  0.914028  0.900215  1
  Ho  Ho5  1  0.750000  0.083321  0.101265  1
  Ru  Ru6  1  0.250000  0.891002  0.125364  1
  Ru  Ru7  1  0.750000  0.111249  0.873705  1
  I  I8  1  0.250000  0.858972  0.625258  1
  I  I9  1  0.750000  0.138470  0.374891  1
  I  I10  1  0.750000  0.628862  0.375241  1
  I  I11  1  0.250000  0.367916  0.620826  1
  I  I12  1  0.250000  0.392968  0.138947  1
  I  I13  1  0.750000  0.613312  0.864271  1
