# generated using pymatgen
data_TbDyY2CdNi
_symmetry_space_group_name_H-M   'P 1'
_cell_length_a   9.58771568
_cell_length_b   9.58771598
_cell_length_c   9.59437400
_cell_angle_alpha   59.97701881
_cell_angle_beta   59.97701776
_cell_angle_gamma   60.04595043
_symmetry_Int_Tables_number   1
_chemical_formula_structural   TbDyY2CdNi
_chemical_formula_sum   'Tb4 Dy4 Y8 Cd4 Ni4'
_cell_volume   623.63645052
_cell_formula_units_Z   4
loop_
 _symmetry_equiv_pos_site_id
 _symmetry_equiv_pos_as_xyz
  1  'x, y, z'
loop_
 _atom_site_type_symbol
 _atom_site_label
 _atom_site_symmetry_multiplicity
 _atom_site_fract_x
 _atom_site_fract_y
 _atom_site_fract_z
 _atom_site_occupancy
  Tb  Tb0  1  0.599124  0.599124  0.599055  1
  Tb  Tb1  1  0.599124  0.599124  0.202698  1
  Tb  Tb2  1  0.599055  0.202698  0.599124  1
  Tb  Tb3  1  0.202698  0.599055  0.599124  1
  Dy  Dy4  1  0.061271  0.438729  0.438729  1
  Dy  Dy5  1  0.438729  0.061271  0.061271  1
  Dy  Dy6  1  0.438729  0.061271  0.438729  1
  Dy  Dy7  1  0.061271  0.438729  0.061271  1
  Y  Y8  1  0.438884  0.438884  0.061116  1
  Y  Y9  1  0.061116  0.061116  0.438884  1
  Y  Y10  1  0.186597  0.813403  0.813403  1
  Y  Y11  1  0.813403  0.186597  0.186597  1
  Y  Y12  1  0.813403  0.186597  0.813403  1
  Y  Y13  1  0.186597  0.813403  0.186597  1
  Y  Y14  1  0.813283  0.813283  0.186717  1
  Y  Y15  1  0.186717  0.186717  0.813283  1
  Cd  Cd16  1  0.831161  0.831161  0.831038  1
  Cd  Cd17  1  0.831161  0.831161  0.506638  1
  Cd  Cd18  1  0.831038  0.506638  0.831161  1
  Cd  Cd19  1  0.506638  0.831038  0.831161  1
  Ni  Ni20  1  0.392474  0.392474  0.393679  1
  Ni  Ni21  1  0.392474  0.392474  0.821376  1
  Ni  Ni22  1  0.393679  0.821376  0.392474  1
  Ni  Ni23  1  0.821376  0.393679  0.392474  1
