# generated using pymatgen
data_TbCe2Ho(InPd2)2
_symmetry_space_group_name_H-M   'P 1'
_cell_length_a   7.82433954
_cell_length_b   7.76631052
_cell_length_c   3.74833600
_cell_angle_alpha   90.00000000
_cell_angle_beta   90.00000000
_cell_angle_gamma   90.12350280
_symmetry_Int_Tables_number   1
_chemical_formula_structural   TbCe2Ho(InPd2)2
_chemical_formula_sum   'Tb1 Ce2 Ho1 In2 Pd4'
_cell_volume   227.77179496
_cell_formula_units_Z   1
loop_
 _symmetry_equiv_pos_site_id
 _symmetry_equiv_pos_as_xyz
  1  'x, y, z'
loop_
 _atom_site_type_symbol
 _atom_site_label
 _atom_site_symmetry_multiplicity
 _atom_site_fract_x
 _atom_site_fract_y
 _atom_site_fract_z
 _atom_site_occupancy
  Tb  Tb0  1  0.172547  0.325262  0.500000  1
  Ce  Ce1  1  0.326218  0.829065  0.500000  1
  Ce  Ce2  1  0.825850  0.671167  0.500000  1
  Ho  Ho3  1  0.672566  0.174366  0.500000  1
  In  In4  1  0.998803  0.003774  0.000000  1
  In  In5  1  0.499455  0.495981  0.000000  1
  Pd  Pd6  1  0.373655  0.125996  0.000000  1
  Pd  Pd7  1  0.871576  0.373417  0.000000  1
  Pd  Pd8  1  0.129336  0.631396  0.000000  1
  Pd  Pd9  1  0.629993  0.869574  0.000000  1
