# generated using pymatgen
data_Mn6Fe2OsW3
_symmetry_space_group_name_H-M   'P 1'
_cell_length_a   4.66068000
_cell_length_b   4.66068062
_cell_length_c   7.76556600
_cell_angle_alpha   90.00000000
_cell_angle_beta   90.00000000
_cell_angle_gamma   119.99999557
_symmetry_Int_Tables_number   1
_chemical_formula_structural   Mn6Fe2OsW3
_chemical_formula_sum   'Mn6 Fe2 Os1 W3'
_cell_volume   146.08391371
_cell_formula_units_Z   1
loop_
 _symmetry_equiv_pos_site_id
 _symmetry_equiv_pos_as_xyz
  1  'x, y, z'
loop_
 _atom_site_type_symbol
 _atom_site_label
 _atom_site_symmetry_multiplicity
 _atom_site_fract_x
 _atom_site_fract_y
 _atom_site_fract_z
 _atom_site_occupancy
  Mn  Mn0  1  0.173016  0.826984  0.249846  1
  Mn  Mn1  1  0.346967  0.173484  0.751240  1
  Mn  Mn2  1  0.826516  0.653033  0.751240  1
  Mn  Mn3  1  0.173016  0.346032  0.249846  1
  Mn  Mn4  1  0.653968  0.826984  0.249846  1
  Mn  Mn5  1  0.826516  0.173484  0.751240  1
  Fe  Fe6  1  0.000000  0.000000  0.999190  1
  Fe  Fe7  1  0.000000  0.000000  0.500140  1
  Os  Os8  1  0.333333  0.666667  0.931505  1
  W  W9  1  0.666667  0.333333  0.433673  1
  W  W10  1  0.666667  0.333333  0.062821  1
  W  W11  1  0.333333  0.666667  0.569415  1
