# generated using pymatgen
data_Dy3Zn3Si2Hg
_symmetry_space_group_name_H-M   'P 1'
_cell_length_a   6.93612500
_cell_length_b   6.93612486
_cell_length_c   4.33205800
_cell_angle_alpha   90.00000000
_cell_angle_beta   90.00000000
_cell_angle_gamma   120.00000545
_symmetry_Int_Tables_number   1
_chemical_formula_structural   Dy3Zn3Si2Hg
_chemical_formula_sum   'Dy3 Zn3 Si2 Hg1'
_cell_volume   180.49230196
_cell_formula_units_Z   1
loop_
 _symmetry_equiv_pos_site_id
 _symmetry_equiv_pos_as_xyz
  1  'x, y, z'
loop_
 _atom_site_type_symbol
 _atom_site_label
 _atom_site_symmetry_multiplicity
 _atom_site_fract_x
 _atom_site_fract_y
 _atom_site_fract_z
 _atom_site_occupancy
  Dy  Dy0  1  0.428494  0.428494  0.500000  1
  Dy  Dy1  1  0.571506  0.000000  0.500000  1
  Dy  Dy2  1  0.000000  0.571506  0.500000  1
  Zn  Zn3  1  0.742092  0.742092  0.000000  1
  Zn  Zn4  1  0.257908  0.000000  0.000000  1
  Zn  Zn5  1  0.000000  0.257908  0.000000  1
  Si  Si6  1  0.666667  0.333333  0.000000  1
  Si  Si7  1  0.333333  0.666667  0.000000  1
  Hg  Hg8  1  0.000000  0.000000  0.500000  1
