# generated using pymatgen
data_TbY2Er3FeBi2
_symmetry_space_group_name_H-M   'P 1'
_cell_length_a   8.31264413
_cell_length_b   8.31264248
_cell_length_c   4.18933700
_cell_angle_alpha   90.00000000
_cell_angle_beta   90.00000000
_cell_angle_gamma   120.05978017
_symmetry_Int_Tables_number   1
_chemical_formula_structural   TbY2Er3FeBi2
_chemical_formula_sum   'Tb1 Y2 Er3 Fe1 Bi2'
_cell_volume   250.54877996
_cell_formula_units_Z   1
loop_
 _symmetry_equiv_pos_site_id
 _symmetry_equiv_pos_as_xyz
  1  'x, y, z'
loop_
 _atom_site_type_symbol
 _atom_site_label
 _atom_site_symmetry_multiplicity
 _atom_site_fract_x
 _atom_site_fract_y
 _atom_site_fract_z
 _atom_site_occupancy
  Tb  Tb0  1  0.390307  0.390307  0.000000  1
  Y  Y1  1  0.607574  0.000293  0.000000  1
  Y  Y2  1  0.000293  0.607574  0.000000  1
  Er  Er3  1  0.229889  0.000144  0.500000  1
  Er  Er4  1  0.000144  0.229889  0.500000  1
  Er  Er5  1  0.770806  0.770806  0.500000  1
  Fe  Fe6  1  0.001207  0.001207  0.000000  1
  Bi  Bi7  1  0.333502  0.666279  0.500000  1
  Bi  Bi8  1  0.666279  0.333502  0.500000  1
