# generated using pymatgen
data_Dy3PaGa12Fe
_symmetry_space_group_name_H-M   'P 1'
_cell_length_a   7.46378489
_cell_length_b   7.46378529
_cell_length_c   7.46378584
_cell_angle_alpha   109.67127657
_cell_angle_beta   109.67127428
_cell_angle_gamma   109.67128454
_symmetry_Int_Tables_number   1
_chemical_formula_structural   Dy3PaGa12Fe
_chemical_formula_sum   'Dy3 Pa1 Ga12 Fe1'
_cell_volume   317.68487302
_cell_formula_units_Z   1
loop_
 _symmetry_equiv_pos_site_id
 _symmetry_equiv_pos_as_xyz
  1  'x, y, z'
loop_
 _atom_site_type_symbol
 _atom_site_label
 _atom_site_symmetry_multiplicity
 _atom_site_fract_x
 _atom_site_fract_y
 _atom_site_fract_z
 _atom_site_occupancy
  Dy  Dy0  1  0.000000  0.000000  0.500000  1
  Dy  Dy1  1  0.000000  0.500000  0.000000  1
  Dy  Dy2  1  0.500000  0.000000  0.000000  1
  Pa  Pa3  1  0.500000  0.500000  0.500000  1
  Ga  Ga4  1  0.749989  0.250011  0.500000  1
  Ga  Ga5  1  0.749989  0.500000  0.250011  1
  Ga  Ga6  1  0.500000  0.250011  0.749989  1
  Ga  Ga7  1  0.250011  0.500000  0.749989  1
  Ga  Ga8  1  0.250011  0.749989  0.500000  1
  Ga  Ga9  1  0.500000  0.749989  0.250011  1
  Ga  Ga10  1  0.714635  0.714635  0.999221  1
  Ga  Ga11  1  0.285365  0.000779  0.285365  1
  Ga  Ga12  1  0.000779  0.285365  0.285365  1
  Ga  Ga13  1  0.285365  0.285365  0.000779  1
  Ga  Ga14  1  0.714635  0.999221  0.714635  1
  Ga  Ga15  1  0.999221  0.714635  0.714635  1
  Fe  Fe16  1  0.000000  0.000000  0.000000  1
