# generated using pymatgen
data_DyTmSi3Rh
_symmetry_space_group_name_H-M   'P 1'
_cell_length_a   8.15268200
_cell_length_b   8.15287017
_cell_length_c   7.83946800
_cell_angle_alpha   90.00000000
_cell_angle_beta   90.00000000
_cell_angle_gamma   119.99923652
_symmetry_Int_Tables_number   1
_chemical_formula_structural   DyTmSi3Rh
_chemical_formula_sum   'Dy4 Tm4 Si12 Rh4'
_cell_volume   451.26494046
_cell_formula_units_Z   4
loop_
 _symmetry_equiv_pos_site_id
 _symmetry_equiv_pos_as_xyz
  1  'x, y, z'
loop_
 _atom_site_type_symbol
 _atom_site_label
 _atom_site_symmetry_multiplicity
 _atom_site_fract_x
 _atom_site_fract_y
 _atom_site_fract_z
 _atom_site_occupancy
  Dy  Dy0  1  0.999997  0.999995  0.750000  1
  Dy  Dy1  1  0.017196  0.508601  0.750000  1
  Dy  Dy2  1  0.491404  0.508601  0.750000  1
  Dy  Dy3  1  0.491401  0.982800  0.750000  1
  Tm  Tm4  1  0.000000  0.000001  0.249999  1
  Tm  Tm5  1  0.509061  0.018123  0.249999  1
  Tm  Tm6  1  0.509061  0.490942  0.249999  1
  Tm  Tm7  1  0.981880  0.490942  0.249999  1
  Si  Si8  1  0.166993  0.832998  0.002880  1
  Si  Si9  1  0.666005  0.832998  0.002880  1
  Si  Si10  1  0.166995  0.333991  0.002881  1
  Si  Si11  1  0.166995  0.333991  0.497119  1
  Si  Si12  1  0.166993  0.832998  0.497120  1
  Si  Si13  1  0.666005  0.832998  0.497120  1
  Si  Si14  1  0.333299  0.166654  0.497050  1
  Si  Si15  1  0.833355  0.166654  0.497050  1
  Si  Si16  1  0.833353  0.666706  0.497051  1
  Si  Si17  1  0.833353  0.666706  0.002950  1
  Si  Si18  1  0.333299  0.166654  0.002950  1
  Si  Si19  1  0.833355  0.166654  0.002950  1
  Rh  Rh20  1  0.333334  0.666669  0.039013  1
  Rh  Rh21  1  0.333334  0.666669  0.460987  1
  Rh  Rh22  1  0.666664  0.333330  0.528187  1
  Rh  Rh23  1  0.666664  0.333330  0.971813  1
