# generated using pymatgen
data_Ta4Te9I4N
_symmetry_space_group_name_H-M   'P 1'
_cell_length_a   11.72826877
_cell_length_b   11.72826984
_cell_length_c   20.73933730
_cell_angle_alpha   59.36474819
_cell_angle_beta   59.36474466
_cell_angle_gamma   31.07137315
_symmetry_Int_Tables_number   1
_chemical_formula_structural   Ta4Te9I4N
_chemical_formula_sum   'Ta8 Te18 I8 N2'
_cell_volume   1249.53651428
_cell_formula_units_Z   2
loop_
 _symmetry_equiv_pos_site_id
 _symmetry_equiv_pos_as_xyz
  1  'x, y, z'
loop_
 _atom_site_type_symbol
 _atom_site_label
 _atom_site_symmetry_multiplicity
 _atom_site_fract_x
 _atom_site_fract_y
 _atom_site_fract_z
 _atom_site_occupancy
  Ta  Ta0  1  0.781479  0.368111  0.762662  1
  Ta  Ta1  1  0.631889  0.218521  0.737338  1
  Ta  Ta2  1  0.876944  0.995292  0.860007  1
  Ta  Ta3  1  0.004708  0.123056  0.639993  1
  Ta  Ta4  1  0.368111  0.781479  0.262662  1
  Ta  Ta5  1  0.218521  0.631889  0.237338  1
  Ta  Ta6  1  0.123056  0.004708  0.139993  1
  Ta  Ta7  1  0.995292  0.876944  0.360007  1
  Te  Te8  1  0.382221  0.659642  0.074980  1
  Te  Te9  1  0.179751  0.176671  0.666823  1
  Te  Te10  1  0.061496  0.056560  0.872510  1
  Te  Te11  1  0.530355  0.805028  0.099637  1
  Te  Te12  1  0.056560  0.061496  0.372510  1
  Te  Te13  1  0.469645  0.194972  0.900363  1
  Te  Te14  1  0.331875  0.668125  0.750000  1
  Te  Te15  1  0.805028  0.530355  0.599637  1
  Te  Te16  1  0.176671  0.179751  0.166823  1
  Te  Te17  1  0.823329  0.820249  0.833177  1
  Te  Te18  1  0.617779  0.340358  0.925020  1
  Te  Te19  1  0.668125  0.331875  0.250000  1
  Te  Te20  1  0.340358  0.617779  0.425020  1
  Te  Te21  1  0.820249  0.823329  0.333177  1
  Te  Te22  1  0.938504  0.943440  0.127490  1
  Te  Te23  1  0.659642  0.382221  0.574980  1
  Te  Te24  1  0.194972  0.469645  0.400363  1
  Te  Te25  1  0.943440  0.938504  0.627490  1
  I  I26  1  0.614091  0.724479  0.778569  1
  I  I27  1  0.938915  0.340077  0.008366  1
  I  I28  1  0.385909  0.275521  0.221431  1
  I  I29  1  0.659923  0.061085  0.491634  1
  I  I30  1  0.061085  0.659923  0.991634  1
  I  I31  1  0.724479  0.614091  0.278569  1
  I  I32  1  0.275521  0.385909  0.721431  1
  I  I33  1  0.340077  0.938915  0.508366  1
  N  N34  1  0.866149  0.133851  0.750000  1
  N  N35  1  0.133851  0.866149  0.250000  1
