# generated using pymatgen
data_Nd11In8HgRh4
_symmetry_space_group_name_H-M   'P 1'
_cell_length_a   13.42242103
_cell_length_b   13.41133073
_cell_length_c   3.85000700
_cell_angle_alpha   90.00000000
_cell_angle_beta   90.00000000
_cell_angle_gamma   112.54189036
_symmetry_Int_Tables_number   1
_chemical_formula_structural   Nd11In8HgRh4
_chemical_formula_sum   'Nd11 In8 Hg1 Rh4'
_cell_volume   640.10016150
_cell_formula_units_Z   1
loop_
 _symmetry_equiv_pos_site_id
 _symmetry_equiv_pos_as_xyz
  1  'x, y, z'
loop_
 _atom_site_type_symbol
 _atom_site_label
 _atom_site_symmetry_multiplicity
 _atom_site_fract_x
 _atom_site_fract_y
 _atom_site_fract_z
 _atom_site_occupancy
  Nd  Nd0  1  0.079123  0.419846  0.000000  1
  Nd  Nd1  1  0.917633  0.576793  0.000000  1
  Nd  Nd2  1  0.419118  0.079199  0.000000  1
  Nd  Nd3  1  0.580384  0.920022  0.000000  1
  Nd  Nd4  1  0.627969  0.373673  0.000000  1
  Nd  Nd5  1  0.373401  0.625667  0.000000  1
  Nd  Nd6  1  0.839546  0.161599  0.000000  1
  Nd  Nd7  1  0.159124  0.838705  0.000000  1
  Nd  Nd8  1  0.999845  0.999672  0.000000  1
  Nd  Nd9  1  0.312792  0.312880  0.000000  1
  Nd  Nd10  1  0.687841  0.688894  0.000000  1
  In  In11  1  0.161953  0.635120  0.500000  1
  In  In12  1  0.365479  0.838578  0.500000  1
  In  In13  1  0.634364  0.160797  0.500000  1
  In  In14  1  0.077804  0.219997  0.500000  1
  In  In15  1  0.922606  0.778819  0.500000  1
  In  In16  1  0.220255  0.078621  0.500000  1
  In  In17  1  0.780138  0.922779  0.500000  1
  In  In18  1  0.500466  0.499784  0.500000  1
  Hg  Hg19  1  0.841150  0.363350  0.500000  1
  Rh  Rh20  1  0.246043  0.452141  0.500000  1
  Rh  Rh21  1  0.750304  0.551492  0.500000  1
  Rh  Rh22  1  0.455348  0.249274  0.500000  1
  Rh  Rh23  1  0.547312  0.752300  0.500000  1
