# generated using pymatgen
data_Pr4Sm4Sc11Si16Hg
_symmetry_space_group_name_H-M   'P 1'
_cell_length_a   7.17840379
_cell_length_b   7.52229947
_cell_length_c   14.23852074
_cell_angle_alpha   90.02133553
_cell_angle_beta   90.08034440
_cell_angle_gamma   89.80538340
_symmetry_Int_Tables_number   1
_chemical_formula_structural   Pr4Sm4Sc11Si16Hg
_chemical_formula_sum   'Pr4 Sm4 Sc11 Si16 Hg1'
_cell_volume   768.84786622
_cell_formula_units_Z   1
loop_
 _symmetry_equiv_pos_site_id
 _symmetry_equiv_pos_as_xyz
  1  'x, y, z'
loop_
 _atom_site_type_symbol
 _atom_site_label
 _atom_site_symmetry_multiplicity
 _atom_site_fract_x
 _atom_site_fract_y
 _atom_site_fract_z
 _atom_site_occupancy
  Pr  Pr0  1  0.009615  0.169905  0.098399  1
  Pr  Pr1  1  0.991436  0.819937  0.900333  1
  Pr  Pr2  1  0.482116  0.670840  0.900301  1
  Pr  Pr3  1  0.991373  0.819594  0.598581  1
  Sm  Sm4  1  0.511558  0.325987  0.099059  1
  Sm  Sm5  1  0.010906  0.171451  0.401269  1
  Sm  Sm6  1  0.511838  0.325490  0.402061  1
  Sm  Sm7  1  0.481410  0.672152  0.599905  1
  Sc  Sc8  1  0.839064  0.500134  0.250418  1
  Sc  Sc9  1  0.339888  0.000261  0.250445  1
  Sc  Sc10  1  0.658249  0.002511  0.749635  1
  Sc  Sc11  1  0.327046  0.184729  0.624419  1
  Sc  Sc12  1  0.670694  0.823157  0.375542  1
  Sc  Sc13  1  0.171017  0.679073  0.373515  1
  Sc  Sc14  1  0.670743  0.823456  0.125470  1
  Sc  Sc15  1  0.837003  0.325257  0.624108  1
  Sc  Sc16  1  0.327185  0.184335  0.874874  1
  Sc  Sc17  1  0.837265  0.326184  0.874751  1
  Sc  Sc18  1  0.170740  0.678711  0.127257  1
  Si  Si19  1  0.030998  0.108182  0.749346  1
  Si  Si20  1  0.966078  0.878927  0.251140  1
  Si  Si21  1  0.467017  0.622031  0.250563  1
  Si  Si22  1  0.548760  0.372600  0.748944  1
  Si  Si23  1  0.294035  0.903667  0.749007  1
  Si  Si24  1  0.709638  0.120472  0.251522  1
  Si  Si25  1  0.212853  0.379502  0.251076  1
  Si  Si26  1  0.770237  0.621415  0.748484  1
  Si  Si27  1  0.157821  0.456953  0.527747  1
  Si  Si28  1  0.845771  0.533686  0.459569  1
  Si  Si29  1  0.347493  0.965269  0.461139  1
  Si  Si30  1  0.844972  0.535942  0.040049  1
  Si  Si31  1  0.652297  0.034535  0.540387  1
  Si  Si32  1  0.155573  0.457835  0.972215  1
  Si  Si33  1  0.652884  0.036644  0.959830  1
  Si  Si34  1  0.349754  0.966023  0.039246  1
  Hg  Hg35  1  0.154682  0.503150  0.749393  1
