# generated using pymatgen
data_Tm4ReTcB12
_symmetry_space_group_name_H-M   'P 1'
_cell_length_a   3.64335100
_cell_length_b   9.10112511
_cell_length_c   11.46356340
_cell_angle_alpha   90.05671255
_cell_angle_beta   90.00000000
_cell_angle_gamma   90.00000000
_symmetry_Int_Tables_number   1
_chemical_formula_structural   Tm4ReTcB12
_chemical_formula_sum   'Tm8 Re2 Tc2 B24'
_cell_volume   380.11545033
_cell_formula_units_Z   2
loop_
 _symmetry_equiv_pos_site_id
 _symmetry_equiv_pos_as_xyz
  1  'x, y, z'
loop_
 _atom_site_type_symbol
 _atom_site_label
 _atom_site_symmetry_multiplicity
 _atom_site_fract_x
 _atom_site_fract_y
 _atom_site_fract_z
 _atom_site_occupancy
  Tm  Tm0  1  0.000000  0.323807  0.413932  1
  Tm  Tm1  1  0.000000  0.676193  0.586068  1
  Tm  Tm2  1  0.000000  0.823405  0.086201  1
  Tm  Tm3  1  0.000000  0.176595  0.913799  1
  Tm  Tm4  1  0.000000  0.942654  0.370171  1
  Tm  Tm5  1  0.000000  0.057346  0.629829  1
  Tm  Tm6  1  0.000000  0.444170  0.130229  1
  Tm  Tm7  1  0.000000  0.555830  0.869771  1
  Re  Re8  1  0.000000  0.139174  0.179383  1
  Re  Re9  1  0.000000  0.860826  0.820617  1
  Tc  Tc10  1  0.000000  0.639275  0.320573  1
  Tc  Tc11  1  0.000000  0.360725  0.679427  1
  B  B12  1  0.500000  0.553365  0.433352  1
  B  B13  1  0.500000  0.446635  0.566648  1
  B  B14  1  0.500000  0.053266  0.066524  1
  B  B15  1  0.500000  0.946734  0.933476  1
  B  B16  1  0.500000  0.749814  0.419385  1
  B  B17  1  0.500000  0.250186  0.580615  1
  B  B18  1  0.500000  0.250249  0.080462  1
  B  B19  1  0.500000  0.749751  0.919538  1
  B  B20  1  0.500000  0.792996  0.265283  1
  B  B21  1  0.500000  0.207004  0.734717  1
  B  B22  1  0.500000  0.293361  0.234812  1
  B  B23  1  0.500000  0.706639  0.765188  1
  B  B24  1  0.500000  0.631241  0.185059  1
  B  B25  1  0.500000  0.368759  0.814941  1
  B  B26  1  0.500000  0.131000  0.315187  1
  B  B27  1  0.500000  0.869000  0.684813  1
  B  B28  1  0.500000  0.981596  0.211990  1
  B  B29  1  0.500000  0.018404  0.788010  1
  B  B30  1  0.500000  0.482001  0.288093  1
  B  B31  1  0.500000  0.517999  0.711907  1
  B  B32  1  0.500000  0.600019  0.027870  1
  B  B33  1  0.500000  0.399981  0.972130  1
  B  B34  1  0.500000  0.099954  0.472015  1
  B  B35  1  0.500000  0.900046  0.527985  1
