# generated using pymatgen
data_TiNb3(SiPt)4
_symmetry_space_group_name_H-M   'P 1'
_cell_length_a   3.84313600
_cell_length_b   6.46668992
_cell_length_c   7.42727067
_cell_angle_alpha   89.87269584
_cell_angle_beta   90.00000000
_cell_angle_gamma   90.00000000
_symmetry_Int_Tables_number   1
_chemical_formula_structural   TiNb3(SiPt)4
_chemical_formula_sum   'Ti1 Nb3 Si4 Pt4'
_cell_volume   184.58481436
_cell_formula_units_Z   1
loop_
 _symmetry_equiv_pos_site_id
 _symmetry_equiv_pos_as_xyz
  1  'x, y, z'
loop_
 _atom_site_type_symbol
 _atom_site_label
 _atom_site_symmetry_multiplicity
 _atom_site_fract_x
 _atom_site_fract_y
 _atom_site_fract_z
 _atom_site_occupancy
  Ti  Ti0  1  0.750000  0.473140  0.830954  1
  Nb  Nb1  1  0.250000  0.027278  0.333453  1
  Nb  Nb2  1  0.250000  0.527961  0.169733  1
  Nb  Nb3  1  0.750000  0.972591  0.664924  1
  Si  Si4  1  0.250000  0.265690  0.626326  1
  Si  Si5  1  0.250000  0.761891  0.876267  1
  Si  Si6  1  0.750000  0.733546  0.372321  1
  Si  Si7  1  0.750000  0.236073  0.125074  1
  Pt  Pt8  1  0.250000  0.153620  0.934006  1
  Pt  Pt9  1  0.250000  0.647532  0.568637  1
  Pt  Pt10  1  0.750000  0.851038  0.060664  1
  Pt  Pt11  1  0.750000  0.349639  0.437641  1
