# generated using pymatgen
data_La7Pr3IrOsI15
_symmetry_space_group_name_H-M   'P 1'
_cell_length_a   10.12555519
_cell_length_b   11.17955375
_cell_length_c   12.02566556
_cell_angle_alpha   92.58093955
_cell_angle_beta   113.87513454
_cell_angle_gamma   110.08744128
_symmetry_Int_Tables_number   1
_chemical_formula_structural   La7Pr3IrOsI15
_chemical_formula_sum   'La7 Pr3 Ir1 Os1 I15'
_cell_volume   1141.92645932
_cell_formula_units_Z   1
loop_
 _symmetry_equiv_pos_site_id
 _symmetry_equiv_pos_as_xyz
  1  'x, y, z'
loop_
 _atom_site_type_symbol
 _atom_site_label
 _atom_site_symmetry_multiplicity
 _atom_site_fract_x
 _atom_site_fract_y
 _atom_site_fract_z
 _atom_site_occupancy
  La  La0  1  0.703193  0.098640  0.727846  1
  La  La1  1  0.089975  0.545546  0.330557  1
  La  La2  1  0.908498  0.455229  0.665574  1
  La  La3  1  0.831862  0.749020  0.175649  1
  La  La4  1  0.164102  0.252469  0.826006  1
  La  La5  1  0.973944  0.791879  0.902439  1
  La  La6  1  0.027388  0.206261  0.100524  1
  Pr  Pr7  1  0.218379  0.576814  0.049280  1
  Pr  Pr8  1  0.778619  0.419792  0.947868  1
  Pr  Pr9  1  0.300462  0.903149  0.273451  1
  Ir  Ir10  1  0.029711  0.673395  0.119594  1
  Os  Os11  1  0.969298  0.324340  0.879119  1
  I  I12  1  0.343342  0.445657  0.300983  1
  I  I13  1  0.657588  0.554684  0.699734  1
  I  I14  1  0.213869  0.736635  0.817264  1
  I  I15  1  0.786241  0.263473  0.181741  1
  I  I16  1  0.142516  0.386897  0.581918  1
  I  I17  1  0.856545  0.614118  0.416609  1
  I  I18  1  0.389218  0.803815  0.529445  1
  I  I19  1  0.609830  0.197551  0.467524  1
  I  I20  1  0.265045  0.086374  0.056491  1
  I  I21  1  0.736201  0.913084  0.946013  1
  I  I22  1  0.562389  0.841554  0.225249  1
  I  I23  1  0.437899  0.160554  0.775966  1
  I  I24  1  0.095125  0.037482  0.337310  1
  I  I25  1  0.909213  0.960514  0.665276  1
  I  I26  1  0.499552  0.501076  0.000571  1
