# generated using pymatgen
data_Tb16Y3LuSn16
_symmetry_space_group_name_H-M   'P 1'
_cell_length_a   8.05818957
_cell_length_b   8.20813358
_cell_length_c   15.53091600
_cell_angle_alpha   90.00000000
_cell_angle_beta   90.00000000
_cell_angle_gamma   90.04297948
_symmetry_Int_Tables_number   1
_chemical_formula_structural   Tb16Y3LuSn16
_chemical_formula_sum   'Tb16 Y3 Lu1 Sn16'
_cell_volume   1027.25637210
_cell_formula_units_Z   1
loop_
 _symmetry_equiv_pos_site_id
 _symmetry_equiv_pos_as_xyz
  1  'x, y, z'
loop_
 _atom_site_type_symbol
 _atom_site_label
 _atom_site_symmetry_multiplicity
 _atom_site_fract_x
 _atom_site_fract_y
 _atom_site_fract_z
 _atom_site_occupancy
  Tb  Tb0  1  0.367114  0.836523  0.878385  1
  Tb  Tb1  1  0.867124  0.663470  0.621718  1
  Tb  Tb2  1  0.632295  0.163150  0.378176  1
  Tb  Tb3  1  0.133190  0.336152  0.121787  1
  Tb  Tb4  1  0.632295  0.163150  0.121824  1
  Tb  Tb5  1  0.133190  0.336152  0.378213  1
  Tb  Tb6  1  0.367114  0.836523  0.621615  1
  Tb  Tb7  1  0.867124  0.663470  0.878282  1
  Tb  Tb8  1  0.520198  0.320111  0.902492  1
  Tb  Tb9  1  0.020133  0.179915  0.597453  1
  Tb  Tb10  1  0.479652  0.680113  0.402454  1
  Tb  Tb11  1  0.980101  0.820271  0.097575  1
  Tb  Tb12  1  0.479652  0.680113  0.097546  1
  Tb  Tb13  1  0.980101  0.820271  0.402425  1
  Tb  Tb14  1  0.520198  0.320111  0.597508  1
  Tb  Tb15  1  0.020133  0.179915  0.902547  1
  Y  Y16  1  0.198178  0.502410  0.750000  1
  Y  Y17  1  0.698216  0.997632  0.750000  1
  Y  Y18  1  0.801900  0.497790  0.250000  1
  Lu  Lu19  1  0.301351  0.002547  0.250000  1
  Sn  Sn20  1  0.292620  0.034827  0.042912  1
  Sn  Sn21  1  0.792630  0.465078  0.457557  1
  Sn  Sn22  1  0.707396  0.965008  0.542372  1
  Sn  Sn23  1  0.207373  0.534900  0.957631  1
  Sn  Sn24  1  0.707396  0.965008  0.957628  1
  Sn  Sn25  1  0.207373  0.534900  0.542369  1
  Sn  Sn26  1  0.292620  0.034827  0.457088  1
  Sn  Sn27  1  0.792630  0.465078  0.042443  1
  Sn  Sn28  1  0.564791  0.618370  0.750000  1
  Sn  Sn29  1  0.064921  0.881705  0.750000  1
  Sn  Sn30  1  0.434965  0.381191  0.250000  1
  Sn  Sn31  1  0.936410  0.117949  0.250000  1
  Sn  Sn32  1  0.328313  0.146793  0.750000  1
  Sn  Sn33  1  0.828493  0.352938  0.750000  1
  Sn  Sn34  1  0.671028  0.853318  0.250000  1
  Sn  Sn35  1  0.171781  0.648320  0.250000  1
