# generated using pymatgen
data_Zr8Ir3PdN2
_symmetry_space_group_name_H-M   'P 1'
_cell_length_a   8.84900412
_cell_length_b   8.84900373
_cell_length_c   8.84936400
_cell_angle_alpha   59.99865320
_cell_angle_beta   59.99865468
_cell_angle_gamma   60.05722841
_symmetry_Int_Tables_number   1
_chemical_formula_structural   Zr8Ir3PdN2
_chemical_formula_sum   'Zr16 Ir6 Pd2 N4'
_cell_volume   490.19003110
_cell_formula_units_Z   2
loop_
 _symmetry_equiv_pos_site_id
 _symmetry_equiv_pos_as_xyz
  1  'x, y, z'
loop_
 _atom_site_type_symbol
 _atom_site_label
 _atom_site_symmetry_multiplicity
 _atom_site_fract_x
 _atom_site_fract_y
 _atom_site_fract_z
 _atom_site_occupancy
  Zr  Zr0  1  0.128650  0.621390  0.624980  1
  Zr  Zr1  1  0.621390  0.128650  0.624980  1
  Zr  Zr2  1  0.625247  0.625247  0.121167  1
  Zr  Zr3  1  0.625247  0.625247  0.628339  1
  Zr  Zr4  1  0.819629  0.819629  0.180371  1
  Zr  Zr5  1  0.183357  0.183357  0.816643  1
  Zr  Zr6  1  0.817502  0.182440  0.818093  1
  Zr  Zr7  1  0.182440  0.817502  0.181965  1
  Zr  Zr8  1  0.182440  0.817502  0.818093  1
  Zr  Zr9  1  0.817502  0.182440  0.181965  1
  Zr  Zr10  1  0.434247  0.434247  0.065753  1
  Zr  Zr11  1  0.066001  0.066001  0.433999  1
  Zr  Zr12  1  0.434053  0.068691  0.433513  1
  Zr  Zr13  1  0.068691  0.434053  0.063744  1
  Zr  Zr14  1  0.068691  0.434053  0.433513  1
  Zr  Zr15  1  0.434053  0.068691  0.063744  1
  Ir  Ir16  1  0.405119  0.405119  0.785203  1
  Ir  Ir17  1  0.405119  0.405119  0.404560  1
  Ir  Ir18  1  0.478375  0.841877  0.839873  1
  Ir  Ir19  1  0.841877  0.478375  0.839873  1
  Ir  Ir20  1  0.841098  0.841098  0.479869  1
  Ir  Ir21  1  0.841098  0.841098  0.837933  1
  Pd  Pd22  1  0.768049  0.412180  0.409886  1
  Pd  Pd23  1  0.412180  0.768049  0.409886  1
  N  N24  1  0.625540  0.123658  0.125401  1
  N  N25  1  0.123658  0.625540  0.125401  1
  N  N26  1  0.124374  0.124374  0.625246  1
  N  N27  1  0.124374  0.124374  0.126007  1
