# generated using pymatgen
data_CaB(Rh2Pb)3
_symmetry_space_group_name_H-M   'P 1'
_cell_length_a   5.83941000
_cell_length_b   5.83940965
_cell_length_c   13.90399200
_cell_angle_alpha   90.00000000
_cell_angle_beta   90.00000000
_cell_angle_gamma   120.00000198
_symmetry_Int_Tables_number   1
_chemical_formula_structural   CaB(Rh2Pb)3
_chemical_formula_sum   'Ca2 B2 Rh12 Pb6'
_cell_volume   410.58969460
_cell_formula_units_Z   2
loop_
 _symmetry_equiv_pos_site_id
 _symmetry_equiv_pos_as_xyz
  1  'x, y, z'
loop_
 _atom_site_type_symbol
 _atom_site_label
 _atom_site_symmetry_multiplicity
 _atom_site_fract_x
 _atom_site_fract_y
 _atom_site_fract_z
 _atom_site_occupancy
  Ca  Ca0  1  0.333333  0.666667  0.397011  1
  Ca  Ca1  1  0.666667  0.333333  0.897011  1
  B  B2  1  0.000000  0.000000  0.501796  1
  B  B3  1  0.000000  0.000000  0.001796  1
  Rh  Rh4  1  0.336961  0.168481  0.414293  1
  Rh  Rh5  1  0.831519  0.168481  0.414293  1
  Rh  Rh6  1  0.831519  0.663039  0.414293  1
  Rh  Rh7  1  0.168481  0.336961  0.914293  1
  Rh  Rh8  1  0.659597  0.829798  0.589958  1
  Rh  Rh9  1  0.663039  0.831519  0.914293  1
  Rh  Rh10  1  0.340403  0.170202  0.089958  1
  Rh  Rh11  1  0.170202  0.340403  0.589958  1
  Rh  Rh12  1  0.170202  0.829798  0.589958  1
  Rh  Rh13  1  0.829798  0.170202  0.089958  1
  Rh  Rh14  1  0.829798  0.659597  0.089958  1
  Rh  Rh15  1  0.168481  0.831519  0.914293  1
  Pb  Pb16  1  0.000000  0.000000  0.752568  1
  Pb  Pb17  1  0.000000  0.000000  0.252568  1
  Pb  Pb18  1  0.333333  0.666667  0.755014  1
  Pb  Pb19  1  0.666667  0.333333  0.255014  1
  Pb  Pb20  1  0.666667  0.333333  0.580861  1
  Pb  Pb21  1  0.333333  0.666667  0.080861  1
