# generated using pymatgen
data_Tb9Ho2In9Ru4
_symmetry_space_group_name_H-M   'P 1'
_cell_length_a   3.77675800
_cell_length_b   13.00778828
_cell_length_c   13.00546101
_cell_angle_alpha   112.59434705
_cell_angle_beta   90.00000000
_cell_angle_gamma   90.00000000
_symmetry_Int_Tables_number   1
_chemical_formula_structural   Tb9Ho2In9Ru4
_chemical_formula_sum   'Tb9 Ho2 In9 Ru4'
_cell_volume   589.88425547
_cell_formula_units_Z   1
loop_
 _symmetry_equiv_pos_site_id
 _symmetry_equiv_pos_as_xyz
  1  'x, y, z'
loop_
 _atom_site_type_symbol
 _atom_site_label
 _atom_site_symmetry_multiplicity
 _atom_site_fract_x
 _atom_site_fract_y
 _atom_site_fract_z
 _atom_site_occupancy
  Tb  Tb0  1  0.000000  0.581356  0.917198  1
  Tb  Tb1  1  0.000000  0.418644  0.082802  1
  Tb  Tb2  1  0.000000  0.161681  0.838103  1
  Tb  Tb3  1  0.000000  0.838319  0.161897  1
  Tb  Tb4  1  0.000000  0.374295  0.625535  1
  Tb  Tb5  1  0.000000  0.625705  0.374465  1
  Tb  Tb6  1  0.000000  0.689607  0.689391  1
  Tb  Tb7  1  0.000000  0.310393  0.310609  1
  Tb  Tb8  1  0.000000  0.000000  0.000000  1
  Ho  Ho9  1  0.000000  0.916690  0.581313  1
  Ho  Ho10  1  0.000000  0.083310  0.418687  1
  In  In11  1  0.500000  0.156603  0.631434  1
  In  In12  1  0.500000  0.843397  0.368566  1
  In  In13  1  0.500000  0.631932  0.157047  1
  In  In14  1  0.500000  0.368068  0.842953  1
  In  In15  1  0.500000  0.925552  0.780174  1
  In  In16  1  0.500000  0.074448  0.219826  1
  In  In17  1  0.500000  0.780628  0.925523  1
  In  In18  1  0.500000  0.219372  0.074477  1
  In  In19  1  0.500000  0.500000  0.500000  1
  Ru  Ru20  1  0.500000  0.747736  0.551049  1
  Ru  Ru21  1  0.500000  0.252264  0.448951  1
  Ru  Ru22  1  0.500000  0.551085  0.747401  1
  Ru  Ru23  1  0.500000  0.448915  0.252599  1
