# generated using pymatgen
data_DyTm2Lu3Co2
_symmetry_space_group_name_H-M   'P 1'
_cell_length_a   6.12679777
_cell_length_b   6.87313100
_cell_length_c   9.16831705
_cell_angle_alpha   90.00000000
_cell_angle_beta   90.26330831
_cell_angle_gamma   90.00000000
_symmetry_Int_Tables_number   1
_chemical_formula_structural   DyTm2Lu3Co2
_chemical_formula_sum   'Dy2 Tm4 Lu6 Co4'
_cell_volume   386.07635505
_cell_formula_units_Z   2
loop_
 _symmetry_equiv_pos_site_id
 _symmetry_equiv_pos_as_xyz
  1  'x, y, z'
loop_
 _atom_site_type_symbol
 _atom_site_label
 _atom_site_symmetry_multiplicity
 _atom_site_fract_x
 _atom_site_fract_y
 _atom_site_fract_z
 _atom_site_occupancy
  Dy  Dy0  1  0.134731  0.459679  0.749900  1
  Dy  Dy1  1  0.365269  0.959679  0.750100  1
  Tm  Tm2  1  0.321757  0.675389  0.067982  1
  Tm  Tm3  1  0.178243  0.175389  0.432018  1
  Tm  Tm4  1  0.861236  0.540955  0.250665  1
  Tm  Tm5  1  0.638764  0.040955  0.249335  1
  Lu  Lu6  1  0.676682  0.324548  0.566423  1
  Lu  Lu7  1  0.823318  0.824548  0.933577  1
  Lu  Lu8  1  0.675144  0.325299  0.933615  1
  Lu  Lu9  1  0.824856  0.825299  0.566385  1
  Lu  Lu10  1  0.324964  0.674772  0.433083  1
  Lu  Lu11  1  0.175036  0.174772  0.066917  1
  Co  Co12  1  0.046538  0.886303  0.250379  1
  Co  Co13  1  0.453462  0.386303  0.249621  1
  Co  Co14  1  0.950363  0.113054  0.752947  1
  Co  Co15  1  0.549637  0.613054  0.747053  1
