# generated using pymatgen
data_P10PbAu4
_symmetry_space_group_name_H-M   'P 1'
_cell_length_a   7.65161696
_cell_length_b   7.65161640
_cell_length_c   7.65161619
_cell_angle_alpha   60.27512254
_cell_angle_beta   60.27512011
_cell_angle_gamma   60.27512789
_symmetry_Int_Tables_number   1
_chemical_formula_structural   P10PbAu4
_chemical_formula_sum   'P10 Pb1 Au4'
_cell_volume   318.74287217
_cell_formula_units_Z   1
loop_
 _symmetry_equiv_pos_site_id
 _symmetry_equiv_pos_as_xyz
  1  'x, y, z'
loop_
 _atom_site_type_symbol
 _atom_site_label
 _atom_site_symmetry_multiplicity
 _atom_site_fract_x
 _atom_site_fract_y
 _atom_site_fract_z
 _atom_site_occupancy
  P  P0  1  0.981752  0.516244  0.981752  1
  P  P1  1  0.981752  0.981752  0.516244  1
  P  P2  1  0.867909  0.867909  0.867909  1
  P  P3  1  0.865498  0.393272  0.865498  1
  P  P4  1  0.986854  0.512022  0.512022  1
  P  P5  1  0.516244  0.981752  0.981752  1
  P  P6  1  0.865498  0.865498  0.393272  1
  P  P7  1  0.393272  0.865498  0.865498  1
  P  P8  1  0.512022  0.512022  0.986854  1
  P  P9  1  0.512022  0.986854  0.512022  1
  Pb  Pb10  1  0.433944  0.433944  0.433944  1
  Au  Au11  1  0.999677  0.999677  0.999677  1
  Au  Au12  1  0.906901  0.360677  0.360677  1
  Au  Au13  1  0.360677  0.906901  0.360677  1
  Au  Au14  1  0.360677  0.360677  0.906901  1
