# generated using pymatgen
data_Tm9LuInSb5
_symmetry_space_group_name_H-M   'P 1'
_cell_length_a   8.84476504
_cell_length_b   8.84292639
_cell_length_c   6.29554814
_cell_angle_alpha   90.01499752
_cell_angle_beta   90.00877662
_cell_angle_gamma   120.01416456
_symmetry_Int_Tables_number   1
_chemical_formula_structural   Tm9LuInSb5
_chemical_formula_sum   'Tm9 Lu1 In1 Sb5'
_cell_volume   426.36784845
_cell_formula_units_Z   1
loop_
 _symmetry_equiv_pos_site_id
 _symmetry_equiv_pos_as_xyz
  1  'x, y, z'
loop_
 _atom_site_type_symbol
 _atom_site_label
 _atom_site_symmetry_multiplicity
 _atom_site_fract_x
 _atom_site_fract_y
 _atom_site_fract_z
 _atom_site_occupancy
  Tm  Tm0  1  0.665979  0.330819  0.500415  1
  Tm  Tm1  1  0.666033  0.330972  0.999498  1
  Tm  Tm2  1  0.335197  0.669199  0.500376  1
  Tm  Tm3  1  0.242301  0.000018  0.250006  1
  Tm  Tm4  1  0.758233  0.999981  0.750112  1
  Tm  Tm5  1  0.996267  0.240313  0.249881  1
  Tm  Tm6  1  0.755971  0.759660  0.250008  1
  Tm  Tm7  1  0.244428  0.242660  0.750039  1
  Tm  Tm8  1  0.001603  0.757246  0.749999  1
  Lu  Lu9  1  0.335311  0.669290  0.999785  1
  In  In10  1  0.605364  0.999559  0.249616  1
  Sb  Sb11  1  0.391738  0.999589  0.750407  1
  Sb  Sb12  1  0.999458  0.609207  0.249656  1
  Sb  Sb13  1  0.389740  0.391060  0.249595  1
  Sb  Sb14  1  0.610153  0.608800  0.750270  1
  Sb  Sb15  1  0.002222  0.391628  0.750337  1
