# generated using pymatgen
data_Er10Si5P
_symmetry_space_group_name_H-M   'P 1'
_cell_length_a   8.32499500
_cell_length_b   8.33440179
_cell_length_c   6.23591300
_cell_angle_alpha   90.00000000
_cell_angle_beta   90.00000000
_cell_angle_gamma   119.96265902
_symmetry_Int_Tables_number   1
_chemical_formula_structural   Er10Si5P
_chemical_formula_sum   'Er10 Si5 P1'
_cell_volume   374.84557104
_cell_formula_units_Z   1
loop_
 _symmetry_equiv_pos_site_id
 _symmetry_equiv_pos_as_xyz
  1  'x, y, z'
loop_
 _atom_site_type_symbol
 _atom_site_label
 _atom_site_symmetry_multiplicity
 _atom_site_fract_x
 _atom_site_fract_y
 _atom_site_fract_z
 _atom_site_occupancy
  Er  Er0  1  0.001259  0.757594  0.750000  1
  Er  Er1  1  0.000607  0.243580  0.250000  1
  Er  Er2  1  0.757027  0.756420  0.250000  1
  Er  Er3  1  0.756041  0.000000  0.750000  1
  Er  Er4  1  0.243664  0.242406  0.750000  1
  Er  Er5  1  0.242878  0.000000  0.250000  1
  Er  Er6  1  0.333594  0.667253  0.500522  1
  Er  Er7  1  0.666342  0.332747  0.999478  1
  Er  Er8  1  0.666342  0.332747  0.500522  1
  Er  Er9  1  0.333594  0.667253  0.999478  1
  Si  Si10  1  0.394582  0.394123  0.250000  1
  Si  Si11  1  0.000459  0.605877  0.250000  1
  Si  Si12  1  0.000035  0.394205  0.750000  1
  Si  Si13  1  0.605831  0.605795  0.750000  1
  Si  Si14  1  0.606327  0.000000  0.250000  1
  P  P15  1  0.391419  0.000000  0.750000  1
