# generated using pymatgen
data_Ba12TaNb3(P3O)4
_symmetry_space_group_name_H-M   'P 1'
_cell_length_a   6.68676602
_cell_length_b   11.01971400
_cell_length_c   13.43749604
_cell_angle_alpha   90.00000000
_cell_angle_beta   89.99083643
_cell_angle_gamma   90.00000000
_symmetry_Int_Tables_number   1
_chemical_formula_structural   Ba12TaNb3(P3O)4
_chemical_formula_sum   'Ba12 Ta1 Nb3 P12 O4'
_cell_volume   990.15866858
_cell_formula_units_Z   1
loop_
 _symmetry_equiv_pos_site_id
 _symmetry_equiv_pos_as_xyz
  1  'x, y, z'
loop_
 _atom_site_type_symbol
 _atom_site_label
 _atom_site_symmetry_multiplicity
 _atom_site_fract_x
 _atom_site_fract_y
 _atom_site_fract_z
 _atom_site_occupancy
  Ba  Ba0  1  0.246047  0.043604  0.132276  1
  Ba  Ba1  1  0.253712  0.543209  0.632411  1
  Ba  Ba2  1  0.246047  0.456396  0.132276  1
  Ba  Ba3  1  0.745978  0.043548  0.367752  1
  Ba  Ba4  1  0.753949  0.956404  0.867648  1
  Ba  Ba5  1  0.745978  0.456452  0.367752  1
  Ba  Ba6  1  0.753949  0.543596  0.867648  1
  Ba  Ba7  1  0.253712  0.956791  0.632411  1
  Ba  Ba8  1  0.274418  0.250000  0.870164  1
  Ba  Ba9  1  0.774256  0.250000  0.629861  1
  Ba  Ba10  1  0.725662  0.750000  0.130012  1
  Ba  Ba11  1  0.225162  0.750000  0.369842  1
  Ta  Ta12  1  0.665460  0.750000  0.545326  1
  Nb  Nb13  1  0.334372  0.250000  0.454536  1
  Nb  Nb14  1  0.165530  0.750000  0.954557  1
  Nb  Nb15  1  0.834391  0.250000  0.045452  1
  P  P16  1  0.273031  0.250000  0.630541  1
  P  P17  1  0.773233  0.250000  0.869455  1
  P  P18  1  0.726179  0.750000  0.369552  1
  P  P19  1  0.226716  0.750000  0.130528  1
  P  P20  1  0.736497  0.441403  0.115980  1
  P  P21  1  0.236531  0.441412  0.384028  1
  P  P22  1  0.263429  0.941398  0.884005  1
  P  P23  1  0.763078  0.558936  0.615967  1
  P  P24  1  0.263429  0.558602  0.884005  1
  P  P25  1  0.763078  0.941064  0.615967  1
  P  P26  1  0.736497  0.058597  0.115980  1
  P  P27  1  0.236531  0.058588  0.384028  1
  O  O28  1  0.119789  0.250000  0.053317  1
  O  O29  1  0.619764  0.250000  0.446712  1
  O  O30  1  0.880152  0.750000  0.946700  1
  O  O31  1  0.383444  0.750000  0.553314  1
