# generated using pymatgen
data_Tm8Mg2Sn7Au
_symmetry_space_group_name_H-M   'P 1'
_cell_length_a   7.44675300
_cell_length_b   8.12703825
_cell_length_c   15.08274300
_cell_angle_alpha   90.00000000
_cell_angle_beta   90.00000000
_cell_angle_gamma   90.11099558
_symmetry_Int_Tables_number   1
_chemical_formula_structural   Tm8Mg2Sn7Au
_chemical_formula_sum   'Tm16 Mg4 Sn14 Au2'
_cell_volume   912.80659440
_cell_formula_units_Z   2
loop_
 _symmetry_equiv_pos_site_id
 _symmetry_equiv_pos_as_xyz
  1  'x, y, z'
loop_
 _atom_site_type_symbol
 _atom_site_label
 _atom_site_symmetry_multiplicity
 _atom_site_fract_x
 _atom_site_fract_y
 _atom_site_fract_z
 _atom_site_occupancy
  Tm  Tm0  1  0.318255  0.164060  0.628816  1
  Tm  Tm1  1  0.681745  0.835940  0.371184  1
  Tm  Tm2  1  0.154315  0.674372  0.368133  1
  Tm  Tm3  1  0.681745  0.835940  0.128816  1
  Tm  Tm4  1  0.845685  0.325628  0.631867  1
  Tm  Tm5  1  0.318255  0.164060  0.871184  1
  Tm  Tm6  1  0.845685  0.325628  0.868133  1
  Tm  Tm7  1  0.154315  0.674372  0.131867  1
  Tm  Tm8  1  0.995545  0.181431  0.088778  1
  Tm  Tm9  1  0.004455  0.818569  0.911222  1
  Tm  Tm10  1  0.503518  0.688580  0.907808  1
  Tm  Tm11  1  0.004455  0.818569  0.588778  1
  Tm  Tm12  1  0.496482  0.311420  0.092192  1
  Tm  Tm13  1  0.995545  0.181431  0.411222  1
  Tm  Tm14  1  0.496482  0.311420  0.407808  1
  Tm  Tm15  1  0.503518  0.688580  0.592192  1
  Mg  Mg16  1  0.163063  0.500901  0.750000  1
  Mg  Mg17  1  0.836937  0.499099  0.250000  1
  Mg  Mg18  1  0.328983  0.998932  0.250000  1
  Mg  Mg19  1  0.671017  0.001068  0.750000  1
  Sn  Sn20  1  0.475285  0.599854  0.250000  1
  Sn  Sn21  1  0.524715  0.400146  0.750000  1
  Sn  Sn22  1  0.186189  0.466451  0.536691  1
  Sn  Sn23  1  0.813811  0.533549  0.463309  1
  Sn  Sn24  1  0.318501  0.962768  0.457678  1
  Sn  Sn25  1  0.813811  0.533549  0.036691  1
  Sn  Sn26  1  0.681499  0.037232  0.542322  1
  Sn  Sn27  1  0.186189  0.466451  0.963309  1
  Sn  Sn28  1  0.681499  0.037232  0.957678  1
  Sn  Sn29  1  0.318501  0.962768  0.042322  1
  Sn  Sn30  1  0.294378  0.850309  0.750000  1
  Sn  Sn31  1  0.705622  0.149691  0.250000  1
  Sn  Sn32  1  0.197049  0.347866  0.250000  1
  Sn  Sn33  1  0.802951  0.652134  0.750000  1
  Au  Au34  1  0.024920  0.100967  0.750000  1
  Au  Au35  1  0.975080  0.899033  0.250000  1
