# generated using pymatgen
data_Ca3La6ThSi8O3
_symmetry_space_group_name_H-M   'P 1'
_cell_length_a   10.76417114
_cell_length_b   10.76417079
_cell_length_c   4.57628500
_cell_angle_alpha   90.00000000
_cell_angle_beta   90.00000000
_cell_angle_gamma   120.01865363
_symmetry_Int_Tables_number   1
_chemical_formula_structural   Ca3La6ThSi8O3
_chemical_formula_sum   'Ca3 La6 Th1 Si8 O3'
_cell_volume   459.11682212
_cell_formula_units_Z   1
loop_
 _symmetry_equiv_pos_site_id
 _symmetry_equiv_pos_as_xyz
  1  'x, y, z'
loop_
 _atom_site_type_symbol
 _atom_site_label
 _atom_site_symmetry_multiplicity
 _atom_site_fract_x
 _atom_site_fract_y
 _atom_site_fract_z
 _atom_site_occupancy
  Ca  Ca0  1  0.001093  0.500800  0.500000  1
  Ca  Ca1  1  0.500755  0.499245  0.500000  1
  Ca  Ca2  1  0.499200  0.998907  0.500000  1
  La  La3  1  0.572043  0.782146  0.000000  1
  La  La4  1  0.787697  0.577252  0.000000  1
  La  La5  1  0.001060  0.998940  0.000000  1
  La  La6  1  0.217854  0.427957  0.000000  1
  La  La7  1  0.422748  0.212303  0.000000  1
  La  La8  1  0.789219  0.210781  0.000000  1
  Th  Th9  1  0.214816  0.785184  0.000000  1
  Si  Si10  1  0.001033  0.780555  0.500000  1
  Si  Si11  1  0.999400  0.220544  0.500000  1
  Si  Si12  1  0.218517  0.218432  0.500000  1
  Si  Si13  1  0.779456  0.000600  0.500000  1
  Si  Si14  1  0.332600  0.667400  0.500000  1
  Si  Si15  1  0.219445  0.998967  0.500000  1
  Si  Si16  1  0.668383  0.331617  0.500000  1
  Si  Si17  1  0.781568  0.781483  0.500000  1
  O  O18  1  0.029014  0.532168  0.000000  1
  O  O19  1  0.496266  0.503734  0.000000  1
  O  O20  1  0.467832  0.970986  0.000000  1
