# generated using pymatgen
data_Mn19CrNi(WC3)2
_symmetry_space_group_name_H-M   'P 1'
_cell_length_a   7.40166248
_cell_length_b   7.40125932
_cell_length_c   7.40125903
_cell_angle_alpha   60.13446371
_cell_angle_beta   59.99820872
_cell_angle_gamma   59.99820593
_symmetry_Int_Tables_number   1
_chemical_formula_structural   Mn19CrNi(WC3)2
_chemical_formula_sum   'Mn19 Cr1 Ni1 W2 C6'
_cell_volume   286.98097273
_cell_formula_units_Z   1
loop_
 _symmetry_equiv_pos_site_id
 _symmetry_equiv_pos_as_xyz
  1  'x, y, z'
loop_
 _atom_site_type_symbol
 _atom_site_label
 _atom_site_symmetry_multiplicity
 _atom_site_fract_x
 _atom_site_fract_y
 _atom_site_fract_z
 _atom_site_occupancy
  Mn  Mn0  1  0.616162  0.615955  0.151877  1
  Mn  Mn1  1  0.616162  0.151876  0.615955  1
  Mn  Mn2  1  0.152315  0.616173  0.616173  1
  Mn  Mn3  1  0.614156  0.616535  0.616535  1
  Mn  Mn4  1  0.383995  0.384045  0.848123  1
  Mn  Mn5  1  0.383995  0.848123  0.384045  1
  Mn  Mn6  1  0.847225  0.383465  0.383465  1
  Mn  Mn7  1  0.384662  0.383827  0.383827  1
  Mn  Mn8  1  0.001003  0.999891  0.336833  1
  Mn  Mn9  1  0.662344  0.998808  0.337751  1
  Mn  Mn10  1  0.000719  0.662898  0.337102  1
  Mn  Mn11  1  0.662344  0.337751  0.998808  1
  Mn  Mn12  1  0.001003  0.336833  0.999891  1
  Mn  Mn13  1  0.000719  0.337102  0.662898  1
  Mn  Mn14  1  0.337726  0.663167  0.000109  1
  Mn  Mn15  1  0.337726  0.000109  0.663167  1
  Mn  Mn16  1  0.336651  0.000000  0.000000  1
  Mn  Mn17  1  0.998904  0.001192  0.662249  1
  Mn  Mn18  1  0.998904  0.662249  0.001192  1
  Cr  Cr19  1  0.664217  0.000000  0.000000  1
  Ni  Ni20  1  0.999954  0.000000  0.000000  1
  W  W21  1  0.749759  0.749328  0.749328  1
  W  W22  1  0.248415  0.250672  0.250672  1
  C  C23  1  0.724704  0.719795  0.280205  1
  C  C24  1  0.275784  0.724910  0.275090  1
  C  C25  1  0.725771  0.274212  0.274212  1
  C  C26  1  0.275784  0.275090  0.724910  1
  C  C27  1  0.724704  0.280205  0.719795  1
  C  C28  1  0.274196  0.725788  0.725788  1
