# generated using pymatgen
data_La2FeH3Pd16
_symmetry_space_group_name_H-M   'P 1'
_cell_length_a   7.00448059
_cell_length_b   7.03555757
_cell_length_c   7.00447987
_cell_angle_alpha   83.44352123
_cell_angle_beta   82.46803363
_cell_angle_gamma   83.44352694
_symmetry_Int_Tables_number   1
_chemical_formula_structural   La2FeH3Pd16
_chemical_formula_sum   'La2 Fe1 H3 Pd16'
_cell_volume   338.23795965
_cell_formula_units_Z   1
loop_
 _symmetry_equiv_pos_site_id
 _symmetry_equiv_pos_as_xyz
  1  'x, y, z'
loop_
 _atom_site_type_symbol
 _atom_site_label
 _atom_site_symmetry_multiplicity
 _atom_site_fract_x
 _atom_site_fract_y
 _atom_site_fract_z
 _atom_site_occupancy
  La  La0  1  0.660301  0.669951  0.660301  1
  La  La1  1  0.339699  0.330049  0.339699  1
  Fe  Fe2  1  0.000000  0.500000  0.000000  1
  H  H3  1  0.500000  0.500000  0.000000  1
  H  H4  1  0.000000  0.500000  0.500000  1
  H  H5  1  0.500000  0.000000  0.500000  1
  Pd  Pd6  1  0.000000  0.000000  0.500000  1
  Pd  Pd7  1  0.500000  0.000000  0.000000  1
  Pd  Pd8  1  0.708034  0.299078  0.001773  1
  Pd  Pd9  1  0.998227  0.700922  0.291966  1
  Pd  Pd10  1  0.295823  0.000000  0.704177  1
  Pd  Pd11  1  0.001773  0.299078  0.708034  1
  Pd  Pd12  1  0.704177  0.000000  0.295823  1
  Pd  Pd13  1  0.291966  0.700922  0.998227  1
  Pd  Pd14  1  0.346122  0.351056  0.855152  1
  Pd  Pd15  1  0.855152  0.351056  0.346122  1
  Pd  Pd16  1  0.349791  0.844421  0.349791  1
  Pd  Pd17  1  0.653878  0.648944  0.144848  1
  Pd  Pd18  1  0.144848  0.648944  0.653878  1
  Pd  Pd19  1  0.650209  0.155579  0.650209  1
  Pd  Pd20  1  0.901583  0.890329  0.901583  1
  Pd  Pd21  1  0.098417  0.109671  0.098417  1
