# generated using pymatgen
data_Tb2Pr8Si7Ge
_symmetry_space_group_name_H-M   'P 1'
_cell_length_a   7.86695906
_cell_length_b   7.86624225
_cell_length_c   15.32869029
_cell_angle_alpha   89.93097398
_cell_angle_beta   89.89314500
_cell_angle_gamma   89.99453296
_symmetry_Int_Tables_number   1
_chemical_formula_structural   Tb2Pr8Si7Ge
_chemical_formula_sum   'Tb4 Pr16 Si14 Ge2'
_cell_volume   948.58921858
_cell_formula_units_Z   2
loop_
 _symmetry_equiv_pos_site_id
 _symmetry_equiv_pos_as_xyz
  1  'x, y, z'
loop_
 _atom_site_type_symbol
 _atom_site_label
 _atom_site_symmetry_multiplicity
 _atom_site_fract_x
 _atom_site_fract_y
 _atom_site_fract_z
 _atom_site_occupancy
  Tb  Tb0  1  0.309802  0.306150  0.000796  1
  Tb  Tb1  1  0.190860  0.809350  0.250155  1
  Tb  Tb2  1  0.806022  0.189422  0.750063  1
  Tb  Tb3  1  0.689915  0.690902  0.499406  1
  Pr  Pr4  1  0.378267  0.013113  0.445756  1
  Pr  Pr5  1  0.488618  0.876508  0.695971  1
  Pr  Pr6  1  0.513135  0.122175  0.196190  1
  Pr  Pr7  1  0.878298  0.487194  0.304289  1
  Pr  Pr8  1  0.119899  0.511653  0.803811  1
  Pr  Pr9  1  0.624088  0.988490  0.946433  1
  Pr  Pr10  1  0.011229  0.379814  0.552944  1
  Pr  Pr11  1  0.986851  0.621588  0.055347  1
  Pr  Pr12  1  0.124619  0.978855  0.878514  1
  Pr  Pr13  1  0.522544  0.626114  0.128776  1
  Pr  Pr14  1  0.478300  0.376105  0.628290  1
  Pr  Pr15  1  0.628095  0.521136  0.871616  1
  Pr  Pr16  1  0.374624  0.477457  0.371659  1
  Pr  Pr17  1  0.874419  0.023063  0.378485  1
  Pr  Pr18  1  0.976826  0.125859  0.122381  1
  Pr  Pr19  1  0.020277  0.872347  0.620795  1
  Si  Si20  1  0.670466  0.310978  0.457224  1
  Si  Si21  1  0.689727  0.330443  0.043320  1
  Si  Si22  1  0.310628  0.671421  0.542747  1
  Si  Si23  1  0.811042  0.828590  0.207598  1
  Si  Si24  1  0.170880  0.189720  0.293312  1
  Si  Si25  1  0.829911  0.810652  0.792836  1
  Si  Si26  1  0.287065  0.925528  0.064193  1
  Si  Si27  1  0.578135  0.787093  0.312925  1
  Si  Si28  1  0.425074  0.212208  0.814286  1
  Si  Si29  1  0.786904  0.577814  0.687055  1
  Si  Si30  1  0.213285  0.422069  0.187376  1
  Si  Si31  1  0.712089  0.078632  0.563032  1
  Si  Si32  1  0.922777  0.287280  0.937478  1
  Si  Si33  1  0.078362  0.713551  0.436935  1
  Ge  Ge34  1  0.187362  0.169395  0.703759  1
  Ge  Ge35  1  0.329604  0.687333  0.954246  1
