# generated using pymatgen
data_Ba4MnV2FeN8
_symmetry_space_group_name_H-M   'P 1'
_cell_length_a   6.51967731
_cell_length_b   6.51967665
_cell_length_c   7.80996478
_cell_angle_alpha   90.39935949
_cell_angle_beta   89.60063421
_cell_angle_gamma   126.74214260
_symmetry_Int_Tables_number   1
_chemical_formula_structural   Ba4MnV2FeN8
_chemical_formula_sum   'Ba4 Mn1 V2 Fe1 N8'
_cell_volume   266.01284496
_cell_formula_units_Z   1
loop_
 _symmetry_equiv_pos_site_id
 _symmetry_equiv_pos_as_xyz
  1  'x, y, z'
loop_
 _atom_site_type_symbol
 _atom_site_label
 _atom_site_symmetry_multiplicity
 _atom_site_fract_x
 _atom_site_fract_y
 _atom_site_fract_z
 _atom_site_occupancy
  Ba  Ba0  1  0.839627  0.160373  0.565493  1
  Ba  Ba1  1  0.161823  0.838177  0.436728  1
  Ba  Ba2  1  0.662756  0.337244  0.060445  1
  Ba  Ba3  1  0.342577  0.657423  0.935379  1
  Mn  Mn4  1  0.057846  0.942154  0.858130  1
  V  V5  1  0.449564  0.550436  0.369717  1
  V  V6  1  0.949892  0.050108  0.132706  1
  Fe  Fe7  1  0.559097  0.440903  0.640702  1
  N  N8  1  0.893194  0.106806  0.915421  1
  N  N9  1  0.106926  0.893074  0.091115  1
  N  N10  1  0.606282  0.393718  0.407559  1
  N  N11  1  0.391260  0.608740  0.583911  1
  N  N12  1  0.341157  0.154762  0.750592  1
  N  N13  1  0.146564  0.353803  0.250755  1
  N  N14  1  0.646197  0.853436  0.250755  1
  N  N15  1  0.845238  0.658843  0.750592  1
