# generated using pymatgen
data_PrCu(PtAu)2
_symmetry_space_group_name_H-M   'P 1'
_cell_length_a   5.49595274
_cell_length_b   5.29781854
_cell_length_c   5.49595239
_cell_angle_alpha   121.35047641
_cell_angle_beta   119.43980375
_cell_angle_gamma   90.41463126
_symmetry_Int_Tables_number   1
_chemical_formula_structural   PrCu(PtAu)2
_chemical_formula_sum   'Pr1 Cu1 Pt2 Au2'
_cell_volume   111.32637665
_cell_formula_units_Z   1
loop_
 _symmetry_equiv_pos_site_id
 _symmetry_equiv_pos_as_xyz
  1  'x, y, z'
loop_
 _atom_site_type_symbol
 _atom_site_label
 _atom_site_symmetry_multiplicity
 _atom_site_fract_x
 _atom_site_fract_y
 _atom_site_fract_z
 _atom_site_occupancy
  Pr  Pr0  1  0.005630  0.005633  0.000003  1
  Cu  Cu1  1  0.622550  0.870375  0.247826  1
  Pt  Pt2  1  0.124807  0.372074  0.749739  1
  Pt  Pt3  1  0.622335  0.372074  0.247268  1
  Au  Au4  1  0.622232  0.372177  0.749945  1
  Au  Au5  1  0.252447  0.757666  0.505219  1
