# generated using pymatgen
data_HfZr7Nb12Si15Ge
_symmetry_space_group_name_H-M   'P 1'
_cell_length_a   6.71250307
_cell_length_b   6.89546207
_cell_length_c   13.17070617
_cell_angle_alpha   90.01513065
_cell_angle_beta   90.01094754
_cell_angle_gamma   90.00338178
_symmetry_Int_Tables_number   1
_chemical_formula_structural   HfZr7Nb12Si15Ge
_chemical_formula_sum   'Hf1 Zr7 Nb12 Si15 Ge1'
_cell_volume   609.61677375
_cell_formula_units_Z   1
loop_
 _symmetry_equiv_pos_site_id
 _symmetry_equiv_pos_as_xyz
  1  'x, y, z'
loop_
 _atom_site_type_symbol
 _atom_site_label
 _atom_site_symmetry_multiplicity
 _atom_site_fract_x
 _atom_site_fract_y
 _atom_site_fract_z
 _atom_site_occupancy
  Hf  Hf0  1  0.996771  0.826200  0.594084  1
  Zr  Zr1  1  0.497568  0.673607  0.594647  1
  Zr  Zr2  1  0.997238  0.826076  0.906056  1
  Zr  Zr3  1  0.500872  0.326694  0.093180  1
  Zr  Zr4  1  0.005063  0.170571  0.408473  1
  Zr  Zr5  1  0.500746  0.326352  0.406928  1
  Zr  Zr6  1  0.004982  0.170836  0.091899  1
  Zr  Zr7  1  0.497319  0.673645  0.905139  1
  Nb  Nb8  1  0.662987  0.170669  0.623767  1
  Nb  Nb9  1  0.162753  0.329404  0.875887  1
  Nb  Nb10  1  0.336568  0.829949  0.123637  1
  Nb  Nb11  1  0.838286  0.673565  0.377224  1
  Nb  Nb12  1  0.336274  0.829933  0.376547  1
  Nb  Nb13  1  0.837791  0.673108  0.123223  1
  Nb  Nb14  1  0.662754  0.170769  0.875845  1
  Nb  Nb15  1  0.162762  0.329321  0.623861  1
  Nb  Nb16  1  0.837838  0.497340  0.749754  1
  Nb  Nb17  1  0.337438  0.003305  0.749639  1
  Nb  Nb18  1  0.164951  0.504732  0.250102  1
  Nb  Nb19  1  0.660541  0.993227  0.250162  1
  Si  Si20  1  0.670539  0.962596  0.461967  1
  Si  Si21  1  0.170362  0.537710  0.038627  1
  Si  Si22  1  0.329257  0.037485  0.960682  1
  Si  Si23  1  0.829298  0.463486  0.539104  1
  Si  Si24  1  0.327933  0.036550  0.539533  1
  Si  Si25  1  0.828901  0.462482  0.961151  1
  Si  Si26  1  0.670133  0.962654  0.038209  1
  Si  Si27  1  0.170273  0.538072  0.461687  1
  Si  Si28  1  0.461506  0.386498  0.749912  1
  Si  Si29  1  0.961495  0.113935  0.749742  1
  Si  Si30  1  0.537858  0.616156  0.250148  1
  Si  Si31  1  0.038379  0.886452  0.250018  1
  Si  Si32  1  0.705478  0.862848  0.749533  1
  Si  Si33  1  0.203372  0.638138  0.749388  1
  Si  Si34  1  0.295524  0.137954  0.250063  1
  Ge  Ge35  1  0.798189  0.357675  0.250186  1
