# generated using pymatgen
data_Zr2Co2Si7Ni10
_symmetry_space_group_name_H-M   'P 1'
_cell_length_a   9.18311118
_cell_length_b   9.17105202
_cell_length_c   3.54227500
_cell_angle_alpha   90.00000000
_cell_angle_beta   90.00000000
_cell_angle_gamma   119.98532897
_symmetry_Int_Tables_number   1
_chemical_formula_structural   Zr2Co2Si7Ni10
_chemical_formula_sum   'Zr2 Co2 Si7 Ni10'
_cell_volume   258.39618073
_cell_formula_units_Z   1
loop_
 _symmetry_equiv_pos_site_id
 _symmetry_equiv_pos_as_xyz
  1  'x, y, z'
loop_
 _atom_site_type_symbol
 _atom_site_label
 _atom_site_symmetry_multiplicity
 _atom_site_fract_x
 _atom_site_fract_y
 _atom_site_fract_z
 _atom_site_occupancy
  Zr  Zr0  1  0.001694  0.000435  0.000000  1
  Zr  Zr1  1  0.330245  0.664289  0.500000  1
  Co  Co2  1  0.284445  0.391581  0.000000  1
  Co  Co3  1  0.106023  0.714713  0.000000  1
  Si  Si4  1  0.666207  0.333539  0.000000  1
  Si  Si5  1  0.071545  0.455333  0.000000  1
  Si  Si6  1  0.258081  0.219384  0.500000  1
  Si  Si7  1  0.783393  0.040548  0.500000  1
  Si  Si8  1  0.961376  0.742132  0.500000  1
  Si  Si9  1  0.543884  0.614148  0.000000  1
  Si  Si10  1  0.382186  0.927775  0.000000  1
  Ni  Ni11  1  0.887880  0.459265  0.500000  1
  Ni  Ni12  1  0.539191  0.428464  0.500000  1
  Ni  Ni13  1  0.387957  0.176782  0.000000  1
  Ni  Ni14  1  0.788778  0.611988  0.000000  1
  Ni  Ni15  1  0.823046  0.211198  0.000000  1
  Ni  Ni16  1  0.235090  0.951162  0.500000  1
  Ni  Ni17  1  0.048994  0.283515  0.500000  1
  Ni  Ni18  1  0.717406  0.766303  0.500000  1
  Ni  Ni19  1  0.574020  0.115055  0.500000  1
  Ni  Ni20  1  0.608558  0.892394  0.000000  1
