# generated using pymatgen
data_Pr12OsRh3
_symmetry_space_group_name_H-M   'P 1'
_cell_length_a   6.52956985
_cell_length_b   7.44683275
_cell_length_c   9.99486800
_cell_angle_alpha   90.00000000
_cell_angle_beta   90.00000000
_cell_angle_gamma   90.17668834
_symmetry_Int_Tables_number   1
_chemical_formula_structural   Pr12OsRh3
_chemical_formula_sum   'Pr12 Os1 Rh3'
_cell_volume   485.99429379
_cell_formula_units_Z   1
loop_
 _symmetry_equiv_pos_site_id
 _symmetry_equiv_pos_as_xyz
  1  'x, y, z'
loop_
 _atom_site_type_symbol
 _atom_site_label
 _atom_site_symmetry_multiplicity
 _atom_site_fract_x
 _atom_site_fract_y
 _atom_site_fract_z
 _atom_site_occupancy
  Pr  Pr0  1  0.334119  0.676234  0.063866  1
  Pr  Pr1  1  0.166448  0.176775  0.432972  1
  Pr  Pr2  1  0.668826  0.324916  0.568180  1
  Pr  Pr3  1  0.829003  0.821161  0.932320  1
  Pr  Pr4  1  0.668826  0.324916  0.931820  1
  Pr  Pr5  1  0.829003  0.821161  0.567680  1
  Pr  Pr6  1  0.334119  0.676234  0.436134  1
  Pr  Pr7  1  0.166448  0.176775  0.067028  1
  Pr  Pr8  1  0.856952  0.536433  0.250000  1
  Pr  Pr9  1  0.645179  0.036687  0.250000  1
  Pr  Pr10  1  0.146531  0.466646  0.750000  1
  Pr  Pr11  1  0.357529  0.963652  0.750000  1
  Os  Os12  1  0.561446  0.618137  0.750000  1
  Rh  Rh13  1  0.068829  0.881648  0.250000  1
  Rh  Rh14  1  0.433162  0.381497  0.250000  1
  Rh  Rh15  1  0.933579  0.117129  0.750000  1
