# generated using pymatgen
data_LuSc(B3Mo)2
_symmetry_space_group_name_H-M   'P 1'
_cell_length_a   3.12184300
_cell_length_b   5.34722632
_cell_length_c   6.68380891
_cell_angle_alpha   79.47265362
_cell_angle_beta   90.00000000
_cell_angle_gamma   90.00000000
_symmetry_Int_Tables_number   1
_chemical_formula_structural   LuSc(B3Mo)2
_chemical_formula_sum   'Lu1 Sc1 B6 Mo2'
_cell_volume   109.69612914
_cell_formula_units_Z   1
loop_
 _symmetry_equiv_pos_site_id
 _symmetry_equiv_pos_as_xyz
  1  'x, y, z'
loop_
 _atom_site_type_symbol
 _atom_site_label
 _atom_site_symmetry_multiplicity
 _atom_site_fract_x
 _atom_site_fract_y
 _atom_site_fract_z
 _atom_site_occupancy
  Lu  Lu0  1  0.250000  0.322422  0.705710  1
  Sc  Sc1  1  0.750000  0.690332  0.281045  1
  B  B2  1  0.250000  0.907774  0.520691  1
  B  B3  1  0.750000  0.073157  0.477287  1
  B  B4  1  0.250000  0.913453  0.008064  1
  B  B5  1  0.750000  0.088823  0.996349  1
  B  B6  1  0.250000  0.584800  0.012518  1
  B  B7  1  0.750000  0.418105  0.994581  1
  Mo  Mo8  1  0.250000  0.194113  0.224832  1
  Mo  Mo9  1  0.750000  0.807019  0.778922  1
