# generated using pymatgen
data_Yb10PdRuPt2
_symmetry_space_group_name_H-M   'P 1'
_cell_length_a   8.62592744
_cell_length_b   8.61405670
_cell_length_c   7.51872753
_cell_angle_alpha   82.82661777
_cell_angle_beta   83.10788824
_cell_angle_gamma   43.83575883
_symmetry_Int_Tables_number   1
_chemical_formula_structural   Yb10PdRuPt2
_chemical_formula_sum   'Yb10 Pd1 Ru1 Pt2'
_cell_volume   383.54063062
_cell_formula_units_Z   1
loop_
 _symmetry_equiv_pos_site_id
 _symmetry_equiv_pos_as_xyz
  1  'x, y, z'
loop_
 _atom_site_type_symbol
 _atom_site_label
 _atom_site_symmetry_multiplicity
 _atom_site_fract_x
 _atom_site_fract_y
 _atom_site_fract_z
 _atom_site_occupancy
  Yb  Yb0  1  0.027279  0.790441  0.914895  1
  Yb  Yb1  1  0.202623  0.969215  0.576256  1
  Yb  Yb2  1  0.969575  0.205876  0.081222  1
  Yb  Yb3  1  0.799780  0.019891  0.423507  1
  Yb  Yb4  1  0.362280  0.208892  0.815303  1
  Yb  Yb5  1  0.806547  0.634016  0.677772  1
  Yb  Yb6  1  0.637497  0.800762  0.180831  1
  Yb  Yb7  1  0.202114  0.367250  0.327151  1
  Yb  Yb8  1  0.572816  0.422129  0.743849  1
  Yb  Yb9  1  0.420617  0.573480  0.259086  1
  Pd  Pd10  1  0.401107  0.820605  0.921212  1
  Ru  Ru11  1  0.176720  0.605157  0.581219  1
  Pt  Pt12  1  0.818593  0.403852  0.417520  1
  Pt  Pt13  1  0.602453  0.178433  0.080176  1
