# generated using pymatgen
data_Tb7Sn22Os6Au
_symmetry_space_group_name_H-M   'P 1'
_cell_length_a   9.86671800
_cell_length_b   9.86671762
_cell_length_c   10.10548600
_cell_angle_alpha   90.00000000
_cell_angle_beta   90.00000000
_cell_angle_gamma   120.00000128
_symmetry_Int_Tables_number   1
_chemical_formula_structural   Tb7Sn22Os6Au
_chemical_formula_sum   'Tb7 Sn22 Os6 Au1'
_cell_volume   851.98754458
_cell_formula_units_Z   1
loop_
 _symmetry_equiv_pos_site_id
 _symmetry_equiv_pos_as_xyz
  1  'x, y, z'
loop_
 _atom_site_type_symbol
 _atom_site_label
 _atom_site_symmetry_multiplicity
 _atom_site_fract_x
 _atom_site_fract_y
 _atom_site_fract_z
 _atom_site_occupancy
  Tb  Tb0  1  0.000000  0.000000  0.000000  1
  Tb  Tb1  1  0.483086  0.516914  0.304498  1
  Tb  Tb2  1  0.516914  0.483086  0.695502  1
  Tb  Tb3  1  0.483086  0.966173  0.304498  1
  Tb  Tb4  1  0.516914  0.033827  0.695502  1
  Tb  Tb5  1  0.033827  0.516914  0.304498  1
  Tb  Tb6  1  0.966173  0.483086  0.695502  1
  Sn  Sn7  1  0.349633  0.000000  0.000000  1
  Sn  Sn8  1  0.650367  0.000000  0.000000  1
  Sn  Sn9  1  0.000000  0.349633  0.000000  1
  Sn  Sn10  1  0.000000  0.650367  0.000000  1
  Sn  Sn11  1  0.650367  0.650367  0.000000  1
  Sn  Sn12  1  0.349633  0.349633  0.000000  1
  Sn  Sn13  1  0.333333  0.666667  0.824679  1
  Sn  Sn14  1  0.666667  0.333333  0.175321  1
  Sn  Sn15  1  0.779874  0.220126  0.461820  1
  Sn  Sn16  1  0.220126  0.779874  0.538180  1
  Sn  Sn17  1  0.779874  0.559749  0.461820  1
  Sn  Sn18  1  0.220126  0.440251  0.538180  1
  Sn  Sn19  1  0.440251  0.220126  0.461820  1
  Sn  Sn20  1  0.559749  0.779874  0.538180  1
  Sn  Sn21  1  0.333333  0.666667  0.125029  1
  Sn  Sn22  1  0.666667  0.333333  0.874971  1
  Sn  Sn23  1  0.117821  0.882179  0.278391  1
  Sn  Sn24  1  0.882179  0.117821  0.721609  1
  Sn  Sn25  1  0.117821  0.235643  0.278391  1
  Sn  Sn26  1  0.882179  0.764357  0.721609  1
  Sn  Sn27  1  0.764357  0.882179  0.278391  1
  Sn  Sn28  1  0.235643  0.117821  0.721609  1
  Os  Os29  1  0.831649  0.168351  0.204390  1
  Os  Os30  1  0.168351  0.831649  0.795610  1
  Os  Os31  1  0.831649  0.663297  0.204390  1
  Os  Os32  1  0.168351  0.336703  0.795610  1
  Os  Os33  1  0.336703  0.168351  0.204390  1
  Os  Os34  1  0.663297  0.831649  0.795610  1
  Au  Au35  1  0.000000  0.000000  0.500000  1
