# generated using pymatgen
data_Ho10Th6Mg3CdRu4
_symmetry_space_group_name_H-M   'P 1'
_cell_length_a   9.72042300
_cell_length_b   9.79003142
_cell_length_c   9.79003208
_cell_angle_alpha   59.31147866
_cell_angle_beta   60.14124689
_cell_angle_gamma   60.14124145
_symmetry_Int_Tables_number   1
_chemical_formula_structural   Ho10Th6Mg3CdRu4
_chemical_formula_sum   'Ho10 Th6 Mg3 Cd1 Ru4'
_cell_volume   656.66197965
_cell_formula_units_Z   1
loop_
 _symmetry_equiv_pos_site_id
 _symmetry_equiv_pos_as_xyz
  1  'x, y, z'
loop_
 _atom_site_type_symbol
 _atom_site_label
 _atom_site_symmetry_multiplicity
 _atom_site_fract_x
 _atom_site_fract_y
 _atom_site_fract_z
 _atom_site_occupancy
  Ho  Ho0  1  0.189433  0.809997  0.189515  1
  Ho  Ho1  1  0.809915  0.188913  0.810381  1
  Ho  Ho2  1  0.189433  0.189515  0.809997  1
  Ho  Ho3  1  0.809915  0.810381  0.188913  1
  Ho  Ho4  1  0.931339  0.568108  0.568108  1
  Ho  Ho5  1  0.565580  0.933643  0.933643  1
  Ho  Ho6  1  0.563277  0.936615  0.563954  1
  Ho  Ho7  1  0.936731  0.563334  0.936589  1
  Ho  Ho8  1  0.563277  0.563954  0.936615  1
  Ho  Ho9  1  0.936731  0.936589  0.563334  1
  Th  Th10  1  0.340788  0.348741  0.348741  1
  Th  Th11  1  0.351632  0.343405  0.956304  1
  Th  Th12  1  0.351632  0.956304  0.343405  1
  Th  Th13  1  0.958348  0.349635  0.349635  1
  Th  Th14  1  0.815230  0.185163  0.185163  1
  Th  Th15  1  0.182032  0.816894  0.816894  1
  Mg  Mg16  1  0.578671  0.581292  0.260653  1
  Mg  Mg17  1  0.578671  0.260653  0.581292  1
  Mg  Mg18  1  0.260444  0.578560  0.578560  1
  Cd  Cd19  1  0.584357  0.580118  0.580118  1
  Ru  Ru20  1  0.129605  0.147449  0.147449  1
  Ru  Ru21  1  0.148529  0.128838  0.573619  1
  Ru  Ru22  1  0.148529  0.573619  0.128838  1
  Ru  Ru23  1  0.575900  0.148278  0.148278  1
