# generated using pymatgen
data_Li4Ca8In3Pb
_symmetry_space_group_name_H-M   'P 1'
_cell_length_a   7.64273800
_cell_length_b   5.51567800
_cell_length_c   11.04184400
_cell_angle_alpha   90.00000000
_cell_angle_beta   89.99651436
_cell_angle_gamma   90.00000000
_symmetry_Int_Tables_number   1
_chemical_formula_structural   Li4Ca8In3Pb
_chemical_formula_sum   'Li4 Ca8 In3 Pb1'
_cell_volume   465.46762876
_cell_formula_units_Z   1
loop_
 _symmetry_equiv_pos_site_id
 _symmetry_equiv_pos_as_xyz
  1  'x, y, z'
loop_
 _atom_site_type_symbol
 _atom_site_label
 _atom_site_symmetry_multiplicity
 _atom_site_fract_x
 _atom_site_fract_y
 _atom_site_fract_z
 _atom_site_occupancy
  Li  Li0  1  0.250041  0.250001  0.120782  1
  Li  Li1  1  0.750088  0.750001  0.382292  1
  Li  Li2  1  0.249927  0.250001  0.620942  1
  Li  Li3  1  0.749908  0.750001  0.876089  1
  Ca  Ca4  1  0.004015  0.750001  0.126381  1
  Ca  Ca5  1  0.495943  0.750001  0.126471  1
  Ca  Ca6  1  0.001983  0.250001  0.375578  1
  Ca  Ca7  1  0.497963  0.250001  0.375620  1
  Ca  Ca8  1  0.499563  0.750001  0.626241  1
  Ca  Ca9  1  0.000409  0.750001  0.626321  1
  Ca  Ca10  1  0.497791  0.250001  0.871544  1
  Ca  Ca11  1  0.002246  0.250001  0.871598  1
  In  In12  1  0.250140  0.750001  0.375356  1
  In  In13  1  0.749957  0.250001  0.623081  1
  In  In14  1  0.250049  0.750001  0.879029  1
  Pb  Pb15  1  0.749974  0.250001  0.122678  1
