# generated using pymatgen
data_SmY3Zr4F28
_symmetry_space_group_name_H-M   'P 1'
_cell_length_a   5.78219835
_cell_length_b   9.15639420
_cell_length_c   12.31829049
_cell_angle_alpha   62.33640783
_cell_angle_beta   89.97330683
_cell_angle_gamma   90.01376168
_symmetry_Int_Tables_number   1
_chemical_formula_structural   SmY3Zr4F28
_chemical_formula_sum   'Sm1 Y3 Zr4 F28'
_cell_volume   577.62897277
_cell_formula_units_Z   1
loop_
 _symmetry_equiv_pos_site_id
 _symmetry_equiv_pos_as_xyz
  1  'x, y, z'
loop_
 _atom_site_type_symbol
 _atom_site_label
 _atom_site_symmetry_multiplicity
 _atom_site_fract_x
 _atom_site_fract_y
 _atom_site_fract_z
 _atom_site_occupancy
  Sm  Sm0  1  0.756850  0.816088  0.766347  1
  Y  Y1  1  0.743312  0.816581  0.266073  1
  Y  Y2  1  0.243236  0.184629  0.233885  1
  Y  Y3  1  0.256970  0.187146  0.733532  1
  Zr  Zr4  1  0.744138  0.276200  0.453719  1
  Zr  Zr5  1  0.244789  0.725410  0.047414  1
  Zr  Zr6  1  0.255258  0.725687  0.542615  1
  Zr  Zr7  1  0.755368  0.272064  0.956157  1
  F  F8  1  0.463414  0.710270  0.923442  1
  F  F9  1  0.965661  0.288613  0.577760  1
  F  F10  1  0.532980  0.287132  0.078894  1
  F  F11  1  0.032423  0.711549  0.419961  1
  F  F12  1  0.455406  0.281723  0.549248  1
  F  F13  1  0.956215  0.716892  0.953698  1
  F  F14  1  0.546137  0.719165  0.449046  1
  F  F15  1  0.044379  0.279545  0.050815  1
  F  F16  1  0.767386  0.522002  0.859164  1
  F  F17  1  0.267158  0.474939  0.640720  1
  F  F18  1  0.233881  0.474263  0.142725  1
  F  F19  1  0.733040  0.526426  0.357512  1
  F  F20  1  0.759961  0.022499  0.058843  1
  F  F21  1  0.259818  0.975488  0.440964  1
  F  F22  1  0.239598  0.974663  0.942779  1
  F  F23  1  0.739894  0.026306  0.555737  1
  F  F24  1  0.985933  0.732520  0.646875  1
  F  F25  1  0.485643  0.265752  0.851363  1
  F  F26  1  0.013683  0.265777  0.350051  1
  F  F27  1  0.515068  0.734344  0.150707  1
  F  F28  1  0.032785  0.746606  0.173485  1
  F  F29  1  0.532208  0.253740  0.327705  1
  F  F30  1  0.966838  0.252585  0.828712  1
  F  F31  1  0.462490  0.744705  0.670784  1
  F  F32  1  0.428995  0.973887  0.235150  1
  F  F33  1  0.930033  0.026866  0.264803  1
  F  F34  1  0.570371  0.032341  0.765336  1
  F  F35  1  0.078680  0.975599  0.733978  1
