# generated using pymatgen
data_Tb5Y10Th(CdPt)4
_symmetry_space_group_name_H-M   'P 1'
_cell_length_a   9.73555146
_cell_length_b   9.73890829
_cell_length_c   9.73890837
_cell_angle_alpha   60.05615436
_cell_angle_beta   60.10824471
_cell_angle_gamma   60.10824181
_symmetry_Int_Tables_number   1
_chemical_formula_structural   Tb5Y10Th(CdPt)4
_chemical_formula_sum   'Tb5 Y10 Th1 Cd4 Pt4'
_cell_volume   654.27345314
_cell_formula_units_Z   1
loop_
 _symmetry_equiv_pos_site_id
 _symmetry_equiv_pos_as_xyz
  1  'x, y, z'
loop_
 _atom_site_type_symbol
 _atom_site_label
 _atom_site_symmetry_multiplicity
 _atom_site_fract_x
 _atom_site_fract_y
 _atom_site_fract_z
 _atom_site_occupancy
  Tb  Tb0  1  0.353789  0.353496  0.939485  1
  Tb  Tb1  1  0.353789  0.939485  0.353496  1
  Tb  Tb2  1  0.939623  0.353743  0.353743  1
  Tb  Tb3  1  0.812880  0.188945  0.188945  1
  Tb  Tb4  1  0.189833  0.811118  0.811118  1
  Y  Y5  1  0.189329  0.812194  0.189405  1
  Y  Y6  1  0.810439  0.190633  0.810594  1
  Y  Y7  1  0.189329  0.189405  0.812194  1
  Y  Y8  1  0.810439  0.810594  0.190633  1
  Y  Y9  1  0.936130  0.565921  0.565921  1
  Y  Y10  1  0.564257  0.936357  0.936357  1
  Y  Y11  1  0.565743  0.936466  0.565631  1
  Y  Y12  1  0.936631  0.563997  0.936691  1
  Y  Y13  1  0.565743  0.565631  0.936466  1
  Y  Y14  1  0.936631  0.936691  0.563997  1
  Th  Th15  1  0.349189  0.349567  0.349567  1
  Cd  Cd16  1  0.582306  0.581757  0.581757  1
  Cd  Cd17  1  0.582432  0.582845  0.252182  1
  Cd  Cd18  1  0.582432  0.252182  0.582845  1
  Cd  Cd19  1  0.252191  0.582424  0.582424  1
  Pt  Pt20  1  0.143514  0.144492  0.144492  1
  Pt  Pt21  1  0.141989  0.140925  0.569276  1
  Pt  Pt22  1  0.141989  0.569276  0.140925  1
  Pt  Pt23  1  0.569372  0.141853  0.141853  1
