# generated using pymatgen
data_AcNdZn5Ga
_symmetry_space_group_name_H-M   'P 1'
_cell_length_a   8.51895162
_cell_length_b   8.51895109
_cell_length_c   9.05374700
_cell_angle_alpha   90.00000000
_cell_angle_beta   90.00000000
_cell_angle_gamma   148.76584906
_symmetry_Int_Tables_number   1
_chemical_formula_structural   AcNdZn5Ga
_chemical_formula_sum   'Ac2 Nd2 Zn10 Ga2'
_cell_volume   340.70630919
_cell_formula_units_Z   2
loop_
 _symmetry_equiv_pos_site_id
 _symmetry_equiv_pos_as_xyz
  1  'x, y, z'
loop_
 _atom_site_type_symbol
 _atom_site_label
 _atom_site_symmetry_multiplicity
 _atom_site_fract_x
 _atom_site_fract_y
 _atom_site_fract_z
 _atom_site_occupancy
  Ac  Ac0  1  0.000000  0.000000  0.500000  1
  Ac  Ac1  1  0.000000  0.000000  0.000000  1
  Nd  Nd2  1  0.206887  0.793113  0.250000  1
  Nd  Nd3  1  0.793113  0.206887  0.750000  1
  Zn  Zn4  1  0.812265  0.187735  0.391361  1
  Zn  Zn5  1  0.187735  0.812265  0.608639  1
  Zn  Zn6  1  0.812265  0.187735  0.108639  1
  Zn  Zn7  1  0.187735  0.812265  0.891361  1
  Zn  Zn8  1  0.654577  0.345423  0.481331  1
  Zn  Zn9  1  0.345423  0.654577  0.518669  1
  Zn  Zn10  1  0.654577  0.345423  0.018669  1
  Zn  Zn11  1  0.345423  0.654577  0.981331  1
  Zn  Zn12  1  0.404066  0.595934  0.250000  1
  Zn  Zn13  1  0.595934  0.404066  0.750000  1
  Ga  Ga14  1  0.564597  0.435403  0.250000  1
  Ga  Ga15  1  0.435403  0.564597  0.750000  1
