# generated using pymatgen
data_TbTcMo5S8
_symmetry_space_group_name_H-M   'P 1'
_cell_length_a   6.51413870
_cell_length_b   6.49017406
_cell_length_c   6.49995251
_cell_angle_alpha   89.80684810
_cell_angle_beta   89.81134535
_cell_angle_gamma   89.03397940
_symmetry_Int_Tables_number   1
_chemical_formula_structural   TbTcMo5S8
_chemical_formula_sum   'Tb1 Tc1 Mo5 S8'
_cell_volume   274.76224509
_cell_formula_units_Z   1
loop_
 _symmetry_equiv_pos_site_id
 _symmetry_equiv_pos_as_xyz
  1  'x, y, z'
loop_
 _atom_site_type_symbol
 _atom_site_label
 _atom_site_symmetry_multiplicity
 _atom_site_fract_x
 _atom_site_fract_y
 _atom_site_fract_z
 _atom_site_occupancy
  Tb  Tb0  1  0.006798  0.996950  0.999799  1
  Tc  Tc1  1  0.774511  0.579267  0.440040  1
  Mo  Mo2  1  0.437040  0.774866  0.580185  1
  Mo  Mo3  1  0.579842  0.440964  0.775009  1
  Mo  Mo4  1  0.224142  0.420405  0.560093  1
  Mo  Mo5  1  0.561235  0.225413  0.420974  1
  Mo  Mo6  1  0.418741  0.560116  0.225946  1
  S  S7  1  0.760928  0.760848  0.756896  1
  S  S8  1  0.239488  0.238591  0.237486  1
  S  S9  1  0.248769  0.633000  0.872431  1
  S  S10  1  0.872904  0.253745  0.630639  1
  S  S11  1  0.634108  0.868195  0.253025  1
  S  S12  1  0.750064  0.367772  0.131120  1
  S  S13  1  0.123598  0.751818  0.366550  1
  S  S14  1  0.367831  0.128051  0.749809  1
