# generated using pymatgen
data_Pr3NdTc3PtF28
_symmetry_space_group_name_H-M   'P 1'
_cell_length_a   5.73181450
_cell_length_b   9.23667182
_cell_length_c   12.38933739
_cell_angle_alpha   62.00406067
_cell_angle_beta   89.99023689
_cell_angle_gamma   89.97765414
_symmetry_Int_Tables_number   1
_chemical_formula_structural   Pr3NdTc3PtF28
_chemical_formula_sum   'Pr3 Nd1 Tc3 Pt1 F28'
_cell_volume   579.17122706
_cell_formula_units_Z   1
loop_
 _symmetry_equiv_pos_site_id
 _symmetry_equiv_pos_as_xyz
  1  'x, y, z'
loop_
 _atom_site_type_symbol
 _atom_site_label
 _atom_site_symmetry_multiplicity
 _atom_site_fract_x
 _atom_site_fract_y
 _atom_site_fract_z
 _atom_site_occupancy
  Pr  Pr0  1  0.259164  0.187733  0.734688  1
  Pr  Pr1  1  0.240013  0.188554  0.236961  1
  Pr  Pr2  1  0.740976  0.810348  0.265054  1
  Nd  Nd3  1  0.759432  0.811265  0.764336  1
  Tc  Tc4  1  0.755866  0.274233  0.957431  1
  Tc  Tc5  1  0.256139  0.726101  0.543562  1
  Tc  Tc6  1  0.244027  0.726355  0.041865  1
  Pt  Pt7  1  0.742904  0.272772  0.457810  1
  F  F8  1  0.442920  0.710182  0.918989  1
  F  F9  1  0.930457  0.293291  0.583193  1
  F  F10  1  0.556806  0.290352  0.080139  1
  F  F11  1  0.059778  0.709839  0.420208  1
  F  F12  1  0.451437  0.282089  0.539159  1
  F  F13  1  0.958283  0.718489  0.955592  1
  F  F14  1  0.540793  0.717180  0.457840  1
  F  F15  1  0.040200  0.282172  0.044165  1
  F  F16  1  0.766115  0.514851  0.861801  1
  F  F17  1  0.265642  0.485742  0.638062  1
  F  F18  1  0.233551  0.486368  0.138353  1
  F  F19  1  0.734496  0.513326  0.361616  1
  F  F20  1  0.759280  0.034591  0.051214  1
  F  F21  1  0.259725  0.965675  0.449557  1
  F  F22  1  0.241015  0.966111  0.948043  1
  F  F23  1  0.741628  0.031603  0.549487  1
  F  F24  1  0.977732  0.730528  0.634765  1
  F  F25  1  0.479365  0.269419  0.865512  1
  F  F26  1  0.029207  0.271563  0.370582  1
  F  F27  1  0.521144  0.730364  0.133387  1
  F  F28  1  0.051539  0.742864  0.167300  1
  F  F29  1  0.559556  0.258372  0.328611  1
  F  F30  1  0.951155  0.257338  0.832884  1
  F  F31  1  0.451400  0.742592  0.668533  1
  F  F32  1  0.407416  0.967486  0.230465  1
  F  F33  1  0.907296  0.032623  0.270365  1
  F  F34  1  0.593613  0.031650  0.768626  1
  F  F35  1  0.089931  0.965979  0.729848  1
