# generated using pymatgen
data_Re2AsCl12
_symmetry_space_group_name_H-M   'P 1'
_cell_length_a   11.48991700
_cell_length_b   9.59240259
_cell_length_c   9.89575315
_cell_angle_alpha   88.21905966
_cell_angle_beta   90.00000000
_cell_angle_gamma   90.00000000
_symmetry_Int_Tables_number   1
_chemical_formula_structural   Re2AsCl12
_chemical_formula_sum   'Re4 As2 Cl24'
_cell_volume   1090.14259043
_cell_formula_units_Z   2
loop_
 _symmetry_equiv_pos_site_id
 _symmetry_equiv_pos_as_xyz
  1  'x, y, z'
loop_
 _atom_site_type_symbol
 _atom_site_label
 _atom_site_symmetry_multiplicity
 _atom_site_fract_x
 _atom_site_fract_y
 _atom_site_fract_z
 _atom_site_occupancy
  Re  Re0  1  0.250000  0.153904  0.608803  1
  Re  Re1  1  0.750000  0.651579  0.594170  1
  Re  Re2  1  0.750000  0.846096  0.391197  1
  Re  Re3  1  0.250000  0.348421  0.405830  1
  As  As4  1  0.250000  0.828881  0.965045  1
  As  As5  1  0.750000  0.171119  0.034955  1
  Cl  Cl6  1  0.888423  0.619925  0.757753  1
  Cl  Cl7  1  0.603182  0.188877  0.891372  1
  Cl  Cl8  1  0.250000  0.571190  0.475007  1
  Cl  Cl9  1  0.111577  0.380075  0.242247  1
  Cl  Cl10  1  0.111592  0.985908  0.651888  1
  Cl  Cl11  1  0.750000  0.428810  0.524993  1
  Cl  Cl12  1  0.414857  0.304235  0.556345  1
  Cl  Cl13  1  0.103182  0.811123  0.108628  1
  Cl  Cl14  1  0.396818  0.811123  0.108628  1
  Cl  Cl15  1  0.250000  0.615629  0.888832  1
  Cl  Cl16  1  0.250000  0.237419  0.820550  1
  Cl  Cl17  1  0.914857  0.695765  0.443655  1
  Cl  Cl18  1  0.388423  0.380075  0.242247  1
  Cl  Cl19  1  0.750000  0.384371  0.111168  1
  Cl  Cl20  1  0.388408  0.985908  0.651888  1
  Cl  Cl21  1  0.085143  0.304235  0.556345  1
  Cl  Cl22  1  0.750000  0.762581  0.179450  1
  Cl  Cl23  1  0.250000  0.096443  0.368519  1
  Cl  Cl24  1  0.611592  0.014092  0.348112  1
  Cl  Cl25  1  0.896818  0.188877  0.891372  1
  Cl  Cl26  1  0.750000  0.903557  0.631481  1
  Cl  Cl27  1  0.585143  0.695765  0.443655  1
  Cl  Cl28  1  0.611577  0.619925  0.757753  1
  Cl  Cl29  1  0.888408  0.014092  0.348112  1
