# generated using pymatgen
data_Tm2V3P7Rh9
_symmetry_space_group_name_H-M   'P 1'
_cell_length_a   3.84399500
_cell_length_b   9.52854751
_cell_length_c   9.52930137
_cell_angle_alpha   120.00103361
_cell_angle_beta   90.00030188
_cell_angle_gamma   89.99931247
_symmetry_Int_Tables_number   1
_chemical_formula_structural   Tm2V3P7Rh9
_chemical_formula_sum   'Tm2 V3 P7 Rh9'
_cell_volume   302.27114276
_cell_formula_units_Z   1
loop_
 _symmetry_equiv_pos_site_id
 _symmetry_equiv_pos_as_xyz
  1  'x, y, z'
loop_
 _atom_site_type_symbol
 _atom_site_label
 _atom_site_symmetry_multiplicity
 _atom_site_fract_x
 _atom_site_fract_y
 _atom_site_fract_z
 _atom_site_occupancy
  Tm  Tm0  1  0.261821  0.666579  0.333357  1
  Tm  Tm1  1  0.761672  0.333279  0.666513  1
  V  V2  1  0.761993  0.092379  0.875064  1
  V  V3  1  0.761977  0.125080  0.217528  1
  V  V4  1  0.761989  0.782346  0.907476  1
  P  P5  1  0.262172  0.000096  0.000062  1
  P  P6  1  0.761901  0.883188  0.595160  1
  P  P7  1  0.761895  0.404953  0.287983  1
  P  P8  1  0.761898  0.711944  0.116948  1
  P  P9  1  0.261790  0.117633  0.413104  1
  P  P10  1  0.261770  0.587011  0.704507  1
  P  P11  1  0.261803  0.295548  0.882401  1
  Rh  Rh12  1  0.261972  0.885383  0.158983  1
  Rh  Rh13  1  0.261959  0.840938  0.726412  1
  Rh  Rh14  1  0.261962  0.273781  0.114652  1
  Rh  Rh15  1  0.761897  0.612171  0.559116  1
  Rh  Rh16  1  0.761923  0.440695  0.052716  1
  Rh  Rh17  1  0.761918  0.946992  0.387860  1
  Rh  Rh18  1  0.261882  0.367733  0.438301  1
  Rh  Rh19  1  0.261905  0.561813  0.929555  1
  Rh  Rh20  1  0.261901  0.070459  0.632298  1
