# generated using pymatgen
data_Al3GaTc3Ge2
_symmetry_space_group_name_H-M   'P 1'
_cell_length_a   4.75480421
_cell_length_b   4.75480466
_cell_length_c   6.66947905
_cell_angle_alpha   89.77503566
_cell_angle_beta   89.77503404
_cell_angle_gamma   119.83721528
_symmetry_Int_Tables_number   1
_chemical_formula_structural   Al3GaTc3Ge2
_chemical_formula_sum   'Al3 Ga1 Tc3 Ge2'
_cell_volume   130.79302610
_cell_formula_units_Z   1
loop_
 _symmetry_equiv_pos_site_id
 _symmetry_equiv_pos_as_xyz
  1  'x, y, z'
loop_
 _atom_site_type_symbol
 _atom_site_label
 _atom_site_symmetry_multiplicity
 _atom_site_fract_x
 _atom_site_fract_y
 _atom_site_fract_z
 _atom_site_occupancy
  Al  Al0  1  0.332745  0.166305  0.168759  1
  Al  Al1  1  0.833695  0.667255  0.831241  1
  Al  Al2  1  0.830221  0.169779  0.500000  1
  Ga  Ga3  1  0.167065  0.832935  0.500000  1
  Tc  Tc4  1  0.997656  0.496891  0.162008  1
  Tc  Tc5  1  0.503109  0.002344  0.837992  1
  Tc  Tc6  1  0.500281  0.499719  0.500000  1
  Ge  Ge7  1  0.668955  0.833341  0.169373  1
  Ge  Ge8  1  0.166659  0.331045  0.830627  1
