# generated using pymatgen
data_CuIr4Pb3O14
_symmetry_space_group_name_H-M   'P 1'
_cell_length_a   7.32226518
_cell_length_b   7.32226452
_cell_length_c   7.22717486
_cell_angle_alpha   59.56379910
_cell_angle_beta   59.56380317
_cell_angle_gamma   60.00000058
_symmetry_Int_Tables_number   1
_chemical_formula_structural   CuIr4Pb3O14
_chemical_formula_sum   'Cu1 Ir4 Pb3 O14'
_cell_volume   272.17571969
_cell_formula_units_Z   1
loop_
 _symmetry_equiv_pos_site_id
 _symmetry_equiv_pos_as_xyz
  1  'x, y, z'
loop_
 _atom_site_type_symbol
 _atom_site_label
 _atom_site_symmetry_multiplicity
 _atom_site_fract_x
 _atom_site_fract_y
 _atom_site_fract_z
 _atom_site_occupancy
  Cu  Cu0  1  0.125000  0.125000  0.625000  1
  Ir  Ir1  1  0.125000  0.625000  0.625000  1
  Ir  Ir2  1  0.625000  0.125000  0.625000  1
  Ir  Ir3  1  0.625000  0.625000  0.125000  1
  Ir  Ir4  1  0.625000  0.625000  0.625000  1
  Pb  Pb5  1  0.625000  0.125000  0.125000  1
  Pb  Pb6  1  0.125000  0.625000  0.125000  1
  Pb  Pb7  1  0.125000  0.125000  0.125000  1
  O  O8  1  0.707245  0.707245  0.290984  1
  O  O9  1  0.301614  0.301614  0.704592  1
  O  O10  1  0.692181  0.301614  0.704592  1
  O  O11  1  0.294525  0.707245  0.290984  1
  O  O12  1  0.301614  0.692181  0.704592  1
  O  O13  1  0.707245  0.294525  0.290984  1
  O  O14  1  0.542755  0.542755  0.959016  1
  O  O15  1  0.948386  0.948386  0.545408  1
  O  O16  1  0.557819  0.948386  0.545408  1
  O  O17  1  0.955475  0.542755  0.959016  1
  O  O18  1  0.948386  0.557819  0.545408  1
  O  O19  1  0.542755  0.955475  0.959016  1
  O  O20  1  0.231612  0.231612  0.305165  1
  O  O21  1  0.018388  0.018388  0.944835  1
