# generated using pymatgen
data_LiNd2(PRh2)6
_symmetry_space_group_name_H-M   'P 1'
_cell_length_a   9.69735800
_cell_length_b   9.69735867
_cell_length_c   3.92720800
_cell_angle_alpha   90.00000000
_cell_angle_beta   90.00000000
_cell_angle_gamma   120.00001135
_symmetry_Int_Tables_number   1
_chemical_formula_structural   LiNd2(PRh2)6
_chemical_formula_sum   'Li1 Nd2 P6 Rh12'
_cell_volume   319.83160221
_cell_formula_units_Z   1
loop_
 _symmetry_equiv_pos_site_id
 _symmetry_equiv_pos_as_xyz
  1  'x, y, z'
loop_
 _atom_site_type_symbol
 _atom_site_label
 _atom_site_symmetry_multiplicity
 _atom_site_fract_x
 _atom_site_fract_y
 _atom_site_fract_z
 _atom_site_occupancy
  Li  Li0  1  0.000000  0.000000  0.500000  1
  Nd  Nd1  1  0.333333  0.666667  0.751522  1
  Nd  Nd2  1  0.666667  0.333333  0.248478  1
  P  P3  1  0.887000  0.603201  0.748683  1
  P  P4  1  0.396799  0.283800  0.748683  1
  P  P5  1  0.716200  0.113000  0.748683  1
  P  P6  1  0.113000  0.396799  0.251317  1
  P  P7  1  0.603201  0.716200  0.251317  1
  P  P8  1  0.283800  0.887000  0.251317  1
  Rh  Rh9  1  0.613666  0.550112  0.749231  1
  Rh  Rh10  1  0.449888  0.063556  0.749231  1
  Rh  Rh11  1  0.936444  0.386334  0.749231  1
  Rh  Rh12  1  0.386334  0.449888  0.250769  1
  Rh  Rh13  1  0.550112  0.936444  0.250769  1
  Rh  Rh14  1  0.063556  0.613666  0.250769  1
  Rh  Rh15  1  0.127330  0.843072  0.750998  1
  Rh  Rh16  1  0.156928  0.284258  0.750998  1
  Rh  Rh17  1  0.715742  0.872670  0.750998  1
  Rh  Rh18  1  0.872670  0.156928  0.249002  1
  Rh  Rh19  1  0.843072  0.715742  0.249002  1
  Rh  Rh20  1  0.284258  0.127330  0.249002  1
