# generated using pymatgen
data_Nd3AgGeSe7
_symmetry_space_group_name_H-M   'P 1'
_cell_length_a   10.77990800
_cell_length_b   10.77990871
_cell_length_c   6.13496100
_cell_angle_alpha   90.00000000
_cell_angle_beta   90.00000000
_cell_angle_gamma   119.99999782
_symmetry_Int_Tables_number   1
_chemical_formula_structural   Nd3AgGeSe7
_chemical_formula_sum   'Nd6 Ag2 Ge2 Se14'
_cell_volume   617.40847271
_cell_formula_units_Z   2
loop_
 _symmetry_equiv_pos_site_id
 _symmetry_equiv_pos_as_xyz
  1  'x, y, z'
loop_
 _atom_site_type_symbol
 _atom_site_label
 _atom_site_symmetry_multiplicity
 _atom_site_fract_x
 _atom_site_fract_y
 _atom_site_fract_z
 _atom_site_occupancy
  Nd  Nd0  1  0.868107  0.642413  0.247817  1
  Nd  Nd1  1  0.225694  0.868107  0.747817  1
  Nd  Nd2  1  0.642413  0.774306  0.747817  1
  Nd  Nd3  1  0.357587  0.225694  0.247817  1
  Nd  Nd4  1  0.774306  0.131893  0.247817  1
  Nd  Nd5  1  0.131893  0.357587  0.747817  1
  Ag  Ag6  1  0.000000  0.000000  0.684632  1
  Ag  Ag7  1  0.000000  0.000000  0.184632  1
  Ge  Ge8  1  0.666667  0.333333  0.832054  1
  Ge  Ge9  1  0.333333  0.666667  0.332054  1
  Se  Se10  1  0.580302  0.479774  0.993112  1
  Se  Se11  1  0.479774  0.899472  0.493112  1
  Se  Se12  1  0.899472  0.419698  0.993112  1
  Se  Se13  1  0.100528  0.580302  0.493112  1
  Se  Se14  1  0.520226  0.100528  0.993112  1
  Se  Se15  1  0.419698  0.520226  0.493112  1
  Se  Se16  1  0.333333  0.666667  0.946922  1
  Se  Se17  1  0.666667  0.333333  0.446922  1
  Se  Se18  1  0.829780  0.101587  0.724869  1
  Se  Se19  1  0.728193  0.829780  0.224869  1
  Se  Se20  1  0.101587  0.271807  0.224869  1
  Se  Se21  1  0.898413  0.728193  0.724869  1
  Se  Se22  1  0.271807  0.170220  0.724869  1
  Se  Se23  1  0.170220  0.898413  0.224869  1
