# generated using pymatgen
data_In(RhSe2)2
_symmetry_space_group_name_H-M   'P 1'
_cell_length_a   7.74989443
_cell_length_b   7.74989463
_cell_length_c   7.74989300
_cell_angle_alpha   59.99999414
_cell_angle_beta   59.99999330
_cell_angle_gamma   59.99999391
_symmetry_Int_Tables_number   1
_chemical_formula_structural   In(RhSe2)2
_chemical_formula_sum   'In2 Rh4 Se8'
_cell_volume   329.13360862
_cell_formula_units_Z   2
loop_
 _symmetry_equiv_pos_site_id
 _symmetry_equiv_pos_as_xyz
  1  'x, y, z'
loop_
 _atom_site_type_symbol
 _atom_site_label
 _atom_site_symmetry_multiplicity
 _atom_site_fract_x
 _atom_site_fract_y
 _atom_site_fract_z
 _atom_site_occupancy
  In  In0  1  0.000000  0.000000  0.000000  1
  In  In1  1  0.750000  0.750000  0.750000  1
  Rh  Rh2  1  0.374925  0.374925  0.374925  1
  Rh  Rh3  1  0.374925  0.875224  0.374925  1
  Rh  Rh4  1  0.875224  0.374925  0.374925  1
  Rh  Rh5  1  0.374925  0.374925  0.875224  1
  Se  Se6  1  0.145726  0.145726  0.145726  1
  Se  Se7  1  0.145726  0.562821  0.145726  1
  Se  Se8  1  0.562821  0.145726  0.145726  1
  Se  Se9  1  0.145726  0.145726  0.562821  1
  Se  Se10  1  0.604283  0.604283  0.604283  1
  Se  Se11  1  0.604283  0.187153  0.604283  1
  Se  Se12  1  0.187153  0.604283  0.604283  1
  Se  Se13  1  0.604283  0.604283  0.187153  1
