# generated using pymatgen
data_YHoLu4FeBi2
_symmetry_space_group_name_H-M   'P 1'
_cell_length_a   8.19417220
_cell_length_b   8.18615073
_cell_length_c   4.14954200
_cell_angle_alpha   90.00000000
_cell_angle_beta   90.00000000
_cell_angle_gamma   119.80176476
_symmetry_Int_Tables_number   1
_chemical_formula_structural   YHoLu4FeBi2
_chemical_formula_sum   'Y1 Ho1 Lu4 Fe1 Bi2'
_cell_volume   241.53478396
_cell_formula_units_Z   1
loop_
 _symmetry_equiv_pos_site_id
 _symmetry_equiv_pos_as_xyz
  1  'x, y, z'
loop_
 _atom_site_type_symbol
 _atom_site_label
 _atom_site_symmetry_multiplicity
 _atom_site_fract_x
 _atom_site_fract_y
 _atom_site_fract_z
 _atom_site_occupancy
  Y  Y0  1  0.390816  0.391368  0.500000  1
  Ho  Ho1  1  0.613248  0.000865  0.500000  1
  Lu  Lu2  1  0.228667  0.999542  0.000000  1
  Lu  Lu3  1  0.000255  0.617241  0.500000  1
  Lu  Lu4  1  0.770182  0.769822  0.000000  1
  Lu  Lu5  1  0.999997  0.227018  0.000000  1
  Fe  Fe6  1  0.995747  0.991301  0.500000  1
  Bi  Bi7  1  0.331175  0.667471  0.000000  1
  Bi  Bi8  1  0.669914  0.335373  0.000000  1
