# generated using pymatgen
data_NdGaPIr3
_symmetry_space_group_name_H-M   'P 1'
_cell_length_a   6.77403760
_cell_length_b   6.76050321
_cell_length_c   6.77403882
_cell_angle_alpha   130.72292910
_cell_angle_beta   113.24041493
_cell_angle_gamma   87.37609085
_symmetry_Int_Tables_number   1
_chemical_formula_structural   NdGaPIr3
_chemical_formula_sum   'Nd2 Ga2 P2 Ir6'
_cell_volume   205.81273774
_cell_formula_units_Z   2
loop_
 _symmetry_equiv_pos_site_id
 _symmetry_equiv_pos_as_xyz
  1  'x, y, z'
loop_
 _atom_site_type_symbol
 _atom_site_label
 _atom_site_symmetry_multiplicity
 _atom_site_fract_x
 _atom_site_fract_y
 _atom_site_fract_z
 _atom_site_occupancy
  Nd  Nd0  1  0.251509  0.993404  0.741894  1
  Nd  Nd1  1  0.748491  0.006596  0.258106  1
  Ga  Ga2  1  0.067459  0.303513  0.236053  1
  Ga  Ga3  1  0.932541  0.696487  0.763947  1
  P  P4  1  0.400631  0.638446  0.237816  1
  P  P5  1  0.599369  0.361554  0.762184  1
  Ir  Ir6  1  0.500000  0.500000  0.500000  1
  Ir  Ir7  1  0.000000  0.500000  0.000000  1
  Ir  Ir8  1  0.289386  0.000000  0.289386  1
  Ir  Ir9  1  0.710614  0.000000  0.710614  1
  Ir  Ir10  1  0.272758  0.500000  0.772758  1
  Ir  Ir11  1  0.727242  0.500000  0.227242  1
