# generated using pymatgen
data_Ce2Ho2Zn4CuRh3
_symmetry_space_group_name_H-M   'P 1'
_cell_length_a   3.99644300
_cell_length_b   7.01908374
_cell_length_c   8.23240941
_cell_angle_alpha   89.77410553
_cell_angle_beta   90.00000000
_cell_angle_gamma   90.00000000
_symmetry_Int_Tables_number   1
_chemical_formula_structural   Ce2Ho2Zn4CuRh3
_chemical_formula_sum   'Ce2 Ho2 Zn4 Cu1 Rh3'
_cell_volume   230.92855196
_cell_formula_units_Z   1
loop_
 _symmetry_equiv_pos_site_id
 _symmetry_equiv_pos_as_xyz
  1  'x, y, z'
loop_
 _atom_site_type_symbol
 _atom_site_label
 _atom_site_symmetry_multiplicity
 _atom_site_fract_x
 _atom_site_fract_y
 _atom_site_fract_z
 _atom_site_occupancy
  Ce  Ce0  1  0.250000  0.538815  0.179629  1
  Ce  Ce1  1  0.750000  0.451898  0.808553  1
  Ho  Ho2  1  0.250000  0.053482  0.318193  1
  Ho  Ho3  1  0.750000  0.954502  0.687644  1
  Zn  Zn4  1  0.250000  0.120212  0.939399  1
  Zn  Zn5  1  0.750000  0.875383  0.064704  1
  Zn  Zn6  1  0.250000  0.640165  0.553516  1
  Zn  Zn7  1  0.750000  0.365332  0.438165  1
  Cu  Cu8  1  0.750000  0.749015  0.375681  1
  Rh  Rh9  1  0.250000  0.254140  0.631407  1
  Rh  Rh10  1  0.750000  0.260340  0.126052  1
  Rh  Rh11  1  0.250000  0.736717  0.877058  1
