# generated using pymatgen
data_YHo3B16OsRu3
_symmetry_space_group_name_H-M   'P 1'
_cell_length_a   3.55941900
_cell_length_b   5.95621419
_cell_length_c   11.52631704
_cell_angle_alpha   90.01894408
_cell_angle_beta   90.00000000
_cell_angle_gamma   90.00000000
_symmetry_Int_Tables_number   1
_chemical_formula_structural   YHo3B16OsRu3
_chemical_formula_sum   'Y1 Ho3 B16 Os1 Ru3'
_cell_volume   244.36553764
_cell_formula_units_Z   1
loop_
 _symmetry_equiv_pos_site_id
 _symmetry_equiv_pos_as_xyz
  1  'x, y, z'
loop_
 _atom_site_type_symbol
 _atom_site_label
 _atom_site_symmetry_multiplicity
 _atom_site_fract_x
 _atom_site_fract_y
 _atom_site_fract_z
 _atom_site_occupancy
  Y  Y0  1  0.000000  0.628658  0.649513  1
  Ho  Ho1  1  0.000000  0.371337  0.350373  1
  Ho  Ho2  1  0.000000  0.128799  0.849774  1
  Ho  Ho3  1  0.000000  0.871087  0.150177  1
  B  B4  1  0.500000  0.977128  0.691921  1
  B  B5  1  0.500000  0.023760  0.308020  1
  B  B6  1  0.500000  0.475407  0.808344  1
  B  B7  1  0.500000  0.523959  0.192012  1
  B  B8  1  0.500000  0.789454  0.814218  1
  B  B9  1  0.500000  0.210831  0.185980  1
  B  B10  1  0.500000  0.288546  0.685753  1
  B  B11  1  0.500000  0.710742  0.314404  1
  B  B12  1  0.500000  0.863951  0.970303  1
  B  B13  1  0.500000  0.136044  0.030025  1
  B  B14  1  0.500000  0.363682  0.529895  1
  B  B15  1  0.500000  0.635943  0.469498  1
  B  B16  1  0.500000  0.888356  0.546449  1
  B  B17  1  0.500000  0.112284  0.453087  1
  B  B18  1  0.500000  0.387577  0.953143  1
  B  B19  1  0.500000  0.612324  0.046989  1
  Os  Os20  1  0.000000  0.641461  0.907373  1
  Ru  Ru21  1  0.000000  0.358580  0.093000  1
  Ru  Ru22  1  0.000000  0.140279  0.592762  1
  Ru  Ru23  1  0.000000  0.859811  0.406984  1
