# generated using pymatgen
data_LaYZn5Ge
_symmetry_space_group_name_H-M   'P 1'
_cell_length_a   8.36354489
_cell_length_b   8.36354516
_cell_length_c   8.87450200
_cell_angle_alpha   90.00000000
_cell_angle_beta   90.00000000
_cell_angle_gamma   149.56240823
_symmetry_Int_Tables_number   1
_chemical_formula_structural   LaYZn5Ge
_chemical_formula_sum   'La2 Y2 Zn10 Ge2'
_cell_volume   314.47750864
_cell_formula_units_Z   2
loop_
 _symmetry_equiv_pos_site_id
 _symmetry_equiv_pos_as_xyz
  1  'x, y, z'
loop_
 _atom_site_type_symbol
 _atom_site_label
 _atom_site_symmetry_multiplicity
 _atom_site_fract_x
 _atom_site_fract_y
 _atom_site_fract_z
 _atom_site_occupancy
  La  La0  1  0.000000  0.000000  0.500000  1
  La  La1  1  0.000000  0.000000  0.000000  1
  Y  Y2  1  0.201705  0.798295  0.250000  1
  Y  Y3  1  0.798295  0.201705  0.750000  1
  Zn  Zn4  1  0.812399  0.187601  0.391405  1
  Zn  Zn5  1  0.187601  0.812399  0.608595  1
  Zn  Zn6  1  0.812399  0.187601  0.108595  1
  Zn  Zn7  1  0.187601  0.812399  0.891405  1
  Zn  Zn8  1  0.654885  0.345115  0.477619  1
  Zn  Zn9  1  0.345115  0.654885  0.522381  1
  Zn  Zn10  1  0.654885  0.345115  0.022381  1
  Zn  Zn11  1  0.345115  0.654885  0.977619  1
  Zn  Zn12  1  0.400183  0.599817  0.250000  1
  Zn  Zn13  1  0.599817  0.400183  0.750000  1
  Ge  Ge14  1  0.558958  0.441042  0.250000  1
  Ge  Ge15  1  0.441042  0.558958  0.750000  1
