# generated using pymatgen
data_Nd16Al4Ru3Pt
_symmetry_space_group_name_H-M   'P 1'
_cell_length_a   9.83445676
_cell_length_b   9.88025086
_cell_length_c   9.88025000
_cell_angle_alpha   59.99999619
_cell_angle_beta   59.84584063
_cell_angle_gamma   59.84584169
_symmetry_Int_Tables_number   1
_chemical_formula_structural   Nd16Al4Ru3Pt
_chemical_formula_sum   'Nd16 Al4 Ru3 Pt1'
_cell_volume   677.25992243
_cell_formula_units_Z   1
loop_
 _symmetry_equiv_pos_site_id
 _symmetry_equiv_pos_as_xyz
  1  'x, y, z'
loop_
 _atom_site_type_symbol
 _atom_site_label
 _atom_site_symmetry_multiplicity
 _atom_site_fract_x
 _atom_site_fract_y
 _atom_site_fract_z
 _atom_site_occupancy
  Nd  Nd0  1  0.347604  0.352593  0.352593  1
  Nd  Nd1  1  0.347604  0.352593  0.947210  1
  Nd  Nd2  1  0.347604  0.947210  0.352593  1
  Nd  Nd3  1  0.954497  0.348501  0.348501  1
  Nd  Nd4  1  0.810116  0.195277  0.195277  1
  Nd  Nd5  1  0.193467  0.806179  0.806179  1
  Nd  Nd6  1  0.193467  0.806179  0.194174  1
  Nd  Nd7  1  0.810116  0.195277  0.799330  1
  Nd  Nd8  1  0.193467  0.194174  0.806179  1
  Nd  Nd9  1  0.810116  0.799330  0.195277  1
  Nd  Nd10  1  0.936515  0.562093  0.562093  1
  Nd  Nd11  1  0.558060  0.938050  0.938050  1
  Nd  Nd12  1  0.558060  0.938050  0.565841  1
  Nd  Nd13  1  0.936515  0.562093  0.939300  1
  Nd  Nd14  1  0.558060  0.565841  0.938050  1
  Nd  Nd15  1  0.936515  0.939300  0.562093  1
  Al  Al16  1  0.575700  0.573457  0.573457  1
  Al  Al17  1  0.575700  0.573457  0.277386  1
  Al  Al18  1  0.575700  0.277386  0.573457  1
  Al  Al19  1  0.277198  0.574268  0.574268  1
  Ru  Ru20  1  0.142873  0.137949  0.137949  1
  Ru  Ru21  1  0.142873  0.137949  0.581228  1
  Ru  Ru22  1  0.142873  0.581228  0.137949  1
  Pt  Pt23  1  0.575295  0.141568  0.141568  1
