# generated using pymatgen
data_YTm9(InBi2)2
_symmetry_space_group_name_H-M   'P 1'
_cell_length_a   6.46322200
_cell_length_b   9.00884701
_cell_length_c   8.99746260
_cell_angle_alpha   120.04186488
_cell_angle_beta   89.99992908
_cell_angle_gamma   90.00013737
_symmetry_Int_Tables_number   1
_chemical_formula_structural   YTm9(InBi2)2
_chemical_formula_sum   'Y1 Tm9 In2 Bi4'
_cell_volume   453.50867774
_cell_formula_units_Z   1
loop_
 _symmetry_equiv_pos_site_id
 _symmetry_equiv_pos_as_xyz
  1  'x, y, z'
loop_
 _atom_site_type_symbol
 _atom_site_label
 _atom_site_symmetry_multiplicity
 _atom_site_fract_x
 _atom_site_fract_y
 _atom_site_fract_z
 _atom_site_occupancy
  Y  Y0  1  0.750002  0.237061  0.000000  1
  Tm  Tm1  1  0.496628  0.331607  0.660091  1
  Tm  Tm2  1  0.496628  0.671516  0.339909  1
  Tm  Tm3  1  0.003370  0.671515  0.339910  1
  Tm  Tm4  1  0.003370  0.331604  0.660090  1
  Tm  Tm5  1  0.750000  0.764743  0.762766  1
  Tm  Tm6  1  0.750000  0.001977  0.237234  1
  Tm  Tm7  1  0.250002  0.768124  0.000000  1
  Tm  Tm8  1  0.249999  0.233215  0.243280  1
  Tm  Tm9  1  0.249999  0.989935  0.756720  1
  In  In10  1  0.250000  0.604272  0.606339  1
  In  In11  1  0.250000  0.997932  0.393661  1
  Bi  Bi12  1  0.750002  0.607485  0.000000  1
  Bi  Bi13  1  0.749998  0.396799  0.394200  1
  Bi  Bi14  1  0.749998  0.002599  0.605800  1
  Bi  Bi15  1  0.250003  0.389617  0.000000  1
