# generated using pymatgen
data_Sc4CrOs7
_symmetry_space_group_name_H-M   'P 1'
_cell_length_a   5.27485200
_cell_length_b   5.10936072
_cell_length_c   8.60146900
_cell_angle_alpha   90.00000000
_cell_angle_beta   90.00000000
_cell_angle_gamma   121.07735798
_symmetry_Int_Tables_number   1
_chemical_formula_structural   Sc4CrOs7
_chemical_formula_sum   'Sc4 Cr1 Os7'
_cell_volume   198.54648622
_cell_formula_units_Z   1
loop_
 _symmetry_equiv_pos_site_id
 _symmetry_equiv_pos_as_xyz
  1  'x, y, z'
loop_
 _atom_site_type_symbol
 _atom_site_label
 _atom_site_symmetry_multiplicity
 _atom_site_fract_x
 _atom_site_fract_y
 _atom_site_fract_z
 _atom_site_occupancy
  Sc  Sc0  1  0.331538  0.663076  0.435642  1
  Sc  Sc1  1  0.668392  0.336783  0.566607  1
  Sc  Sc2  1  0.668392  0.336783  0.933393  1
  Sc  Sc3  1  0.331538  0.663076  0.064358  1
  Cr  Cr4  1  0.169476  0.338951  0.750000  1
  Os  Os5  1  0.170644  0.818675  0.750000  1
  Os  Os6  1  0.342885  0.168367  0.250000  1
  Os  Os7  1  0.827927  0.655856  0.250000  1
  Os  Os8  1  0.648032  0.818675  0.750000  1
  Os  Os9  1  0.007848  0.015696  0.996306  1
  Os  Os10  1  0.825480  0.168367  0.250000  1
  Os  Os11  1  0.007848  0.015696  0.503694  1
