# generated using pymatgen
data_TbSm3(Sc4Sb3)4
_symmetry_space_group_name_H-M   'P 1'
_cell_length_a   7.74370200
_cell_length_b   8.86345400
_cell_length_c   11.34804500
_cell_angle_alpha   90.00000000
_cell_angle_beta   89.99823903
_cell_angle_gamma   90.00000000
_symmetry_Int_Tables_number   1
_chemical_formula_structural   TbSm3(Sc4Sb3)4
_chemical_formula_sum   'Tb1 Sm3 Sc16 Sb12'
_cell_volume   778.88380912
_cell_formula_units_Z   1
loop_
 _symmetry_equiv_pos_site_id
 _symmetry_equiv_pos_as_xyz
  1  'x, y, z'
loop_
 _atom_site_type_symbol
 _atom_site_label
 _atom_site_symmetry_multiplicity
 _atom_site_fract_x
 _atom_site_fract_y
 _atom_site_fract_z
 _atom_site_occupancy
  Tb  Tb0  1  0.182110  0.750000  0.719591  1
  Sm  Sm1  1  0.318549  0.250000  0.220137  1
  Sm  Sm2  1  0.818336  0.250000  0.279827  1
  Sm  Sm3  1  0.681718  0.750000  0.779965  1
  Sc  Sc4  1  0.347196  0.750000  0.219427  1
  Sc  Sc5  1  0.847577  0.750000  0.280868  1
  Sc  Sc6  1  0.652281  0.250000  0.779828  1
  Sc  Sc7  1  0.152695  0.250000  0.719702  1
  Sc  Sc8  1  0.690910  0.563178  0.063806  1
  Sc  Sc9  1  0.191409  0.937144  0.436394  1
  Sc  Sc10  1  0.308952  0.062910  0.935855  1
  Sc  Sc11  1  0.808284  0.437151  0.563943  1
  Sc  Sc12  1  0.308952  0.437090  0.935855  1
  Sc  Sc13  1  0.808284  0.062849  0.563943  1
  Sc  Sc14  1  0.690910  0.936822  0.063806  1
  Sc  Sc15  1  0.191409  0.562856  0.436394  1
  Sc  Sc16  1  0.479207  0.250000  0.489369  1
  Sc  Sc17  1  0.979935  0.250000  0.010663  1
  Sc  Sc18  1  0.520522  0.750000  0.511558  1
  Sc  Sc19  1  0.020551  0.750000  0.988757  1
  Sb  Sb20  1  0.402918  0.750000  0.969830  1
  Sb  Sb21  1  0.905524  0.750000  0.530645  1
  Sb  Sb22  1  0.596496  0.250000  0.029089  1
  Sb  Sb23  1  0.095819  0.250000  0.470754  1
  Sb  Sb24  1  0.563234  0.987037  0.330591  1
  Sb  Sb25  1  0.063134  0.512885  0.169679  1
  Sb  Sb26  1  0.435030  0.488358  0.670031  1
  Sb  Sb27  1  0.938329  0.011691  0.829697  1
  Sb  Sb28  1  0.435030  0.011642  0.670031  1
  Sb  Sb29  1  0.938329  0.488309  0.829697  1
  Sb  Sb30  1  0.563234  0.512963  0.330591  1
  Sb  Sb31  1  0.063134  0.987115  0.169679  1
