# generated using pymatgen
data_YTm2Lu5Au4
_symmetry_space_group_name_H-M   'P 1'
_cell_length_a   4.83324700
_cell_length_b   7.05175216
_cell_length_c   8.79968119
_cell_angle_alpha   89.80639255
_cell_angle_beta   90.00000000
_cell_angle_gamma   90.00000000
_symmetry_Int_Tables_number   1
_chemical_formula_structural   YTm2Lu5Au4
_chemical_formula_sum   'Y1 Tm2 Lu5 Au4'
_cell_volume   299.91658959
_cell_formula_units_Z   1
loop_
 _symmetry_equiv_pos_site_id
 _symmetry_equiv_pos_as_xyz
  1  'x, y, z'
loop_
 _atom_site_type_symbol
 _atom_site_label
 _atom_site_symmetry_multiplicity
 _atom_site_fract_x
 _atom_site_fract_y
 _atom_site_fract_z
 _atom_site_occupancy
  Y  Y0  1  0.250000  0.983530  0.321028  1
  Tm  Tm1  1  0.750000  0.516449  0.822481  1
  Tm  Tm2  1  0.750000  0.016412  0.677210  1
  Lu  Lu3  1  0.250000  0.850925  0.922608  1
  Lu  Lu4  1  0.250000  0.351775  0.577955  1
  Lu  Lu5  1  0.750000  0.149685  0.076550  1
  Lu  Lu6  1  0.750000  0.648046  0.422250  1
  Lu  Lu7  1  0.250000  0.483381  0.176349  1
  Au  Au8  1  0.250000  0.255058  0.898898  1
  Au  Au9  1  0.250000  0.754116  0.604589  1
  Au  Au10  1  0.750000  0.743320  0.101092  1
  Au  Au11  1  0.750000  0.247302  0.398989  1
