# generated using pymatgen
data_Ce4Tc2SnB6
_symmetry_space_group_name_H-M   'P 1'
_cell_length_a   5.41426813
_cell_length_b   5.41426862
_cell_length_c   8.62246881
_cell_angle_alpha   71.70179322
_cell_angle_beta   71.70179157
_cell_angle_gamma   60.00000141
_symmetry_Int_Tables_number   1
_chemical_formula_structural   Ce4Tc2SnB6
_chemical_formula_sum   'Ce4 Tc2 Sn1 B6'
_cell_volume   204.00659295
_cell_formula_units_Z   1
loop_
 _symmetry_equiv_pos_site_id
 _symmetry_equiv_pos_as_xyz
  1  'x, y, z'
loop_
 _atom_site_type_symbol
 _atom_site_label
 _atom_site_symmetry_multiplicity
 _atom_site_fract_x
 _atom_site_fract_y
 _atom_site_fract_z
 _atom_site_occupancy
  Ce  Ce0  1  0.252284  0.252284  0.243147  1
  Ce  Ce1  1  0.747716  0.747716  0.756853  1
  Ce  Ce2  1  0.413967  0.413967  0.758101  1
  Ce  Ce3  1  0.586033  0.586033  0.241900  1
  Tc  Tc4  1  0.113094  0.113094  0.660719  1
  Tc  Tc5  1  0.886906  0.886906  0.339281  1
  Sn  Sn6  1  0.000000  0.000000  0.000000  1
  B  B7  1  0.171088  0.828912  0.500000  1
  B  B8  1  0.828912  0.500000  0.500000  1
  B  B9  1  0.500000  0.171088  0.500000  1
  B  B10  1  0.171088  0.500000  0.500000  1
  B  B11  1  0.500000  0.828912  0.500000  1
  B  B12  1  0.828912  0.171088  0.500000  1
