# generated using pymatgen
data_Dy4AlFeOs6
_symmetry_space_group_name_H-M   'P 1'
_cell_length_a   5.32998483
_cell_length_b   5.32998630
_cell_length_c   8.71483319
_cell_angle_alpha   90.23937134
_cell_angle_beta   89.76063094
_cell_angle_gamma   119.61514069
_symmetry_Int_Tables_number   1
_chemical_formula_structural   Dy4AlFeOs6
_chemical_formula_sum   'Dy4 Al1 Fe1 Os6'
_cell_volume   215.23252975
_cell_formula_units_Z   1
loop_
 _symmetry_equiv_pos_site_id
 _symmetry_equiv_pos_as_xyz
  1  'x, y, z'
loop_
 _atom_site_type_symbol
 _atom_site_label
 _atom_site_symmetry_multiplicity
 _atom_site_fract_x
 _atom_site_fract_y
 _atom_site_fract_z
 _atom_site_occupancy
  Dy  Dy0  1  0.331831  0.668169  0.429098  1
  Dy  Dy1  1  0.665056  0.334944  0.570145  1
  Dy  Dy2  1  0.667803  0.332197  0.938014  1
  Dy  Dy3  1  0.333488  0.666512  0.065123  1
  Al  Al4  1  0.002038  0.997962  0.498903  1
  Fe  Fe5  1  0.833478  0.166522  0.248998  1
  Os  Os6  1  0.001103  0.998897  0.998664  1
  Os  Os7  1  0.823691  0.656561  0.251223  1
  Os  Os8  1  0.343439  0.176309  0.251223  1
  Os  Os9  1  0.171103  0.828897  0.751787  1
  Os  Os10  1  0.170468  0.343498  0.748411  1
  Os  Os11  1  0.656502  0.829532  0.748411  1
