# generated using pymatgen
data_HfTa5Si7Ni16
_symmetry_space_group_name_H-M   'P 1'
_cell_length_a   7.94965661
_cell_length_b   7.97379968
_cell_length_c   7.94965644
_cell_angle_alpha   59.89949136
_cell_angle_beta   60.20103089
_cell_angle_gamma   59.89949062
_symmetry_Int_Tables_number   1
_chemical_formula_structural   HfTa5Si7Ni16
_chemical_formula_sum   'Hf1 Ta5 Si7 Ni16'
_cell_volume   356.31906467
_cell_formula_units_Z   1
loop_
 _symmetry_equiv_pos_site_id
 _symmetry_equiv_pos_as_xyz
  1  'x, y, z'
loop_
 _atom_site_type_symbol
 _atom_site_label
 _atom_site_symmetry_multiplicity
 _atom_site_fract_x
 _atom_site_fract_y
 _atom_site_fract_z
 _atom_site_occupancy
  Hf  Hf0  1  0.796338  0.203662  0.796338  1
  Ta  Ta1  1  0.204990  0.203204  0.796797  1
  Ta  Ta2  1  0.796797  0.795011  0.204990  1
  Ta  Ta3  1  0.796797  0.203203  0.204989  1
  Ta  Ta4  1  0.204989  0.795011  0.796797  1
  Ta  Ta5  1  0.200603  0.799397  0.200604  1
  Si  Si6  1  0.502087  0.497913  0.502087  1
  Si  Si7  1  0.498346  0.501654  0.002430  1
  Si  Si8  1  0.002430  0.997570  0.498346  1
  Si  Si9  1  0.499892  0.000108  0.499892  1
  Si  Si10  1  0.002430  0.501654  0.498346  1
  Si  Si11  1  0.498346  0.997570  0.002430  1
  Si  Si12  1  0.999892  0.500108  0.999892  1
  Ni  Ni13  1  0.502030  0.832793  0.832383  1
  Ni  Ni14  1  0.832641  0.502199  0.832641  1
  Ni  Ni15  1  0.832383  0.832793  0.502030  1
  Ni  Ni16  1  0.167207  0.497970  0.167207  1
  Ni  Ni17  1  0.167481  0.167359  0.497801  1
  Ni  Ni18  1  0.497801  0.167359  0.167481  1
  Ni  Ni19  1  0.832641  0.832519  0.832641  1
  Ni  Ni20  1  0.383437  0.383724  0.383437  1
  Ni  Ni21  1  0.150600  0.616563  0.616276  1
  Ni  Ni22  1  0.615730  0.148030  0.615730  1
  Ni  Ni23  1  0.616276  0.616563  0.150600  1
  Ni  Ni24  1  0.383437  0.849400  0.383437  1
  Ni  Ni25  1  0.379491  0.384270  0.851970  1
  Ni  Ni26  1  0.851970  0.384270  0.379491  1
  Ni  Ni27  1  0.615730  0.620509  0.615730  1
  Ni  Ni28  1  0.167207  0.167617  0.167207  1
