# generated using pymatgen
data_TbZr5Co16(P6W)2
_symmetry_space_group_name_H-M   'P 1'
_cell_length_a   3.65825000
_cell_length_b   10.38274300
_cell_length_c   12.02927800
_cell_angle_alpha   90.00000000
_cell_angle_beta   90.00000000
_cell_angle_gamma   90.00000000
_symmetry_Int_Tables_number   1
_chemical_formula_structural   TbZr5Co16(P6W)2
_chemical_formula_sum   'Tb1 Zr5 Co16 P12 W2'
_cell_volume   456.90409156
_cell_formula_units_Z   1
loop_
 _symmetry_equiv_pos_site_id
 _symmetry_equiv_pos_as_xyz
  1  'x, y, z'
loop_
 _atom_site_type_symbol
 _atom_site_label
 _atom_site_symmetry_multiplicity
 _atom_site_fract_x
 _atom_site_fract_y
 _atom_site_fract_z
 _atom_site_occupancy
  Tb  Tb0  1  0.500000  0.000000  0.471710  1
  Zr  Zr1  1  0.000000  0.500000  0.529567  1
  Zr  Zr2  1  0.500000  0.821403  0.206321  1
  Zr  Zr3  1  0.500000  0.178597  0.206321  1
  Zr  Zr4  1  0.000000  0.676837  0.792580  1
  Zr  Zr5  1  0.000000  0.323163  0.792580  1
  Co  Co6  1  0.500000  0.500000  0.702611  1
  Co  Co7  1  0.000000  0.000000  0.293954  1
  Co  Co8  1  0.000000  0.500000  0.987484  1
  Co  Co9  1  0.500000  0.000000  0.012864  1
  Co  Co10  1  0.500000  0.333181  0.989741  1
  Co  Co11  1  0.500000  0.666819  0.989741  1
  Co  Co12  1  0.000000  0.168121  0.009692  1
  Co  Co13  1  0.000000  0.831879  0.009692  1
  Co  Co14  1  0.500000  0.301088  0.432413  1
  Co  Co15  1  0.500000  0.698912  0.432413  1
  Co  Co16  1  0.000000  0.205900  0.567945  1
  Co  Co17  1  0.000000  0.794100  0.567945  1
  Co  Co18  1  0.500000  0.874598  0.708544  1
  Co  Co19  1  0.500000  0.125402  0.708544  1
  Co  Co20  1  0.000000  0.623985  0.292814  1
  Co  Co21  1  0.000000  0.376015  0.292814  1
  P  P22  1  0.500000  0.500000  0.878042  1
  P  P23  1  0.000000  0.000000  0.119834  1
  P  P24  1  0.500000  0.500000  0.356594  1
  P  P25  1  0.000000  0.000000  0.647103  1
  P  P26  1  0.500000  0.316601  0.617310  1
  P  P27  1  0.500000  0.683399  0.617310  1
  P  P28  1  0.000000  0.186084  0.381389  1
  P  P29  1  0.000000  0.813916  0.381389  1
  P  P30  1  0.500000  0.840479  0.890475  1
  P  P31  1  0.500000  0.159521  0.890475  1
  P  P32  1  0.000000  0.658525  0.109793  1
  P  P33  1  0.000000  0.341475  0.109793  1
  W  W34  1  0.500000  0.500000  0.160188  1
  W  W35  1  0.000000  0.000000  0.842012  1
