# generated using pymatgen
data_Nd2DyU5(ReB6)4
_symmetry_space_group_name_H-M   'P 1'
_cell_length_a   3.66791500
_cell_length_b   9.35046847
_cell_length_c   11.46272617
_cell_angle_alpha   90.08652273
_cell_angle_beta   90.00000000
_cell_angle_gamma   90.00000000
_symmetry_Int_Tables_number   1
_chemical_formula_structural   Nd2DyU5(ReB6)4
_chemical_formula_sum   'Nd2 Dy1 U5 Re4 B24'
_cell_volume   393.13350231
_cell_formula_units_Z   1
loop_
 _symmetry_equiv_pos_site_id
 _symmetry_equiv_pos_as_xyz
  1  'x, y, z'
loop_
 _atom_site_type_symbol
 _atom_site_label
 _atom_site_symmetry_multiplicity
 _atom_site_fract_x
 _atom_site_fract_y
 _atom_site_fract_z
 _atom_site_occupancy
  Nd  Nd0  1  0.000000  0.337031  0.407580  1
  Nd  Nd1  1  0.000000  0.663059  0.592082  1
  Dy  Dy2  1  0.000000  0.836099  0.092341  1
  U  U3  1  0.000000  0.162784  0.907846  1
  U  U4  1  0.000000  0.956787  0.396603  1
  U  U5  1  0.000000  0.042268  0.603755  1
  U  U6  1  0.000000  0.458188  0.103379  1
  U  U7  1  0.000000  0.542922  0.897710  1
  Re  Re8  1  0.000000  0.648641  0.316294  1
  Re  Re9  1  0.000000  0.349164  0.686388  1
  Re  Re10  1  0.000000  0.145722  0.177020  1
  Re  Re11  1  0.000000  0.858040  0.820267  1
  B  B12  1  0.500000  0.555371  0.427963  1
  B  B13  1  0.500000  0.443855  0.572924  1
  B  B14  1  0.500000  0.052795  0.067327  1
  B  B15  1  0.500000  0.950023  0.930711  1
  B  B16  1  0.500000  0.745957  0.420702  1
  B  B17  1  0.500000  0.253961  0.579351  1
  B  B18  1  0.500000  0.242638  0.075652  1
  B  B19  1  0.500000  0.756892  0.923012  1
  B  B20  1  0.500000  0.803847  0.273434  1
  B  B21  1  0.500000  0.194955  0.727966  1
  B  B22  1  0.500000  0.301639  0.223259  1
  B  B23  1  0.500000  0.698845  0.776524  1
  B  B24  1  0.500000  0.645529  0.187073  1
  B  B25  1  0.500000  0.353095  0.813712  1
  B  B26  1  0.500000  0.142971  0.310051  1
  B  B27  1  0.500000  0.856718  0.689295  1
  B  B28  1  0.500000  0.989767  0.218509  1
  B  B29  1  0.500000  0.012550  0.781981  1
  B  B30  1  0.500000  0.491919  0.278360  1
  B  B31  1  0.500000  0.507880  0.722027  1
  B  B32  1  0.500000  0.641026  0.038111  1
  B  B33  1  0.500000  0.356958  0.961164  1
  B  B34  1  0.500000  0.136153  0.461857  1
  B  B35  1  0.500000  0.863953  0.537772  1
