# generated using pymatgen
data_Zr3Be2Rh5
_symmetry_space_group_name_H-M   'P 1'
_cell_length_a   9.44807300
_cell_length_b   9.44807300
_cell_length_c   3.38974300
_cell_angle_alpha   90.00000000
_cell_angle_beta   90.00000000
_cell_angle_gamma   90.00000000
_symmetry_Int_Tables_number   1
_chemical_formula_structural   Zr3Be2Rh5
_chemical_formula_sum   'Zr6 Be4 Rh10'
_cell_volume   302.58908139
_cell_formula_units_Z   2
loop_
 _symmetry_equiv_pos_site_id
 _symmetry_equiv_pos_as_xyz
  1  'x, y, z'
loop_
 _atom_site_type_symbol
 _atom_site_label
 _atom_site_symmetry_multiplicity
 _atom_site_fract_x
 _atom_site_fract_y
 _atom_site_fract_z
 _atom_site_occupancy
  Zr  Zr0  1  0.826247  0.326247  0.000000  1
  Zr  Zr1  1  0.326247  0.173753  0.000000  1
  Zr  Zr2  1  0.673753  0.826247  0.000000  1
  Zr  Zr3  1  0.173753  0.673753  0.000000  1
  Zr  Zr4  1  0.000000  0.000000  0.000000  1
  Zr  Zr5  1  0.500000  0.500000  0.000000  1
  Be  Be6  1  0.619869  0.119869  0.000000  1
  Be  Be7  1  0.119869  0.380131  0.000000  1
  Be  Be8  1  0.880131  0.619869  0.000000  1
  Be  Be9  1  0.380131  0.880131  0.000000  1
  Rh  Rh10  1  0.072214  0.216500  0.500000  1
  Rh  Rh11  1  0.216500  0.927786  0.500000  1
  Rh  Rh12  1  0.783500  0.072214  0.500000  1
  Rh  Rh13  1  0.927786  0.783500  0.500000  1
  Rh  Rh14  1  0.427786  0.716500  0.500000  1
  Rh  Rh15  1  0.572214  0.283500  0.500000  1
  Rh  Rh16  1  0.716500  0.572214  0.500000  1
  Rh  Rh17  1  0.283500  0.427786  0.500000  1
  Rh  Rh18  1  0.500000  0.000000  0.500000  1
  Rh  Rh19  1  0.000000  0.500000  0.500000  1
