# generated using pymatgen
data_Ho3GaNi2Ir
_symmetry_space_group_name_H-M   'P 1'
_cell_length_a   5.46648482
_cell_length_b   5.46648521
_cell_length_c   12.90770300
_cell_angle_alpha   90.00000000
_cell_angle_beta   90.00000000
_cell_angle_gamma   135.37955450
_symmetry_Int_Tables_number   1
_chemical_formula_structural   Ho3GaNi2Ir
_chemical_formula_sum   'Ho6 Ga2 Ni4 Ir2'
_cell_volume   270.92817604
_cell_formula_units_Z   2
loop_
 _symmetry_equiv_pos_site_id
 _symmetry_equiv_pos_as_xyz
  1  'x, y, z'
loop_
 _atom_site_type_symbol
 _atom_site_label
 _atom_site_symmetry_multiplicity
 _atom_site_fract_x
 _atom_site_fract_y
 _atom_site_fract_z
 _atom_site_occupancy
  Ho  Ho0  1  0.789354  0.210646  0.394476  1
  Ho  Ho1  1  0.210646  0.789354  0.605524  1
  Ho  Ho2  1  0.789354  0.210646  0.105524  1
  Ho  Ho3  1  0.210646  0.789354  0.894476  1
  Ho  Ho4  1  0.506939  0.493061  0.250000  1
  Ho  Ho5  1  0.493061  0.506939  0.750000  1
  Ga  Ga6  1  0.500000  0.500000  0.500000  1
  Ga  Ga7  1  0.500000  0.500000  0.000000  1
  Ni  Ni8  1  0.076037  0.923963  0.413949  1
  Ni  Ni9  1  0.923963  0.076037  0.586051  1
  Ni  Ni10  1  0.076037  0.923963  0.086051  1
  Ni  Ni11  1  0.923963  0.076037  0.913949  1
  Ir  Ir12  1  0.220353  0.779647  0.250000  1
  Ir  Ir13  1  0.779647  0.220353  0.750000  1
