# generated using pymatgen
data_NaHf6N7
_symmetry_space_group_name_H-M   'P 1'
_cell_length_a   5.56122626
_cell_length_b   5.56122591
_cell_length_c   7.84663100
_cell_angle_alpha   118.05493300
_cell_angle_beta   118.05493109
_cell_angle_gamma   99.68327889
_symmetry_Int_Tables_number   1
_chemical_formula_structural   NaHf6N7
_chemical_formula_sum   'Na1 Hf6 N7'
_cell_volume   163.67468066
_cell_formula_units_Z   1
loop_
 _symmetry_equiv_pos_site_id
 _symmetry_equiv_pos_as_xyz
  1  'x, y, z'
loop_
 _atom_site_type_symbol
 _atom_site_label
 _atom_site_symmetry_multiplicity
 _atom_site_fract_x
 _atom_site_fract_y
 _atom_site_fract_z
 _atom_site_occupancy
  Na  Na0  1  0.500000  0.000000  0.607850  1
  Hf  Hf1  1  0.922985  0.290463  0.175638  1
  Hf  Hf2  1  0.076784  0.708897  0.038194  1
  Hf  Hf3  1  0.367478  0.577015  0.752653  1
  Hf  Hf4  1  0.209537  0.132522  0.885175  1
  Hf  Hf5  1  0.632113  0.423216  0.461410  1
  Hf  Hf6  1  0.791103  0.867887  0.329297  1
  N  N7  1  0.354213  0.554740  0.239826  1
  N  N8  1  0.200527  0.145787  0.385613  1
  N  N9  1  0.945260  0.299473  0.685087  1
  N  N10  1  0.799682  0.854177  0.828725  1
  N  N11  1  0.054496  0.700318  0.529043  1
  N  N12  1  0.500000  0.000000  0.106941  1
  N  N13  1  0.645823  0.445504  0.974548  1
