# generated using pymatgen
data_Ce3Pr2Nd3(ZnRh)8
_symmetry_space_group_name_H-M   'P 1'
_cell_length_a   3.93382000
_cell_length_b   7.48826710
_cell_length_c   16.43380543
_cell_angle_alpha   89.56813516
_cell_angle_beta   90.00000000
_cell_angle_gamma   90.00000000
_symmetry_Int_Tables_number   1
_chemical_formula_structural   Ce3Pr2Nd3(ZnRh)8
_chemical_formula_sum   'Ce3 Pr2 Nd3 Zn8 Rh8'
_cell_volume   484.08498759
_cell_formula_units_Z   1
loop_
 _symmetry_equiv_pos_site_id
 _symmetry_equiv_pos_as_xyz
  1  'x, y, z'
loop_
 _atom_site_type_symbol
 _atom_site_label
 _atom_site_symmetry_multiplicity
 _atom_site_fract_x
 _atom_site_fract_y
 _atom_site_fract_z
 _atom_site_occupancy
  Ce  Ce0  1  0.250000  0.183838  0.939556  1
  Ce  Ce1  1  0.250000  0.562076  0.784660  1
  Ce  Ce2  1  0.750000  0.320269  0.441318  1
  Pr  Pr3  1  0.750000  0.943856  0.284265  1
  Pr  Pr4  1  0.750000  0.445458  0.215184  1
  Nd  Nd5  1  0.250000  0.665502  0.560775  1
  Nd  Nd6  1  0.750000  0.831560  0.059278  1
  Nd  Nd7  1  0.250000  0.055838  0.716289  1
  Zn  Zn8  1  0.250000  0.115291  0.149649  1
  Zn  Zn9  1  0.750000  0.511145  0.940608  1
  Zn  Zn10  1  0.750000  0.993650  0.560684  1
  Zn  Zn11  1  0.750000  0.380061  0.651344  1
  Zn  Zn12  1  0.750000  0.893937  0.847644  1
  Zn  Zn13  1  0.250000  0.503416  0.058322  1
  Zn  Zn14  1  0.250000  0.611850  0.349571  1
  Zn  Zn15  1  0.250000  0.988369  0.440754  1
  Rh  Rh16  1  0.750000  0.744547  0.435729  1
  Rh  Rh17  1  0.750000  0.271642  0.819496  1
  Rh  Rh18  1  0.750000  0.744377  0.693168  1
  Rh  Rh19  1  0.250000  0.742772  0.184379  1
  Rh  Rh20  1  0.250000  0.747835  0.927974  1
  Rh  Rh21  1  0.250000  0.246295  0.558153  1
  Rh  Rh22  1  0.750000  0.247798  0.057110  1
  Rh  Rh23  1  0.250000  0.248621  0.324092  1
