# generated using pymatgen
data_Ca5La10Nd(CdIr)4
_symmetry_space_group_name_H-M   'P 1'
_cell_length_a   10.10507758
_cell_length_b   10.10507774
_cell_length_c   10.11118500
_cell_angle_alpha   59.98000214
_cell_angle_beta   59.98000162
_cell_angle_gamma   60.17012156
_symmetry_Int_Tables_number   1
_chemical_formula_structural   Ca5La10Nd(CdIr)4
_chemical_formula_sum   'Ca5 La10 Nd1 Cd4 Ir4'
_cell_volume   730.78554810
_cell_formula_units_Z   1
loop_
 _symmetry_equiv_pos_site_id
 _symmetry_equiv_pos_as_xyz
  1  'x, y, z'
loop_
 _atom_site_type_symbol
 _atom_site_label
 _atom_site_symmetry_multiplicity
 _atom_site_fract_x
 _atom_site_fract_y
 _atom_site_fract_z
 _atom_site_occupancy
  Ca  Ca0  1  0.937487  0.563127  0.561461  1
  Ca  Ca1  1  0.563127  0.937487  0.937925  1
  Ca  Ca2  1  0.563127  0.937487  0.561461  1
  Ca  Ca3  1  0.937487  0.563127  0.937925  1
  Ca  Ca4  1  0.561626  0.561626  0.938374  1
  La  La5  1  0.347137  0.347137  0.345887  1
  La  La6  1  0.347137  0.347137  0.959839  1
  La  La7  1  0.346373  0.961454  0.346087  1
  La  La8  1  0.961454  0.346373  0.346087  1
  La  La9  1  0.808177  0.190973  0.192484  1
  La  La10  1  0.190973  0.808177  0.808366  1
  La  La11  1  0.190973  0.808177  0.192484  1
  La  La12  1  0.808177  0.190973  0.808366  1
  La  La13  1  0.191315  0.191315  0.808685  1
  La  La14  1  0.805097  0.805097  0.194903  1
  Nd  Nd15  1  0.938761  0.938761  0.561239  1
  Cd  Cd16  1  0.579510  0.579510  0.578873  1
  Cd  Cd17  1  0.579510  0.579510  0.262107  1
  Cd  Cd18  1  0.580966  0.261190  0.578922  1
  Cd  Cd19  1  0.261190  0.580966  0.578922  1
  Ir  Ir20  1  0.139857  0.139857  0.140841  1
  Ir  Ir21  1  0.139857  0.139857  0.579442  1
  Ir  Ir22  1  0.141264  0.579415  0.139659  1
  Ir  Ir23  1  0.579415  0.141264  0.139659  1
