# generated using pymatgen
data_Zr2Si2IrAu
_symmetry_space_group_name_H-M   'P 1'
_cell_length_a   3.96074700
_cell_length_b   6.69162400
_cell_length_c   7.66375100
_cell_angle_alpha   90.00000000
_cell_angle_beta   90.00000000
_cell_angle_gamma   90.00000000
_symmetry_Int_Tables_number   1
_chemical_formula_structural   Zr2Si2IrAu
_chemical_formula_sum   'Zr4 Si4 Ir2 Au2'
_cell_volume   203.11875124
_cell_formula_units_Z   2
loop_
 _symmetry_equiv_pos_site_id
 _symmetry_equiv_pos_as_xyz
  1  'x, y, z'
loop_
 _atom_site_type_symbol
 _atom_site_label
 _atom_site_symmetry_multiplicity
 _atom_site_fract_x
 _atom_site_fract_y
 _atom_site_fract_z
 _atom_site_occupancy
  Zr  Zr0  1  0.250000  0.020864  0.319739  1
  Zr  Zr1  1  0.250000  0.520864  0.180261  1
  Zr  Zr2  1  0.750000  0.972050  0.675114  1
  Zr  Zr3  1  0.750000  0.472050  0.824886  1
  Si  Si4  1  0.250000  0.259279  0.607017  1
  Si  Si5  1  0.250000  0.759279  0.892983  1
  Si  Si6  1  0.750000  0.733986  0.361670  1
  Si  Si7  1  0.750000  0.233986  0.138330  1
  Ir  Ir8  1  0.750000  0.861903  0.057488  1
  Ir  Ir9  1  0.750000  0.361903  0.442512  1
  Au  Au10  1  0.250000  0.151919  0.931065  1
  Au  Au11  1  0.250000  0.651919  0.568935  1
