# generated using pymatgen
data_Ca6Pr6ScV11O36
_symmetry_space_group_name_H-M   'P 1'
_cell_length_a   5.47142939
_cell_length_b   5.59527406
_cell_length_c   23.44172986
_cell_angle_alpha   90.27642288
_cell_angle_beta   90.21059580
_cell_angle_gamma   90.34278244
_symmetry_Int_Tables_number   1
_chemical_formula_structural   Ca6Pr6ScV11O36
_chemical_formula_sum   'Ca6 Pr6 Sc1 V11 O36'
_cell_volume   717.62244347
_cell_formula_units_Z   1
loop_
 _symmetry_equiv_pos_site_id
 _symmetry_equiv_pos_as_xyz
  1  'x, y, z'
loop_
 _atom_site_type_symbol
 _atom_site_label
 _atom_site_symmetry_multiplicity
 _atom_site_fract_x
 _atom_site_fract_y
 _atom_site_fract_z
 _atom_site_occupancy
  Ca  Ca0  1  0.512373  0.453035  0.083595  1
  Ca  Ca1  1  0.508386  0.454665  0.415631  1
  Ca  Ca2  1  0.508341  0.454739  0.751292  1
  Ca  Ca3  1  0.011747  0.048177  0.249705  1
  Ca  Ca4  1  0.006831  0.046046  0.917919  1
  Ca  Ca5  1  0.012948  0.047111  0.581310  1
  Pr  Pr6  1  0.992815  0.954434  0.083453  1
  Pr  Pr7  1  0.989130  0.952684  0.415617  1
  Pr  Pr8  1  0.985776  0.951980  0.752097  1
  Pr  Pr9  1  0.491750  0.544971  0.581467  1
  Pr  Pr10  1  0.491433  0.544337  0.249744  1
  Pr  Pr11  1  0.488356  0.547383  0.917307  1
  Sc  Sc12  1  0.999613  0.496116  0.666973  1
  V  V13  1  0.500033  0.002535  0.000149  1
  V  V14  1  0.500698  0.001770  0.166709  1
  V  V15  1  0.499836  0.002692  0.332566  1
  V  V16  1  0.500317  0.001917  0.499262  1
  V  V17  1  0.498795  0.002032  0.666432  1
  V  V18  1  0.497234  0.002631  0.834047  1
  V  V19  1  0.000416  0.497728  0.166553  1
  V  V20  1  0.998907  0.496459  0.498407  1
  V  V21  1  0.000056  0.497003  0.000715  1
  V  V22  1  0.999660  0.497324  0.834584  1
  V  V23  1  0.000171  0.497761  0.332957  1
  O  O24  1  0.585811  0.977203  0.249900  1
  O  O25  1  0.581047  0.979163  0.917006  1
  O  O26  1  0.586832  0.976960  0.582876  1
  O  O27  1  0.218989  0.806303  0.651505  1
  O  O28  1  0.205900  0.790952  0.985686  1
  O  O29  1  0.221791  0.802092  0.318817  1
  O  O30  1  0.197348  0.776932  0.181746  1
  O  O31  1  0.196790  0.775872  0.514057  1
  O  O32  1  0.193975  0.778013  0.849861  1
  O  O33  1  0.723210  0.697356  0.014261  1
  O  O34  1  0.711569  0.710513  0.151225  1
  O  O35  1  0.710557  0.710918  0.483612  1
  O  O36  1  0.707703  0.709370  0.347577  1
  O  O37  1  0.698087  0.711614  0.682483  1
  O  O38  1  0.707528  0.710716  0.819315  1
  O  O39  1  0.087978  0.525975  0.753302  1
  O  O40  1  0.089443  0.524782  0.083808  1
  O  O41  1  0.085021  0.522673  0.416101  1
  O  O42  1  0.915824  0.470263  0.580512  1
  O  O43  1  0.919028  0.474273  0.249596  1
  O  O44  1  0.914262  0.472052  0.917775  1
  O  O45  1  0.292102  0.290042  0.318710  1
  O  O46  1  0.288079  0.287887  0.513525  1
  O  O47  1  0.304843  0.290849  0.651364  1
  O  O48  1  0.288619  0.288413  0.181427  1
  O  O49  1  0.276581  0.301768  0.987257  1
  O  O50  1  0.285946  0.289112  0.849514  1
  O  O51  1  0.802200  0.224682  0.152314  1
  O  O52  1  0.793717  0.209939  0.015000  1
  O  O53  1  0.776856  0.199757  0.346558  1
  O  O54  1  0.800397  0.223101  0.483966  1
  O  O55  1  0.799089  0.224728  0.819863  1
  O  O56  1  0.781870  0.194072  0.681544  1
  O  O57  1  0.418090  0.024617  0.415864  1
  O  O58  1  0.422208  0.024368  0.083504  1
  O  O59  1  0.415085  0.027136  0.750079  1
