# generated using pymatgen
data_Mg3Sc5(CoB6)4
_symmetry_space_group_name_H-M   'P 1'
_cell_length_a   3.29968900
_cell_length_b   8.75595935
_cell_length_c   11.05716800
_cell_angle_alpha   89.95639851
_cell_angle_beta   90.00000000
_cell_angle_gamma   90.00000000
_symmetry_Int_Tables_number   1
_chemical_formula_structural   Mg3Sc5(CoB6)4
_chemical_formula_sum   'Mg3 Sc5 Co4 B24'
_cell_volume   319.46297232
_cell_formula_units_Z   1
loop_
 _symmetry_equiv_pos_site_id
 _symmetry_equiv_pos_as_xyz
  1  'x, y, z'
loop_
 _atom_site_type_symbol
 _atom_site_label
 _atom_site_symmetry_multiplicity
 _atom_site_fract_x
 _atom_site_fract_y
 _atom_site_fract_z
 _atom_site_occupancy
  Mg  Mg0  1  0.000000  0.945572  0.375146  1
  Mg  Mg1  1  0.000000  0.054818  0.625505  1
  Mg  Mg2  1  0.000000  0.555340  0.873312  1
  Sc  Sc3  1  0.000000  0.178419  0.914354  1
  Sc  Sc4  1  0.000000  0.820763  0.084552  1
  Sc  Sc5  1  0.000000  0.678840  0.585696  1
  Sc  Sc6  1  0.000000  0.321086  0.415419  1
  Sc  Sc7  1  0.000000  0.444019  0.127282  1
  Co  Co8  1  0.000000  0.139098  0.180532  1
  Co  Co9  1  0.000000  0.359124  0.681656  1
  Co  Co10  1  0.000000  0.858781  0.818914  1
  Co  Co11  1  0.000000  0.642360  0.318885  1
  B  B12  1  0.500000  0.369509  0.816795  1
  B  B13  1  0.500000  0.982204  0.212871  1
  B  B14  1  0.500000  0.555128  0.434684  1
  B  B15  1  0.500000  0.292691  0.236828  1
  B  B16  1  0.500000  0.206042  0.735781  1
  B  B17  1  0.500000  0.101069  0.472777  1
  B  B18  1  0.500000  0.795111  0.264158  1
  B  B19  1  0.500000  0.445419  0.566129  1
  B  B20  1  0.500000  0.247638  0.580146  1
  B  B21  1  0.500000  0.482459  0.287958  1
  B  B22  1  0.500000  0.706430  0.763536  1
  B  B23  1  0.500000  0.752618  0.420283  1
  B  B24  1  0.500000  0.518182  0.712456  1
  B  B25  1  0.500000  0.898918  0.527636  1
  B  B26  1  0.500000  0.053242  0.065633  1
  B  B27  1  0.500000  0.603816  0.027111  1
  B  B28  1  0.500000  0.748555  0.919319  1
  B  B29  1  0.500000  0.017839  0.787239  1
  B  B30  1  0.500000  0.397057  0.971350  1
  B  B31  1  0.500000  0.945440  0.933558  1
  B  B32  1  0.500000  0.632317  0.182542  1
  B  B33  1  0.500000  0.250230  0.079167  1
  B  B34  1  0.500000  0.870176  0.682328  1
  B  B35  1  0.500000  0.129688  0.318467  1
