# generated using pymatgen
data_NdHo4(MnB3)2
_symmetry_space_group_name_H-M   'P 1'
_cell_length_a   5.42049720
_cell_length_b   5.42049713
_cell_length_c   8.30701675
_cell_angle_alpha   70.95805472
_cell_angle_beta   70.95805371
_cell_angle_gamma   60.00001453
_symmetry_Int_Tables_number   1
_chemical_formula_structural   NdHo4(MnB3)2
_chemical_formula_sum   'Nd1 Ho4 Mn2 B6'
_cell_volume   195.80147714
_cell_formula_units_Z   1
loop_
 _symmetry_equiv_pos_site_id
 _symmetry_equiv_pos_as_xyz
  1  'x, y, z'
loop_
 _atom_site_type_symbol
 _atom_site_label
 _atom_site_symmetry_multiplicity
 _atom_site_fract_x
 _atom_site_fract_y
 _atom_site_fract_z
 _atom_site_occupancy
  Nd  Nd0  1  0.000000  0.000000  0.000000  1
  Ho  Ho1  1  0.249491  0.249491  0.251527  1
  Ho  Ho2  1  0.750509  0.750509  0.748473  1
  Ho  Ho3  1  0.417703  0.417703  0.746891  1
  Ho  Ho4  1  0.582297  0.582297  0.253109  1
  Mn  Mn5  1  0.114706  0.114706  0.655881  1
  Mn  Mn6  1  0.885294  0.885294  0.344119  1
  B  B7  1  0.166394  0.833606  0.500000  1
  B  B8  1  0.833606  0.500000  0.500000  1
  B  B9  1  0.500000  0.166394  0.500000  1
  B  B10  1  0.166394  0.500000  0.500000  1
  B  B11  1  0.500000  0.833606  0.500000  1
  B  B12  1  0.833606  0.166394  0.500000  1
