# generated using pymatgen
data_Ti6ReTc3Pt2
_symmetry_space_group_name_H-M   'P 1'
_cell_length_a   4.41957600
_cell_length_b   6.27540600
_cell_length_c   13.23108100
_cell_angle_alpha   90.00000000
_cell_angle_beta   90.00258687
_cell_angle_gamma   90.00000000
_symmetry_Int_Tables_number   1
_chemical_formula_structural   Ti6ReTc3Pt2
_chemical_formula_sum   'Ti12 Re2 Tc6 Pt4'
_cell_volume   366.95918544
_cell_formula_units_Z   2
loop_
 _symmetry_equiv_pos_site_id
 _symmetry_equiv_pos_as_xyz
  1  'x, y, z'
loop_
 _atom_site_type_symbol
 _atom_site_label
 _atom_site_symmetry_multiplicity
 _atom_site_fract_x
 _atom_site_fract_y
 _atom_site_fract_z
 _atom_site_occupancy
  Ti  Ti0  1  0.500010  0.254523  0.003884  1
  Ti  Ti1  1  0.500010  0.745477  0.003884  1
  Ti  Ti2  1  0.000155  0.245480  0.162780  1
  Ti  Ti3  1  0.000155  0.754520  0.162780  1
  Ti  Ti4  1  0.500193  0.245553  0.328055  1
  Ti  Ti5  1  0.500193  0.754448  0.328055  1
  Ti  Ti6  1  0.999999  0.249294  0.499429  1
  Ti  Ti7  1  0.999999  0.750706  0.499429  1
  Ti  Ti8  1  0.499807  0.250711  0.667246  1
  Ti  Ti9  1  0.499807  0.749290  0.667246  1
  Ti  Ti10  1  0.999817  0.254430  0.838596  1
  Ti  Ti11  1  0.999817  0.745570  0.838596  1
  Re  Re12  1  0.000005  0.500000  0.999073  1
  Re  Re13  1  0.500167  0.000000  0.167590  1
  Tc  Tc14  1  0.000004  0.000000  0.997338  1
  Tc  Tc15  1  0.500160  0.500000  0.169318  1
  Tc  Tc16  1  0.000168  0.000000  0.337214  1
  Tc  Tc17  1  0.499995  0.500000  0.501442  1
  Tc  Tc18  1  0.999858  0.000000  0.665252  1
  Tc  Tc19  1  0.499851  0.500000  0.829461  1
  Pt  Pt20  1  0.000187  0.500000  0.334704  1
  Pt  Pt21  1  0.500012  0.000000  0.500423  1
  Pt  Pt22  1  0.999805  0.500000  0.666249  1
  Pt  Pt23  1  0.499826  0.000000  0.831953  1
