# generated using pymatgen
data_Tl2SbAs3Se8
_symmetry_space_group_name_H-M   'P 1'
_cell_length_a   6.96846467
_cell_length_b   6.69076459
_cell_length_c   9.37075800
_cell_angle_alpha   80.22331235
_cell_angle_beta   85.51162434
_cell_angle_gamma   76.37126167
_symmetry_Int_Tables_number   1
_chemical_formula_structural   Tl2SbAs3Se8
_chemical_formula_sum   'Tl2 Sb1 As3 Se8'
_cell_volume   418.10333670
_cell_formula_units_Z   1
loop_
 _symmetry_equiv_pos_site_id
 _symmetry_equiv_pos_as_xyz
  1  'x, y, z'
loop_
 _atom_site_type_symbol
 _atom_site_label
 _atom_site_symmetry_multiplicity
 _atom_site_fract_x
 _atom_site_fract_y
 _atom_site_fract_z
 _atom_site_occupancy
  Tl  Tl0  1  0.786394  0.825310  0.421073  1
  Tl  Tl1  1  0.196584  0.182404  0.574925  1
  Sb  Sb2  1  0.154398  0.195146  0.036429  1
  As  As3  1  0.611568  0.396217  0.828043  1
  As  As4  1  0.391798  0.598888  0.183039  1
  As  As5  1  0.861506  0.827733  0.948070  1
  Se  Se6  1  0.199638  0.844309  0.882441  1
  Se  Se7  1  0.797919  0.144684  0.104267  1
  Se  Se8  1  0.083405  0.486615  0.238877  1
  Se  Se9  1  0.913892  0.519226  0.766387  1
  Se  Se10  1  0.590804  0.414555  0.402696  1
  Se  Se11  1  0.410271  0.572025  0.603702  1
  Se  Se12  1  0.687287  0.063184  0.737597  1
  Se  Se13  1  0.314536  0.929705  0.272453  1
