# generated using pymatgen
data_Dy6Ho10MgIn(HgIr2)2
_symmetry_space_group_name_H-M   'P 1'
_cell_length_a   9.59256093
_cell_length_b   9.59637221
_cell_length_c   9.59637400
_cell_angle_alpha   60.00000071
_cell_angle_beta   59.98685674
_cell_angle_gamma   59.98685586
_symmetry_Int_Tables_number   1
_chemical_formula_structural   Dy6Ho10MgIn(HgIr2)2
_chemical_formula_sum   'Dy6 Ho10 Mg1 In1 Hg2 Ir4'
_cell_volume   624.52166943
_cell_formula_units_Z   1
loop_
 _symmetry_equiv_pos_site_id
 _symmetry_equiv_pos_as_xyz
  1  'x, y, z'
loop_
 _atom_site_type_symbol
 _atom_site_label
 _atom_site_symmetry_multiplicity
 _atom_site_fract_x
 _atom_site_fract_y
 _atom_site_fract_z
 _atom_site_occupancy
  Dy  Dy0  1  0.938167  0.562708  0.562708  1
  Dy  Dy1  1  0.562143  0.938046  0.938046  1
  Dy  Dy2  1  0.561845  0.940660  0.562799  1
  Dy  Dy3  1  0.936918  0.562727  0.938655  1
  Dy  Dy4  1  0.561845  0.562799  0.940660  1
  Dy  Dy5  1  0.936918  0.938655  0.562727  1
  Ho  Ho6  1  0.349865  0.348149  0.348149  1
  Ho  Ho7  1  0.349739  0.348113  0.953996  1
  Ho  Ho8  1  0.349739  0.953996  0.348113  1
  Ho  Ho9  1  0.944764  0.351441  0.351441  1
  Ho  Ho10  1  0.809621  0.189954  0.189954  1
  Ho  Ho11  1  0.187610  0.812168  0.812168  1
  Ho  Ho12  1  0.186037  0.812829  0.187978  1
  Ho  Ho13  1  0.809169  0.191094  0.809874  1
  Ho  Ho14  1  0.186037  0.187978  0.812829  1
  Ho  Ho15  1  0.809169  0.809874  0.191094  1
  Mg  Mg16  1  0.282723  0.571538  0.571538  1
  In  In17  1  0.581673  0.583209  0.583209  1
  Hg  Hg18  1  0.581203  0.586366  0.246114  1
  Hg  Hg19  1  0.581203  0.246114  0.586366  1
  Ir  Ir20  1  0.139531  0.142894  0.142894  1
  Ir  Ir21  1  0.139689  0.143061  0.573909  1
  Ir  Ir22  1  0.139689  0.573909  0.143061  1
  Ir  Ir23  1  0.574700  0.141719  0.141719  1
