# generated using pymatgen
data_Hf3Re2Si2TcP
_symmetry_space_group_name_H-M   'P 1'
_cell_length_a   6.90638276
_cell_length_b   6.90566719
_cell_length_c   3.42234900
_cell_angle_alpha   90.00000000
_cell_angle_beta   90.00000000
_cell_angle_gamma   120.08016421
_symmetry_Int_Tables_number   1
_chemical_formula_structural   Hf3Re2Si2TcP
_chemical_formula_sum   'Hf3 Re2 Si2 Tc1 P1'
_cell_volume   141.24068993
_cell_formula_units_Z   1
loop_
 _symmetry_equiv_pos_site_id
 _symmetry_equiv_pos_as_xyz
  1  'x, y, z'
loop_
 _atom_site_type_symbol
 _atom_site_label
 _atom_site_symmetry_multiplicity
 _atom_site_fract_x
 _atom_site_fract_y
 _atom_site_fract_z
 _atom_site_occupancy
  Hf  Hf0  1  0.404978  0.403395  0.500000  1
  Hf  Hf1  1  0.596569  0.003115  0.500000  1
  Hf  Hf2  1  0.998956  0.594879  0.500000  1
  Re  Re3  1  0.255370  0.001793  0.000000  1
  Re  Re4  1  0.998992  0.253848  0.000000  1
  Si  Si5  1  0.333850  0.667090  0.000000  1
  Si  Si6  1  0.997644  0.997546  0.500000  1
  Tc  Tc7  1  0.746699  0.744552  0.000000  1
  P  P8  1  0.666941  0.333784  0.000000  1
