# generated using pymatgen
data_HoEr3Co4(Ni4P3)4
_symmetry_space_group_name_H-M   'P 1'
_cell_length_a   3.69543800
_cell_length_b   10.31756904
_cell_length_c   11.82385105
_cell_angle_alpha   89.98934410
_cell_angle_beta   90.00000000
_cell_angle_gamma   90.00000000
_symmetry_Int_Tables_number   1
_chemical_formula_structural   HoEr3Co4(Ni4P3)4
_chemical_formula_sum   'Ho1 Er3 Co4 Ni16 P12'
_cell_volume   450.81903681
_cell_formula_units_Z   1
loop_
 _symmetry_equiv_pos_site_id
 _symmetry_equiv_pos_as_xyz
  1  'x, y, z'
loop_
 _atom_site_type_symbol
 _atom_site_label
 _atom_site_symmetry_multiplicity
 _atom_site_fract_x
 _atom_site_fract_y
 _atom_site_fract_z
 _atom_site_occupancy
  Ho  Ho0  1  0.750000  0.082221  0.796442  1
  Er  Er1  1  0.250000  0.582203  0.703543  1
  Er  Er2  1  0.250000  0.917769  0.203496  1
  Er  Er3  1  0.750000  0.417825  0.296409  1
  Co  Co4  1  0.250000  0.468960  0.931940  1
  Co  Co5  1  0.250000  0.031056  0.431887  1
  Co  Co6  1  0.750000  0.531078  0.068103  1
  Co  Co7  1  0.750000  0.968846  0.567947  1
  Ni  Ni8  1  0.250000  0.713690  0.991323  1
  Ni  Ni9  1  0.250000  0.786293  0.491355  1
  Ni  Ni10  1  0.750000  0.286356  0.008670  1
  Ni  Ni11  1  0.750000  0.213687  0.508731  1
  Ni  Ni12  1  0.250000  0.405059  0.487469  1
  Ni  Ni13  1  0.250000  0.094954  0.987829  1
  Ni  Ni14  1  0.750000  0.594913  0.512487  1
  Ni  Ni15  1  0.750000  0.904979  0.012588  1
  Ni  Ni16  1  0.250000  0.222486  0.178564  1
  Ni  Ni17  1  0.250000  0.277752  0.678486  1
  Ni  Ni18  1  0.750000  0.777423  0.821449  1
  Ni  Ni19  1  0.750000  0.722462  0.321426  1
  Ni  Ni20  1  0.250000  0.882191  0.699149  1
  Ni  Ni21  1  0.250000  0.617603  0.199301  1
  Ni  Ni22  1  0.750000  0.117594  0.300663  1
  Ni  Ni23  1  0.750000  0.382530  0.800723  1
  P  P24  1  0.250000  0.420153  0.112171  1
  P  P25  1  0.250000  0.079773  0.611864  1
  P  P26  1  0.750000  0.579841  0.887857  1
  P  P27  1  0.750000  0.920150  0.387863  1
  P  P28  1  0.250000  0.270937  0.870388  1
  P  P29  1  0.250000  0.229408  0.370252  1
  P  P30  1  0.750000  0.729394  0.129761  1
  P  P31  1  0.750000  0.770669  0.629737  1
  P  P32  1  0.250000  0.600862  0.392256  1
  P  P33  1  0.250000  0.898890  0.892401  1
  P  P34  1  0.750000  0.399135  0.607748  1
  P  P35  1  0.750000  0.100861  0.107722  1
