# generated using pymatgen
data_Y4ReMoOs6
_symmetry_space_group_name_H-M   'P 1'
_cell_length_a   5.24639655
_cell_length_b   5.24639649
_cell_length_c   9.00864400
_cell_angle_alpha   90.00000000
_cell_angle_beta   90.00000000
_cell_angle_gamma   116.37148749
_symmetry_Int_Tables_number   1
_chemical_formula_structural   Y4ReMoOs6
_chemical_formula_sum   'Y4 Re1 Mo1 Os6'
_cell_volume   222.15553620
_cell_formula_units_Z   1
loop_
 _symmetry_equiv_pos_site_id
 _symmetry_equiv_pos_as_xyz
  1  'x, y, z'
loop_
 _atom_site_type_symbol
 _atom_site_label
 _atom_site_symmetry_multiplicity
 _atom_site_fract_x
 _atom_site_fract_y
 _atom_site_fract_z
 _atom_site_occupancy
  Y  Y0  1  0.331359  0.668641  0.436712  1
  Y  Y1  1  0.668161  0.331839  0.565714  1
  Y  Y2  1  0.668161  0.331839  0.934286  1
  Y  Y3  1  0.331359  0.668641  0.063288  1
  Re  Re4  1  0.167941  0.832059  0.750000  1
  Mo  Mo5  1  0.833100  0.166900  0.250000  1
  Os  Os6  1  0.000905  0.999095  0.501775  1
  Os  Os7  1  0.000905  0.999095  0.998225  1
  Os  Os8  1  0.828265  0.655953  0.250000  1
  Os  Os9  1  0.344047  0.171735  0.250000  1
  Os  Os10  1  0.171149  0.345351  0.750000  1
  Os  Os11  1  0.654649  0.828851  0.750000  1
