# generated using pymatgen
data_YEr7(Si3Pt)4
_symmetry_space_group_name_H-M   'P 1'
_cell_length_a   8.11451000
_cell_length_b   8.11451104
_cell_length_c   8.07305400
_cell_angle_alpha   90.00000000
_cell_angle_beta   90.00000000
_cell_angle_gamma   119.99999576
_symmetry_Int_Tables_number   1
_chemical_formula_structural   YEr7(Si3Pt)4
_chemical_formula_sum   'Y1 Er7 Si12 Pt4'
_cell_volume   460.35531640
_cell_formula_units_Z   1
loop_
 _symmetry_equiv_pos_site_id
 _symmetry_equiv_pos_as_xyz
  1  'x, y, z'
loop_
 _atom_site_type_symbol
 _atom_site_label
 _atom_site_symmetry_multiplicity
 _atom_site_fract_x
 _atom_site_fract_y
 _atom_site_fract_z
 _atom_site_occupancy
  Y  Y0  1  0.000000  0.000000  0.250000  1
  Er  Er1  1  0.000000  0.000000  0.750000  1
  Er  Er2  1  0.497736  0.502264  0.250000  1
  Er  Er3  1  0.497736  0.995472  0.250000  1
  Er  Er4  1  0.004528  0.502264  0.250000  1
  Er  Er5  1  0.502131  0.497869  0.750000  1
  Er  Er6  1  0.995738  0.497869  0.750000  1
  Er  Er7  1  0.502131  0.004262  0.750000  1
  Si  Si8  1  0.834544  0.165456  0.499255  1
  Si  Si9  1  0.834544  0.669090  0.499255  1
  Si  Si10  1  0.330910  0.165456  0.499255  1
  Si  Si11  1  0.834544  0.165456  0.000745  1
  Si  Si12  1  0.834544  0.669090  0.000745  1
  Si  Si13  1  0.330910  0.165456  0.000745  1
  Si  Si14  1  0.165442  0.834558  0.998157  1
  Si  Si15  1  0.669118  0.834558  0.998157  1
  Si  Si16  1  0.165442  0.330882  0.998157  1
  Si  Si17  1  0.165442  0.834558  0.501843  1
  Si  Si18  1  0.669118  0.834558  0.501843  1
  Si  Si19  1  0.165442  0.330882  0.501843  1
  Pt  Pt20  1  0.666667  0.333333  0.495400  1
  Pt  Pt21  1  0.666667  0.333333  0.004600  1
  Pt  Pt22  1  0.333333  0.666667  0.995503  1
  Pt  Pt23  1  0.333333  0.666667  0.504497  1
