# generated using pymatgen
data_Nb2AlCo5B2
_symmetry_space_group_name_H-M   'P 1'
_cell_length_a   8.71043000
_cell_length_b   8.71043000
_cell_length_c   2.93404400
_cell_angle_alpha   90.00000000
_cell_angle_beta   90.00000000
_cell_angle_gamma   90.00000000
_symmetry_Int_Tables_number   1
_chemical_formula_structural   Nb2AlCo5B2
_chemical_formula_sum   'Nb4 Al2 Co10 B4'
_cell_volume   222.61058571
_cell_formula_units_Z   2
loop_
 _symmetry_equiv_pos_site_id
 _symmetry_equiv_pos_as_xyz
  1  'x, y, z'
loop_
 _atom_site_type_symbol
 _atom_site_label
 _atom_site_symmetry_multiplicity
 _atom_site_fract_x
 _atom_site_fract_y
 _atom_site_fract_z
 _atom_site_occupancy
  Nb  Nb0  1  0.677352  0.177352  0.000000  1
  Nb  Nb1  1  0.322648  0.822648  0.000000  1
  Nb  Nb2  1  0.177352  0.322648  0.000000  1
  Nb  Nb3  1  0.822648  0.677352  0.000000  1
  Al  Al4  1  0.000000  0.000000  0.000000  1
  Al  Al5  1  0.500000  0.500000  0.000000  1
  Co  Co6  1  0.500000  0.000000  0.500000  1
  Co  Co7  1  0.000000  0.500000  0.500000  1
  Co  Co8  1  0.221594  0.067546  0.500000  1
  Co  Co9  1  0.778406  0.932454  0.500000  1
  Co  Co10  1  0.067546  0.778406  0.500000  1
  Co  Co11  1  0.721594  0.432454  0.500000  1
  Co  Co12  1  0.932454  0.221594  0.500000  1
  Co  Co13  1  0.278406  0.567546  0.500000  1
  Co  Co14  1  0.567546  0.721594  0.500000  1
  Co  Co15  1  0.432454  0.278406  0.500000  1
  B  B16  1  0.120138  0.620138  0.000000  1
  B  B17  1  0.879862  0.379862  0.000000  1
  B  B18  1  0.620138  0.879862  0.000000  1
  B  B19  1  0.379862  0.120138  0.000000  1
