# generated using pymatgen
data_Tb3ErC5
_symmetry_space_group_name_H-M   'P 1'
_cell_length_a   3.68308300
_cell_length_b   6.60718721
_cell_length_c   11.97382927
_cell_angle_alpha   90.06994255
_cell_angle_beta   90.00000000
_cell_angle_gamma   90.00000000
_symmetry_Int_Tables_number   1
_chemical_formula_structural   Tb3ErC5
_chemical_formula_sum   'Tb6 Er2 C10'
_cell_volume   291.38074957
_cell_formula_units_Z   2
loop_
 _symmetry_equiv_pos_site_id
 _symmetry_equiv_pos_as_xyz
  1  'x, y, z'
loop_
 _atom_site_type_symbol
 _atom_site_label
 _atom_site_symmetry_multiplicity
 _atom_site_fract_x
 _atom_site_fract_y
 _atom_site_fract_z
 _atom_site_occupancy
  Tb  Tb0  1  0.000000  0.749922  0.457799  1
  Tb  Tb1  1  0.000000  0.749480  0.955083  1
  Tb  Tb2  1  0.000000  0.239160  0.041452  1
  Tb  Tb3  1  0.500000  0.892805  0.196125  1
  Tb  Tb4  1  0.500000  0.603921  0.698091  1
  Tb  Tb5  1  0.500000  0.391898  0.303939  1
  Er  Er6  1  0.000000  0.262960  0.541999  1
  Er  Er7  1  0.500000  0.108278  0.803994  1
  C  C8  1  0.500000  0.507408  0.502120  1
  C  C9  1  0.500000  0.990132  0.998449  1
  C  C10  1  0.000000  0.359829  0.733588  1
  C  C11  1  0.000000  0.643335  0.263689  1
  C  C12  1  0.000000  0.860251  0.760558  1
  C  C13  1  0.000000  0.135817  0.236698  1
  C  C14  1  0.000000  0.380934  0.844522  1
  C  C15  1  0.000000  0.581766  0.157946  1
  C  C16  1  0.000000  0.110608  0.347261  1
  C  C17  1  0.000000  0.931498  0.656688  1
