# generated using pymatgen
data_TbPr7(WO6)4
_symmetry_space_group_name_H-M   'P 1'
_cell_length_a   5.45370071
_cell_length_b   9.44619845
_cell_length_c   10.32188823
_cell_angle_alpha   90.35283882
_cell_angle_beta   89.93466618
_cell_angle_gamma   90.16771633
_symmetry_Int_Tables_number   1
_chemical_formula_structural   TbPr7(WO6)4
_chemical_formula_sum   'Tb1 Pr7 W4 O24'
_cell_volume   531.73732800
_cell_formula_units_Z   1
loop_
 _symmetry_equiv_pos_site_id
 _symmetry_equiv_pos_as_xyz
  1  'x, y, z'
loop_
 _atom_site_type_symbol
 _atom_site_label
 _atom_site_symmetry_multiplicity
 _atom_site_fract_x
 _atom_site_fract_y
 _atom_site_fract_z
 _atom_site_occupancy
  Tb  Tb0  1  0.537451  0.218272  0.370775  1
  Pr  Pr1  1  0.477701  0.602107  0.536979  1
  Pr  Pr2  1  0.976381  0.895077  0.462327  1
  Pr  Pr3  1  0.524869  0.104716  0.962724  1
  Pr  Pr4  1  0.021159  0.396315  0.037574  1
  Pr  Pr5  1  0.967849  0.784003  0.868659  1
  Pr  Pr6  1  0.466974  0.719403  0.133743  1
  Pr  Pr7  1  0.035740  0.280810  0.629903  1
  W  W8  1  0.460374  0.998463  0.645372  1
  W  W9  1  0.957700  0.498864  0.351805  1
  W  W10  1  0.541569  0.496745  0.852094  1
  W  W11  1  0.041658  0.007288  0.151511  1
  O  O12  1  0.258261  0.090462  0.505071  1
  O  O13  1  0.748069  0.405675  0.489457  1
  O  O14  1  0.749502  0.589653  0.990514  1
  O  O15  1  0.251234  0.914125  0.012250  1
  O  O16  1  0.722573  0.112635  0.560419  1
  O  O17  1  0.227304  0.383504  0.429547  1
  O  O18  1  0.278084  0.612792  0.934727  1
  O  O19  1  0.777762  0.890344  0.066766  1
  O  O20  1  0.571960  0.848040  0.526447  1
  O  O21  1  0.068831  0.645543  0.475531  1
  O  O22  1  0.426918  0.349904  0.973400  1
  O  O23  1  0.933743  0.150611  0.026613  1
  O  O24  1  0.176660  0.861727  0.259921  1
  O  O25  1  0.684167  0.637831  0.741031  1
  O  O26  1  0.806939  0.358083  0.241923  1
  O  O27  1  0.317079  0.138243  0.758321  1
  O  O28  1  0.824644  0.054544  0.289199  1
  O  O29  1  0.330573  0.450112  0.711916  1
  O  O30  1  0.165016  0.548171  0.211792  1
  O  O31  1  0.673419  0.953999  0.785064  1
  O  O32  1  0.309973  0.136657  0.188297  1
  O  O33  1  0.807415  0.364760  0.820540  1
  O  O34  1  0.691229  0.631764  0.321396  1
  O  O35  1  0.189223  0.868759  0.676391  1
