# generated using pymatgen
data_Hf4Si4Pd
_symmetry_space_group_name_H-M   'P 1'
_cell_length_a   5.25041616
_cell_length_b   5.25041643
_cell_length_c   8.75638479
_cell_angle_alpha   71.41409808
_cell_angle_beta   71.41409697
_cell_angle_gamma   42.23610452
_symmetry_Int_Tables_number   1
_chemical_formula_structural   Hf4Si4Pd
_chemical_formula_sum   'Hf4 Si4 Pd1'
_cell_volume   152.49190922
_cell_formula_units_Z   1
loop_
 _symmetry_equiv_pos_site_id
 _symmetry_equiv_pos_as_xyz
  1  'x, y, z'
loop_
 _atom_site_type_symbol
 _atom_site_label
 _atom_site_symmetry_multiplicity
 _atom_site_fract_x
 _atom_site_fract_y
 _atom_site_fract_z
 _atom_site_occupancy
  Hf  Hf0  1  0.108455  0.108455  0.617019  1
  Hf  Hf1  1  0.891545  0.891545  0.382981  1
  Hf  Hf2  1  0.754812  0.754812  0.841060  1
  Hf  Hf3  1  0.245188  0.245188  0.158940  1
  Si  Si4  1  0.385187  0.385187  0.613411  1
  Si  Si5  1  0.614813  0.614813  0.386589  1
  Si  Si6  1  0.461756  0.461756  0.845228  1
  Si  Si7  1  0.538244  0.538244  0.154772  1
  Pd  Pd8  1  0.000000  0.000000  0.000000  1
