# generated using pymatgen
data_Ti4InC2O
_symmetry_space_group_name_H-M   'P 1'
_cell_length_a   3.08770200
_cell_length_b   3.08770254
_cell_length_c   24.31966100
_cell_angle_alpha   90.00000000
_cell_angle_beta   90.00000000
_cell_angle_gamma   119.99999417
_symmetry_Int_Tables_number   1
_chemical_formula_structural   Ti4InC2O
_chemical_formula_sum   'Ti8 In2 C4 O2'
_cell_volume   200.79782710
_cell_formula_units_Z   2
loop_
 _symmetry_equiv_pos_site_id
 _symmetry_equiv_pos_as_xyz
  1  'x, y, z'
loop_
 _atom_site_type_symbol
 _atom_site_label
 _atom_site_symmetry_multiplicity
 _atom_site_fract_x
 _atom_site_fract_y
 _atom_site_fract_z
 _atom_site_occupancy
  Ti  Ti0  1  0.000000  0.000000  0.350678  1
  Ti  Ti1  1  0.000000  0.000000  0.649322  1
  Ti  Ti2  1  0.000000  0.000000  0.850678  1
  Ti  Ti3  1  0.000000  0.000000  0.149322  1
  Ti  Ti4  1  0.333333  0.666667  0.443998  1
  Ti  Ti5  1  0.666667  0.333333  0.556002  1
  Ti  Ti6  1  0.666667  0.333333  0.943998  1
  Ti  Ti7  1  0.333333  0.666667  0.056002  1
  In  In8  1  0.333333  0.666667  0.250000  1
  In  In9  1  0.666667  0.333333  0.750000  1
  C  C10  1  0.666667  0.333333  0.396530  1
  C  C11  1  0.333333  0.666667  0.603470  1
  C  C12  1  0.333333  0.666667  0.896530  1
  C  C13  1  0.666667  0.333333  0.103470  1
  O  O14  1  0.000000  0.000000  0.500000  1
  O  O15  1  0.000000  0.000000  0.000000  1
