# generated using pymatgen
data_Ca2TbHo3(Si3Ru)8
_symmetry_space_group_name_H-M   'P 1'
_cell_length_a   10.14498105
_cell_length_b   10.14501758
_cell_length_c   8.12871754
_cell_angle_alpha   90.01307373
_cell_angle_beta   89.98723285
_cell_angle_gamma   132.68341972
_symmetry_Int_Tables_number   1
_chemical_formula_structural   Ca2TbHo3(Si3Ru)8
_chemical_formula_sum   'Ca2 Tb1 Ho3 Si24 Ru8'
_cell_volume   615.00532073
_cell_formula_units_Z   1
loop_
 _symmetry_equiv_pos_site_id
 _symmetry_equiv_pos_as_xyz
  1  'x, y, z'
loop_
 _atom_site_type_symbol
 _atom_site_label
 _atom_site_symmetry_multiplicity
 _atom_site_fract_x
 _atom_site_fract_y
 _atom_site_fract_z
 _atom_site_occupancy
  Ca  Ca0  1  0.499986  0.499981  0.499924  1
  Ca  Ca1  1  0.999985  0.999981  0.000072  1
  Tb  Tb2  1  0.501578  0.001570  0.749999  1
  Ho  Ho3  1  0.998551  0.498546  0.250006  1
  Ho  Ho4  1  0.498263  0.998273  0.250005  1
  Ho  Ho5  1  0.001951  0.501956  0.749999  1
  Si  Si6  1  0.796449  0.204525  0.499889  1
  Si  Si7  1  0.295830  0.703965  0.000031  1
  Si  Si8  1  0.203959  0.795835  0.499969  1
  Si  Si9  1  0.704534  0.296447  0.000114  1
  Si  Si10  1  0.333011  0.332739  0.832498  1
  Si  Si11  1  0.666972  0.667115  0.167337  1
  Si  Si12  1  0.167114  0.166964  0.332659  1
  Si  Si13  1  0.832747  0.833015  0.667509  1
  Si  Si14  1  0.122568  0.889627  0.730304  1
  Si  Si15  1  0.109599  0.877344  0.270551  1
  Si  Si16  1  0.609089  0.376728  0.229680  1
  Si  Si17  1  0.623667  0.390800  0.769570  1
  Si  Si18  1  0.876717  0.109073  0.270317  1
  Si  Si19  1  0.890819  0.123679  0.730435  1
  Si  Si20  1  0.389611  0.622559  0.769694  1
  Si  Si21  1  0.377355  0.609615  0.229441  1
  Si  Si22  1  0.346724  0.114049  0.506235  1
  Si  Si23  1  0.886362  0.653887  0.493885  1
  Si  Si24  1  0.385808  0.153034  0.007211  1
  Si  Si25  1  0.846292  0.613828  0.993074  1
  Si  Si26  1  0.653028  0.885808  0.492778  1
  Si  Si27  1  0.113830  0.346302  0.506930  1
  Si  Si28  1  0.614047  0.846718  0.993768  1
  Si  Si29  1  0.153895  0.386365  0.006111  1
  Ru  Ru30  1  0.672298  0.329069  0.498635  1
  Ru  Ru31  1  0.170972  0.827877  0.001493  1
  Ru  Ru32  1  0.327875  0.670979  0.498505  1
  Ru  Ru33  1  0.829071  0.172295  0.001368  1
  Ru  Ru34  1  0.125932  0.125683  0.625882  1
  Ru  Ru35  1  0.873904  0.873935  0.374469  1
  Ru  Ru36  1  0.373933  0.373906  0.125531  1
  Ru  Ru37  1  0.625676  0.625926  0.874122  1
