# generated using pymatgen
data_Tm3Lu13
_symmetry_space_group_name_H-M   'P 1'
_cell_length_a   7.07987200
_cell_length_b   7.07985517
_cell_length_c   10.93311700
_cell_angle_alpha   90.00000000
_cell_angle_beta   90.00000000
_cell_angle_gamma   120.00008797
_symmetry_Int_Tables_number   1
_chemical_formula_structural   Tm3Lu13
_chemical_formula_sum   'Tm3 Lu13'
_cell_volume   474.59594382
_cell_formula_units_Z   1
loop_
 _symmetry_equiv_pos_site_id
 _symmetry_equiv_pos_as_xyz
  1  'x, y, z'
loop_
 _atom_site_type_symbol
 _atom_site_label
 _atom_site_symmetry_multiplicity
 _atom_site_fract_x
 _atom_site_fract_y
 _atom_site_fract_z
 _atom_site_occupancy
  Tm  Tm0  1  0.500135  0.000270  0.000000  1
  Tm  Tm1  1  0.666769  0.333538  0.251307  1
  Tm  Tm2  1  0.666769  0.333538  0.748693  1
  Lu  Lu3  1  0.999948  0.999896  0.500000  1
  Lu  Lu4  1  0.999905  0.999810  0.000000  1
  Lu  Lu5  1  0.001824  0.500963  0.500000  1
  Lu  Lu6  1  0.999636  0.499943  0.000000  1
  Lu  Lu7  1  0.499139  0.500963  0.500000  1
  Lu  Lu8  1  0.500306  0.499943  0.000000  1
  Lu  Lu9  1  0.499064  0.998128  0.500000  1
  Lu  Lu10  1  0.167015  0.334029  0.249054  1
  Lu  Lu11  1  0.167015  0.334029  0.750946  1
  Lu  Lu12  1  0.166818  0.832904  0.249159  1
  Lu  Lu13  1  0.166818  0.832904  0.750841  1
  Lu  Lu14  1  0.666087  0.832904  0.249159  1
  Lu  Lu15  1  0.666087  0.832904  0.750841  1
