# generated using pymatgen
data_Sr3LiAuO6
_symmetry_space_group_name_H-M   'P 1'
_cell_length_a   6.78918594
_cell_length_b   6.78918521
_cell_length_c   6.78918553
_cell_angle_alpha   91.95690241
_cell_angle_beta   91.95690176
_cell_angle_gamma   91.95691220
_symmetry_Int_Tables_number   1
_chemical_formula_structural   Sr3LiAuO6
_chemical_formula_sum   'Sr6 Li2 Au2 O12'
_cell_volume   312.37388747
_cell_formula_units_Z   2
loop_
 _symmetry_equiv_pos_site_id
 _symmetry_equiv_pos_as_xyz
  1  'x, y, z'
loop_
 _atom_site_type_symbol
 _atom_site_label
 _atom_site_symmetry_multiplicity
 _atom_site_fract_x
 _atom_site_fract_y
 _atom_site_fract_z
 _atom_site_occupancy
  Sr  Sr0  1  0.391661  0.108339  0.750000  1
  Sr  Sr1  1  0.108339  0.750000  0.391661  1
  Sr  Sr2  1  0.250000  0.608339  0.891661  1
  Sr  Sr3  1  0.891661  0.250000  0.608339  1
  Sr  Sr4  1  0.608339  0.891661  0.250000  1
  Sr  Sr5  1  0.750000  0.391661  0.108339  1
  Li  Li6  1  0.750000  0.750000  0.750000  1
  Li  Li7  1  0.250000  0.250000  0.250000  1
  Au  Au8  1  0.500000  0.500000  0.500000  1
  Au  Au9  1  0.000000  0.000000  0.000000  1
  O  O10  1  0.285478  0.952226  0.085171  1
  O  O11  1  0.414829  0.547774  0.214522  1
  O  O12  1  0.214522  0.414829  0.547774  1
  O  O13  1  0.547774  0.214522  0.414829  1
  O  O14  1  0.085171  0.285478  0.952226  1
  O  O15  1  0.952226  0.085171  0.285478  1
  O  O16  1  0.914829  0.714522  0.047774  1
  O  O17  1  0.047774  0.914829  0.714522  1
  O  O18  1  0.452226  0.785478  0.585171  1
  O  O19  1  0.785478  0.585171  0.452226  1
  O  O20  1  0.585171  0.452226  0.785478  1
  O  O21  1  0.714522  0.047774  0.914829  1
