# generated using pymatgen
data_La6Pr2Be3Si12Pt
_symmetry_space_group_name_H-M   'P 1'
_cell_length_a   8.09442500
_cell_length_b   8.09442589
_cell_length_c   8.84665300
_cell_angle_alpha   90.00000000
_cell_angle_beta   90.00000000
_cell_angle_gamma   119.99999226
_symmetry_Int_Tables_number   1
_chemical_formula_structural   La6Pr2Be3Si12Pt
_chemical_formula_sum   'La6 Pr2 Be3 Si12 Pt1'
_cell_volume   501.97456638
_cell_formula_units_Z   1
loop_
 _symmetry_equiv_pos_site_id
 _symmetry_equiv_pos_as_xyz
  1  'x, y, z'
loop_
 _atom_site_type_symbol
 _atom_site_label
 _atom_site_symmetry_multiplicity
 _atom_site_fract_x
 _atom_site_fract_y
 _atom_site_fract_z
 _atom_site_occupancy
  La  La0  1  0.499361  0.500639  0.752341  1
  La  La1  1  0.499439  0.500561  0.247686  1
  La  La2  1  0.001278  0.500639  0.752341  1
  La  La3  1  0.001124  0.500561  0.247686  1
  La  La4  1  0.499361  0.998722  0.752341  1
  La  La5  1  0.499439  0.998876  0.247686  1
  Pr  Pr6  1  0.000000  0.000000  0.751107  1
  Pr  Pr7  1  0.000000  0.000000  0.248923  1
  Be  Be8  1  0.666667  0.333333  0.999367  1
  Be  Be9  1  0.333333  0.666667  0.000615  1
  Be  Be10  1  0.333333  0.666667  0.499743  1
  Si  Si11  1  0.827902  0.172098  0.000080  1
  Si  Si12  1  0.172184  0.827816  0.999971  1
  Si  Si13  1  0.344194  0.172098  0.000080  1
  Si  Si14  1  0.169904  0.830096  0.499903  1
  Si  Si15  1  0.655631  0.827816  0.999971  1
  Si  Si16  1  0.834227  0.165773  0.500106  1
  Si  Si17  1  0.827902  0.655806  0.000080  1
  Si  Si18  1  0.660193  0.830096  0.499903  1
  Si  Si19  1  0.172184  0.344369  0.999971  1
  Si  Si20  1  0.331544  0.165773  0.500106  1
  Si  Si21  1  0.169904  0.339807  0.499903  1
  Si  Si22  1  0.834227  0.668456  0.500106  1
  Pt  Pt23  1  0.666667  0.333333  0.499981  1
