# generated using pymatgen
data_Dy15ErMgIn3Rh4
_symmetry_space_group_name_H-M   'P 1'
_cell_length_a   9.65788346
_cell_length_b   9.65990868
_cell_length_c   9.65835852
_cell_angle_alpha   60.08664624
_cell_angle_beta   59.93709561
_cell_angle_gamma   60.08628869
_symmetry_Int_Tables_number   1
_chemical_formula_structural   Dy15ErMgIn3Rh4
_chemical_formula_sum   'Dy15 Er1 Mg1 In3 Rh4'
_cell_volume   637.67919614
_cell_formula_units_Z   1
loop_
 _symmetry_equiv_pos_site_id
 _symmetry_equiv_pos_as_xyz
  1  'x, y, z'
loop_
 _atom_site_type_symbol
 _atom_site_label
 _atom_site_symmetry_multiplicity
 _atom_site_fract_x
 _atom_site_fract_y
 _atom_site_fract_z
 _atom_site_occupancy
  Dy  Dy0  1  0.190239  0.190358  0.811672  1
  Dy  Dy1  1  0.437034  0.062274  0.062554  1
  Dy  Dy2  1  0.434613  0.064170  0.434621  1
  Dy  Dy3  1  0.061810  0.437946  0.061825  1
  Dy  Dy4  1  0.649075  0.049053  0.649059  1
  Dy  Dy5  1  0.188682  0.812022  0.812823  1
  Dy  Dy6  1  0.062553  0.062282  0.437028  1
  Dy  Dy7  1  0.811664  0.190360  0.190246  1
  Dy  Dy8  1  0.812812  0.812009  0.188691  1
  Dy  Dy9  1  0.648931  0.649879  0.047710  1
  Dy  Dy10  1  0.652916  0.652467  0.652878  1
  Dy  Dy11  1  0.063707  0.435770  0.436969  1
  Dy  Dy12  1  0.047668  0.649900  0.648935  1
  Dy  Dy13  1  0.809744  0.191161  0.809757  1
  Dy  Dy14  1  0.436969  0.435775  0.063711  1
  Er  Er15  1  0.187697  0.815067  0.187629  1
  Mg  Mg16  1  0.423404  0.731752  0.423405  1
  In  In17  1  0.417200  0.418786  0.747216  1
  In  In18  1  0.747213  0.418791  0.417216  1
  In  In19  1  0.417133  0.418026  0.417187  1
  Rh  Rh20  1  0.857764  0.426698  0.857876  1
  Rh  Rh21  1  0.858771  0.858730  0.425524  1
  Rh  Rh22  1  0.425754  0.858581  0.858738  1
  Rh  Rh23  1  0.856649  0.858145  0.856730  1
