# generated using pymatgen
data_Ho3ErTc7Mo
_symmetry_space_group_name_H-M   'P 1'
_cell_length_a   5.41772800
_cell_length_b   5.41772793
_cell_length_c   8.75974300
_cell_angle_alpha   90.00000000
_cell_angle_beta   90.00000000
_cell_angle_gamma   120.00000042
_symmetry_Int_Tables_number   1
_chemical_formula_structural   Ho3ErTc7Mo
_chemical_formula_sum   'Ho3 Er1 Tc7 Mo1'
_cell_volume   222.66726953
_cell_formula_units_Z   1
loop_
 _symmetry_equiv_pos_site_id
 _symmetry_equiv_pos_as_xyz
  1  'x, y, z'
loop_
 _atom_site_type_symbol
 _atom_site_label
 _atom_site_symmetry_multiplicity
 _atom_site_fract_x
 _atom_site_fract_y
 _atom_site_fract_z
 _atom_site_occupancy
  Ho  Ho0  1  0.333333  0.666667  0.435703  1
  Ho  Ho1  1  0.666667  0.333333  0.564231  1
  Ho  Ho2  1  0.666667  0.333333  0.938304  1
  Er  Er3  1  0.333333  0.666667  0.061787  1
  Tc  Tc4  1  0.000000  0.000000  0.999962  1
  Tc  Tc5  1  0.828545  0.171455  0.250145  1
  Tc  Tc6  1  0.828545  0.657092  0.250145  1
  Tc  Tc7  1  0.342908  0.171455  0.250145  1
  Tc  Tc8  1  0.171479  0.828521  0.749900  1
  Tc  Tc9  1  0.171479  0.342957  0.749900  1
  Tc  Tc10  1  0.657043  0.828521  0.749900  1
  Mo  Mo11  1  0.000000  0.000000  0.499877  1
