# generated using pymatgen
data_Sr2Zn3AgSn4
_symmetry_space_group_name_H-M   'P 1'
_cell_length_a   4.58835800
_cell_length_b   4.66963099
_cell_length_c   11.86138537
_cell_angle_alpha   88.96741518
_cell_angle_beta   90.00000000
_cell_angle_gamma   90.00000000
_symmetry_Int_Tables_number   1
_chemical_formula_structural   Sr2Zn3AgSn4
_chemical_formula_sum   'Sr2 Zn3 Ag1 Sn4'
_cell_volume   254.10004527
_cell_formula_units_Z   1
loop_
 _symmetry_equiv_pos_site_id
 _symmetry_equiv_pos_as_xyz
  1  'x, y, z'
loop_
 _atom_site_type_symbol
 _atom_site_label
 _atom_site_symmetry_multiplicity
 _atom_site_fract_x
 _atom_site_fract_y
 _atom_site_fract_z
 _atom_site_occupancy
  Sr  Sr0  1  0.250000  0.742487  0.758383  1
  Sr  Sr1  1  0.750000  0.257377  0.242495  1
  Zn  Zn2  1  0.750000  0.254961  0.643631  1
  Zn  Zn3  1  0.250000  0.277662  0.999097  1
  Zn  Zn4  1  0.750000  0.722468  0.995893  1
  Ag  Ag5  1  0.250000  0.745112  0.356820  1
  Sn  Sn6  1  0.250000  0.774326  0.125325  1
  Sn  Sn7  1  0.750000  0.225456  0.868139  1
  Sn  Sn8  1  0.250000  0.243595  0.503033  1
  Sn  Sn9  1  0.750000  0.756555  0.507184  1
