# generated using pymatgen
data_Tb2Mn3Fe3Co6P7
_symmetry_space_group_name_H-M   'P 1'
_cell_length_a   9.02635000
_cell_length_b   9.02635138
_cell_length_c   3.61960800
_cell_angle_alpha   90.00000000
_cell_angle_beta   90.00000000
_cell_angle_gamma   119.99999493
_symmetry_Int_Tables_number   1
_chemical_formula_structural   Tb2Mn3Fe3Co6P7
_chemical_formula_sum   'Tb2 Mn3 Fe3 Co6 P7'
_cell_volume   255.39747465
_cell_formula_units_Z   1
loop_
 _symmetry_equiv_pos_site_id
 _symmetry_equiv_pos_as_xyz
  1  'x, y, z'
loop_
 _atom_site_type_symbol
 _atom_site_label
 _atom_site_symmetry_multiplicity
 _atom_site_fract_x
 _atom_site_fract_y
 _atom_site_fract_z
 _atom_site_occupancy
  Tb  Tb0  1  0.666667  0.333333  0.000000  1
  Tb  Tb1  1  0.333333  0.666667  0.500000  1
  Mn  Mn2  1  0.102747  0.876385  0.500000  1
  Mn  Mn3  1  0.773636  0.897253  0.500000  1
  Mn  Mn4  1  0.123615  0.226364  0.500000  1
  Fe  Fe5  1  0.274982  0.119209  0.000000  1
  Fe  Fe6  1  0.844227  0.725018  0.000000  1
  Fe  Fe7  1  0.880791  0.155773  0.000000  1
  Co  Co8  1  0.060918  0.630057  0.000000  1
  Co  Co9  1  0.569139  0.939082  0.000000  1
  Co  Co10  1  0.369943  0.430861  0.000000  1
  Co  Co11  1  0.437270  0.050247  0.500000  1
  Co  Co12  1  0.612977  0.562730  0.500000  1
  Co  Co13  1  0.949753  0.387023  0.500000  1
  P  P14  1  0.298841  0.890156  0.000000  1
  P  P15  1  0.591316  0.701159  0.000000  1
  P  P16  1  0.109844  0.408684  0.000000  1
  P  P17  1  0.401747  0.286946  0.500000  1
  P  P18  1  0.885199  0.598253  0.500000  1
  P  P19  1  0.713054  0.114801  0.500000  1
  P  P20  1  0.000000  0.000000  0.000000  1
