# generated using pymatgen
data_NaLi4Ni6As7Rh3
_symmetry_space_group_name_H-M   'P 1'
_cell_length_a   9.58715300
_cell_length_b   9.58715284
_cell_length_c   3.88439200
_cell_angle_alpha   90.00000000
_cell_angle_beta   90.00000000
_cell_angle_gamma   120.00001089
_symmetry_Int_Tables_number   1
_chemical_formula_structural   NaLi4Ni6As7Rh3
_chemical_formula_sum   'Na1 Li4 Ni6 As7 Rh3'
_cell_volume   309.19534324
_cell_formula_units_Z   1
loop_
 _symmetry_equiv_pos_site_id
 _symmetry_equiv_pos_as_xyz
  1  'x, y, z'
loop_
 _atom_site_type_symbol
 _atom_site_label
 _atom_site_symmetry_multiplicity
 _atom_site_fract_x
 _atom_site_fract_y
 _atom_site_fract_z
 _atom_site_occupancy
  Na  Na0  1  0.333333  0.666667  0.000000  1
  Li  Li1  1  0.770454  0.540506  0.500000  1
  Li  Li2  1  0.459494  0.229948  0.500000  1
  Li  Li3  1  0.770052  0.229546  0.500000  1
  Li  Li4  1  0.000000  0.000000  0.500000  1
  Ni  Ni5  1  0.501507  0.451407  0.000000  1
  Ni  Ni6  1  0.548593  0.050100  0.000000  1
  Ni  Ni7  1  0.949900  0.498493  0.000000  1
  Ni  Ni8  1  0.718149  0.760506  0.000000  1
  Ni  Ni9  1  0.239494  0.957643  0.000000  1
  Ni  Ni10  1  0.042357  0.281851  0.000000  1
  As  As11  1  0.962198  0.756965  0.000000  1
  As  As12  1  0.243035  0.205233  0.000000  1
  As  As13  1  0.794767  0.037802  0.000000  1
  As  As14  1  0.666667  0.333333  0.000000  1
  As  As15  1  0.551524  0.617229  0.500000  1
  As  As16  1  0.382771  0.934295  0.500000  1
  As  As17  1  0.065705  0.448476  0.500000  1
  Rh  Rh18  1  0.275140  0.373740  0.500000  1
  Rh  Rh19  1  0.626260  0.901400  0.500000  1
  Rh  Rh20  1  0.098600  0.724860  0.500000  1
