# generated using pymatgen
data_CaGaFeCl8
_symmetry_space_group_name_H-M   'P 1'
_cell_length_a   7.37495050
_cell_length_b   7.44264729
_cell_length_c   13.62214116
_cell_angle_alpha   87.66365586
_cell_angle_beta   90.02106475
_cell_angle_gamma   89.89098630
_symmetry_Int_Tables_number   1
_chemical_formula_structural   CaGaFeCl8
_chemical_formula_sum   'Ca2 Ga2 Fe2 Cl16'
_cell_volume   747.08485416
_cell_formula_units_Z   2
loop_
 _symmetry_equiv_pos_site_id
 _symmetry_equiv_pos_as_xyz
  1  'x, y, z'
loop_
 _atom_site_type_symbol
 _atom_site_label
 _atom_site_symmetry_multiplicity
 _atom_site_fract_x
 _atom_site_fract_y
 _atom_site_fract_z
 _atom_site_occupancy
  Ca  Ca0  1  0.743595  0.999040  0.503315  1
  Ca  Ca1  1  0.257796  0.997381  0.004015  1
  Ga  Ga2  1  0.564124  0.852679  0.741636  1
  Ga  Ga3  1  0.073785  0.437325  0.041206  1
  Fe  Fe4  1  0.925182  0.437251  0.539925  1
  Fe  Fe5  1  0.435925  0.854281  0.240775  1
  Cl  Cl6  1  0.929086  0.465200  0.175801  1
  Cl  Cl7  1  0.069601  0.463970  0.675335  1
  Cl  Cl8  1  0.638439  0.343694  0.559307  1
  Cl  Cl9  1  0.361195  0.344774  0.058027  1
  Cl  Cl10  1  0.928293  0.694371  0.447642  1
  Cl  Cl11  1  0.071082  0.690866  0.946774  1
  Cl  Cl12  1  0.436895  0.847899  0.592115  1
  Cl  Cl13  1  0.562931  0.847384  0.090892  1
  Cl  Cl14  1  0.042145  0.212011  0.454831  1
  Cl  Cl15  1  0.960068  0.214017  0.953768  1
  Cl  Cl16  1  0.155191  0.947895  0.201254  1
  Cl  Cl17  1  0.843021  0.949205  0.702236  1
  Cl  Cl18  1  0.439499  0.602497  0.322914  1
  Cl  Cl19  1  0.561196  0.600409  0.822380  1
  Cl  Cl20  1  0.580466  0.066198  0.322889  1
  Cl  Cl21  1  0.420486  0.068855  0.820966  1
