# generated using pymatgen
data_HoEr3Ga18(PdRu2)2
_symmetry_space_group_name_H-M   'P 1'
_cell_length_a   7.53351577
_cell_length_b   7.53361308
_cell_length_c   9.62203700
_cell_angle_alpha   90.00000000
_cell_angle_beta   90.00000000
_cell_angle_gamma   119.59572047
_symmetry_Int_Tables_number   1
_chemical_formula_structural   HoEr3Ga18(PdRu2)2
_chemical_formula_sum   'Ho1 Er3 Ga18 Pd2 Ru4'
_cell_volume   474.84679988
_cell_formula_units_Z   1
loop_
 _symmetry_equiv_pos_site_id
 _symmetry_equiv_pos_as_xyz
  1  'x, y, z'
loop_
 _atom_site_type_symbol
 _atom_site_label
 _atom_site_symmetry_multiplicity
 _atom_site_fract_x
 _atom_site_fract_y
 _atom_site_fract_z
 _atom_site_occupancy
  Ho  Ho0  1  0.997457  0.670847  0.250000  1
  Er  Er1  1  0.002596  0.329343  0.750000  1
  Er  Er2  1  0.670684  0.997558  0.250000  1
  Er  Er3  1  0.329344  0.002421  0.750000  1
  Ga  Ga4  1  0.130608  0.130660  0.250000  1
  Ga  Ga5  1  0.869654  0.869600  0.750000  1
  Ga  Ga6  1  0.003455  0.339020  0.079827  1
  Ga  Ga7  1  0.996489  0.660787  0.919942  1
  Ga  Ga8  1  0.996489  0.660787  0.580058  1
  Ga  Ga9  1  0.339337  0.003557  0.420198  1
  Ga  Ga10  1  0.003455  0.339020  0.420173  1
  Ga  Ga11  1  0.660774  0.996545  0.580016  1
  Ga  Ga12  1  0.660774  0.996545  0.919984  1
  Ga  Ga13  1  0.339337  0.003557  0.079802  1
  Ga  Ga14  1  0.341173  0.341172  0.565352  1
  Ga  Ga15  1  0.658761  0.658892  0.434709  1
  Ga  Ga16  1  0.658761  0.658892  0.065291  1
  Ga  Ga17  1  0.341173  0.341172  0.934648  1
  Ga  Ga18  1  0.335959  0.550321  0.250000  1
  Ga  Ga19  1  0.664009  0.449571  0.750000  1
  Ga  Ga20  1  0.550225  0.335790  0.250000  1
  Ga  Ga21  1  0.449639  0.664091  0.750000  1
  Pd  Pd22  1  0.999979  0.000057  0.000010  1
  Pd  Pd23  1  0.999979  0.000057  0.499990  1
  Ru  Ru24  1  0.674128  0.325691  0.999952  1
  Ru  Ru25  1  0.325816  0.674179  0.999916  1
  Ru  Ru26  1  0.325816  0.674179  0.500084  1
  Ru  Ru27  1  0.674128  0.325691  0.500048  1
