# generated using pymatgen
data_CaSi3AsRh6
_symmetry_space_group_name_H-M   'P 1'
_cell_length_a   7.11368200
_cell_length_b   7.10240213
_cell_length_c   3.79501700
_cell_angle_alpha   90.00000000
_cell_angle_beta   90.00000000
_cell_angle_gamma   120.05255041
_symmetry_Int_Tables_number   1
_chemical_formula_structural   CaSi3AsRh6
_chemical_formula_sum   'Ca1 Si3 As1 Rh6'
_cell_volume   165.96398164
_cell_formula_units_Z   1
loop_
 _symmetry_equiv_pos_site_id
 _symmetry_equiv_pos_as_xyz
  1  'x, y, z'
loop_
 _atom_site_type_symbol
 _atom_site_label
 _atom_site_symmetry_multiplicity
 _atom_site_fract_x
 _atom_site_fract_y
 _atom_site_fract_z
 _atom_site_occupancy
  Ca  Ca0  1  0.002511  0.005022  0.000000  1
  Si  Si1  1  0.799280  0.196930  0.500000  1
  Si  Si2  1  0.397650  0.196930  0.500000  1
  Si  Si3  1  0.333471  0.666943  0.000000  1
  As  As4  1  0.805201  0.610401  0.500000  1
  Rh  Rh5  1  0.204725  0.803140  0.500000  1
  Rh  Rh6  1  0.197542  0.395085  0.500000  1
  Rh  Rh7  1  0.534033  0.068066  0.000000  1
  Rh  Rh8  1  0.935450  0.460506  0.000000  1
  Rh  Rh9  1  0.525055  0.460506  0.000000  1
  Rh  Rh10  1  0.598415  0.803140  0.500000  1
