# generated using pymatgen
data_Yb10Hg2Ir3Rh
_symmetry_space_group_name_H-M   'P 1'
_cell_length_a   8.81651864
_cell_length_b   8.81651806
_cell_length_c   8.85898700
_cell_angle_alpha   128.34740709
_cell_angle_beta   128.34739581
_cell_angle_gamma   75.70980256
_symmetry_Int_Tables_number   1
_chemical_formula_structural   Yb10Hg2Ir3Rh
_chemical_formula_sum   'Yb10 Hg2 Ir3 Rh1'
_cell_volume   412.73373402
_cell_formula_units_Z   1
loop_
 _symmetry_equiv_pos_site_id
 _symmetry_equiv_pos_as_xyz
  1  'x, y, z'
loop_
 _atom_site_type_symbol
 _atom_site_label
 _atom_site_symmetry_multiplicity
 _atom_site_fract_x
 _atom_site_fract_y
 _atom_site_fract_z
 _atom_site_occupancy
  Yb  Yb0  1  0.501250  0.500651  0.001901  1
  Yb  Yb1  1  0.999349  0.998750  0.998099  1
  Yb  Yb2  1  0.534309  0.032779  0.826047  1
  Yb  Yb3  1  0.208263  0.706733  0.173953  1
  Yb  Yb4  1  0.034021  0.209232  0.500000  1
  Yb  Yb5  1  0.707082  0.535556  0.500000  1
  Yb  Yb6  1  0.467221  0.965691  0.173953  1
  Yb  Yb7  1  0.793267  0.291737  0.826047  1
  Yb  Yb8  1  0.964444  0.792918  0.500000  1
  Yb  Yb9  1  0.290768  0.465979  0.500000  1
  Hg  Hg10  1  0.251734  0.248266  0.000000  1
  Hg  Hg11  1  0.751734  0.748266  0.000000  1
  Ir  Ir12  1  0.132879  0.632765  0.765646  1
  Ir  Ir13  1  0.867235  0.367121  0.234354  1
  Ir  Ir14  1  0.629948  0.870052  0.500000  1
  Rh  Rh15  1  0.366497  0.133503  0.500000  1
