# generated using pymatgen
data_Pr3Tl3(PS4)4
_symmetry_space_group_name_H-M   'P 1'
_cell_length_a   9.43913534
_cell_length_b   10.78614592
_cell_length_c   14.83276000
_cell_angle_alpha   85.78477670
_cell_angle_beta   87.89586915
_cell_angle_gamma   80.67968246
_symmetry_Int_Tables_number   1
_chemical_formula_structural   Pr3Tl3(PS4)4
_chemical_formula_sum   'Pr6 Tl6 P8 S32'
_cell_volume   1485.71138927
_cell_formula_units_Z   2
loop_
 _symmetry_equiv_pos_site_id
 _symmetry_equiv_pos_as_xyz
  1  'x, y, z'
loop_
 _atom_site_type_symbol
 _atom_site_label
 _atom_site_symmetry_multiplicity
 _atom_site_fract_x
 _atom_site_fract_y
 _atom_site_fract_z
 _atom_site_occupancy
  Pr  Pr0  1  0.763820  0.980665  0.525607  1
  Pr  Pr1  1  0.745260  0.471286  0.997623  1
  Pr  Pr2  1  0.254740  0.528713  0.002377  1
  Pr  Pr3  1  0.236180  0.019335  0.474393  1
  Pr  Pr4  1  0.245704  0.279029  0.738841  1
  Pr  Pr5  1  0.754296  0.720971  0.261159  1
  Tl  Tl6  1  0.647138  0.199983  0.266459  1
  Tl  Tl7  1  0.735289  0.417615  0.647189  1
  Tl  Tl8  1  0.201107  0.078463  0.112707  1
  Tl  Tl9  1  0.352862  0.800017  0.733541  1
  Tl  Tl10  1  0.798893  0.921537  0.887293  1
  Tl  Tl11  1  0.264711  0.582385  0.352811  1
  P  P12  1  0.450792  0.249810  0.515874  1
  P  P13  1  0.998914  0.934559  0.320701  1
  P  P14  1  0.994408  0.434664  0.180709  1
  P  P15  1  0.474393  0.714369  0.097313  1
  P  P16  1  0.001086  0.065441  0.679299  1
  P  P17  1  0.525607  0.285631  0.902687  1
  P  P18  1  0.005592  0.565336  0.819291  1
  P  P19  1  0.549208  0.750190  0.484126  1
  S  S20  1  0.064262  0.520238  0.691649  1
  S  S21  1  0.052222  0.400247  0.904059  1
  S  S22  1  0.111735  0.056044  0.796069  1
  S  S23  1  0.947778  0.599753  0.095941  1
  S  S24  1  0.673047  0.749330  0.594847  1
  S  S25  1  0.618222  0.597023  0.413228  1
  S  S26  1  0.585093  0.559068  0.170392  1
  S  S27  1  0.886878  0.298507  0.137420  1
  S  S28  1  0.500013  0.673897  0.962482  1
  S  S29  1  0.660655  0.244794  0.473503  1
  S  S30  1  0.326953  0.250670  0.405153  1
  S  S31  1  0.381778  0.402977  0.586772  1
  S  S32  1  0.942281  0.788579  0.405075  1
  S  S33  1  0.790878  0.631195  0.835011  1
  S  S34  1  0.216591  0.916313  0.300454  1
  S  S35  1  0.052283  0.902899  0.611176  1
  S  S36  1  0.339345  0.755206  0.526497  1
  S  S37  1  0.444079  0.087290  0.602112  1
  S  S38  1  0.740823  0.270029  0.878553  1
  S  S39  1  0.555921  0.912710  0.397888  1
  S  S40  1  0.259177  0.729971  0.121447  1
  S  S41  1  0.563440  0.866961  0.125478  1
  S  S42  1  0.113122  0.701493  0.862580  1
  S  S43  1  0.947717  0.097101  0.388824  1
  S  S44  1  0.499987  0.326103  0.037518  1
  S  S45  1  0.783409  0.083687  0.699546  1
  S  S46  1  0.436560  0.133039  0.874522  1
  S  S47  1  0.888265  0.943956  0.203931  1
  S  S48  1  0.935738  0.479762  0.308351  1
  S  S49  1  0.057719  0.211421  0.594925  1
  S  S50  1  0.209122  0.368805  0.164989  1
  S  S51  1  0.414907  0.440932  0.829608  1
