# generated using pymatgen
data_Cs5Rb5(Tc3Se7)2
_symmetry_space_group_name_H-M   'P 1'
_cell_length_a   11.42211349
_cell_length_b   11.31089777
_cell_length_c   11.64544716
_cell_angle_alpha   59.13523334
_cell_angle_beta   59.45854961
_cell_angle_gamma   60.32309812
_symmetry_Int_Tables_number   1
_chemical_formula_structural   Cs5Rb5(Tc3Se7)2
_chemical_formula_sum   'Cs5 Rb5 Tc6 Se14'
_cell_volume   1054.88624463
_cell_formula_units_Z   1
loop_
 _symmetry_equiv_pos_site_id
 _symmetry_equiv_pos_as_xyz
  1  'x, y, z'
loop_
 _atom_site_type_symbol
 _atom_site_label
 _atom_site_symmetry_multiplicity
 _atom_site_fract_x
 _atom_site_fract_y
 _atom_site_fract_z
 _atom_site_occupancy
  Cs  Cs0  1  0.998488  0.415090  0.582102  1
  Cs  Cs1  1  0.029767  0.026942  0.452380  1
  Cs  Cs2  1  0.989394  0.422432  0.002710  1
  Cs  Cs3  1  0.190411  0.574017  0.115356  1
  Cs  Cs4  1  0.572477  0.186402  0.118431  1
  Rb  Rb5  1  0.010720  0.010542  0.987961  1
  Rb  Rb6  1  0.415363  0.985023  0.004361  1
  Rb  Rb7  1  0.408592  0.995030  0.591471  1
  Rb  Rb8  1  0.851986  0.852172  0.867553  1
  Rb  Rb9  1  0.840030  0.840689  0.420914  1
  Tc  Tc10  1  0.382111  0.618395  0.612965  1
  Tc  Tc11  1  0.381761  0.379199  0.619672  1
  Tc  Tc12  1  0.380586  0.617048  0.386252  1
  Tc  Tc13  1  0.616601  0.381676  0.614367  1
  Tc  Tc14  1  0.617052  0.619006  0.379468  1
  Tc  Tc15  1  0.615770  0.379782  0.387265  1
  Se  Se16  1  0.221340  0.208933  0.787725  1
  Se  Se17  1  0.204134  0.787727  0.766765  1
  Se  Se18  1  0.388932  0.386857  0.830713  1
  Se  Se19  1  0.165550  0.608760  0.612888  1
  Se  Se20  1  0.610890  0.615226  0.604237  1
  Se  Se21  1  0.199106  0.785629  0.243652  1
  Se  Se22  1  0.387479  0.384510  0.394802  1
  Se  Se23  1  0.396195  0.838047  0.381510  1
  Se  Se24  1  0.608393  0.161268  0.615390  1
  Se  Se25  1  0.782121  0.204012  0.770976  1
  Se  Se26  1  0.832492  0.395747  0.384895  1
  Se  Se27  1  0.607972  0.611814  0.168949  1
  Se  Se28  1  0.787152  0.784933  0.203377  1
  Se  Se29  1  0.781936  0.197899  0.245696  1
