# generated using pymatgen
data_Ho11In(Hg2Ir)4
_symmetry_space_group_name_H-M   'P 1'
_cell_length_a   12.95148200
_cell_length_b   12.95148226
_cell_length_c   3.75058900
_cell_angle_alpha   90.00000000
_cell_angle_beta   90.00000000
_cell_angle_gamma   114.70402131
_symmetry_Int_Tables_number   1
_chemical_formula_structural   Ho11In(Hg2Ir)4
_chemical_formula_sum   'Ho11 In1 Hg8 Ir4'
_cell_volume   571.54869391
_cell_formula_units_Z   1
loop_
 _symmetry_equiv_pos_site_id
 _symmetry_equiv_pos_as_xyz
  1  'x, y, z'
loop_
 _atom_site_type_symbol
 _atom_site_label
 _atom_site_symmetry_multiplicity
 _atom_site_fract_x
 _atom_site_fract_y
 _atom_site_fract_z
 _atom_site_occupancy
  Ho  Ho0  1  0.500000  0.500000  0.500000  1
  Ho  Ho1  1  0.795152  0.795152  0.500000  1
  Ho  Ho2  1  0.204848  0.204848  0.500000  1
  Ho  Ho3  1  0.586996  0.918355  0.500000  1
  Ho  Ho4  1  0.413004  0.081645  0.500000  1
  Ho  Ho5  1  0.918355  0.586996  0.500000  1
  Ho  Ho6  1  0.081645  0.413004  0.500000  1
  Ho  Ho7  1  0.132130  0.867870  0.500000  1
  Ho  Ho8  1  0.867870  0.132130  0.500000  1
  Ho  Ho9  1  0.333227  0.666773  0.500000  1
  Ho  Ho10  1  0.666773  0.333227  0.500000  1
  In  In11  1  0.000000  0.000000  0.000000  1
  Hg  Hg12  1  0.352646  0.868804  0.000000  1
  Hg  Hg13  1  0.647354  0.131196  0.000000  1
  Hg  Hg14  1  0.868804  0.352646  0.000000  1
  Hg  Hg15  1  0.131196  0.647354  0.000000  1
  Hg  Hg16  1  0.556502  0.710690  0.000000  1
  Hg  Hg17  1  0.443498  0.289310  0.000000  1
  Hg  Hg18  1  0.710690  0.556502  0.000000  1
  Hg  Hg19  1  0.289310  0.443498  0.000000  1
  Ir  Ir20  1  0.758918  0.950145  0.000000  1
  Ir  Ir21  1  0.241082  0.049855  0.000000  1
  Ir  Ir22  1  0.950145  0.758918  0.000000  1
  Ir  Ir23  1  0.049855  0.241082  0.000000  1
