# generated using pymatgen
data_Tm8B24MoRh3
_symmetry_space_group_name_H-M   'P 1'
_cell_length_a   3.62728900
_cell_length_b   9.11146571
_cell_length_c   11.47040089
_cell_angle_alpha   89.78386950
_cell_angle_beta   90.00000000
_cell_angle_gamma   90.00000000
_symmetry_Int_Tables_number   1
_chemical_formula_structural   Tm8B24MoRh3
_chemical_formula_sum   'Tm8 B24 Mo1 Rh3'
_cell_volume   379.09312713
_cell_formula_units_Z   1
loop_
 _symmetry_equiv_pos_site_id
 _symmetry_equiv_pos_as_xyz
  1  'x, y, z'
loop_
 _atom_site_type_symbol
 _atom_site_label
 _atom_site_symmetry_multiplicity
 _atom_site_fract_x
 _atom_site_fract_y
 _atom_site_fract_z
 _atom_site_occupancy
  Tm  Tm0  1  0.000000  0.323371  0.413206  1
  Tm  Tm1  1  0.000000  0.679336  0.583086  1
  Tm  Tm2  1  0.000000  0.817752  0.089446  1
  Tm  Tm3  1  0.000000  0.177525  0.914919  1
  Tm  Tm4  1  0.000000  0.944551  0.374305  1
  Tm  Tm5  1  0.000000  0.057662  0.628292  1
  Tm  Tm6  1  0.000000  0.444537  0.125906  1
  Tm  Tm7  1  0.000000  0.556310  0.871099  1
  B  B8  1  0.500000  0.551490  0.435640  1
  B  B9  1  0.500000  0.446855  0.566480  1
  B  B10  1  0.500000  0.052613  0.065717  1
  B  B11  1  0.500000  0.945171  0.935103  1
  B  B12  1  0.500000  0.751268  0.421860  1
  B  B13  1  0.500000  0.251331  0.580142  1
  B  B14  1  0.500000  0.248723  0.078538  1
  B  B15  1  0.500000  0.749941  0.920897  1
  B  B16  1  0.500000  0.795384  0.263781  1
  B  B17  1  0.500000  0.206364  0.736858  1
  B  B18  1  0.500000  0.291692  0.234035  1
  B  B19  1  0.500000  0.707928  0.763532  1
  B  B20  1  0.500000  0.631471  0.182579  1
  B  B21  1  0.500000  0.367303  0.816337  1
  B  B22  1  0.500000  0.132437  0.316506  1
  B  B23  1  0.500000  0.869121  0.683743  1
  B  B24  1  0.500000  0.982460  0.212758  1
  B  B25  1  0.500000  0.018151  0.788216  1
  B  B26  1  0.500000  0.478881  0.286041  1
  B  B27  1  0.500000  0.518458  0.712251  1
  B  B28  1  0.500000  0.606199  0.027184  1
  B  B29  1  0.500000  0.392483  0.969508  1
  B  B30  1  0.500000  0.108263  0.471676  1
  B  B31  1  0.500000  0.895938  0.530751  1
  Mo  Mo32  1  0.000000  0.637893  0.320854  1
  Rh  Rh33  1  0.000000  0.361490  0.679025  1
  Rh  Rh34  1  0.000000  0.138144  0.178312  1
  Rh  Rh35  1  0.000000  0.861502  0.821414  1
