# generated using pymatgen
data_TmNp2Pa(Ga3Rh)6
_symmetry_space_group_name_H-M   'P 1'
_cell_length_a   7.61016903
_cell_length_b   7.61167128
_cell_length_c   9.48537600
_cell_angle_alpha   90.00000000
_cell_angle_beta   90.00000000
_cell_angle_gamma   119.81050454
_symmetry_Int_Tables_number   1
_chemical_formula_structural   TmNp2Pa(Ga3Rh)6
_chemical_formula_sum   'Tm1 Np2 Pa1 Ga18 Rh6'
_cell_volume   476.74442628
_cell_formula_units_Z   1
loop_
 _symmetry_equiv_pos_site_id
 _symmetry_equiv_pos_as_xyz
  1  'x, y, z'
loop_
 _atom_site_type_symbol
 _atom_site_label
 _atom_site_symmetry_multiplicity
 _atom_site_fract_x
 _atom_site_fract_y
 _atom_site_fract_z
 _atom_site_occupancy
  Tm  Tm0  1  0.669732  0.996780  0.250000  1
  Np  Np1  1  0.003621  0.332019  0.750000  1
  Np  Np2  1  0.330811  0.002254  0.750000  1
  Pa  Pa3  1  0.998219  0.668923  0.250000  1
  Ga  Ga4  1  0.127662  0.127065  0.250000  1
  Ga  Ga5  1  0.873562  0.874685  0.750000  1
  Ga  Ga6  1  0.998503  0.330580  0.079599  1
  Ga  Ga7  1  0.999803  0.665489  0.918763  1
  Ga  Ga8  1  0.999803  0.665489  0.581237  1
  Ga  Ga9  1  0.338519  0.002631  0.420345  1
  Ga  Ga10  1  0.998503  0.330580  0.420401  1
  Ga  Ga11  1  0.665529  0.000815  0.579082  1
  Ga  Ga12  1  0.665529  0.000815  0.920918  1
  Ga  Ga13  1  0.338519  0.002631  0.079655  1
  Ga  Ga14  1  0.332237  0.332076  0.566929  1
  Ga  Ga15  1  0.664734  0.668076  0.433849  1
  Ga  Ga16  1  0.664734  0.668076  0.066151  1
  Ga  Ga17  1  0.332237  0.332076  0.933071  1
  Ga  Ga18  1  0.338289  0.545946  0.250000  1
  Ga  Ga19  1  0.661627  0.452730  0.750000  1
  Ga  Ga20  1  0.545882  0.339381  0.250000  1
  Ga  Ga21  1  0.453547  0.661919  0.750000  1
  Rh  Rh22  1  0.672677  0.331595  0.002528  1
  Rh  Rh23  1  0.328096  0.671449  0.002671  1
  Rh  Rh24  1  0.328096  0.671449  0.497329  1
  Rh  Rh25  1  0.672677  0.331595  0.497472  1
  Rh  Rh26  1  0.998428  0.996439  0.003113  1
  Rh  Rh27  1  0.998428  0.996439  0.496887  1
