# generated using pymatgen
data_HoTlAg2(Pt2O7)2
_symmetry_space_group_name_H-M   'P 1'
_cell_length_a   7.24245844
_cell_length_b   7.24245713
_cell_length_c   7.36847023
_cell_angle_alpha   59.44619895
_cell_angle_beta   59.44620762
_cell_angle_gamma   59.22472987
_symmetry_Int_Tables_number   1
_chemical_formula_structural   HoTlAg2(Pt2O7)2
_chemical_formula_sum   'Ho1 Tl1 Ag2 Pt4 O14'
_cell_volume   269.38991617
_cell_formula_units_Z   1
loop_
 _symmetry_equiv_pos_site_id
 _symmetry_equiv_pos_as_xyz
  1  'x, y, z'
loop_
 _atom_site_type_symbol
 _atom_site_label
 _atom_site_symmetry_multiplicity
 _atom_site_fract_x
 _atom_site_fract_y
 _atom_site_fract_z
 _atom_site_occupancy
  Ho  Ho0  1  0.625000  0.625000  0.625000  1
  Tl  Tl1  1  0.625000  0.625000  0.125000  1
  Ag  Ag2  1  0.625000  0.125000  0.625000  1
  Ag  Ag3  1  0.125000  0.625000  0.625000  1
  Pt  Pt4  1  0.125000  0.125000  0.125000  1
  Pt  Pt5  1  0.625000  0.125000  0.125000  1
  Pt  Pt6  1  0.125000  0.625000  0.125000  1
  Pt  Pt7  1  0.125000  0.125000  0.625000  1
  O  O8  1  0.027129  0.460160  0.456619  1
  O  O9  1  0.784854  0.784854  0.222219  1
  O  O10  1  0.789056  0.212243  0.204996  1
  O  O11  1  0.460160  0.027129  0.456619  1
  O  O12  1  0.765572  0.765572  0.730655  1
  O  O13  1  0.045847  0.045847  0.455248  1
  O  O14  1  0.037757  0.460944  0.045004  1
  O  O15  1  0.789840  0.222871  0.793381  1
  O  O16  1  0.212243  0.789056  0.204996  1
  O  O17  1  0.204153  0.204153  0.794752  1
  O  O18  1  0.484428  0.484428  0.519345  1
  O  O19  1  0.460944  0.037757  0.045004  1
  O  O20  1  0.465146  0.465146  0.027781  1
  O  O21  1  0.222871  0.789840  0.793381  1
