# generated using pymatgen
data_Ho4InPd2Pt9
_symmetry_space_group_name_H-M   'P 1'
_cell_length_a   4.21180900
_cell_length_b   5.83058446
_cell_length_c   11.62652121
_cell_angle_alpha   87.38643605
_cell_angle_beta   90.00000000
_cell_angle_gamma   90.00000000
_symmetry_Int_Tables_number   1
_chemical_formula_structural   Ho4InPd2Pt9
_chemical_formula_sum   'Ho4 In1 Pd2 Pt9'
_cell_volume   285.21907051
_cell_formula_units_Z   1
loop_
 _symmetry_equiv_pos_site_id
 _symmetry_equiv_pos_as_xyz
  1  'x, y, z'
loop_
 _atom_site_type_symbol
 _atom_site_label
 _atom_site_symmetry_multiplicity
 _atom_site_fract_x
 _atom_site_fract_y
 _atom_site_fract_z
 _atom_site_occupancy
  Ho  Ho0  1  0.500000  0.754313  0.375908  1
  Ho  Ho1  1  0.500000  0.717152  0.861816  1
  Ho  Ho2  1  0.500000  0.280833  0.139237  1
  Ho  Ho3  1  0.500000  0.245980  0.623833  1
  In  In4  1  0.000000  0.001239  0.999022  1
  Pd  Pd5  1  0.500000  0.252488  0.377335  1
  Pd  Pd6  1  0.500000  0.229792  0.881555  1
  Pt  Pt7  1  0.000000  0.012349  0.249980  1
  Pt  Pt8  1  0.000000  0.986565  0.750389  1
  Pt  Pt9  1  0.000000  0.499155  0.000575  1
  Pt  Pt10  1  0.000000  0.499846  0.500018  1
  Pt  Pt11  1  0.000000  0.515718  0.249962  1
  Pt  Pt12  1  0.000000  0.484441  0.749943  1
  Pt  Pt13  1  0.500000  0.772226  0.118036  1
  Pt  Pt14  1  0.500000  0.747689  0.622061  1
  Pt  Pt15  1  0.000000  0.000214  0.500328  1
