# generated using pymatgen
data_LiY5(Co3P2)6
_symmetry_space_group_name_H-M   'P 1'
_cell_length_a   11.99716437
_cell_length_b   11.99716466
_cell_length_c   3.67614000
_cell_angle_alpha   90.00000000
_cell_angle_beta   90.00000000
_cell_angle_gamma   119.80374814
_symmetry_Int_Tables_number   1
_chemical_formula_structural   LiY5(Co3P2)6
_chemical_formula_sum   'Li1 Y5 Co18 P12'
_cell_volume   459.12966644
_cell_formula_units_Z   1
loop_
 _symmetry_equiv_pos_site_id
 _symmetry_equiv_pos_as_xyz
  1  'x, y, z'
loop_
 _atom_site_type_symbol
 _atom_site_label
 _atom_site_symmetry_multiplicity
 _atom_site_fract_x
 _atom_site_fract_y
 _atom_site_fract_z
 _atom_site_occupancy
  Li  Li0  1  0.560313  0.560313  0.000000  1
  Y  Y1  1  0.666474  0.333003  0.000000  1
  Y  Y2  1  0.333003  0.666474  0.000000  1
  Y  Y3  1  0.186934  0.186934  0.500000  1
  Y  Y4  1  0.812651  0.001103  0.500000  1
  Y  Y5  1  0.001103  0.812651  0.500000  1
  Co  Co6  1  0.446882  0.999846  0.000000  1
  Co  Co7  1  0.999846  0.446882  0.000000  1
  Co  Co8  1  0.821731  0.200482  0.000000  1
  Co  Co9  1  0.802136  0.622178  0.000000  1
  Co  Co10  1  0.376451  0.175558  0.000000  1
  Co  Co11  1  0.200482  0.821731  0.000000  1
  Co  Co12  1  0.622178  0.802136  0.000000  1
  Co  Co13  1  0.175558  0.376451  0.000000  1
  Co  Co14  1  0.640773  0.125243  0.500000  1
  Co  Co15  1  0.876671  0.516488  0.500000  1
  Co  Co16  1  0.482078  0.355456  0.500000  1
  Co  Co17  1  0.125243  0.640773  0.500000  1
  Co  Co18  1  0.516488  0.876671  0.500000  1
  Co  Co19  1  0.355456  0.482078  0.500000  1
  Co  Co20  1  0.717157  0.717157  0.500000  1
  Co  Co21  1  0.284835  0.998656  0.500000  1
  Co  Co22  1  0.998656  0.284835  0.500000  1
  Co  Co23  1  0.999242  0.999242  0.000000  1
  P  P24  1  0.367742  0.367742  0.000000  1
  P  P25  1  0.631231  0.000772  0.000000  1
  P  P26  1  0.000772  0.631231  0.000000  1
  P  P27  1  0.833538  0.314037  0.500000  1
  P  P28  1  0.688376  0.519554  0.500000  1
  P  P29  1  0.478610  0.165261  0.500000  1
  P  P30  1  0.314037  0.833538  0.500000  1
  P  P31  1  0.519554  0.688376  0.500000  1
  P  P32  1  0.165261  0.478610  0.500000  1
  P  P33  1  0.818262  0.818262  0.000000  1
  P  P34  1  0.181010  0.999268  0.000000  1
  P  P35  1  0.999268  0.181010  0.000000  1
