# generated using pymatgen
data_Nd7Tm13Pb16
_symmetry_space_group_name_H-M   'P 1'
_cell_length_a   8.20882058
_cell_length_b   8.33095004
_cell_length_c   15.64811614
_cell_angle_alpha   90.05256281
_cell_angle_beta   89.61338187
_cell_angle_gamma   90.48842446
_symmetry_Int_Tables_number   1
_chemical_formula_structural   Nd7Tm13Pb16
_chemical_formula_sum   'Nd7 Tm13 Pb16'
_cell_volume   1070.06836822
_cell_formula_units_Z   1
loop_
 _symmetry_equiv_pos_site_id
 _symmetry_equiv_pos_as_xyz
  1  'x, y, z'
loop_
 _atom_site_type_symbol
 _atom_site_label
 _atom_site_symmetry_multiplicity
 _atom_site_fract_x
 _atom_site_fract_y
 _atom_site_fract_z
 _atom_site_occupancy
  Nd  Nd0  1  0.522907  0.321283  0.401421  1
  Nd  Nd1  1  0.476066  0.678358  0.903933  1
  Nd  Nd2  1  0.978008  0.822726  0.595901  1
  Nd  Nd3  1  0.975547  0.824614  0.904275  1
  Nd  Nd4  1  0.477970  0.677451  0.596153  1
  Nd  Nd5  1  0.523389  0.321133  0.097088  1
  Nd  Nd6  1  0.020340  0.176854  0.404320  1
  Tm  Tm7  1  0.863414  0.657835  0.123216  1
  Tm  Tm8  1  0.360363  0.842611  0.376574  1
  Tm  Tm9  1  0.634490  0.157363  0.878642  1
  Tm  Tm10  1  0.137755  0.342332  0.623712  1
  Tm  Tm11  1  0.133884  0.341226  0.877910  1
  Tm  Tm12  1  0.638086  0.157976  0.622722  1
  Tm  Tm13  1  0.364733  0.843475  0.121957  1
  Tm  Tm14  1  0.862716  0.656196  0.374456  1
  Tm  Tm15  1  0.031823  0.175212  0.099393  1
  Tm  Tm16  1  0.698414  0.996091  0.248713  1
  Tm  Tm17  1  0.197504  0.505188  0.248692  1
  Tm  Tm18  1  0.801794  0.494235  0.750271  1
  Tm  Tm19  1  0.301496  0.004880  0.751114  1
  Pb  Pb20  1  0.058713  0.872403  0.249234  1
  Pb  Pb21  1  0.558031  0.629792  0.249545  1
  Pb  Pb22  1  0.440838  0.369852  0.750893  1
  Pb  Pb23  1  0.940321  0.128927  0.750390  1
  Pb  Pb24  1  0.839820  0.344828  0.246894  1
  Pb  Pb25  1  0.331164  0.150381  0.249457  1
  Pb  Pb26  1  0.665175  0.849896  0.749942  1
  Pb  Pb27  1  0.164104  0.651658  0.750195  1
  Pb  Pb28  1  0.796187  0.460029  0.956579  1
  Pb  Pb29  1  0.298571  0.043582  0.543476  1
  Pb  Pb30  1  0.712254  0.964883  0.045140  1
  Pb  Pb31  1  0.201576  0.540927  0.456021  1
  Pb  Pb32  1  0.201498  0.537905  0.044033  1
  Pb  Pb33  1  0.700380  0.954740  0.456106  1
  Pb  Pb34  1  0.292177  0.044950  0.959187  1
  Pb  Pb35  1  0.798495  0.458210  0.542446  1
