# generated using pymatgen
data_Yb2Ho11Tm7Ir12
_symmetry_space_group_name_H-M   'P 1'
_cell_length_a   10.79616581
_cell_length_b   10.82579505
_cell_length_c   6.32481016
_cell_angle_alpha   90.00973181
_cell_angle_beta   90.22312449
_cell_angle_gamma   89.99603173
_symmetry_Int_Tables_number   1
_chemical_formula_structural   Yb2Ho11Tm7Ir12
_chemical_formula_sum   'Yb2 Ho11 Tm7 Ir12'
_cell_volume   739.21971462
_cell_formula_units_Z   1
loop_
 _symmetry_equiv_pos_site_id
 _symmetry_equiv_pos_as_xyz
  1  'x, y, z'
loop_
 _atom_site_type_symbol
 _atom_site_label
 _atom_site_symmetry_multiplicity
 _atom_site_fract_x
 _atom_site_fract_y
 _atom_site_fract_z
 _atom_site_occupancy
  Yb  Yb0  1  0.288825  0.087910  0.374560  1
  Yb  Yb1  1  0.288819  0.912096  0.874524  1
  Ho  Ho2  1  0.709707  0.086407  0.878107  1
  Ho  Ho3  1  0.709496  0.913705  0.378308  1
  Ho  Ho4  1  0.586741  0.792061  0.876912  1
  Ho  Ho5  1  0.586795  0.207952  0.376958  1
  Ho  Ho6  1  0.412304  0.792801  0.378294  1
  Ho  Ho7  1  0.412275  0.207209  0.878300  1
  Ho  Ho8  1  0.209543  0.413461  0.623403  1
  Ho  Ho9  1  0.209777  0.586482  0.123399  1
  Ho  Ho10  1  0.791330  0.412419  0.121390  1
  Ho  Ho11  1  0.791333  0.587138  0.621350  1
  Ho  Ho12  1  0.913033  0.709787  0.123746  1
  Tm  Tm13  1  0.913273  0.290763  0.623271  1
  Tm  Tm14  1  0.087061  0.708373  0.621772  1
  Tm  Tm15  1  0.086855  0.291554  0.121651  1
  Tm  Tm16  1  0.000924  0.999644  0.500331  1
  Tm  Tm17  1  0.001075  0.000771  0.000102  1
  Tm  Tm18  1  0.500194  0.499859  0.998487  1
  Tm  Tm19  1  0.500183  0.500070  0.498614  1
  Ir  Ir20  1  0.849928  0.153513  0.251024  1
  Ir  Ir21  1  0.849766  0.846850  0.749924  1
  Ir  Ir22  1  0.146523  0.159377  0.754147  1
  Ir  Ir23  1  0.147040  0.840869  0.254476  1
  Ir  Ir24  1  0.651795  0.346220  0.750233  1
  Ir  Ir25  1  0.651257  0.653620  0.250474  1
  Ir  Ir26  1  0.347515  0.351772  0.245869  1
  Ir  Ir27  1  0.347506  0.648248  0.745863  1
  Ir  Ir28  1  0.504303  0.000308  0.123267  1
  Ir  Ir29  1  0.504338  0.999725  0.623269  1
  Ir  Ir30  1  0.000235  0.499805  0.878475  1
  Ir  Ir31  1  0.000254  0.499228  0.379499  1
