# generated using pymatgen
data_Y17Hf2InIr12
_symmetry_space_group_name_H-M   'P 1'
_cell_length_a   10.89294800
_cell_length_b   10.89294800
_cell_length_c   6.29275300
_cell_angle_alpha   90.00000000
_cell_angle_beta   90.00000000
_cell_angle_gamma   90.00000000
_symmetry_Int_Tables_number   1
_chemical_formula_structural   Y17Hf2InIr12
_chemical_formula_sum   'Y17 Hf2 In1 Ir12'
_cell_volume   746.67488930
_cell_formula_units_Z   1
loop_
 _symmetry_equiv_pos_site_id
 _symmetry_equiv_pos_as_xyz
  1  'x, y, z'
loop_
 _atom_site_type_symbol
 _atom_site_label
 _atom_site_symmetry_multiplicity
 _atom_site_fract_x
 _atom_site_fract_y
 _atom_site_fract_z
 _atom_site_occupancy
  Y  Y0  1  0.283572  0.083008  0.378887  1
  Y  Y1  1  0.292161  0.911875  0.879400  1
  Y  Y2  1  0.707839  0.088125  0.879400  1
  Y  Y3  1  0.716428  0.916992  0.378887  1
  Y  Y4  1  0.587634  0.787619  0.879472  1
  Y  Y5  1  0.585800  0.212126  0.376181  1
  Y  Y6  1  0.414200  0.787874  0.376181  1
  Y  Y7  1  0.412366  0.212381  0.879472  1
  Y  Y8  1  0.212126  0.414200  0.623819  1
  Y  Y9  1  0.212381  0.587634  0.120528  1
  Y  Y10  1  0.787619  0.412366  0.120528  1
  Y  Y11  1  0.787874  0.585800  0.623819  1
  Y  Y12  1  0.911875  0.707839  0.120600  1
  Y  Y13  1  0.916992  0.283572  0.621113  1
  Y  Y14  1  0.083008  0.716428  0.621113  1
  Y  Y15  1  0.088125  0.292161  0.120600  1
  Y  Y16  1  0.000000  0.000000  0.000000  1
  Hf  Hf17  1  0.500000  0.500000  0.000000  1
  Hf  Hf18  1  0.500000  0.500000  0.500000  1
  In  In19  1  0.000000  0.000000  0.500000  1
  Ir  Ir20  1  0.844756  0.158042  0.244128  1
  Ir  Ir21  1  0.841958  0.844756  0.755872  1
  Ir  Ir22  1  0.158042  0.155244  0.755872  1
  Ir  Ir23  1  0.155244  0.841958  0.244128  1
  Ir  Ir24  1  0.640171  0.360129  0.747684  1
  Ir  Ir25  1  0.639871  0.640171  0.252316  1
  Ir  Ir26  1  0.360129  0.359829  0.252316  1
  Ir  Ir27  1  0.359829  0.639871  0.747684  1
  Ir  Ir28  1  0.500000  0.000000  0.128505  1
  Ir  Ir29  1  0.500000  0.000000  0.622480  1
  Ir  Ir30  1  0.000000  0.500000  0.871495  1
  Ir  Ir31  1  0.000000  0.500000  0.377520  1
