# generated using pymatgen
data_Ho3PaNiB14
_symmetry_space_group_name_H-M   'P 1'
_cell_length_a   7.21723414
_cell_length_b   7.21832314
_cell_length_c   7.48907600
_cell_angle_alpha   90.00000000
_cell_angle_beta   90.00000000
_cell_angle_gamma   90.02247289
_symmetry_Int_Tables_number   1
_chemical_formula_structural   Ho3PaNiB14
_chemical_formula_sum   'Ho6 Pa2 Ni2 B28'
_cell_volume   390.15333107
_cell_formula_units_Z   2
loop_
 _symmetry_equiv_pos_site_id
 _symmetry_equiv_pos_as_xyz
  1  'x, y, z'
loop_
 _atom_site_type_symbol
 _atom_site_label
 _atom_site_symmetry_multiplicity
 _atom_site_fract_x
 _atom_site_fract_y
 _atom_site_fract_z
 _atom_site_occupancy
  Ho  Ho0  1  0.334171  0.807468  0.000000  1
  Ho  Ho1  1  0.694102  0.167685  0.500000  1
  Ho  Ho2  1  0.306120  0.833172  0.500000  1
  Ho  Ho3  1  0.808196  0.665572  0.000000  1
  Ho  Ho4  1  0.832991  0.694180  0.500000  1
  Ho  Ho5  1  0.166805  0.306553  0.500000  1
  Pa  Pa6  1  0.193769  0.329371  0.000000  1
  Pa  Pa7  1  0.670485  0.193472  0.000000  1
  Ni  Ni8  1  0.999317  0.997684  0.000000  1
  Ni  Ni9  1  0.500085  0.501184  0.500000  1
  B  B10  1  0.174030  0.039131  0.232403  1
  B  B11  1  0.960733  0.173167  0.233707  1
  B  B12  1  0.040018  0.824215  0.231510  1
  B  B13  1  0.674924  0.461642  0.268643  1
  B  B14  1  0.325191  0.540990  0.269201  1
  B  B15  1  0.824670  0.960014  0.232875  1
  B  B16  1  0.539877  0.675591  0.270919  1
  B  B17  1  0.460215  0.326351  0.267790  1
  B  B18  1  0.824670  0.960014  0.767125  1
  B  B19  1  0.040018  0.824215  0.768490  1
  B  B20  1  0.960733  0.173167  0.766293  1
  B  B21  1  0.325191  0.540990  0.730799  1
  B  B22  1  0.674924  0.461642  0.731357  1
  B  B23  1  0.174030  0.039131  0.767597  1
  B  B24  1  0.460215  0.326351  0.732210  1
  B  B25  1  0.539877  0.675591  0.729081  1
  B  B26  1  0.088791  0.588923  0.246729  1
  B  B27  1  0.410100  0.090197  0.243871  1
  B  B28  1  0.588176  0.911919  0.247876  1
  B  B29  1  0.910327  0.410319  0.244623  1
  B  B30  1  0.910327  0.410319  0.755377  1
  B  B31  1  0.588176  0.911919  0.752124  1
  B  B32  1  0.410100  0.090197  0.756129  1
  B  B33  1  0.088791  0.588923  0.753271  1
  B  B34  1  0.000175  0.997458  0.390727  1
  B  B35  1  0.499753  0.501914  0.110796  1
  B  B36  1  0.000175  0.997458  0.609273  1
  B  B37  1  0.499753  0.501914  0.889204  1
