# generated using pymatgen
data_SmErPa2(Al3Rh)6
_symmetry_space_group_name_H-M   'P 1'
_cell_length_a   7.60449434
_cell_length_b   7.60585264
_cell_length_c   9.39955000
_cell_angle_alpha   90.00000000
_cell_angle_beta   90.00000000
_cell_angle_gamma   119.60959524
_symmetry_Int_Tables_number   1
_chemical_formula_structural   SmErPa2(Al3Rh)6
_chemical_formula_sum   'Sm1 Er1 Pa2 Al18 Rh6'
_cell_volume   472.66238217
_cell_formula_units_Z   1
loop_
 _symmetry_equiv_pos_site_id
 _symmetry_equiv_pos_as_xyz
  1  'x, y, z'
loop_
 _atom_site_type_symbol
 _atom_site_label
 _atom_site_symmetry_multiplicity
 _atom_site_fract_x
 _atom_site_fract_y
 _atom_site_fract_z
 _atom_site_occupancy
  Sm  Sm0  1  0.669784  0.993719  0.750000  1
  Er  Er1  1  0.329334  0.006360  0.250000  1
  Pa  Pa2  1  0.997195  0.670841  0.750000  1
  Pa  Pa3  1  0.002736  0.328994  0.250000  1
  Al  Al4  1  0.131324  0.126699  0.750000  1
  Al  Al5  1  0.870887  0.873907  0.250000  1
  Al  Al6  1  0.001794  0.333380  0.575810  1
  Al  Al7  1  0.000159  0.668229  0.422120  1
  Al  Al8  1  0.000159  0.668229  0.077880  1
  Al  Al9  1  0.336435  0.002610  0.926985  1
  Al  Al10  1  0.001794  0.333380  0.924190  1
  Al  Al11  1  0.661655  0.997273  0.076842  1
  Al  Al12  1  0.661655  0.997273  0.423158  1
  Al  Al13  1  0.336435  0.002610  0.573015  1
  Al  Al14  1  0.334710  0.332978  0.053750  1
  Al  Al15  1  0.665297  0.665724  0.949011  1
  Al  Al16  1  0.665297  0.665724  0.550989  1
  Al  Al17  1  0.334710  0.332978  0.446250  1
  Al  Al18  1  0.338713  0.546958  0.750000  1
  Al  Al19  1  0.659802  0.450845  0.250000  1
  Al  Al20  1  0.549498  0.342623  0.750000  1
  Al  Al21  1  0.449482  0.657937  0.250000  1
  Rh  Rh22  1  0.675101  0.329594  0.498731  1
  Rh  Rh23  1  0.324419  0.670231  0.499561  1
  Rh  Rh24  1  0.324419  0.670231  0.000439  1
  Rh  Rh25  1  0.675101  0.329594  0.001269  1
  Rh  Rh26  1  0.001052  0.000541  0.498923  1
  Rh  Rh27  1  0.001052  0.000541  0.001077  1
