# generated using pymatgen
data_Dy2HoSc(Co4P3)2
_symmetry_space_group_name_H-M   'P 1'
_cell_length_a   3.72318900
_cell_length_b   10.66214400
_cell_length_c   12.36064200
_cell_angle_alpha   90.00000000
_cell_angle_beta   90.00000000
_cell_angle_gamma   90.00000000
_symmetry_Int_Tables_number   1
_chemical_formula_structural   Dy2HoSc(Co4P3)2
_chemical_formula_sum   'Dy4 Ho2 Sc2 Co16 P12'
_cell_volume   490.68259649
_cell_formula_units_Z   2
loop_
 _symmetry_equiv_pos_site_id
 _symmetry_equiv_pos_as_xyz
  1  'x, y, z'
loop_
 _atom_site_type_symbol
 _atom_site_label
 _atom_site_symmetry_multiplicity
 _atom_site_fract_x
 _atom_site_fract_y
 _atom_site_fract_z
 _atom_site_occupancy
  Dy  Dy0  1  0.000000  0.500000  0.527882  1
  Dy  Dy1  1  0.500000  0.000000  0.472122  1
  Dy  Dy2  1  0.500000  0.822596  0.205691  1
  Dy  Dy3  1  0.500000  0.177404  0.205691  1
  Ho  Ho4  1  0.000000  0.677380  0.794323  1
  Ho  Ho5  1  0.000000  0.322620  0.794323  1
  Sc  Sc6  1  0.500000  0.500000  0.157533  1
  Sc  Sc7  1  0.000000  0.000000  0.842612  1
  Co  Co8  1  0.000000  0.500000  0.987873  1
  Co  Co9  1  0.500000  0.000000  0.011931  1
  Co  Co10  1  0.500000  0.295425  0.433062  1
  Co  Co11  1  0.500000  0.704575  0.433062  1
  Co  Co12  1  0.000000  0.204647  0.567088  1
  Co  Co13  1  0.000000  0.795353  0.567088  1
  Co  Co14  1  0.500000  0.877644  0.702594  1
  Co  Co15  1  0.500000  0.122356  0.702594  1
  Co  Co16  1  0.000000  0.622142  0.297515  1
  Co  Co17  1  0.000000  0.377858  0.297515  1
  Co  Co18  1  0.500000  0.331280  0.994677  1
  Co  Co19  1  0.500000  0.668720  0.994677  1
  Co  Co20  1  0.000000  0.168817  0.005096  1
  Co  Co21  1  0.000000  0.831183  0.005096  1
  Co  Co22  1  0.500000  0.500000  0.705719  1
  Co  Co23  1  0.000000  0.000000  0.294567  1
  P  P24  1  0.500000  0.309653  0.615722  1
  P  P25  1  0.500000  0.690347  0.615722  1
  P  P26  1  0.000000  0.190538  0.384608  1
  P  P27  1  0.000000  0.809462  0.384608  1
  P  P28  1  0.500000  0.500000  0.885781  1
  P  P29  1  0.000000  0.000000  0.113748  1
  P  P30  1  0.500000  0.839223  0.892441  1
  P  P31  1  0.500000  0.160777  0.892441  1
  P  P32  1  0.000000  0.660477  0.107296  1
  P  P33  1  0.000000  0.339523  0.107296  1
  P  P34  1  0.500000  0.500000  0.360298  1
  P  P35  1  0.000000  0.000000  0.639709  1
