# generated using pymatgen
data_Sm4Tc5Os3
_symmetry_space_group_name_H-M   'P 1'
_cell_length_a   5.36722149
_cell_length_b   5.36722067
_cell_length_c   9.20424700
_cell_angle_alpha   90.00000000
_cell_angle_beta   90.00000000
_cell_angle_gamma   121.18811219
_symmetry_Int_Tables_number   1
_chemical_formula_structural   Sm4Tc5Os3
_chemical_formula_sum   'Sm4 Tc5 Os3'
_cell_volume   226.82603028
_cell_formula_units_Z   1
loop_
 _symmetry_equiv_pos_site_id
 _symmetry_equiv_pos_as_xyz
  1  'x, y, z'
loop_
 _atom_site_type_symbol
 _atom_site_label
 _atom_site_symmetry_multiplicity
 _atom_site_fract_x
 _atom_site_fract_y
 _atom_site_fract_z
 _atom_site_occupancy
  Sm  Sm0  1  0.334030  0.665970  0.435543  1
  Sm  Sm1  1  0.666497  0.333503  0.562725  1
  Sm  Sm2  1  0.666497  0.333503  0.937275  1
  Sm  Sm3  1  0.334030  0.665970  0.064457  1
  Tc  Tc4  1  0.172063  0.342814  0.750000  1
  Tc  Tc5  1  0.169448  0.830552  0.750000  1
  Tc  Tc6  1  0.340313  0.170951  0.250000  1
  Tc  Tc7  1  0.829049  0.659687  0.250000  1
  Tc  Tc8  1  0.657186  0.827937  0.750000  1
  Os  Os9  1  0.001515  0.998485  0.000822  1
  Os  Os10  1  0.827858  0.172142  0.250000  1
  Os  Os11  1  0.001515  0.998485  0.499178  1
