# generated using pymatgen
data_Er20Mg3Ag3Ru2
_symmetry_space_group_name_H-M   'P 1'
_cell_length_a   9.53784900
_cell_length_b   9.53784879
_cell_length_c   9.68934800
_cell_angle_alpha   90.00000000
_cell_angle_beta   90.00000000
_cell_angle_gamma   120.00000420
_symmetry_Int_Tables_number   1
_chemical_formula_structural   Er20Mg3Ag3Ru2
_chemical_formula_sum   'Er20 Mg3 Ag3 Ru2'
_cell_volume   763.35410087
_cell_formula_units_Z   1
loop_
 _symmetry_equiv_pos_site_id
 _symmetry_equiv_pos_as_xyz
  1  'x, y, z'
loop_
 _atom_site_type_symbol
 _atom_site_label
 _atom_site_symmetry_multiplicity
 _atom_site_fract_x
 _atom_site_fract_y
 _atom_site_fract_z
 _atom_site_occupancy
  Er  Er0  1  0.000000  0.000000  0.472057  1
  Er  Er1  1  0.000000  0.000000  0.027943  1
  Er  Er2  1  0.210603  0.789397  0.440672  1
  Er  Er3  1  0.210603  0.421207  0.440672  1
  Er  Er4  1  0.578793  0.789397  0.440672  1
  Er  Er5  1  0.789842  0.210158  0.557018  1
  Er  Er6  1  0.789842  0.579683  0.557018  1
  Er  Er7  1  0.420317  0.210158  0.557018  1
  Er  Er8  1  0.789842  0.210158  0.942982  1
  Er  Er9  1  0.789842  0.579683  0.942982  1
  Er  Er10  1  0.420317  0.210158  0.942982  1
  Er  Er11  1  0.210603  0.789397  0.059328  1
  Er  Er12  1  0.210603  0.421207  0.059328  1
  Er  Er13  1  0.578793  0.789397  0.059328  1
  Er  Er14  1  0.540518  0.459482  0.250000  1
  Er  Er15  1  0.540518  0.081035  0.250000  1
  Er  Er16  1  0.918965  0.459482  0.250000  1
  Er  Er17  1  0.458893  0.541107  0.750000  1
  Er  Er18  1  0.458893  0.917785  0.750000  1
  Er  Er19  1  0.082215  0.541107  0.750000  1
  Mg  Mg20  1  0.109292  0.890708  0.750000  1
  Mg  Mg21  1  0.109292  0.218582  0.750000  1
  Mg  Mg22  1  0.781418  0.890708  0.750000  1
  Ag  Ag23  1  0.875998  0.124002  0.250000  1
  Ag  Ag24  1  0.875998  0.751998  0.250000  1
  Ag  Ag25  1  0.248002  0.124002  0.250000  1
  Ru  Ru26  1  0.333333  0.666667  0.250000  1
  Ru  Ru27  1  0.666667  0.333333  0.750000  1
