# generated using pymatgen
data_NdY6CoSn23Ir5
_symmetry_space_group_name_H-M   'P 1'
_cell_length_a   9.87923400
_cell_length_b   9.85566394
_cell_length_c   10.09511655
_cell_angle_alpha   90.05070322
_cell_angle_beta   90.00000000
_cell_angle_gamma   120.07914930
_symmetry_Int_Tables_number   1
_chemical_formula_structural   NdY6CoSn23Ir5
_chemical_formula_sum   'Nd1 Y6 Co1 Sn23 Ir5'
_cell_volume   850.55807415
_cell_formula_units_Z   1
loop_
 _symmetry_equiv_pos_site_id
 _symmetry_equiv_pos_as_xyz
  1  'x, y, z'
loop_
 _atom_site_type_symbol
 _atom_site_label
 _atom_site_symmetry_multiplicity
 _atom_site_fract_x
 _atom_site_fract_y
 _atom_site_fract_z
 _atom_site_occupancy
  Nd  Nd0  1  0.002867  0.005734  0.996023  1
  Y  Y1  1  0.041238  0.520129  0.309153  1
  Y  Y2  1  0.478957  0.957914  0.307850  1
  Y  Y3  1  0.478891  0.520129  0.309153  1
  Y  Y4  1  0.958844  0.479658  0.691623  1
  Y  Y5  1  0.520432  0.040865  0.692677  1
  Y  Y6  1  0.520815  0.479658  0.691623  1
  Co  Co7  1  0.830784  0.661568  0.198651  1
  Sn  Sn8  1  0.999944  0.999887  0.499491  1
  Sn  Sn9  1  0.110818  0.876184  0.277737  1
  Sn  Sn10  1  0.765365  0.876184  0.277737  1
  Sn  Sn11  1  0.118413  0.236827  0.284474  1
  Sn  Sn12  1  0.880163  0.117417  0.715617  1
  Sn  Sn13  1  0.237256  0.117417  0.715617  1
  Sn  Sn14  1  0.880515  0.761030  0.715684  1
  Sn  Sn15  1  0.352704  0.999639  0.000329  1
  Sn  Sn16  1  0.655076  0.649097  0.005242  1
  Sn  Sn17  1  0.000176  0.355606  0.000871  1
  Sn  Sn18  1  0.355431  0.355606  0.000871  1
  Sn  Sn19  1  0.994021  0.649097  0.005242  1
  Sn  Sn20  1  0.646935  0.999639  0.000329  1
  Sn  Sn21  1  0.781460  0.562919  0.450497  1
  Sn  Sn22  1  0.778662  0.220029  0.456973  1
  Sn  Sn23  1  0.441367  0.220029  0.456973  1
  Sn  Sn24  1  0.221143  0.442286  0.543335  1
  Sn  Sn25  1  0.220910  0.780445  0.543116  1
  Sn  Sn26  1  0.559536  0.780445  0.543116  1
  Sn  Sn27  1  0.669088  0.338176  0.176724  1
  Sn  Sn28  1  0.333077  0.666154  0.826272  1
  Sn  Sn29  1  0.667372  0.334742  0.882910  1
  Sn  Sn30  1  0.332455  0.664912  0.118757  1
  Ir  Ir31  1  0.167332  0.828668  0.802125  1
  Ir  Ir32  1  0.661336  0.828668  0.802125  1
  Ir  Ir33  1  0.168545  0.337090  0.801244  1
  Ir  Ir34  1  0.830370  0.168074  0.199918  1
  Ir  Ir35  1  0.337704  0.168074  0.199918  1
