# generated using pymatgen
data_K6DyFeF12
_symmetry_space_group_name_H-M   'P 1'
_cell_length_a   6.51811184
_cell_length_b   6.26483498
_cell_length_c   10.97266745
_cell_angle_alpha   55.47368735
_cell_angle_beta   89.54753612
_cell_angle_gamma   90.18188490
_symmetry_Int_Tables_number   1
_chemical_formula_structural   K6DyFeF12
_chemical_formula_sum   'K6 Dy1 Fe1 F12'
_cell_volume   369.12032981
_cell_formula_units_Z   1
loop_
 _symmetry_equiv_pos_site_id
 _symmetry_equiv_pos_as_xyz
  1  'x, y, z'
loop_
 _atom_site_type_symbol
 _atom_site_label
 _atom_site_symmetry_multiplicity
 _atom_site_fract_x
 _atom_site_fract_y
 _atom_site_fract_z
 _atom_site_occupancy
  K  K0  1  0.500000  0.500000  0.000000  1
  K  K1  1  0.000000  0.500000  0.500000  1
  K  K2  1  0.055371  0.748677  0.735225  1
  K  K3  1  0.944629  0.251323  0.264775  1
  K  K4  1  0.549089  0.286851  0.728031  1
  K  K5  1  0.450911  0.713149  0.271969  1
  Dy  Dy6  1  0.000000  0.000000  0.000000  1
  Fe  Fe7  1  0.500000  0.000000  0.500000  1
  F  F8  1  0.747209  0.778878  0.555088  1
  F  F9  1  0.252791  0.221122  0.444912  1
  F  F10  1  0.278369  0.241836  0.920759  1
  F  F11  1  0.721631  0.758164  0.079241  1
  F  F12  1  0.456041  0.889888  0.705511  1
  F  F13  1  0.543959  0.110112  0.294489  1
  F  F14  1  0.943785  0.114236  0.773306  1
  F  F15  1  0.056215  0.885764  0.226694  1
  F  F16  1  0.325674  0.708037  0.538513  1
  F  F17  1  0.674326  0.291963  0.461487  1
  F  F18  1  0.829472  0.341894  0.945201  1
  F  F19  1  0.170528  0.658106  0.054799  1
