# generated using pymatgen
data_Hf2Ta2SiP
_symmetry_space_group_name_H-M   'P 1'
_cell_length_a   3.56322500
_cell_length_b   6.93104600
_cell_length_c   8.38402700
_cell_angle_alpha   90.00000000
_cell_angle_beta   90.00000000
_cell_angle_gamma   90.00000000
_symmetry_Int_Tables_number   1
_chemical_formula_structural   Hf2Ta2SiP
_chemical_formula_sum   'Hf4 Ta4 Si2 P2'
_cell_volume   207.05927841
_cell_formula_units_Z   2
loop_
 _symmetry_equiv_pos_site_id
 _symmetry_equiv_pos_as_xyz
  1  'x, y, z'
loop_
 _atom_site_type_symbol
 _atom_site_label
 _atom_site_symmetry_multiplicity
 _atom_site_fract_x
 _atom_site_fract_y
 _atom_site_fract_z
 _atom_site_occupancy
  Hf  Hf0  1  0.250000  0.035881  0.668823  1
  Hf  Hf1  1  0.250000  0.535881  0.831177  1
  Hf  Hf2  1  0.750000  0.462745  0.165553  1
  Hf  Hf3  1  0.750000  0.962745  0.334447  1
  Ta  Ta4  1  0.750000  0.861974  0.936406  1
  Ta  Ta5  1  0.250000  0.638152  0.443521  1
  Ta  Ta6  1  0.750000  0.361974  0.563594  1
  Ta  Ta7  1  0.250000  0.138152  0.056479  1
  Si  Si8  1  0.250000  0.260355  0.357166  1
  Si  Si9  1  0.250000  0.760355  0.142834  1
  P  P10  1  0.750000  0.740893  0.641929  1
  P  P11  1  0.750000  0.240893  0.858071  1
