# generated using pymatgen
data_LaTbTi2P7Rh9W
_symmetry_space_group_name_H-M   'P 1'
_cell_length_a   3.96542532
_cell_length_b   9.57053175
_cell_length_c   9.57031700
_cell_angle_alpha   120.01018397
_cell_angle_beta   90.04675644
_cell_angle_gamma   89.92242309
_symmetry_Int_Tables_number   1
_chemical_formula_structural   LaTbTi2P7Rh9W
_chemical_formula_sum   'La1 Tb1 Ti2 P7 Rh9 W1'
_cell_volume   314.51243320
_cell_formula_units_Z   1
loop_
 _symmetry_equiv_pos_site_id
 _symmetry_equiv_pos_as_xyz
  1  'x, y, z'
loop_
 _atom_site_type_symbol
 _atom_site_label
 _atom_site_symmetry_multiplicity
 _atom_site_fract_x
 _atom_site_fract_y
 _atom_site_fract_z
 _atom_site_occupancy
  La  La0  1  0.261905  0.665826  0.333434  1
  Tb  Tb1  1  0.761891  0.333304  0.667086  1
  Ti  Ti2  1  0.761858  0.095852  0.878746  1
  Ti  Ti3  1  0.761945  0.118637  0.218336  1
  P  P4  1  0.262012  0.996889  0.999129  1
  P  P5  1  0.761769  0.883746  0.594105  1
  P  P6  1  0.762133  0.401903  0.287975  1
  P  P7  1  0.761877  0.713361  0.112602  1
  P  P8  1  0.261775  0.117124  0.415322  1
  P  P9  1  0.261822  0.586775  0.702859  1
  P  P10  1  0.261988  0.299708  0.883313  1
  Rh  Rh11  1  0.261843  0.885062  0.160094  1
  Rh  Rh12  1  0.261562  0.839342  0.724462  1
  Rh  Rh13  1  0.262179  0.272472  0.112799  1
  Rh  Rh14  1  0.761800  0.610587  0.564980  1
  Rh  Rh15  1  0.761897  0.435835  0.044941  1
  Rh  Rh16  1  0.762002  0.954728  0.390053  1
  Rh  Rh17  1  0.261981  0.368705  0.438566  1
  Rh  Rh18  1  0.261812  0.564907  0.929979  1
  Rh  Rh19  1  0.262148  0.070070  0.632652  1
  W  W20  1  0.761800  0.785170  0.908566  1
