# generated using pymatgen
data_Y4Al18(CoNi)3
_symmetry_space_group_name_H-M   'P 1'
_cell_length_a   7.40611499
_cell_length_b   7.40611373
_cell_length_c   9.27526700
_cell_angle_alpha   90.00893108
_cell_angle_beta   90.00893003
_cell_angle_gamma   119.30993703
_symmetry_Int_Tables_number   1
_chemical_formula_structural   Y4Al18(CoNi)3
_chemical_formula_sum   'Y4 Al18 Co3 Ni3'
_cell_volume   443.62492083
_cell_formula_units_Z   1
loop_
 _symmetry_equiv_pos_site_id
 _symmetry_equiv_pos_as_xyz
  1  'x, y, z'
loop_
 _atom_site_type_symbol
 _atom_site_label
 _atom_site_symmetry_multiplicity
 _atom_site_fract_x
 _atom_site_fract_y
 _atom_site_fract_z
 _atom_site_occupancy
  Y  Y0  1  0.005996  0.328647  0.750175  1
  Y  Y1  1  0.329491  0.007038  0.749988  1
  Y  Y2  1  0.992962  0.670509  0.250012  1
  Y  Y3  1  0.671353  0.994004  0.249825  1
  Al  Al4  1  0.664831  0.000111  0.928602  1
  Al  Al5  1  0.002520  0.667961  0.572450  1
  Al  Al6  1  0.123786  0.123110  0.249445  1
  Al  Al7  1  0.668241  0.670752  0.042839  1
  Al  Al8  1  0.330226  0.330185  0.545293  1
  Al  Al9  1  0.329248  0.331759  0.957161  1
  Al  Al10  1  0.669815  0.669774  0.454707  1
  Al  Al11  1  0.331672  0.994173  0.071368  1
  Al  Al12  1  0.997981  0.331744  0.427180  1
  Al  Al13  1  0.340880  0.553669  0.246852  1
  Al  Al14  1  0.999889  0.335169  0.071398  1
  Al  Al15  1  0.551546  0.340277  0.249520  1
  Al  Al16  1  0.659723  0.448454  0.750480  1
  Al  Al17  1  0.876890  0.876214  0.750555  1
  Al  Al18  1  0.005827  0.668328  0.928632  1
  Al  Al19  1  0.668256  0.002019  0.572820  1
  Al  Al20  1  0.332039  0.997480  0.427550  1
  Al  Al21  1  0.446331  0.659120  0.753148  1
  Co  Co22  1  0.999759  0.000241  0.000000  1
  Co  Co23  1  0.000205  0.999795  0.500000  1
  Co  Co24  1  0.328975  0.671025  0.000000  1
  Ni  Ni25  1  0.671248  0.328752  0.500000  1
  Ni  Ni26  1  0.671169  0.328831  0.000000  1
  Ni  Ni27  1  0.329143  0.670857  0.500000  1
