# generated using pymatgen
data_Ti8Nb2Ge6As
_symmetry_space_group_name_H-M   'P 1'
_cell_length_a   7.78364800
_cell_length_b   7.78364808
_cell_length_c   5.27183000
_cell_angle_alpha   90.00000000
_cell_angle_beta   90.00000000
_cell_angle_gamma   119.99999964
_symmetry_Int_Tables_number   1
_chemical_formula_structural   Ti8Nb2Ge6As
_chemical_formula_sum   'Ti8 Nb2 Ge6 As1'
_cell_volume   276.60397082
_cell_formula_units_Z   1
loop_
 _symmetry_equiv_pos_site_id
 _symmetry_equiv_pos_as_xyz
  1  'x, y, z'
loop_
 _atom_site_type_symbol
 _atom_site_label
 _atom_site_symmetry_multiplicity
 _atom_site_fract_x
 _atom_site_fract_y
 _atom_site_fract_z
 _atom_site_occupancy
  Ti  Ti0  1  0.333333  0.666667  0.000000  1
  Ti  Ti1  1  0.666667  0.333333  0.000000  1
  Ti  Ti2  1  0.735425  0.735425  0.238302  1
  Ti  Ti3  1  0.264575  0.000000  0.238302  1
  Ti  Ti4  1  0.000000  0.264575  0.238302  1
  Ti  Ti5  1  0.264575  0.264575  0.761698  1
  Ti  Ti6  1  0.735425  0.000000  0.761698  1
  Ti  Ti7  1  0.000000  0.735425  0.761698  1
  Nb  Nb8  1  0.666667  0.333333  0.500000  1
  Nb  Nb9  1  0.333333  0.666667  0.500000  1
  Ge  Ge10  1  0.388619  0.388619  0.244834  1
  Ge  Ge11  1  0.611381  0.000000  0.244834  1
  Ge  Ge12  1  0.000000  0.611381  0.244834  1
  Ge  Ge13  1  0.611381  0.611381  0.755166  1
  Ge  Ge14  1  0.388619  0.000000  0.755166  1
  Ge  Ge15  1  0.000000  0.388619  0.755166  1
  As  As16  1  0.000000  0.000000  0.500000  1
