# generated using pymatgen
data_Y2Al2PdRu
_symmetry_space_group_name_H-M   'P 1'
_cell_length_a   4.26663600
_cell_length_b   6.96957500
_cell_length_c   7.96479300
_cell_angle_alpha   90.00000000
_cell_angle_beta   90.00000000
_cell_angle_gamma   90.00000000
_symmetry_Int_Tables_number   1
_chemical_formula_structural   Y2Al2PdRu
_chemical_formula_sum   'Y4 Al4 Pd2 Ru2'
_cell_volume   236.84617893
_cell_formula_units_Z   2
loop_
 _symmetry_equiv_pos_site_id
 _symmetry_equiv_pos_as_xyz
  1  'x, y, z'
loop_
 _atom_site_type_symbol
 _atom_site_label
 _atom_site_symmetry_multiplicity
 _atom_site_fract_x
 _atom_site_fract_y
 _atom_site_fract_z
 _atom_site_occupancy
  Y  Y0  1  0.250000  0.033253  0.323306  1
  Y  Y1  1  0.250000  0.533253  0.176694  1
  Y  Y2  1  0.750000  0.974556  0.685407  1
  Y  Y3  1  0.750000  0.474556  0.814593  1
  Al  Al4  1  0.250000  0.140840  0.934773  1
  Al  Al5  1  0.250000  0.640840  0.565227  1
  Al  Al6  1  0.750000  0.853700  0.057542  1
  Al  Al7  1  0.750000  0.353700  0.442458  1
  Pd  Pd8  1  0.750000  0.726549  0.379015  1
  Pd  Pd9  1  0.750000  0.226549  0.120985  1
  Ru  Ru10  1  0.250000  0.271103  0.616654  1
  Ru  Ru11  1  0.250000  0.771103  0.883346  1
