# generated using pymatgen
data_Tb5YEr14(Cd3Ru)2
_symmetry_space_group_name_H-M   'P 1'
_cell_length_a   9.55704526
_cell_length_b   9.54852816
_cell_length_c   9.78379000
_cell_angle_alpha   90.00000000
_cell_angle_beta   90.00000000
_cell_angle_gamma   119.97052736
_symmetry_Int_Tables_number   1
_chemical_formula_structural   Tb5YEr14(Cd3Ru)2
_chemical_formula_sum   'Tb5 Y1 Er14 Cd6 Ru2'
_cell_volume   773.44018554
_cell_formula_units_Z   1
loop_
 _symmetry_equiv_pos_site_id
 _symmetry_equiv_pos_as_xyz
  1  'x, y, z'
loop_
 _atom_site_type_symbol
 _atom_site_label
 _atom_site_symmetry_multiplicity
 _atom_site_fract_x
 _atom_site_fract_y
 _atom_site_fract_z
 _atom_site_occupancy
  Tb  Tb0  1  0.540791  0.459245  0.250000  1
  Tb  Tb1  1  0.540791  0.081547  0.250000  1
  Tb  Tb2  1  0.918502  0.459252  0.250000  1
  Tb  Tb3  1  0.459176  0.540688  0.750000  1
  Tb  Tb4  1  0.459176  0.918487  0.750000  1
  Y  Y5  1  0.081596  0.540798  0.750000  1
  Er  Er6  1  0.999940  0.999970  0.500038  1
  Er  Er7  1  0.999940  0.999970  0.999962  1
  Er  Er8  1  0.209919  0.790114  0.439910  1
  Er  Er9  1  0.209919  0.419807  0.439910  1
  Er  Er10  1  0.580178  0.790090  0.439970  1
  Er  Er11  1  0.790081  0.209936  0.560070  1
  Er  Er12  1  0.790081  0.580143  0.560070  1
  Er  Er13  1  0.419729  0.209863  0.560161  1
  Er  Er14  1  0.790081  0.209936  0.939930  1
  Er  Er15  1  0.790081  0.580143  0.939930  1
  Er  Er16  1  0.419729  0.209863  0.939839  1
  Er  Er17  1  0.209919  0.790114  0.060090  1
  Er  Er18  1  0.209919  0.419807  0.060090  1
  Er  Er19  1  0.580178  0.790090  0.060030  1
  Cd  Cd20  1  0.885843  0.114109  0.250000  1
  Cd  Cd21  1  0.885843  0.771736  0.250000  1
  Cd  Cd22  1  0.228361  0.114181  0.250000  1
  Cd  Cd23  1  0.114280  0.885928  0.750000  1
  Cd  Cd24  1  0.114280  0.228351  0.750000  1
  Cd  Cd25  1  0.771644  0.885822  0.750000  1
  Ru  Ru26  1  0.333320  0.666661  0.250000  1
  Ru  Ru27  1  0.666702  0.333351  0.750000  1
