# generated using pymatgen
data_La12ZnTc3
_symmetry_space_group_name_H-M   'P 1'
_cell_length_a   6.61447500
_cell_length_b   7.48558940
_cell_length_c   10.07602100
_cell_angle_alpha   90.00000000
_cell_angle_beta   90.00000000
_cell_angle_gamma   90.09998613
_symmetry_Int_Tables_number   1
_chemical_formula_structural   La12ZnTc3
_chemical_formula_sum   'La12 Zn1 Tc3'
_cell_volume   498.89572600
_cell_formula_units_Z   1
loop_
 _symmetry_equiv_pos_site_id
 _symmetry_equiv_pos_as_xyz
  1  'x, y, z'
loop_
 _atom_site_type_symbol
 _atom_site_label
 _atom_site_symmetry_multiplicity
 _atom_site_fract_x
 _atom_site_fract_y
 _atom_site_fract_z
 _atom_site_occupancy
  La  La0  1  0.348184  0.664934  0.064701  1
  La  La1  1  0.167647  0.185335  0.442717  1
  La  La2  1  0.673533  0.328359  0.571241  1
  La  La3  1  0.823878  0.831823  0.928383  1
  La  La4  1  0.673533  0.328359  0.928759  1
  La  La5  1  0.823878  0.831823  0.571617  1
  La  La6  1  0.348184  0.664934  0.435299  1
  La  La7  1  0.167647  0.185335  0.057283  1
  La  La8  1  0.851677  0.524391  0.250000  1
  La  La9  1  0.621991  0.061694  0.250000  1
  La  La10  1  0.146529  0.447882  0.750000  1
  La  La11  1  0.355919  0.946270  0.750000  1
  Zn  Zn12  1  0.059653  0.887953  0.250000  1
  Tc  Tc13  1  0.431838  0.382065  0.250000  1
  Tc  Tc14  1  0.961581  0.111168  0.750000  1
  Tc  Tc15  1  0.544329  0.617673  0.750000  1
