# generated using pymatgen
data_Sc3PaIn2(CoNi)2
_symmetry_space_group_name_H-M   'P 1'
_cell_length_a   7.16669380
_cell_length_b   7.29349582
_cell_length_c   3.40709000
_cell_angle_alpha   90.00000000
_cell_angle_beta   90.00000000
_cell_angle_gamma   93.07779809
_symmetry_Int_Tables_number   1
_chemical_formula_structural   Sc3PaIn2(CoNi)2
_chemical_formula_sum   'Sc3 Pa1 In2 Co2 Ni2'
_cell_volume   177.83256538
_cell_formula_units_Z   1
loop_
 _symmetry_equiv_pos_site_id
 _symmetry_equiv_pos_as_xyz
  1  'x, y, z'
loop_
 _atom_site_type_symbol
 _atom_site_label
 _atom_site_symmetry_multiplicity
 _atom_site_fract_x
 _atom_site_fract_y
 _atom_site_fract_z
 _atom_site_occupancy
  Sc  Sc0  1  0.169991  0.328652  0.500000  1
  Sc  Sc1  1  0.834175  0.666168  0.500000  1
  Sc  Sc2  1  0.327499  0.832892  0.500000  1
  Pa  Pa3  1  0.662746  0.186753  0.500000  1
  In  In4  1  0.011027  0.993739  0.000000  1
  In  In5  1  0.488078  0.519681  0.000000  1
  Co  Co6  1  0.864195  0.348949  0.000000  1
  Co  Co7  1  0.400793  0.132324  0.000000  1
  Ni  Ni8  1  0.630398  0.877152  0.000000  1
  Ni  Ni9  1  0.111098  0.613689  0.000000  1
