# generated using pymatgen
data_Sr2SmUO6
_symmetry_space_group_name_H-M   'P 1'
_cell_length_a   6.01436429
_cell_length_b   6.19601600
_cell_length_c   8.62143189
_cell_angle_alpha   90.00000000
_cell_angle_beta   90.04100432
_cell_angle_gamma   90.00000000
_symmetry_Int_Tables_number   1
_chemical_formula_structural   Sr2SmUO6
_chemical_formula_sum   'Sr4 Sm2 U2 O12'
_cell_volume   321.27841684
_cell_formula_units_Z   2
loop_
 _symmetry_equiv_pos_site_id
 _symmetry_equiv_pos_as_xyz
  1  'x, y, z'
loop_
 _atom_site_type_symbol
 _atom_site_label
 _atom_site_symmetry_multiplicity
 _atom_site_fract_x
 _atom_site_fract_y
 _atom_site_fract_z
 _atom_site_occupancy
  Sr  Sr0  1  0.987482  0.048165  0.251811  1
  Sr  Sr1  1  0.512519  0.548166  0.248189  1
  Sr  Sr2  1  0.012520  0.951835  0.748189  1
  Sr  Sr3  1  0.487481  0.451833  0.751811  1
  Sm  Sm4  1  0.000001  0.500000  0.500000  1
  Sm  Sm5  1  0.499999  0.000000  0.000000  1
  U  U6  1  0.500000  0.000000  0.500000  1
  U  U7  1  0.000000  0.500000  0.000000  1
  O  O8  1  0.189393  0.211578  0.940440  1
  O  O9  1  0.310608  0.711576  0.559560  1
  O  O10  1  0.810609  0.788423  0.059561  1
  O  O11  1  0.689392  0.288423  0.440440  1
  O  O12  1  0.710552  0.309087  0.052664  1
  O  O13  1  0.789447  0.809089  0.447335  1
  O  O14  1  0.289447  0.690912  0.947335  1
  O  O15  1  0.210553  0.190912  0.552664  1
  O  O16  1  0.106357  0.458634  0.239790  1
  O  O17  1  0.393641  0.958636  0.260209  1
  O  O18  1  0.893641  0.541365  0.760209  1
  O  O19  1  0.606357  0.041366  0.739791  1
