# generated using pymatgen
data_Y3Co2P6Ir7
_symmetry_space_group_name_H-M   'P 1'
_cell_length_a   11.05169900
_cell_length_b   3.89672700
_cell_length_c   12.73454200
_cell_angle_alpha   90.00000000
_cell_angle_beta   90.00000000
_cell_angle_gamma   90.00000000
_symmetry_Int_Tables_number   1
_chemical_formula_structural   Y3Co2P6Ir7
_chemical_formula_sum   'Y6 Co4 P12 Ir14'
_cell_volume   548.41883130
_cell_formula_units_Z   2
loop_
 _symmetry_equiv_pos_site_id
 _symmetry_equiv_pos_as_xyz
  1  'x, y, z'
loop_
 _atom_site_type_symbol
 _atom_site_label
 _atom_site_symmetry_multiplicity
 _atom_site_fract_x
 _atom_site_fract_y
 _atom_site_fract_z
 _atom_site_occupancy
  Y  Y0  1  0.065090  0.750001  0.198589  1
  Y  Y1  1  0.434911  0.750001  0.198589  1
  Y  Y2  1  0.250000  0.750001  0.477735  1
  Y  Y3  1  0.750000  0.250000  0.522018  1
  Y  Y4  1  0.570955  0.250000  0.801325  1
  Y  Y5  1  0.929045  0.250000  0.801325  1
  Co  Co6  1  0.250000  0.750001  0.013096  1
  Co  Co7  1  0.750000  0.250000  0.984280  1
  Co  Co8  1  0.590777  0.750001  0.996688  1
  Co  Co9  1  0.909222  0.750001  0.996688  1
  P  P10  1  0.601148  0.250000  0.099412  1
  P  P11  1  0.898852  0.250000  0.099412  1
  P  P12  1  0.250000  0.250000  0.116582  1
  P  P13  1  0.750000  0.750001  0.353172  1
  P  P14  1  0.065825  0.250000  0.379724  1
  P  P15  1  0.434176  0.250000  0.379724  1
  P  P16  1  0.566253  0.750001  0.620476  1
  P  P17  1  0.933747  0.750001  0.620476  1
  P  P18  1  0.250000  0.250000  0.646258  1
  P  P19  1  0.750000  0.750001  0.888946  1
  P  P20  1  0.090367  0.750001  0.898497  1
  P  P21  1  0.409633  0.750001  0.898497  1
  Ir  Ir22  1  0.082994  0.250000  0.003994  1
  Ir  Ir23  1  0.417007  0.250000  0.003994  1
  Ir  Ir24  1  0.750000  0.750001  0.168880  1
  Ir  Ir25  1  0.621582  0.250000  0.283218  1
  Ir  Ir26  1  0.878417  0.250000  0.283218  1
  Ir  Ir27  1  0.250000  0.250000  0.295318  1
  Ir  Ir28  1  0.545421  0.750001  0.429337  1
  Ir  Ir29  1  0.954579  0.750001  0.429337  1
  Ir  Ir30  1  0.043729  0.250000  0.571385  1
  Ir  Ir31  1  0.456271  0.250000  0.571385  1
  Ir  Ir32  1  0.750000  0.750001  0.705927  1
  Ir  Ir33  1  0.120665  0.750001  0.716934  1
  Ir  Ir34  1  0.379336  0.750001  0.716934  1
  Ir  Ir35  1  0.250000  0.250000  0.828630  1
