# generated using pymatgen
data_Li2Ho3ZrIr3
_symmetry_space_group_name_H-M   'P 1'
_cell_length_a   7.28084420
_cell_length_b   7.28084264
_cell_length_c   3.98992000
_cell_angle_alpha   90.00000000
_cell_angle_beta   90.00000000
_cell_angle_gamma   120.23906499
_symmetry_Int_Tables_number   1
_chemical_formula_structural   Li2Ho3ZrIr3
_chemical_formula_sum   'Li2 Ho3 Zr1 Ir3'
_cell_volume   182.72877736
_cell_formula_units_Z   1
loop_
 _symmetry_equiv_pos_site_id
 _symmetry_equiv_pos_as_xyz
  1  'x, y, z'
loop_
 _atom_site_type_symbol
 _atom_site_label
 _atom_site_symmetry_multiplicity
 _atom_site_fract_x
 _atom_site_fract_y
 _atom_site_fract_z
 _atom_site_occupancy
  Li  Li0  1  0.244769  0.996999  0.000000  1
  Li  Li1  1  0.996999  0.244769  0.000000  1
  Ho  Ho2  1  0.390294  0.390294  0.500000  1
  Ho  Ho3  1  0.582884  0.012283  0.500000  1
  Ho  Ho4  1  0.012283  0.582884  0.500000  1
  Zr  Zr5  1  0.755833  0.755833  0.000000  1
  Ir  Ir6  1  0.675327  0.354481  0.000000  1
  Ir  Ir7  1  0.354481  0.675327  0.000000  1
  Ir  Ir8  1  0.987130  0.987130  0.500000  1
