# generated using pymatgen
data_Cs12Na8Hf(ZrAs4)3
_symmetry_space_group_name_H-M   'P 1'
_cell_length_a   11.17747627
_cell_length_b   11.17747697
_cell_length_c   16.88686209
_cell_angle_alpha   89.99622931
_cell_angle_beta   89.99623169
_cell_angle_gamma   142.81646592
_symmetry_Int_Tables_number   1
_chemical_formula_structural   Cs12Na8Hf(ZrAs4)3
_chemical_formula_sum   'Cs12 Na8 Hf1 Zr3 As12'
_cell_volume   1275.08611019
_cell_formula_units_Z   1
loop_
 _symmetry_equiv_pos_site_id
 _symmetry_equiv_pos_as_xyz
  1  'x, y, z'
loop_
 _atom_site_type_symbol
 _atom_site_label
 _atom_site_symmetry_multiplicity
 _atom_site_fract_x
 _atom_site_fract_y
 _atom_site_fract_z
 _atom_site_occupancy
  Cs  Cs0  1  0.607020  0.946595  0.824330  1
  Cs  Cs1  1  0.281867  0.281634  0.316096  1
  Cs  Cs2  1  0.218358  0.218295  0.816001  1
  Cs  Cs3  1  0.718366  0.718133  0.683904  1
  Cs  Cs4  1  0.446389  0.107130  0.675240  1
  Cs  Cs5  1  0.892870  0.553611  0.324760  1
  Cs  Cs6  1  0.053405  0.392980  0.175670  1
  Cs  Cs7  1  0.392884  0.053391  0.175781  1
  Cs  Cs8  1  0.553499  0.893058  0.324605  1
  Cs  Cs9  1  0.106942  0.446501  0.675395  1
  Cs  Cs10  1  0.946609  0.607116  0.824219  1
  Cs  Cs11  1  0.781705  0.781642  0.183999  1
  Na  Na12  1  0.080580  0.919420  0.000000  1
  Na  Na13  1  0.580790  0.419210  0.500000  1
  Na  Na14  1  0.919425  0.080575  0.000000  1
  Na  Na15  1  0.754478  0.245522  0.000000  1
  Na  Na16  1  0.745342  0.254658  0.500000  1
  Na  Na17  1  0.245520  0.754480  0.000000  1
  Na  Na18  1  0.254024  0.745976  0.500000  1
  Na  Na19  1  0.419600  0.580400  0.500000  1
  Hf  Hf20  1  0.085288  0.914712  0.500000  1
  Zr  Zr21  1  0.414203  0.585797  0.000000  1
  Zr  Zr22  1  0.914639  0.085361  0.500000  1
  Zr  Zr23  1  0.585810  0.414190  0.000000  1
  As  As24  1  0.059431  0.370936  0.408857  1
  As  As25  1  0.871196  0.559309  0.091296  1
  As  As26  1  0.440691  0.128804  0.908704  1
  As  As27  1  0.629064  0.940569  0.591143  1
  As  As28  1  0.942136  0.631954  0.590598  1
  As  As29  1  0.128869  0.440734  0.908635  1
  As  As30  1  0.559266  0.871131  0.091365  1
  As  As31  1  0.368046  0.057864  0.409402  1
  As  As32  1  0.199050  0.197355  0.583040  1
  As  As33  1  0.698773  0.698782  0.916693  1
  As  As34  1  0.301218  0.301227  0.083307  1
  As  As35  1  0.802645  0.800950  0.416960  1
