# generated using pymatgen
data_Ti5Nb(GaPt)6
_symmetry_space_group_name_H-M   'P 1'
_cell_length_a   7.02203248
_cell_length_b   7.03295296
_cell_length_c   6.82674900
_cell_angle_alpha   90.00000000
_cell_angle_beta   90.00000000
_cell_angle_gamma   119.89435726
_symmetry_Int_Tables_number   1
_chemical_formula_structural   Ti5Nb(GaPt)6
_chemical_formula_sum   'Ti5 Nb1 Ga6 Pt6'
_cell_volume   292.28494585
_cell_formula_units_Z   1
loop_
 _symmetry_equiv_pos_site_id
 _symmetry_equiv_pos_as_xyz
  1  'x, y, z'
loop_
 _atom_site_type_symbol
 _atom_site_label
 _atom_site_symmetry_multiplicity
 _atom_site_fract_x
 _atom_site_fract_y
 _atom_site_fract_z
 _atom_site_occupancy
  Ti  Ti0  1  0.410080  0.380383  0.250000  1
  Ti  Ti1  1  0.591768  0.972933  0.750000  1
  Ti  Ti2  1  0.380987  0.410313  0.750000  1
  Ti  Ti3  1  0.027023  0.618366  0.750000  1
  Ti  Ti4  1  0.972134  0.590249  0.250000  1
  Nb  Nb5  1  0.621129  0.032410  0.250000  1
  Ga  Ga6  1  0.274461  0.999806  0.998843  1
  Ga  Ga7  1  0.274461  0.999806  0.501157  1
  Ga  Ga8  1  0.000801  0.274704  0.501405  1
  Ga  Ga9  1  0.000801  0.274704  0.998595  1
  Ga  Ga10  1  0.725000  0.724821  0.999819  1
  Ga  Ga11  1  0.725000  0.724821  0.500181  1
  Pt  Pt12  1  0.666739  0.334727  0.539997  1
  Pt  Pt13  1  0.999608  0.999211  0.750000  1
  Pt  Pt14  1  0.666739  0.334727  0.960003  1
  Pt  Pt15  1  0.330882  0.663956  0.037078  1
  Pt  Pt16  1  0.330882  0.663956  0.462922  1
  Pt  Pt17  1  0.001505  0.000109  0.250000  1
