# generated using pymatgen
data_Sc4Sn2B4Ir3Rh7
_symmetry_space_group_name_H-M   'P 1'
_cell_length_a   9.38316612
_cell_length_b   9.40730312
_cell_length_c   3.22516900
_cell_angle_alpha   90.00000000
_cell_angle_beta   90.00000000
_cell_angle_gamma   89.94401059
_symmetry_Int_Tables_number   1
_chemical_formula_structural   Sc4Sn2B4Ir3Rh7
_chemical_formula_sum   'Sc4 Sn2 B4 Ir3 Rh7'
_cell_volume   284.68646037
_cell_formula_units_Z   1
loop_
 _symmetry_equiv_pos_site_id
 _symmetry_equiv_pos_as_xyz
  1  'x, y, z'
loop_
 _atom_site_type_symbol
 _atom_site_label
 _atom_site_symmetry_multiplicity
 _atom_site_fract_x
 _atom_site_fract_y
 _atom_site_fract_z
 _atom_site_occupancy
  Sc  Sc0  1  0.825029  0.324340  0.000000  1
  Sc  Sc1  1  0.324659  0.174596  0.000000  1
  Sc  Sc2  1  0.674810  0.824862  0.000000  1
  Sc  Sc3  1  0.175450  0.675012  0.000000  1
  Sn  Sn4  1  0.999083  0.997562  0.000000  1
  Sn  Sn5  1  0.500090  0.500291  0.000000  1
  B  B6  1  0.620113  0.120405  0.000000  1
  B  B7  1  0.119852  0.377460  0.000000  1
  B  B8  1  0.879897  0.620346  0.000000  1
  B  B9  1  0.380005  0.879765  0.000000  1
  Ir  Ir10  1  0.072653  0.223511  0.500000  1
  Ir  Ir11  1  0.500630  0.999784  0.500000  1
  Ir  Ir12  1  0.999545  0.501251  0.500000  1
  Rh  Rh13  1  0.222115  0.928413  0.500000  1
  Rh  Rh14  1  0.778351  0.072794  0.500000  1
  Rh  Rh15  1  0.927328  0.777962  0.500000  1
  Rh  Rh16  1  0.427362  0.722305  0.500000  1
  Rh  Rh17  1  0.572436  0.278014  0.500000  1
  Rh  Rh18  1  0.721577  0.572599  0.500000  1
  Rh  Rh19  1  0.279015  0.428727  0.500000  1
