# generated using pymatgen
data_PrHfZr2(Al3Rh)6
_symmetry_space_group_name_H-M   'P 1'
_cell_length_a   7.51923141
_cell_length_b   7.50463133
_cell_length_c   9.36404300
_cell_angle_alpha   90.00000000
_cell_angle_beta   90.00000000
_cell_angle_gamma   119.66893545
_symmetry_Int_Tables_number   1
_chemical_formula_structural   PrHfZr2(Al3Rh)6
_chemical_formula_sum   'Pr1 Hf1 Zr2 Al18 Rh6'
_cell_volume   459.13036561
_cell_formula_units_Z   1
loop_
 _symmetry_equiv_pos_site_id
 _symmetry_equiv_pos_as_xyz
  1  'x, y, z'
loop_
 _atom_site_type_symbol
 _atom_site_label
 _atom_site_symmetry_multiplicity
 _atom_site_fract_x
 _atom_site_fract_y
 _atom_site_fract_z
 _atom_site_occupancy
  Pr  Pr0  1  0.329452  0.006841  0.250000  1
  Hf  Hf1  1  0.993714  0.671906  0.750000  1
  Zr  Zr2  1  0.005914  0.329703  0.250000  1
  Zr  Zr3  1  0.671895  0.994354  0.750000  1
  Al  Al4  1  0.120612  0.122680  0.750000  1
  Al  Al5  1  0.868953  0.875451  0.250000  1
  Al  Al6  1  0.996490  0.334827  0.577997  1
  Al  Al7  1  0.998467  0.660932  0.429582  1
  Al  Al8  1  0.998467  0.660932  0.070418  1
  Al  Al9  1  0.334970  0.996964  0.916050  1
  Al  Al10  1  0.996490  0.334827  0.922003  1
  Al  Al11  1  0.669803  0.002331  0.070403  1
  Al  Al12  1  0.669803  0.002331  0.429597  1
  Al  Al13  1  0.334970  0.996964  0.583950  1
  Al  Al14  1  0.331282  0.335211  0.048358  1
  Al  Al15  1  0.669213  0.669070  0.938994  1
  Al  Al16  1  0.669213  0.669070  0.561006  1
  Al  Al17  1  0.331282  0.335211  0.451642  1
  Al  Al18  1  0.337843  0.554319  0.750000  1
  Al  Al19  1  0.670160  0.454791  0.250000  1
  Al  Al20  1  0.556581  0.340344  0.750000  1
  Al  Al21  1  0.445294  0.652417  0.250000  1
  Rh  Rh22  1  0.673615  0.329092  0.503012  1
  Rh  Rh23  1  0.327905  0.672783  0.503184  1
  Rh  Rh24  1  0.327905  0.672783  0.996816  1
  Rh  Rh25  1  0.673615  0.329092  0.996988  1
  Rh  Rh26  1  0.998046  0.997384  0.503338  1
  Rh  Rh27  1  0.998046  0.997384  0.996662  1
