# generated using pymatgen
data_Er3ThAgIr
_symmetry_space_group_name_H-M   'P 1'
_cell_length_a   9.60245168
_cell_length_b   9.60245231
_cell_length_c   9.60245300
_cell_angle_alpha   60.00000106
_cell_angle_beta   59.99999889
_cell_angle_gamma   60.00000739
_symmetry_Int_Tables_number   1
_chemical_formula_structural   Er3ThAgIr
_chemical_formula_sum   'Er12 Th4 Ag4 Ir4'
_cell_volume   626.08241484
_cell_formula_units_Z   4
loop_
 _symmetry_equiv_pos_site_id
 _symmetry_equiv_pos_as_xyz
  1  'x, y, z'
loop_
 _atom_site_type_symbol
 _atom_site_label
 _atom_site_symmetry_multiplicity
 _atom_site_fract_x
 _atom_site_fract_y
 _atom_site_fract_z
 _atom_site_occupancy
  Er  Er0  1  0.062247  0.437753  0.437753  1
  Er  Er1  1  0.437753  0.062247  0.062247  1
  Er  Er2  1  0.437753  0.062247  0.437753  1
  Er  Er3  1  0.062247  0.437753  0.062247  1
  Er  Er4  1  0.437753  0.437753  0.062247  1
  Er  Er5  1  0.062247  0.062247  0.437753  1
  Er  Er6  1  0.183740  0.816260  0.816260  1
  Er  Er7  1  0.816260  0.183740  0.183740  1
  Er  Er8  1  0.816260  0.183740  0.816260  1
  Er  Er9  1  0.183740  0.816260  0.183740  1
  Er  Er10  1  0.816260  0.816260  0.183740  1
  Er  Er11  1  0.183740  0.183740  0.816260  1
  Th  Th12  1  0.602330  0.602330  0.602330  1
  Th  Th13  1  0.602330  0.602330  0.193011  1
  Th  Th14  1  0.602330  0.193011  0.602330  1
  Th  Th15  1  0.193011  0.602330  0.602330  1
  Ag  Ag16  1  0.834002  0.834002  0.834002  1
  Ag  Ag17  1  0.834002  0.834002  0.497995  1
  Ag  Ag18  1  0.834002  0.497995  0.834002  1
  Ag  Ag19  1  0.497995  0.834002  0.834002  1
  Ir  Ir20  1  0.392809  0.392809  0.392809  1
  Ir  Ir21  1  0.392809  0.392809  0.821571  1
  Ir  Ir22  1  0.392809  0.821571  0.392809  1
  Ir  Ir23  1  0.821571  0.392809  0.392809  1
