# generated using pymatgen
data_Tb3Y6ScCd3Ru
_symmetry_space_group_name_H-M   'P 1'
_cell_length_a   9.57503900
_cell_length_b   9.57503924
_cell_length_c   9.81516900
_cell_angle_alpha   90.00000000
_cell_angle_beta   90.00000000
_cell_angle_gamma   120.00000264
_symmetry_Int_Tables_number   1
_chemical_formula_structural   Tb3Y6ScCd3Ru
_chemical_formula_sum   'Tb6 Y12 Sc2 Cd6 Ru2'
_cell_volume   779.30868412
_cell_formula_units_Z   2
loop_
 _symmetry_equiv_pos_site_id
 _symmetry_equiv_pos_as_xyz
  1  'x, y, z'
loop_
 _atom_site_type_symbol
 _atom_site_label
 _atom_site_symmetry_multiplicity
 _atom_site_fract_x
 _atom_site_fract_y
 _atom_site_fract_z
 _atom_site_occupancy
  Tb  Tb0  1  0.208397  0.791603  0.440583  1
  Tb  Tb1  1  0.208397  0.416795  0.440583  1
  Tb  Tb2  1  0.583205  0.791603  0.440583  1
  Tb  Tb3  1  0.791603  0.208397  0.559417  1
  Tb  Tb4  1  0.791603  0.583205  0.559417  1
  Tb  Tb5  1  0.416795  0.208397  0.559417  1
  Y  Y6  1  0.791804  0.208196  0.940995  1
  Y  Y7  1  0.791804  0.583609  0.940995  1
  Y  Y8  1  0.416391  0.208196  0.940995  1
  Y  Y9  1  0.208196  0.791804  0.059005  1
  Y  Y10  1  0.208196  0.416391  0.059005  1
  Y  Y11  1  0.583609  0.791804  0.059005  1
  Y  Y12  1  0.541038  0.458962  0.250047  1
  Y  Y13  1  0.541038  0.082076  0.250047  1
  Y  Y14  1  0.917924  0.458962  0.250047  1
  Y  Y15  1  0.458962  0.541038  0.749953  1
  Y  Y16  1  0.458962  0.917924  0.749953  1
  Y  Y17  1  0.082076  0.541038  0.749953  1
  Sc  Sc18  1  0.000000  0.000000  0.500000  1
  Sc  Sc19  1  0.000000  0.000000  0.000000  1
  Cd  Cd20  1  0.889190  0.110810  0.249750  1
  Cd  Cd21  1  0.889190  0.778381  0.249750  1
  Cd  Cd22  1  0.221619  0.110810  0.249750  1
  Cd  Cd23  1  0.110810  0.889190  0.750250  1
  Cd  Cd24  1  0.110810  0.221619  0.750250  1
  Cd  Cd25  1  0.778381  0.889190  0.750250  1
  Ru  Ru26  1  0.333333  0.666667  0.251427  1
  Ru  Ru27  1  0.666667  0.333333  0.748573  1
