# generated using pymatgen
data_Tm10Al3GaRu6
_symmetry_space_group_name_H-M   'P 1'
_cell_length_a   8.26128950
_cell_length_b   8.26128892
_cell_length_c   8.26128972
_cell_angle_alpha   109.58274659
_cell_angle_beta   109.58274597
_cell_angle_gamma   109.58274518
_symmetry_Int_Tables_number   1
_chemical_formula_structural   Tm10Al3GaRu6
_chemical_formula_sum   'Tm10 Al3 Ga1 Ru6'
_cell_volume   432.23040915
_cell_formula_units_Z   1
loop_
 _symmetry_equiv_pos_site_id
 _symmetry_equiv_pos_as_xyz
  1  'x, y, z'
loop_
 _atom_site_type_symbol
 _atom_site_label
 _atom_site_symmetry_multiplicity
 _atom_site_fract_x
 _atom_site_fract_y
 _atom_site_fract_z
 _atom_site_occupancy
  Tm  Tm0  1  0.784966  0.784966  0.784966  1
  Tm  Tm1  1  0.320601  0.569677  0.749189  1
  Tm  Tm2  1  0.749189  0.320601  0.569677  1
  Tm  Tm3  1  0.569677  0.749189  0.320601  1
  Tm  Tm4  1  0.713223  0.499264  0.000288  1
  Tm  Tm5  1  0.000288  0.713223  0.499264  1
  Tm  Tm6  1  0.499264  0.000288  0.713223  1
  Tm  Tm7  1  0.250537  0.180110  0.930105  1
  Tm  Tm8  1  0.930105  0.250537  0.180110  1
  Tm  Tm9  1  0.180110  0.930105  0.250537  1
  Al  Al10  1  0.090028  0.500261  0.000043  1
  Al  Al11  1  0.000043  0.090028  0.500261  1
  Al  Al12  1  0.500261  0.000043  0.090028  1
  Ga  Ga13  1  0.411503  0.411503  0.411503  1
  Ru  Ru14  1  0.875696  0.125526  0.750133  1
  Ru  Ru15  1  0.750133  0.875696  0.125526  1
  Ru  Ru16  1  0.125526  0.750133  0.875696  1
  Ru  Ru17  1  0.249279  0.625885  0.373685  1
  Ru  Ru18  1  0.373685  0.249279  0.625885  1
  Ru  Ru19  1  0.625885  0.373685  0.249279  1
