# generated using pymatgen
data_Ac7LaSe12
_symmetry_space_group_name_H-M   'P 1'
_cell_length_a   8.18038849
_cell_length_b   4.46500800
_cell_length_c   17.01658701
_cell_angle_alpha   90.00000000
_cell_angle_beta   90.03957447
_cell_angle_gamma   90.00000000
_symmetry_Int_Tables_number   1
_chemical_formula_structural   Ac7LaSe12
_chemical_formula_sum   'Ac7 La1 Se12'
_cell_volume   621.53920145
_cell_formula_units_Z   1
loop_
 _symmetry_equiv_pos_site_id
 _symmetry_equiv_pos_as_xyz
  1  'x, y, z'
loop_
 _atom_site_type_symbol
 _atom_site_label
 _atom_site_symmetry_multiplicity
 _atom_site_fract_x
 _atom_site_fract_y
 _atom_site_fract_z
 _atom_site_occupancy
  Ac  Ac0  1  0.732274  0.500000  0.043165  1
  Ac  Ac1  1  0.145223  0.000000  0.202469  1
  Ac  Ac2  1  0.643962  0.000000  0.295214  1
  Ac  Ac3  1  0.233913  0.500000  0.456238  1
  Ac  Ac4  1  0.765966  0.000000  0.543839  1
  Ac  Ac5  1  0.355836  0.500000  0.705500  1
  Ac  Ac6  1  0.857330  0.500000  0.796146  1
  La  La7  1  0.264697  0.000000  0.956395  1
  Se  Se8  1  0.131448  0.500000  0.063264  1
  Se  Se9  1  0.505027  0.000000  0.108706  1
  Se  Se10  1  0.855741  0.500000  0.218907  1
  Se  Se11  1  0.354583  0.500000  0.280061  1
  Se  Se12  1  0.007360  0.000000  0.389700  1
  Se  Se13  1  0.627676  0.500000  0.432941  1
  Se  Se14  1  0.372376  0.000000  0.567123  1
  Se  Se15  1  0.992765  0.500000  0.610718  1
  Se  Se16  1  0.645579  0.000000  0.720279  1
  Se  Se17  1  0.147963  0.000000  0.783307  1
  Se  Se18  1  0.483796  0.500000  0.892437  1
  Se  Se19  1  0.876491  0.000000  0.933589  1
