# generated using pymatgen
data_CdBi3IrRh3O14
_symmetry_space_group_name_H-M   'P 1'
_cell_length_a   7.38184226
_cell_length_b   7.23608758
_cell_length_c   7.38325919
_cell_angle_alpha   59.35045709
_cell_angle_beta   60.00634968
_cell_angle_gamma   59.33141162
_symmetry_Int_Tables_number   1
_chemical_formula_structural   CdBi3IrRh3O14
_chemical_formula_sum   'Cd1 Bi3 Ir1 Rh3 O14'
_cell_volume   276.07248714
_cell_formula_units_Z   1
loop_
 _symmetry_equiv_pos_site_id
 _symmetry_equiv_pos_as_xyz
  1  'x, y, z'
loop_
 _atom_site_type_symbol
 _atom_site_label
 _atom_site_symmetry_multiplicity
 _atom_site_fract_x
 _atom_site_fract_y
 _atom_site_fract_z
 _atom_site_occupancy
  Cd  Cd0  1  0.125000  0.625000  0.125000  1
  Bi  Bi1  1  0.125000  0.125000  0.125000  1
  Bi  Bi2  1  0.625000  0.125000  0.125000  1
  Bi  Bi3  1  0.125000  0.125000  0.625000  1
  Ir  Ir4  1  0.625000  0.625000  0.125000  1
  Rh  Rh5  1  0.625000  0.625000  0.625000  1
  Rh  Rh6  1  0.125000  0.625000  0.625000  1
  Rh  Rh7  1  0.625000  0.125000  0.625000  1
  O  O8  1  0.248992  0.253589  0.248427  1
  O  O9  1  0.299012  0.706537  0.293234  1
  O  O10  1  0.956399  0.960274  0.540333  1
  O  O11  1  0.542994  0.960274  0.540333  1
  O  O12  1  0.701217  0.706537  0.293234  1
  O  O13  1  0.957005  0.542581  0.543408  1
  O  O14  1  0.707006  0.289726  0.709667  1
  O  O15  1  0.293601  0.289726  0.709667  1
  O  O16  1  0.706570  0.293609  0.293250  1
  O  O17  1  0.292995  0.707419  0.706592  1
  O  O18  1  0.950988  0.543463  0.956766  1
  O  O19  1  0.548783  0.543463  0.956766  1
  O  O20  1  0.001008  0.996411  0.001573  1
  O  O21  1  0.543430  0.956391  0.956750  1
