# generated using pymatgen
data_YbSnGeO5
_symmetry_space_group_name_H-M   'P 1'
_cell_length_a   5.71532554
_cell_length_b   7.75522384
_cell_length_c   10.29267781
_cell_angle_alpha   75.54515508
_cell_angle_beta   90.70532605
_cell_angle_gamma   72.40562587
_symmetry_Int_Tables_number   1
_chemical_formula_structural   YbSnGeO5
_chemical_formula_sum   'Yb4 Sn4 Ge4 O20'
_cell_volume   419.19392001
_cell_formula_units_Z   4
loop_
 _symmetry_equiv_pos_site_id
 _symmetry_equiv_pos_as_xyz
  1  'x, y, z'
loop_
 _atom_site_type_symbol
 _atom_site_label
 _atom_site_symmetry_multiplicity
 _atom_site_fract_x
 _atom_site_fract_y
 _atom_site_fract_z
 _atom_site_occupancy
  Yb  Yb0  1  0.127302  0.540942  0.209283  1
  Yb  Yb1  1  0.627384  0.040868  0.709215  1
  Yb  Yb2  1  0.872689  0.459088  0.790754  1
  Yb  Yb3  1  0.372657  0.959086  0.290761  1
  Sn  Sn4  1  0.499934  0.500121  0.500012  1
  Sn  Sn5  1  0.250232  0.749863  0.750009  1
  Sn  Sn6  1  0.000036  0.999889  0.999984  1
  Sn  Sn7  1  0.749862  0.250107  0.249950  1
  Ge  Ge8  1  0.607661  0.714182  0.036019  1
  Ge  Ge9  1  0.107699  0.214201  0.535974  1
  Ge  Ge10  1  0.392286  0.285818  0.964035  1
  Ge  Ge11  1  0.892312  0.785837  0.463968  1
  O  O12  1  0.493567  0.418499  0.331339  1
  O  O13  1  0.993590  0.918501  0.831329  1
  O  O14  1  0.506457  0.581506  0.668659  1
  O  O15  1  0.006421  0.081465  0.168686  1
  O  O16  1  0.797008  0.827247  0.096645  1
  O  O17  1  0.297054  0.327238  0.596669  1
  O  O18  1  0.202917  0.172782  0.903366  1
  O  O19  1  0.702953  0.672756  0.403349  1
  O  O20  1  0.793276  0.476207  0.100391  1
  O  O21  1  0.293295  0.976173  0.600376  1
  O  O22  1  0.206727  0.523814  0.899592  1
  O  O23  1  0.706717  0.023812  0.399628  1
  O  O24  1  0.568482  0.758626  0.857432  1
  O  O25  1  0.068427  0.258631  0.357442  1
  O  O26  1  0.431541  0.241388  0.142564  1
  O  O27  1  0.931545  0.741385  0.642568  1
  O  O28  1  0.320321  0.778579  0.105702  1
  O  O29  1  0.820320  0.278592  0.605723  1
  O  O30  1  0.679671  0.221394  0.894286  1
  O  O31  1  0.179657  0.721406  0.394293  1
