# generated using pymatgen
data_OsRh3Pb4O13
_symmetry_space_group_name_H-M   'P 1'
_cell_length_a   7.35700954
_cell_length_b   7.32475095
_cell_length_c   7.32475100
_cell_angle_alpha   60.00000430
_cell_angle_beta   60.14494469
_cell_angle_gamma   60.14493253
_symmetry_Int_Tables_number   1
_chemical_formula_structural   OsRh3Pb4O13
_chemical_formula_sum   'Os1 Rh3 Pb4 O13'
_cell_volume   279.71775082
_cell_formula_units_Z   1
loop_
 _symmetry_equiv_pos_site_id
 _symmetry_equiv_pos_as_xyz
  1  'x, y, z'
loop_
 _atom_site_type_symbol
 _atom_site_label
 _atom_site_symmetry_multiplicity
 _atom_site_fract_x
 _atom_site_fract_y
 _atom_site_fract_z
 _atom_site_occupancy
  Os  Os0  1  0.374331  0.875223  0.875223  1
  Rh  Rh1  1  0.874573  0.375703  0.874861  1
  Rh  Rh2  1  0.874573  0.874861  0.375703  1
  Rh  Rh3  1  0.874573  0.874861  0.874861  1
  Pb  Pb4  1  0.878315  0.373895  0.373895  1
  Pb  Pb5  1  0.373919  0.371926  0.371926  1
  Pb  Pb6  1  0.373919  0.371926  0.882231  1
  Pb  Pb7  1  0.373919  0.882231  0.371926  1
  O  O8  1  0.203625  0.802480  0.802480  1
  O  O9  1  0.203625  0.802480  0.191414  1
  O  O10  1  0.549006  0.944956  0.944956  1
  O  O11  1  0.549006  0.944956  0.561081  1
  O  O12  1  0.959877  0.948451  0.545836  1
  O  O13  1  0.789818  0.796867  0.206657  1
  O  O14  1  0.549006  0.561081  0.944956  1
  O  O15  1  0.789818  0.206657  0.796867  1
  O  O16  1  0.789818  0.206657  0.206657  1
  O  O17  1  0.959877  0.545836  0.948451  1
  O  O18  1  0.959877  0.545836  0.545836  1
  O  O19  1  0.203625  0.191414  0.802480  1
  O  O20  1  0.494897  0.501701  0.501701  1
