# generated using pymatgen
data_AgS27
_symmetry_space_group_name_H-M   'P 1'
_cell_length_a   14.41076791
_cell_length_b   14.41076773
_cell_length_c   14.41076867
_cell_angle_alpha   118.68812088
_cell_angle_beta   118.68812069
_cell_angle_gamma   118.68812027
_symmetry_Int_Tables_number   1
_chemical_formula_structural   AgS27
_chemical_formula_sum   'Ag1 S27'
_cell_volume   884.93813420
_cell_formula_units_Z   1
loop_
 _symmetry_equiv_pos_site_id
 _symmetry_equiv_pos_as_xyz
  1  'x, y, z'
loop_
 _atom_site_type_symbol
 _atom_site_label
 _atom_site_symmetry_multiplicity
 _atom_site_fract_x
 _atom_site_fract_y
 _atom_site_fract_z
 _atom_site_occupancy
  Ag  Ag0  1  0.446456  0.446456  0.446456  1
  S  S1  1  0.021973  0.626074  0.626074  1
  S  S2  1  0.626074  0.626074  0.021973  1
  S  S3  1  0.626074  0.021973  0.626074  1
  S  S4  1  0.243024  0.859676  0.725032  1
  S  S5  1  0.859676  0.725032  0.243024  1
  S  S6  1  0.725032  0.243024  0.859676  1
  S  S7  1  0.859676  0.243024  0.725032  1
  S  S8  1  0.243024  0.725032  0.859676  1
  S  S9  1  0.725032  0.859676  0.243024  1
  S  S10  1  0.098769  0.630757  0.440733  1
  S  S11  1  0.630757  0.440733  0.098769  1
  S  S12  1  0.440733  0.098769  0.630757  1
  S  S13  1  0.630757  0.098769  0.440733  1
  S  S14  1  0.098769  0.440733  0.630757  1
  S  S15  1  0.440733  0.630757  0.098769  1
  S  S16  1  0.356193  0.739115  0.603698  1
  S  S17  1  0.739115  0.603698  0.356193  1
  S  S18  1  0.603698  0.356193  0.739115  1
  S  S19  1  0.739115  0.356193  0.603698  1
  S  S20  1  0.356193  0.603698  0.739115  1
  S  S21  1  0.603698  0.739115  0.356193  1
  S  S22  1  0.185368  0.454492  0.454492  1
  S  S23  1  0.454492  0.454492  0.185368  1
  S  S24  1  0.454492  0.185368  0.454492  1
  S  S25  1  0.007144  0.915516  0.915516  1
  S  S26  1  0.915516  0.915516  0.007144  1
  S  S27  1  0.915516  0.007144  0.915516  1
