# generated using pymatgen
data_Ho4Al18CuIr3Rh2
_symmetry_space_group_name_H-M   'P 1'
_cell_length_a   7.55402780
_cell_length_b   7.55402758
_cell_length_c   9.42338425
_cell_angle_alpha   90.10324796
_cell_angle_beta   90.10325140
_cell_angle_gamma   119.75024381
_symmetry_Int_Tables_number   1
_chemical_formula_structural   Ho4Al18CuIr3Rh2
_chemical_formula_sum   'Ho4 Al18 Cu1 Ir3 Rh2'
_cell_volume   466.85216597
_cell_formula_units_Z   1
loop_
 _symmetry_equiv_pos_site_id
 _symmetry_equiv_pos_as_xyz
  1  'x, y, z'
loop_
 _atom_site_type_symbol
 _atom_site_label
 _atom_site_symmetry_multiplicity
 _atom_site_fract_x
 _atom_site_fract_y
 _atom_site_fract_z
 _atom_site_occupancy
  Ho  Ho0  1  0.995302  0.671038  0.250818  1
  Ho  Ho1  1  0.004698  0.328962  0.749182  1
  Ho  Ho2  1  0.671038  0.995302  0.250818  1
  Ho  Ho3  1  0.328962  0.004698  0.749182  1
  Al  Al4  1  0.128053  0.128053  0.250439  1
  Al  Al5  1  0.871947  0.871947  0.749561  1
  Al  Al6  1  0.000328  0.337633  0.076473  1
  Al  Al7  1  0.999672  0.662367  0.923527  1
  Al  Al8  1  0.000128  0.665829  0.573811  1
  Al  Al9  1  0.334171  0.999872  0.426189  1
  Al  Al10  1  0.999872  0.334171  0.426189  1
  Al  Al11  1  0.665829  0.000128  0.573811  1
  Al  Al12  1  0.662367  0.999672  0.923527  1
  Al  Al13  1  0.337633  0.000328  0.076473  1
  Al  Al14  1  0.333359  0.333359  0.552452  1
  Al  Al15  1  0.666641  0.666641  0.447548  1
  Al  Al16  1  0.663905  0.663905  0.055516  1
  Al  Al17  1  0.336095  0.336095  0.944484  1
  Al  Al18  1  0.338604  0.548663  0.249658  1
  Al  Al19  1  0.661396  0.451337  0.750342  1
  Al  Al20  1  0.548663  0.338604  0.249658  1
  Al  Al21  1  0.451337  0.661396  0.750342  1
  Cu  Cu22  1  0.000000  0.000000  0.000000  1
  Ir  Ir23  1  0.328032  0.671968  0.500000  1
  Ir  Ir24  1  0.671968  0.328032  0.500000  1
  Ir  Ir25  1  0.000000  0.000000  0.500000  1
  Rh  Rh26  1  0.671960  0.328040  0.000000  1
  Rh  Rh27  1  0.328040  0.671960  0.000000  1
