# generated using pymatgen
data_Tm8Lu12Bi11Au
_symmetry_space_group_name_H-M   'P 1'
_cell_length_a   8.08956410
_cell_length_b   9.36840100
_cell_length_c   11.84779747
_cell_angle_alpha   90.00000000
_cell_angle_beta   89.61143730
_cell_angle_gamma   90.00000000
_symmetry_Int_Tables_number   1
_chemical_formula_structural   Tm8Lu12Bi11Au
_chemical_formula_sum   'Tm8 Lu12 Bi11 Au1'
_cell_volume   897.87985290
_cell_formula_units_Z   1
loop_
 _symmetry_equiv_pos_site_id
 _symmetry_equiv_pos_as_xyz
  1  'x, y, z'
loop_
 _atom_site_type_symbol
 _atom_site_label
 _atom_site_symmetry_multiplicity
 _atom_site_fract_x
 _atom_site_fract_y
 _atom_site_fract_z
 _atom_site_occupancy
  Tm  Tm0  1  0.354584  0.250000  0.295080  1
  Tm  Tm1  1  0.653818  0.750000  0.717438  1
  Tm  Tm2  1  0.149518  0.750000  0.781529  1
  Tm  Tm3  1  0.849603  0.250000  0.214925  1
  Tm  Tm4  1  0.198367  0.250000  0.778734  1
  Tm  Tm5  1  0.808447  0.750000  0.215960  1
  Tm  Tm6  1  0.312297  0.750000  0.282925  1
  Tm  Tm7  1  0.669939  0.250000  0.708352  1
  Lu  Lu8  1  0.039404  0.250000  0.507127  1
  Lu  Lu9  1  0.983099  0.750000  0.491508  1
  Lu  Lu10  1  0.477209  0.750000  0.011103  1
  Lu  Lu11  1  0.524004  0.250000  0.989955  1
  Lu  Lu12  1  0.191157  0.067632  0.061640  1
  Lu  Lu13  1  0.807705  0.932613  0.941517  1
  Lu  Lu14  1  0.311139  0.953791  0.559239  1
  Lu  Lu15  1  0.807705  0.567387  0.941517  1
  Lu  Lu16  1  0.683747  0.072751  0.446162  1
  Lu  Lu17  1  0.191157  0.432368  0.061640  1
  Lu  Lu18  1  0.683747  0.427249  0.446162  1
  Lu  Lu19  1  0.311139  0.546209  0.559239  1
  Bi  Bi20  1  0.596969  0.750000  0.457333  1
  Bi  Bi21  1  0.098462  0.750000  0.042806  1
  Bi  Bi22  1  0.903857  0.250000  0.952034  1
  Bi  Bi23  1  0.057767  0.001469  0.323204  1
  Bi  Bi24  1  0.936731  0.999493  0.675371  1
  Bi  Bi25  1  0.437467  0.994852  0.826980  1
  Bi  Bi26  1  0.936731  0.500507  0.675371  1
  Bi  Bi27  1  0.562051  0.004397  0.174833  1
  Bi  Bi28  1  0.057767  0.498531  0.323204  1
  Bi  Bi29  1  0.562051  0.495603  0.174833  1
  Bi  Bi30  1  0.437467  0.505148  0.826980  1
  Au  Au31  1  0.404891  0.250000  0.535297  1
