# generated using pymatgen
data_Pa(MnSi)2
_symmetry_space_group_name_H-M   'P 1'
_cell_length_a   5.77352165
_cell_length_b   5.77352251
_cell_length_c   5.77352243
_cell_angle_alpha   140.42113391
_cell_angle_beta   140.42114500
_cell_angle_gamma   57.21440829
_symmetry_Int_Tables_number   1
_chemical_formula_structural   Pa(MnSi)2
_chemical_formula_sum   'Pa1 Mn2 Si2'
_cell_volume   77.46780769
_cell_formula_units_Z   1
loop_
 _symmetry_equiv_pos_site_id
 _symmetry_equiv_pos_as_xyz
  1  'x, y, z'
loop_
 _atom_site_type_symbol
 _atom_site_label
 _atom_site_symmetry_multiplicity
 _atom_site_fract_x
 _atom_site_fract_y
 _atom_site_fract_z
 _atom_site_occupancy
  Pa  Pa0  1  0.000000  0.000000  0.000000  1
  Mn  Mn1  1  0.750000  0.250000  0.500000  1
  Mn  Mn2  1  0.250000  0.750000  0.500000  1
  Si  Si3  1  0.619466  0.619466  0.000000  1
  Si  Si4  1  0.380534  0.380534  0.000000  1
