# generated using pymatgen
data_YErHf2(Al3Ir)6
_symmetry_space_group_name_H-M   'P 1'
_cell_length_a   7.52380800
_cell_length_b   7.50799531
_cell_length_c   9.34343400
_cell_angle_alpha   90.00000000
_cell_angle_beta   90.00000000
_cell_angle_gamma   119.71865890
_symmetry_Int_Tables_number   1
_chemical_formula_structural   YErHf2(Al3Ir)6
_chemical_formula_sum   'Y1 Er1 Hf2 Al18 Ir6'
_cell_volume   458.37729711
_cell_formula_units_Z   1
loop_
 _symmetry_equiv_pos_site_id
 _symmetry_equiv_pos_as_xyz
  1  'x, y, z'
loop_
 _atom_site_type_symbol
 _atom_site_label
 _atom_site_symmetry_multiplicity
 _atom_site_fract_x
 _atom_site_fract_y
 _atom_site_fract_z
 _atom_site_occupancy
  Y  Y0  1  0.328917  0.005751  0.750000  1
  Er  Er1  1  0.671139  0.994060  0.250000  1
  Hf  Hf2  1  0.995201  0.671749  0.250000  1
  Hf  Hf3  1  0.004718  0.328243  0.750000  1
  Al  Al4  1  0.126641  0.124874  0.250000  1
  Al  Al5  1  0.872886  0.875067  0.750000  1
  Al  Al6  1  0.999701  0.337012  0.075880  1
  Al  Al7  1  0.999933  0.662649  0.924641  1
  Al  Al8  1  0.999933  0.662649  0.575359  1
  Al  Al9  1  0.332650  0.998335  0.421047  1
  Al  Al10  1  0.999701  0.337012  0.424120  1
  Al  Al11  1  0.667735  0.001642  0.578127  1
  Al  Al12  1  0.667735  0.001642  0.921873  1
  Al  Al13  1  0.332650  0.998335  0.078953  1
  Al  Al14  1  0.331250  0.333707  0.556112  1
  Al  Al15  1  0.668727  0.666634  0.443396  1
  Al  Al16  1  0.668727  0.666634  0.056604  1
  Al  Al17  1  0.331250  0.333707  0.943888  1
  Al  Al18  1  0.334824  0.548231  0.250000  1
  Al  Al19  1  0.665696  0.452298  0.750000  1
  Al  Al20  1  0.554304  0.344298  0.250000  1
  Al  Al21  1  0.445804  0.655421  0.750000  1
  Ir  Ir22  1  0.673088  0.328035  0.999757  1
  Ir  Ir23  1  0.327196  0.672039  0.000611  1
  Ir  Ir24  1  0.327196  0.672039  0.499389  1
  Ir  Ir25  1  0.673088  0.328035  0.500243  1
  Ir  Ir26  1  0.999656  0.999951  0.000241  1
  Ir  Ir27  1  0.999656  0.999951  0.499759  1
