# generated using pymatgen
data_Tb3Gd3Er2(ReB6)4
_symmetry_space_group_name_H-M   'P 1'
_cell_length_a   3.69298500
_cell_length_b   9.19421804
_cell_length_c   11.59020517
_cell_angle_alpha   90.01489591
_cell_angle_beta   90.00000000
_cell_angle_gamma   90.00000000
_symmetry_Int_Tables_number   1
_chemical_formula_structural   Tb3Gd3Er2(ReB6)4
_chemical_formula_sum   'Tb3 Gd3 Er2 Re4 B24'
_cell_volume   393.53507975
_cell_formula_units_Z   1
loop_
 _symmetry_equiv_pos_site_id
 _symmetry_equiv_pos_as_xyz
  1  'x, y, z'
loop_
 _atom_site_type_symbol
 _atom_site_label
 _atom_site_symmetry_multiplicity
 _atom_site_fract_x
 _atom_site_fract_y
 _atom_site_fract_z
 _atom_site_occupancy
  Tb  Tb0  1  0.000000  0.176778  0.914139  1
  Tb  Tb1  1  0.000000  0.942939  0.369291  1
  Tb  Tb2  1  0.000000  0.057122  0.630645  1
  Gd  Gd3  1  0.000000  0.323533  0.413836  1
  Gd  Gd4  1  0.000000  0.676388  0.586277  1
  Gd  Gd5  1  0.000000  0.823099  0.085752  1
  Er  Er6  1  0.000000  0.442895  0.129868  1
  Er  Er7  1  0.000000  0.557057  0.870067  1
  Re  Re8  1  0.000000  0.637981  0.319563  1
  Re  Re9  1  0.000000  0.361852  0.680651  1
  Re  Re10  1  0.000000  0.139836  0.178653  1
  Re  Re11  1  0.000000  0.860453  0.821272  1
  B  B12  1  0.500000  0.553129  0.432156  1
  B  B13  1  0.500000  0.446856  0.568044  1
  B  B14  1  0.500000  0.054004  0.067135  1
  B  B15  1  0.500000  0.946101  0.932748  1
  B  B16  1  0.500000  0.747924  0.417659  1
  B  B17  1  0.500000  0.252032  0.582452  1
  B  B18  1  0.500000  0.250183  0.081573  1
  B  B19  1  0.500000  0.749938  0.918218  1
  B  B20  1  0.500000  0.790686  0.264970  1
  B  B21  1  0.500000  0.209131  0.735205  1
  B  B22  1  0.500000  0.292617  0.234010  1
  B  B23  1  0.500000  0.707523  0.765889  1
  B  B24  1  0.500000  0.629551  0.185074  1
  B  B25  1  0.500000  0.370342  0.815100  1
  B  B26  1  0.500000  0.131529  0.313426  1
  B  B27  1  0.500000  0.868608  0.686453  1
  B  B28  1  0.500000  0.983532  0.211272  1
  B  B29  1  0.500000  0.016703  0.788603  1
  B  B30  1  0.500000  0.482108  0.287336  1
  B  B31  1  0.500000  0.517788  0.712764  1
  B  B32  1  0.500000  0.597528  0.027302  1
  B  B33  1  0.500000  0.402156  0.972613  1
  B  B34  1  0.500000  0.100416  0.472047  1
  B  B35  1  0.500000  0.899678  0.527933  1
