# generated using pymatgen
data_Dy15TmInCo2Hg5
_symmetry_space_group_name_H-M   'P 1'
_cell_length_a   10.24189024
_cell_length_b   10.21555302
_cell_length_c   7.15493176
_cell_angle_alpha   89.93503092
_cell_angle_beta   90.21732285
_cell_angle_gamma   120.28381728
_symmetry_Int_Tables_number   1
_chemical_formula_structural   Dy15TmInCo2Hg5
_chemical_formula_sum   'Dy15 Tm1 In1 Co2 Hg5'
_cell_volume   646.43618136
_cell_formula_units_Z   1
loop_
 _symmetry_equiv_pos_site_id
 _symmetry_equiv_pos_as_xyz
  1  'x, y, z'
loop_
 _atom_site_type_symbol
 _atom_site_label
 _atom_site_symmetry_multiplicity
 _atom_site_fract_x
 _atom_site_fract_y
 _atom_site_fract_z
 _atom_site_occupancy
  Dy  Dy0  1  0.921624  0.464319  0.513503  1
  Dy  Dy1  1  0.539282  0.460517  0.520248  1
  Dy  Dy2  1  0.466043  0.922883  0.016700  1
  Dy  Dy3  1  0.077208  0.533933  0.016358  1
  Dy  Dy4  1  0.457844  0.542058  0.011527  1
  Dy  Dy5  1  0.169912  0.345159  0.706382  1
  Dy  Dy6  1  0.654718  0.830376  0.705954  1
  Dy  Dy7  1  0.175725  0.825092  0.720982  1
  Dy  Dy8  1  0.817467  0.647656  0.204832  1
  Dy  Dy9  1  0.352936  0.182536  0.205424  1
  Dy  Dy10  1  0.826464  0.173115  0.212499  1
  Dy  Dy11  1  0.667940  0.331342  0.911097  1
  Dy  Dy12  1  0.335830  0.665143  0.412030  1
  Dy  Dy13  1  0.004449  0.995918  0.496037  1
  Dy  Dy14  1  0.001906  0.998164  0.997498  1
  Tm  Tm15  1  0.535732  0.078538  0.513700  1
  In  In16  1  0.164504  0.835195  0.266233  1
  Co  Co17  1  0.667004  0.332053  0.281562  1
  Co  Co18  1  0.332958  0.666914  0.781250  1
  Hg  Hg19  1  0.833162  0.667209  0.769090  1
  Hg  Hg20  1  0.333096  0.166761  0.768957  1
  Hg  Hg21  1  0.830966  0.168601  0.770485  1
  Hg  Hg22  1  0.167574  0.334178  0.270955  1
  Hg  Hg23  1  0.665656  0.832340  0.270902  1
