# generated using pymatgen
data_Ho2Er2Re5Os3
_symmetry_space_group_name_H-M   'P 1'
_cell_length_a   5.36357091
_cell_length_b   5.25737207
_cell_length_c   9.00687205
_cell_angle_alpha   90.00000090
_cell_angle_beta   90.01043038
_cell_angle_gamma   119.34717336
_symmetry_Int_Tables_number   1
_chemical_formula_structural   Ho2Er2Re5Os3
_chemical_formula_sum   'Ho2 Er2 Re5 Os3'
_cell_volume   221.38431973
_cell_formula_units_Z   1
loop_
 _symmetry_equiv_pos_site_id
 _symmetry_equiv_pos_as_xyz
  1  'x, y, z'
loop_
 _atom_site_type_symbol
 _atom_site_label
 _atom_site_symmetry_multiplicity
 _atom_site_fract_x
 _atom_site_fract_y
 _atom_site_fract_z
 _atom_site_occupancy
  Ho  Ho0  1  0.332969  0.666485  0.437415  1
  Ho  Ho1  1  0.669804  0.334902  0.564005  1
  Er  Er2  1  0.669868  0.334934  0.936021  1
  Er  Er3  1  0.332847  0.666424  0.062554  1
  Re  Re4  1  0.829243  0.169959  0.249583  1
  Re  Re5  1  0.829243  0.659284  0.249583  1
  Re  Re6  1  0.344317  0.172159  0.249543  1
  Re  Re7  1  0.163374  0.828854  0.750418  1
  Re  Re8  1  0.163374  0.334520  0.750418  1
  Os  Os9  1  0.010647  0.005324  0.500594  1
  Os  Os10  1  0.010673  0.005336  0.999398  1
  Os  Os11  1  0.643640  0.821820  0.750467  1
