# generated using pymatgen
data_Er3HfAs6Ru7
_symmetry_space_group_name_H-M   'P 1'
_cell_length_a   7.16302320
_cell_length_b   7.16302302
_cell_length_c   7.16302343
_cell_angle_alpha   109.42634948
_cell_angle_beta   109.42636190
_cell_angle_gamma   109.42634840
_symmetry_Int_Tables_number   1
_chemical_formula_structural   Er3HfAs6Ru7
_chemical_formula_sum   'Er3 Hf1 As6 Ru7'
_cell_volume   283.39131143
_cell_formula_units_Z   1
loop_
 _symmetry_equiv_pos_site_id
 _symmetry_equiv_pos_as_xyz
  1  'x, y, z'
loop_
 _atom_site_type_symbol
 _atom_site_label
 _atom_site_symmetry_multiplicity
 _atom_site_fract_x
 _atom_site_fract_y
 _atom_site_fract_z
 _atom_site_occupancy
  Er  Er0  1  0.000000  0.000000  0.500000  1
  Er  Er1  1  0.500000  0.000000  0.000000  1
  Er  Er2  1  0.000000  0.500000  0.000000  1
  Hf  Hf3  1  0.500000  0.500000  0.500000  1
  As  As4  1  0.316053  0.003046  0.316053  1
  As  As5  1  0.003046  0.316053  0.316053  1
  As  As6  1  0.996954  0.683947  0.683947  1
  As  As7  1  0.316053  0.316053  0.003046  1
  As  As8  1  0.683947  0.683947  0.996954  1
  As  As9  1  0.683947  0.996954  0.683947  1
  Ru  Ru10  1  0.744845  0.500000  0.255155  1
  Ru  Ru11  1  0.500000  0.744845  0.255155  1
  Ru  Ru12  1  0.500000  0.255155  0.744845  1
  Ru  Ru13  1  0.744845  0.255155  0.500000  1
  Ru  Ru14  1  0.255155  0.744845  0.500000  1
  Ru  Ru15  1  0.255155  0.500000  0.744845  1
  Ru  Ru16  1  0.000000  0.000000  0.000000  1
