# generated using pymatgen
data_La3Nd13(HgPd)4
_symmetry_space_group_name_H-M   'P 1'
_cell_length_a   10.04595463
_cell_length_b   10.02562249
_cell_length_c   10.02562200
_cell_angle_alpha   59.99999503
_cell_angle_beta   60.06692300
_cell_angle_gamma   60.06692141
_symmetry_Int_Tables_number   1
_chemical_formula_structural   La3Nd13(HgPd)4
_chemical_formula_sum   'La3 Nd13 Hg4 Pd4'
_cell_volume   714.72246636
_cell_formula_units_Z   1
loop_
 _symmetry_equiv_pos_site_id
 _symmetry_equiv_pos_as_xyz
  1  'x, y, z'
loop_
 _atom_site_type_symbol
 _atom_site_label
 _atom_site_symmetry_multiplicity
 _atom_site_fract_x
 _atom_site_fract_y
 _atom_site_fract_z
 _atom_site_occupancy
  La  La0  1  0.351760  0.355193  0.355193  1
  La  La1  1  0.351760  0.355193  0.937856  1
  La  La2  1  0.351760  0.937856  0.355193  1
  Nd  Nd3  1  0.932080  0.355974  0.355974  1
  Nd  Nd4  1  0.809723  0.191052  0.191052  1
  Nd  Nd5  1  0.192981  0.809167  0.809167  1
  Nd  Nd6  1  0.192981  0.809167  0.188685  1
  Nd  Nd7  1  0.809723  0.191052  0.808173  1
  Nd  Nd8  1  0.192981  0.188685  0.809167  1
  Nd  Nd9  1  0.809723  0.808173  0.191052  1
  Nd  Nd10  1  0.935084  0.565193  0.565193  1
  Nd  Nd11  1  0.565092  0.935132  0.935132  1
  Nd  Nd12  1  0.565092  0.935132  0.564645  1
  Nd  Nd13  1  0.935084  0.565193  0.934530  1
  Nd  Nd14  1  0.565092  0.564645  0.935132  1
  Nd  Nd15  1  0.935084  0.934530  0.565193  1
  Hg  Hg16  1  0.587178  0.584726  0.584726  1
  Hg  Hg17  1  0.587178  0.584726  0.243371  1
  Hg  Hg18  1  0.587178  0.243371  0.584726  1
  Hg  Hg19  1  0.242768  0.585745  0.585745  1
  Pd  Pd20  1  0.143353  0.144263  0.144263  1
  Pd  Pd21  1  0.143353  0.144263  0.568119  1
  Pd  Pd22  1  0.143353  0.568119  0.144263  1
  Pd  Pd23  1  0.569640  0.143453  0.143453  1
