# generated using pymatgen
data_CsNb(IO3)6
_symmetry_space_group_name_H-M   'P 1'
_cell_length_a   7.94124310
_cell_length_b   7.94124291
_cell_length_c   7.94124331
_cell_angle_alpha   97.97642458
_cell_angle_beta   97.97642323
_cell_angle_gamma   97.97642062
_symmetry_Int_Tables_number   1
_chemical_formula_structural   CsNb(IO3)6
_chemical_formula_sum   'Cs1 Nb1 I6 O18'
_cell_volume   484.74056339
_cell_formula_units_Z   1
loop_
 _symmetry_equiv_pos_site_id
 _symmetry_equiv_pos_as_xyz
  1  'x, y, z'
loop_
 _atom_site_type_symbol
 _atom_site_label
 _atom_site_symmetry_multiplicity
 _atom_site_fract_x
 _atom_site_fract_y
 _atom_site_fract_z
 _atom_site_occupancy
  Cs  Cs0  1  0.640140  0.640140  0.640140  1
  Nb  Nb1  1  0.008648  0.008648  0.008648  1
  I  I2  1  0.632472  0.834340  0.198069  1
  I  I3  1  0.198069  0.632472  0.834340  1
  I  I4  1  0.834340  0.198069  0.632472  1
  I  I5  1  0.371460  0.166519  0.790095  1
  I  I6  1  0.790095  0.371460  0.166519  1
  I  I7  1  0.166519  0.790095  0.371460  1
  O  O8  1  0.793648  0.846162  0.042938  1
  O  O9  1  0.042938  0.793648  0.846162  1
  O  O10  1  0.846162  0.042938  0.793648  1
  O  O11  1  0.204906  0.149298  0.946417  1
  O  O12  1  0.946417  0.204906  0.149298  1
  O  O13  1  0.149298  0.946417  0.204906  1
  O  O14  1  0.603730  0.601318  0.185471  1
  O  O15  1  0.185471  0.603730  0.601318  1
  O  O16  1  0.601318  0.185471  0.603730  1
  O  O17  1  0.398379  0.399096  0.813728  1
  O  O18  1  0.813728  0.398379  0.399096  1
  O  O19  1  0.399096  0.813728  0.398379  1
  O  O20  1  0.788487  0.900969  0.395827  1
  O  O21  1  0.395827  0.788487  0.900969  1
  O  O22  1  0.900969  0.395827  0.788487  1
  O  O23  1  0.210117  0.099050  0.598274  1
  O  O24  1  0.598274  0.210117  0.099050  1
  O  O25  1  0.099050  0.598274  0.210117  1
