# generated using pymatgen
data_LiSi2GePd5
_symmetry_space_group_name_H-M   'P 1'
_cell_length_a   6.77836851
_cell_length_b   6.85916565
_cell_length_c   3.30031700
_cell_angle_alpha   90.00000000
_cell_angle_beta   90.00000000
_cell_angle_gamma   120.61369571
_symmetry_Int_Tables_number   1
_chemical_formula_structural   LiSi2GePd5
_chemical_formula_sum   'Li1 Si2 Ge1 Pd5'
_cell_volume   132.05769766
_cell_formula_units_Z   1
loop_
 _symmetry_equiv_pos_site_id
 _symmetry_equiv_pos_as_xyz
  1  'x, y, z'
loop_
 _atom_site_type_symbol
 _atom_site_label
 _atom_site_symmetry_multiplicity
 _atom_site_fract_x
 _atom_site_fract_y
 _atom_site_fract_z
 _atom_site_occupancy
  Li  Li0  1  0.385077  0.392074  0.500000  1
  Si  Si1  1  0.327549  0.688402  0.000000  1
  Si  Si2  1  0.982703  0.985771  0.500000  1
  Ge  Ge3  1  0.684487  0.326867  0.000000  1
  Pd  Pd4  1  0.705069  0.705722  0.000000  1
  Pd  Pd5  1  0.267327  0.019842  0.000000  1
  Pd  Pd6  1  0.028349  0.276902  0.000000  1
  Pd  Pd7  1  0.605447  0.983683  0.500000  1
  Pd  Pd8  1  0.013991  0.620738  0.500000  1
