# generated using pymatgen
data_Yb3Ag5Pd
_symmetry_space_group_name_H-M   'P 1'
_cell_length_a   7.79840600
_cell_length_b   7.79840539
_cell_length_c   3.63321200
_cell_angle_alpha   90.00000000
_cell_angle_beta   90.00000000
_cell_angle_gamma   120.00000259
_symmetry_Int_Tables_number   1
_chemical_formula_structural   Yb3Ag5Pd
_chemical_formula_sum   'Yb3 Ag5 Pd1'
_cell_volume   191.35200167
_cell_formula_units_Z   1
loop_
 _symmetry_equiv_pos_site_id
 _symmetry_equiv_pos_as_xyz
  1  'x, y, z'
loop_
 _atom_site_type_symbol
 _atom_site_label
 _atom_site_symmetry_multiplicity
 _atom_site_fract_x
 _atom_site_fract_y
 _atom_site_fract_z
 _atom_site_occupancy
  Yb  Yb0  1  0.617800  0.020087  0.000000  1
  Yb  Yb1  1  0.979913  0.597712  0.000000  1
  Yb  Yb2  1  0.402288  0.382200  0.000000  1
  Ag  Ag3  1  0.274943  0.996904  0.500000  1
  Ag  Ag4  1  0.003096  0.278039  0.500000  1
  Ag  Ag5  1  0.721961  0.725057  0.500000  1
  Ag  Ag6  1  0.333333  0.666667  0.500000  1
  Ag  Ag7  1  0.000000  0.000000  0.000000  1
  Pd  Pd8  1  0.666667  0.333333  0.500000  1
