# generated using pymatgen
data_LiPr8(Si4Pd)3
_symmetry_space_group_name_H-M   'P 1'
_cell_length_a   8.30093200
_cell_length_b   8.30093338
_cell_length_c   8.58834700
_cell_angle_alpha   90.00000000
_cell_angle_beta   90.00000000
_cell_angle_gamma   120.00000248
_symmetry_Int_Tables_number   1
_chemical_formula_structural   LiPr8(Si4Pd)3
_chemical_formula_sum   'Li1 Pr8 Si12 Pd3'
_cell_volume   512.50014011
_cell_formula_units_Z   1
loop_
 _symmetry_equiv_pos_site_id
 _symmetry_equiv_pos_as_xyz
  1  'x, y, z'
loop_
 _atom_site_type_symbol
 _atom_site_label
 _atom_site_symmetry_multiplicity
 _atom_site_fract_x
 _atom_site_fract_y
 _atom_site_fract_z
 _atom_site_occupancy
  Li  Li0  1  0.666667  0.333333  0.995984  1
  Pr  Pr1  1  0.498412  0.501588  0.749278  1
  Pr  Pr2  1  0.499386  0.500614  0.250727  1
  Pr  Pr3  1  0.003175  0.501588  0.749278  1
  Pr  Pr4  1  0.001228  0.500614  0.250727  1
  Pr  Pr5  1  0.498412  0.996825  0.749278  1
  Pr  Pr6  1  0.499386  0.998772  0.250727  1
  Pr  Pr7  1  0.000000  0.000000  0.750527  1
  Pr  Pr8  1  0.000000  0.000000  0.249729  1
  Si  Si9  1  0.834736  0.165264  0.000500  1
  Si  Si10  1  0.166178  0.833822  0.999778  1
  Si  Si11  1  0.330528  0.165264  0.000500  1
  Si  Si12  1  0.165632  0.834368  0.500063  1
  Si  Si13  1  0.667645  0.833822  0.999778  1
  Si  Si14  1  0.834243  0.165757  0.500158  1
  Si  Si15  1  0.834736  0.669472  0.000500  1
  Si  Si16  1  0.668736  0.834368  0.500063  1
  Si  Si17  1  0.166178  0.332355  0.999778  1
  Si  Si18  1  0.331514  0.165757  0.500158  1
  Si  Si19  1  0.165632  0.331264  0.500063  1
  Si  Si20  1  0.834243  0.668486  0.500158  1
  Pd  Pd21  1  0.333333  0.666667  0.001599  1
  Pd  Pd22  1  0.333333  0.666667  0.498812  1
  Pd  Pd23  1  0.666667  0.333333  0.501838  1
