# generated using pymatgen
data_Dy3Al3GaAu2
_symmetry_space_group_name_H-M   'P 1'
_cell_length_a   7.14301500
_cell_length_b   7.14301486
_cell_length_c   4.24248500
_cell_angle_alpha   90.00000000
_cell_angle_beta   90.00000000
_cell_angle_gamma   120.00000528
_symmetry_Int_Tables_number   1
_chemical_formula_structural   Dy3Al3GaAu2
_chemical_formula_sum   'Dy3 Al3 Ga1 Au2'
_cell_volume   187.46234261
_cell_formula_units_Z   1
loop_
 _symmetry_equiv_pos_site_id
 _symmetry_equiv_pos_as_xyz
  1  'x, y, z'
loop_
 _atom_site_type_symbol
 _atom_site_label
 _atom_site_symmetry_multiplicity
 _atom_site_fract_x
 _atom_site_fract_y
 _atom_site_fract_z
 _atom_site_occupancy
  Dy  Dy0  1  0.002261  0.418769  0.500000  1
  Dy  Dy1  1  0.581231  0.583492  0.500000  1
  Dy  Dy2  1  0.416508  0.997739  0.500000  1
  Al  Al3  1  0.994398  0.755657  0.000000  1
  Al  Al4  1  0.244343  0.238741  0.000000  1
  Al  Al5  1  0.761259  0.005602  0.000000  1
  Ga  Ga6  1  0.333333  0.666667  0.000000  1
  Au  Au7  1  0.666667  0.333333  0.000000  1
  Au  Au8  1  0.000000  0.000000  0.500000  1
