# generated using pymatgen
data_Tm2Hf4Pb5
_symmetry_space_group_name_H-M   'P 1'
_cell_length_a   6.04423897
_cell_length_b   9.13260715
_cell_length_c   11.29647513
_cell_angle_alpha   113.84250589
_cell_angle_beta   105.51720736
_cell_angle_gamma   89.99999145
_symmetry_Int_Tables_number   1
_chemical_formula_structural   Tm2Hf4Pb5
_chemical_formula_sum   'Tm4 Hf8 Pb10'
_cell_volume   545.40501800
_cell_formula_units_Z   2
loop_
 _symmetry_equiv_pos_site_id
 _symmetry_equiv_pos_as_xyz
  1  'x, y, z'
loop_
 _atom_site_type_symbol
 _atom_site_label
 _atom_site_symmetry_multiplicity
 _atom_site_fract_x
 _atom_site_fract_y
 _atom_site_fract_z
 _atom_site_occupancy
  Tm  Tm0  1  0.143664  0.253939  0.287328  1
  Tm  Tm1  1  0.856336  0.746061  0.712672  1
  Tm  Tm2  1  0.643664  0.033389  0.287328  1
  Tm  Tm3  1  0.356336  0.966611  0.712672  1
  Hf  Hf4  1  0.562076  0.312076  0.624153  1
  Hf  Hf5  1  0.437924  0.687924  0.375847  1
  Hf  Hf6  1  0.937924  0.687924  0.375847  1
  Hf  Hf7  1  0.062076  0.312076  0.624153  1
  Hf  Hf8  1  0.434169  0.671831  0.868339  1
  Hf  Hf9  1  0.565831  0.328169  0.131661  1
  Hf  Hf10  1  0.934169  0.196507  0.868339  1
  Hf  Hf11  1  0.065831  0.803493  0.131661  1
  Pb  Pb12  1  0.288543  0.589811  0.577087  1
  Pb  Pb13  1  0.711457  0.410189  0.422913  1
  Pb  Pb14  1  0.788543  0.987276  0.577087  1
  Pb  Pb15  1  0.211457  0.012724  0.422913  1
  Pb  Pb16  1  0.250000  0.000000  0.000000  1
  Pb  Pb17  1  0.750000  0.000000  0.000000  1
  Pb  Pb18  1  0.066974  0.461739  0.133948  1
  Pb  Pb19  1  0.933026  0.538261  0.866052  1
  Pb  Pb20  1  0.566974  0.672209  0.133948  1
  Pb  Pb21  1  0.433026  0.327791  0.866052  1
