# generated using pymatgen
data_Dy4Lu16SnBi11
_symmetry_space_group_name_H-M   'P 1'
_cell_length_a   8.15360193
_cell_length_b   9.39271100
_cell_length_c   11.88006900
_cell_angle_alpha   90.00000000
_cell_angle_beta   90.21783912
_cell_angle_gamma   90.00000000
_symmetry_Int_Tables_number   1
_chemical_formula_structural   Dy4Lu16SnBi11
_chemical_formula_sum   'Dy4 Lu16 Sn1 Bi11'
_cell_volume   909.82169583
_cell_formula_units_Z   1
loop_
 _symmetry_equiv_pos_site_id
 _symmetry_equiv_pos_as_xyz
  1  'x, y, z'
loop_
 _atom_site_type_symbol
 _atom_site_label
 _atom_site_symmetry_multiplicity
 _atom_site_fract_x
 _atom_site_fract_y
 _atom_site_fract_z
 _atom_site_occupancy
  Dy  Dy0  1  0.313387  0.250000  0.217970  1
  Dy  Dy1  1  0.812162  0.250000  0.282812  1
  Dy  Dy2  1  0.683630  0.750000  0.784483  1
  Dy  Dy3  1  0.188780  0.750000  0.719871  1
  Lu  Lu4  1  0.352176  0.750000  0.213828  1
  Lu  Lu5  1  0.852586  0.750000  0.282582  1
  Lu  Lu6  1  0.648635  0.250000  0.781432  1
  Lu  Lu7  1  0.149167  0.250000  0.718046  1
  Lu  Lu8  1  0.688174  0.570051  0.059197  1
  Lu  Lu9  1  0.191794  0.932701  0.439076  1
  Lu  Lu10  1  0.307746  0.061802  0.939639  1
  Lu  Lu11  1  0.808316  0.432692  0.560326  1
  Lu  Lu12  1  0.307746  0.438198  0.939639  1
  Lu  Lu13  1  0.808316  0.067308  0.560326  1
  Lu  Lu14  1  0.688174  0.929949  0.059197  1
  Lu  Lu15  1  0.191794  0.567299  0.439076  1
  Lu  Lu16  1  0.477995  0.250000  0.489836  1
  Lu  Lu17  1  0.978490  0.250000  0.010275  1
  Lu  Lu18  1  0.522704  0.750000  0.510320  1
  Lu  Lu19  1  0.028637  0.750000  0.990157  1
  Sn  Sn20  1  0.404102  0.750000  0.959351  1
  Bi  Bi21  1  0.903466  0.750000  0.541641  1
  Bi  Bi22  1  0.596805  0.250000  0.040130  1
  Bi  Bi23  1  0.097705  0.250000  0.459487  1
  Bi  Bi24  1  0.564401  0.993967  0.326394  1
  Bi  Bi25  1  0.063534  0.504504  0.174544  1
  Bi  Bi26  1  0.435389  0.494421  0.673448  1
  Bi  Bi27  1  0.935431  0.005063  0.826266  1
  Bi  Bi28  1  0.435389  0.005579  0.673448  1
  Bi  Bi29  1  0.935431  0.494937  0.826266  1
  Bi  Bi30  1  0.564401  0.506033  0.326394  1
  Bi  Bi31  1  0.063534  0.995496  0.174544  1
