# generated using pymatgen
data_Lu4HfMg(B2Ir5)2
_symmetry_space_group_name_H-M   'P 1'
_cell_length_a   9.68476000
_cell_length_b   9.68476000
_cell_length_c   3.14928500
_cell_angle_alpha   90.00000000
_cell_angle_beta   90.00000000
_cell_angle_gamma   90.00000000
_symmetry_Int_Tables_number   1
_chemical_formula_structural   Lu4HfMg(B2Ir5)2
_chemical_formula_sum   'Lu4 Hf1 Mg1 B4 Ir10'
_cell_volume   295.38585209
_cell_formula_units_Z   1
loop_
 _symmetry_equiv_pos_site_id
 _symmetry_equiv_pos_as_xyz
  1  'x, y, z'
loop_
 _atom_site_type_symbol
 _atom_site_label
 _atom_site_symmetry_multiplicity
 _atom_site_fract_x
 _atom_site_fract_y
 _atom_site_fract_z
 _atom_site_occupancy
  Lu  Lu0  1  0.180283  0.674228  0.000000  1
  Lu  Lu1  1  0.325772  0.180283  0.000000  1
  Lu  Lu2  1  0.819717  0.325772  0.000000  1
  Lu  Lu3  1  0.674228  0.819717  0.000000  1
  Hf  Hf4  1  0.000000  0.000000  0.000000  1
  Mg  Mg5  1  0.500000  0.500000  0.000000  1
  B  B6  1  0.384200  0.874160  0.000000  1
  B  B7  1  0.125840  0.384200  0.000000  1
  B  B8  1  0.874160  0.615800  0.000000  1
  B  B9  1  0.615800  0.125840  0.000000  1
  Ir  Ir10  1  0.223721  0.931947  0.500000  1
  Ir  Ir11  1  0.931947  0.776279  0.500000  1
  Ir  Ir12  1  0.429567  0.723263  0.500000  1
  Ir  Ir13  1  0.570433  0.276737  0.500000  1
  Ir  Ir14  1  0.723263  0.570433  0.500000  1
  Ir  Ir15  1  0.276737  0.429567  0.500000  1
  Ir  Ir16  1  0.068053  0.223721  0.500000  1
  Ir  Ir17  1  0.000000  0.500000  0.500000  1
  Ir  Ir18  1  0.500000  0.000000  0.500000  1
  Ir  Ir19  1  0.776279  0.068053  0.500000  1
