# generated using pymatgen
data_Pr3Zn3Pd2Ru
_symmetry_space_group_name_H-M   'P 1'
_cell_length_a   7.40814000
_cell_length_b   7.40813999
_cell_length_c   4.05066300
_cell_angle_alpha   90.00000000
_cell_angle_beta   90.00000000
_cell_angle_gamma   119.99999112
_symmetry_Int_Tables_number   1
_chemical_formula_structural   Pr3Zn3Pd2Ru
_chemical_formula_sum   'Pr3 Zn3 Pd2 Ru1'
_cell_volume   192.51968623
_cell_formula_units_Z   1
loop_
 _symmetry_equiv_pos_site_id
 _symmetry_equiv_pos_as_xyz
  1  'x, y, z'
loop_
 _atom_site_type_symbol
 _atom_site_label
 _atom_site_symmetry_multiplicity
 _atom_site_fract_x
 _atom_site_fract_y
 _atom_site_fract_z
 _atom_site_occupancy
  Pr  Pr0  1  0.582527  0.988462  0.500000  1
  Pr  Pr1  1  0.405935  0.417473  0.500000  1
  Pr  Pr2  1  0.011538  0.594065  0.500000  1
  Zn  Zn3  1  0.754229  0.757259  0.000000  1
  Zn  Zn4  1  0.003031  0.245771  0.000000  1
  Zn  Zn5  1  0.242741  0.996969  0.000000  1
  Pd  Pd6  1  0.000000  0.000000  0.500000  1
  Pd  Pd7  1  0.666667  0.333333  0.000000  1
  Ru  Ru8  1  0.333333  0.666667  0.000000  1
