# generated using pymatgen
data_Sr5NdTiCo4O15
_symmetry_space_group_name_H-M   'P 1'
_cell_length_a   6.85413138
_cell_length_b   6.91086282
_cell_length_c   6.91086219
_cell_angle_alpha   87.42856206
_cell_angle_beta   87.61501096
_cell_angle_gamma   87.61500195
_symmetry_Int_Tables_number   1
_chemical_formula_structural   Sr5NdTiCo4O15
_chemical_formula_sum   'Sr5 Nd1 Ti1 Co4 O15'
_cell_volume   326.48138228
_cell_formula_units_Z   1
loop_
 _symmetry_equiv_pos_site_id
 _symmetry_equiv_pos_as_xyz
  1  'x, y, z'
loop_
 _atom_site_type_symbol
 _atom_site_label
 _atom_site_symmetry_multiplicity
 _atom_site_fract_x
 _atom_site_fract_y
 _atom_site_fract_z
 _atom_site_occupancy
  Sr  Sr0  1  0.134736  0.500149  0.859635  1
  Sr  Sr1  1  0.865264  0.140365  0.499851  1
  Sr  Sr2  1  0.000000  0.665546  0.334454  1
  Sr  Sr3  1  0.324997  0.001566  0.671905  1
  Sr  Sr4  1  0.675003  0.328095  0.998434  1
  Nd  Nd5  1  0.500000  0.859460  0.140540  1
  Ti  Ti6  1  0.500000  0.500629  0.499371  1
  Co  Co7  1  0.703645  0.711067  0.707301  1
  Co  Co8  1  0.296355  0.292699  0.288933  1
  Co  Co9  1  0.905311  0.905363  0.908751  1
  Co  Co10  1  0.094689  0.091249  0.094637  1
  O  O11  1  0.383001  0.555166  0.237248  1
  O  O12  1  0.243188  0.381115  0.544640  1
  O  O13  1  0.554104  0.247415  0.377004  1
  O  O14  1  0.616999  0.762752  0.444834  1
  O  O15  1  0.445896  0.622996  0.752585  1
  O  O16  1  0.756812  0.455360  0.618885  1
  O  O17  1  0.210554  0.025224  0.338005  1
  O  O18  1  0.347422  0.188671  0.029965  1
  O  O19  1  0.030811  0.338396  0.197426  1
  O  O20  1  0.789446  0.661995  0.974776  1
  O  O21  1  0.969189  0.802574  0.661604  1
  O  O22  1  0.161228  0.841482  0.003542  1
  O  O23  1  0.838772  0.996458  0.158518  1
  O  O24  1  0.000000  0.154173  0.845827  1
  O  O25  1  0.652578  0.970035  0.811329  1
