# generated using pymatgen
data_Y4Er4Ti11Si16Ir
_symmetry_space_group_name_H-M   'P 1'
_cell_length_a   7.01973557
_cell_length_b   7.02143925
_cell_length_c   12.84788757
_cell_angle_alpha   90.14529131
_cell_angle_beta   89.88042213
_cell_angle_gamma   89.84844470
_symmetry_Int_Tables_number   1
_chemical_formula_structural   Y4Er4Ti11Si16Ir
_chemical_formula_sum   'Y4 Er4 Ti11 Si16 Ir1'
_cell_volume   633.24935382
_cell_formula_units_Z   1
loop_
 _symmetry_equiv_pos_site_id
 _symmetry_equiv_pos_as_xyz
  1  'x, y, z'
loop_
 _atom_site_type_symbol
 _atom_site_label
 _atom_site_symmetry_multiplicity
 _atom_site_fract_x
 _atom_site_fract_y
 _atom_site_fract_z
 _atom_site_occupancy
  Y  Y0  1  0.340572  0.004618  0.467711  1
  Y  Y1  1  0.495807  0.842072  0.718389  1
  Y  Y2  1  0.501243  0.157716  0.214365  1
  Y  Y3  1  0.841932  0.495885  0.281910  1
  Er  Er4  1  0.157304  0.501075  0.785259  1
  Er  Er5  1  0.656856  0.997889  0.968539  1
  Er  Er6  1  0.003678  0.341317  0.532858  1
  Er  Er7  1  0.997949  0.657048  0.031005  1
  Ti  Ti8  1  0.175089  0.826576  0.248013  1
  Ti  Ti9  1  0.826899  0.175845  0.752178  1
  Ti  Ti10  1  0.674172  0.673664  0.500264  1
  Ti  Ti11  1  0.148659  0.002588  0.876287  1
  Ti  Ti12  1  0.494335  0.656344  0.124332  1
  Ti  Ti13  1  0.507045  0.350226  0.628792  1
  Ti  Ti14  1  0.656925  0.493971  0.875090  1
  Ti  Ti15  1  0.349255  0.505981  0.371805  1
  Ti  Ti16  1  0.849077  0.993860  0.375223  1
  Ti  Ti17  1  0.003161  0.148162  0.123365  1
  Ti  Ti18  1  0.994286  0.849059  0.625616  1
  Si  Si19  1  0.200956  0.134900  0.685882  1
  Si  Si20  1  0.371518  0.700544  0.933519  1
  Si  Si21  1  0.631966  0.296767  0.435098  1
  Si  Si22  1  0.702469  0.372065  0.065693  1
  Si  Si23  1  0.295349  0.630044  0.565954  1
  Si  Si24  1  0.797257  0.866975  0.183084  1
  Si  Si25  1  0.132815  0.201975  0.314240  1
  Si  Si26  1  0.868101  0.796453  0.817025  1
  Si  Si27  1  0.285872  0.948708  0.063705  1
  Si  Si28  1  0.547689  0.791251  0.315576  1
  Si  Si29  1  0.448460  0.210773  0.818856  1
  Si  Si30  1  0.793229  0.547274  0.684301  1
  Si  Si31  1  0.209796  0.449419  0.180845  1
  Si  Si32  1  0.709989  0.049135  0.565980  1
  Si  Si33  1  0.951653  0.286573  0.935874  1
  Si  Si34  1  0.048222  0.708115  0.434761  1
  Ir  Ir35  1  0.330420  0.335135  0.998603  1
