# generated using pymatgen
data_Ac3SiAuSe7
_symmetry_space_group_name_H-M   'P 1'
_cell_length_a   11.13859900
_cell_length_b   11.13851349
_cell_length_c   6.27756500
_cell_angle_alpha   90.00000000
_cell_angle_beta   90.00000000
_cell_angle_gamma   119.99992430
_symmetry_Int_Tables_number   1
_chemical_formula_structural   Ac3SiAuSe7
_chemical_formula_sum   'Ac6 Si2 Au2 Se14'
_cell_volume   674.49694282
_cell_formula_units_Z   2
loop_
 _symmetry_equiv_pos_site_id
 _symmetry_equiv_pos_as_xyz
  1  'x, y, z'
loop_
 _atom_site_type_symbol
 _atom_site_label
 _atom_site_symmetry_multiplicity
 _atom_site_fract_x
 _atom_site_fract_y
 _atom_site_fract_z
 _atom_site_occupancy
  Ac  Ac0  1  0.122935  0.356235  0.251127  1
  Ac  Ac1  1  0.233299  0.877065  0.251126  1
  Ac  Ac2  1  0.643770  0.766702  0.251127  1
  Ac  Ac3  1  0.877065  0.643764  0.751127  1
  Ac  Ac4  1  0.766702  0.122935  0.751126  1
  Ac  Ac5  1  0.356230  0.233297  0.751127  1
  Si  Si6  1  0.666661  0.333331  0.163185  1
  Si  Si7  1  0.333339  0.666670  0.663185  1
  Au  Au8  1  0.000001  0.999999  0.274255  1
  Au  Au9  1  0.999999  0.000001  0.774255  1
  Se  Se10  1  0.525471  0.115155  0.021397  1
  Se  Se11  1  0.589674  0.474522  0.021393  1
  Se  Se12  1  0.884834  0.410311  0.021411  1
  Se  Se13  1  0.333337  0.666668  0.026465  1
  Se  Se14  1  0.910402  0.736144  0.262169  1
  Se  Se15  1  0.263854  0.174256  0.262169  1
  Se  Se16  1  0.825748  0.089600  0.262176  1
  Se  Se17  1  0.474529  0.884845  0.521397  1
  Se  Se18  1  0.410326  0.525479  0.521393  1
  Se  Se19  1  0.115165  0.589688  0.521411  1
  Se  Se20  1  0.666663  0.333333  0.526465  1
  Se  Se21  1  0.089598  0.263856  0.762169  1
  Se  Se22  1  0.736146  0.825743  0.762169  1
  Se  Se23  1  0.174252  0.910399  0.762176  1
