# generated using pymatgen
data_LaDy3Ta4(Bi2O11)2
_symmetry_space_group_name_H-M   'P 1'
_cell_length_a   6.61790912
_cell_length_b   7.71408037
_cell_length_c   9.76963936
_cell_angle_alpha   101.39984091
_cell_angle_beta   90.24333273
_cell_angle_gamma   90.15121333
_symmetry_Int_Tables_number   1
_chemical_formula_structural   LaDy3Ta4(Bi2O11)2
_chemical_formula_sum   'La1 Dy3 Ta4 Bi4 O22'
_cell_volume   488.90368945
_cell_formula_units_Z   1
loop_
 _symmetry_equiv_pos_site_id
 _symmetry_equiv_pos_as_xyz
  1  'x, y, z'
loop_
 _atom_site_type_symbol
 _atom_site_label
 _atom_site_symmetry_multiplicity
 _atom_site_fract_x
 _atom_site_fract_y
 _atom_site_fract_z
 _atom_site_occupancy
  La  La0  1  0.746674  0.372390  0.491824  1
  Dy  Dy1  1  0.250274  0.634978  0.520795  1
  Dy  Dy2  1  0.757972  0.871399  0.488572  1
  Dy  Dy3  1  0.239348  0.126051  0.509709  1
  Ta  Ta4  1  0.914363  0.703861  0.807732  1
  Ta  Ta5  1  0.088728  0.299484  0.196081  1
  Ta  Ta6  1  0.916746  0.198104  0.807011  1
  Ta  Ta7  1  0.086900  0.800144  0.196148  1
  Bi  Bi8  1  0.435936  0.956836  0.815007  1
  Bi  Bi9  1  0.566773  0.042423  0.185107  1
  Bi  Bi10  1  0.385714  0.455688  0.828424  1
  Bi  Bi11  1  0.608332  0.544850  0.174117  1
  O  O12  1  0.218205  0.725403  0.759560  1
  O  O13  1  0.785309  0.272780  0.238990  1
  O  O14  1  0.631836  0.661077  0.839618  1
  O  O15  1  0.370306  0.333953  0.153230  1
  O  O16  1  0.631846  0.254453  0.836454  1
  O  O17  1  0.369312  0.746280  0.155080  1
  O  O18  1  0.898890  0.141120  0.587157  1
  O  O19  1  0.111048  0.843300  0.410327  1
  O  O20  1  0.217329  0.150484  0.751973  1
  O  O21  1  0.785797  0.849785  0.248397  1
  O  O22  1  0.901853  0.653241  0.591984  1
  O  O23  1  0.114646  0.362626  0.406689  1
  O  O24  1  0.026280  0.549837  0.196795  1
  O  O25  1  0.970913  0.447988  0.794880  1
  O  O26  1  0.997568  0.784205  0.001821  1
  O  O27  1  0.005144  0.216197  0.997590  1
  O  O28  1  0.563807  0.605042  0.393660  1
  O  O29  1  0.411064  0.403090  0.608147  1
  O  O30  1  0.164017  0.056301  0.223347  1
  O  O31  1  0.831518  0.945460  0.783721  1
  O  O32  1  0.538864  0.096349  0.402865  1
  O  O33  1  0.456687  0.894821  0.597189  1
