# generated using pymatgen
data_CaNd3(TcO6)2
_symmetry_space_group_name_H-M   'P 1'
_cell_length_a   10.01886182
_cell_length_b   10.01886238
_cell_length_c   5.50826300
_cell_angle_alpha   75.47377638
_cell_angle_beta   75.47376964
_cell_angle_gamma   69.49897174
_symmetry_Int_Tables_number   1
_chemical_formula_structural   CaNd3(TcO6)2
_chemical_formula_sum   'Ca2 Nd6 Tc4 O24'
_cell_volume   493.16794585
_cell_formula_units_Z   2
loop_
 _symmetry_equiv_pos_site_id
 _symmetry_equiv_pos_as_xyz
  1  'x, y, z'
loop_
 _atom_site_type_symbol
 _atom_site_label
 _atom_site_symmetry_multiplicity
 _atom_site_fract_x
 _atom_site_fract_y
 _atom_site_fract_z
 _atom_site_occupancy
  Ca  Ca0  1  0.628974  0.371026  0.750000  1
  Ca  Ca1  1  0.371026  0.628974  0.250000  1
  Nd  Nd2  1  0.112213  0.887787  0.750000  1
  Nd  Nd3  1  0.887787  0.112213  0.250000  1
  Nd  Nd4  1  0.710663  0.942904  0.876824  1
  Nd  Nd5  1  0.289337  0.057096  0.123176  1
  Nd  Nd6  1  0.057096  0.289337  0.623176  1
  Nd  Nd7  1  0.942904  0.710663  0.376824  1
  Tc  Tc8  1  0.502512  0.796279  0.555544  1
  Tc  Tc9  1  0.497488  0.203721  0.444456  1
  Tc  Tc10  1  0.203721  0.497488  0.944456  1
  Tc  Tc11  1  0.796279  0.502512  0.055544  1
  O  O12  1  0.684325  0.163124  0.583684  1
  O  O13  1  0.315675  0.836876  0.416316  1
  O  O14  1  0.836876  0.315675  0.916316  1
  O  O15  1  0.163124  0.684325  0.083684  1
  O  O16  1  0.386658  0.824797  0.858647  1
  O  O17  1  0.613342  0.175203  0.141353  1
  O  O18  1  0.175203  0.613342  0.641353  1
  O  O19  1  0.824797  0.386658  0.358647  1
  O  O20  1  0.674749  0.786315  0.628563  1
  O  O21  1  0.325251  0.213685  0.371437  1
  O  O22  1  0.213685  0.325251  0.871437  1
  O  O23  1  0.786315  0.674749  0.128563  1
  O  O24  1  0.470295  0.071833  0.735531  1
  O  O25  1  0.529705  0.928167  0.264469  1
  O  O26  1  0.928167  0.529705  0.764469  1
  O  O27  1  0.071833  0.470295  0.235531  1
  O  O28  1  0.543410  0.614771  0.520506  1
  O  O29  1  0.456590  0.385229  0.479494  1
  O  O30  1  0.385229  0.456590  0.979494  1
  O  O31  1  0.614771  0.543410  0.020506  1
  O  O32  1  0.890711  0.923346  0.076526  1
  O  O33  1  0.109289  0.076654  0.923474  1
  O  O34  1  0.076654  0.109289  0.423474  1
  O  O35  1  0.923346  0.890711  0.576526  1
