# generated using pymatgen
data_Yb4MnAlOs6
_symmetry_space_group_name_H-M   'P 1'
_cell_length_a   5.32745400
_cell_length_b   5.32745443
_cell_length_c   8.61570300
_cell_angle_alpha   90.00000000
_cell_angle_beta   90.00000000
_cell_angle_gamma   119.99999732
_symmetry_Int_Tables_number   1
_chemical_formula_structural   Yb4MnAlOs6
_chemical_formula_sum   'Yb4 Mn1 Al1 Os6'
_cell_volume   211.76823412
_cell_formula_units_Z   1
loop_
 _symmetry_equiv_pos_site_id
 _symmetry_equiv_pos_as_xyz
  1  'x, y, z'
loop_
 _atom_site_type_symbol
 _atom_site_label
 _atom_site_symmetry_multiplicity
 _atom_site_fract_x
 _atom_site_fract_y
 _atom_site_fract_z
 _atom_site_occupancy
  Yb  Yb0  1  0.333333  0.666667  0.430385  1
  Yb  Yb1  1  0.666667  0.333333  0.569615  1
  Yb  Yb2  1  0.666667  0.333333  0.931343  1
  Yb  Yb3  1  0.333333  0.666667  0.068657  1
  Mn  Mn4  1  0.000000  0.000000  0.000000  1
  Al  Al5  1  0.000000  0.000000  0.500000  1
  Os  Os6  1  0.829288  0.170712  0.248604  1
  Os  Os7  1  0.829288  0.658575  0.248604  1
  Os  Os8  1  0.341425  0.170712  0.248604  1
  Os  Os9  1  0.170712  0.829288  0.751396  1
  Os  Os10  1  0.170712  0.341425  0.751396  1
  Os  Os11  1  0.658575  0.829288  0.751396  1
