# generated using pymatgen
data_Y20(IrRh3)3
_symmetry_space_group_name_H-M   'P 1'
_cell_length_a   10.95624184
_cell_length_b   10.95624184
_cell_length_c   6.39151700
_cell_angle_alpha   90.00223113
_cell_angle_beta   90.00223113
_cell_angle_gamma   89.95519353
_symmetry_Int_Tables_number   1
_chemical_formula_structural   Y20(IrRh3)3
_chemical_formula_sum   'Y20 Ir3 Rh9'
_cell_volume   767.23257728
_cell_formula_units_Z   1
loop_
 _symmetry_equiv_pos_site_id
 _symmetry_equiv_pos_as_xyz
  1  'x, y, z'
loop_
 _atom_site_type_symbol
 _atom_site_label
 _atom_site_symmetry_multiplicity
 _atom_site_fract_x
 _atom_site_fract_y
 _atom_site_fract_z
 _atom_site_occupancy
  Y  Y0  1  0.291145  0.089990  0.378280  1
  Y  Y1  1  0.291215  0.909874  0.878170  1
  Y  Y2  1  0.708988  0.088643  0.878388  1
  Y  Y3  1  0.708758  0.909966  0.378157  1
  Y  Y4  1  0.587686  0.789692  0.879472  1
  Y  Y5  1  0.587362  0.209434  0.378265  1
  Y  Y6  1  0.412286  0.789810  0.379049  1
  Y  Y7  1  0.410899  0.209599  0.879741  1
  Y  Y8  1  0.210308  0.412314  0.620528  1
  Y  Y9  1  0.210190  0.587714  0.120951  1
  Y  Y10  1  0.790566  0.412638  0.121735  1
  Y  Y11  1  0.790401  0.589101  0.620259  1
  Y  Y12  1  0.910010  0.708855  0.121720  1
  Y  Y13  1  0.911357  0.291012  0.621612  1
  Y  Y14  1  0.090126  0.708785  0.621830  1
  Y  Y15  1  0.090034  0.291242  0.121843  1
  Y  Y16  1  0.999928  0.999959  0.499990  1
  Y  Y17  1  0.000041  0.000072  0.000010  1
  Y  Y18  1  0.499653  0.500220  0.000056  1
  Y  Y19  1  0.499780  0.500347  0.499944  1
  Ir  Ir20  1  0.654706  0.654157  0.250075  1
  Ir  Ir21  1  0.345843  0.345294  0.249925  1
  Ir  Ir22  1  0.345271  0.654729  0.750000  1
  Rh  Rh23  1  0.846021  0.153979  0.250000  1
  Rh  Rh24  1  0.846485  0.846653  0.750101  1
  Rh  Rh25  1  0.153347  0.153515  0.749899  1
  Rh  Rh26  1  0.153420  0.846580  0.250000  1
  Rh  Rh27  1  0.654669  0.345331  0.750000  1
  Rh  Rh28  1  0.500185  0.000387  0.124035  1
  Rh  Rh29  1  0.500247  0.000541  0.624518  1
  Rh  Rh30  1  0.999459  0.499753  0.875482  1
  Rh  Rh31  1  0.999613  0.499815  0.375965  1
