# generated using pymatgen
data_Pr8Be(Si4Au)3
_symmetry_space_group_name_H-M   'P 1'
_cell_length_a   8.23514900
_cell_length_b   8.23514904
_cell_length_c   8.73407400
_cell_angle_alpha   90.00000000
_cell_angle_beta   90.00000000
_cell_angle_gamma   120.00000384
_symmetry_Int_Tables_number   1
_chemical_formula_structural   Pr8Be(Si4Au)3
_chemical_formula_sum   'Pr8 Be1 Si12 Au3'
_cell_volume   512.96815746
_cell_formula_units_Z   1
loop_
 _symmetry_equiv_pos_site_id
 _symmetry_equiv_pos_as_xyz
  1  'x, y, z'
loop_
 _atom_site_type_symbol
 _atom_site_label
 _atom_site_symmetry_multiplicity
 _atom_site_fract_x
 _atom_site_fract_y
 _atom_site_fract_z
 _atom_site_occupancy
  Pr  Pr0  1  0.501901  0.498099  0.746011  1
  Pr  Pr1  1  0.502213  0.497787  0.253973  1
  Pr  Pr2  1  0.996198  0.498099  0.746011  1
  Pr  Pr3  1  0.995574  0.497787  0.253973  1
  Pr  Pr4  1  0.501901  0.003802  0.746011  1
  Pr  Pr5  1  0.502213  0.004426  0.253973  1
  Pr  Pr6  1  0.000000  0.000000  0.748249  1
  Pr  Pr7  1  0.000000  0.000000  0.251787  1
  Be  Be8  1  0.666667  0.333333  0.500356  1
  Si  Si9  1  0.836657  0.163343  0.001081  1
  Si  Si10  1  0.164097  0.835903  0.998987  1
  Si  Si11  1  0.326685  0.163343  0.001081  1
  Si  Si12  1  0.163396  0.836604  0.499530  1
  Si  Si13  1  0.671806  0.835903  0.998987  1
  Si  Si14  1  0.827376  0.172624  0.500615  1
  Si  Si15  1  0.836657  0.673315  0.001081  1
  Si  Si16  1  0.673208  0.836604  0.499530  1
  Si  Si17  1  0.164097  0.328194  0.998987  1
  Si  Si18  1  0.345248  0.172624  0.500615  1
  Si  Si19  1  0.163396  0.326792  0.499530  1
  Si  Si20  1  0.827376  0.654752  0.500615  1
  Au  Au21  1  0.666667  0.333333  0.998590  1
  Au  Au22  1  0.333333  0.666667  0.000911  1
  Au  Au23  1  0.333333  0.666667  0.499515  1
