# generated using pymatgen
data_MgV8Fe3O16
_symmetry_space_group_name_H-M   'P 1'
_cell_length_a   6.18191300
_cell_length_b   8.44328200
_cell_length_c   6.18191300
_cell_angle_alpha   90.00000000
_cell_angle_beta   90.00000000
_cell_angle_gamma   90.00000000
_symmetry_Int_Tables_number   1
_chemical_formula_structural   MgV8Fe3O16
_chemical_formula_sum   'Mg1 V8 Fe3 O16'
_cell_volume   322.66887306
_cell_formula_units_Z   1
loop_
 _symmetry_equiv_pos_site_id
 _symmetry_equiv_pos_as_xyz
  1  'x, y, z'
loop_
 _atom_site_type_symbol
 _atom_site_label
 _atom_site_symmetry_multiplicity
 _atom_site_fract_x
 _atom_site_fract_y
 _atom_site_fract_z
 _atom_site_occupancy
  Mg  Mg0  1  0.250000  0.125000  0.000000  1
  V  V1  1  0.750000  0.249594  0.751070  1
  V  V2  1  0.250000  0.750577  0.249856  1
  V  V3  1  0.750000  0.249594  0.248930  1
  V  V4  1  0.250000  0.750577  0.750144  1
  V  V5  1  0.499856  0.499423  0.000000  1
  V  V6  1  0.001070  0.000406  0.500000  1
  V  V7  1  0.000144  0.499423  0.000000  1
  V  V8  1  0.498930  0.000406  0.500000  1
  Fe  Fe9  1  0.750000  0.625000  0.500000  1
  Fe  Fe10  1  0.750000  0.874170  0.000000  1
  Fe  Fe11  1  0.250000  0.375830  0.500000  1
  O  O12  1  0.750000  0.489596  0.224534  1
  O  O13  1  0.250000  0.991021  0.729228  1
  O  O14  1  0.750000  0.489596  0.775466  1
  O  O15  1  0.250000  0.991021  0.270772  1
  O  O16  1  0.979228  0.258979  0.000000  1
  O  O17  1  0.474534  0.760404  0.500000  1
  O  O18  1  0.520772  0.258979  0.000000  1
  O  O19  1  0.025466  0.760404  0.500000  1
  O  O20  1  0.250000  0.510063  0.775135  1
  O  O21  1  0.750000  0.009755  0.275382  1
  O  O22  1  0.250000  0.510063  0.224865  1
  O  O23  1  0.750000  0.009755  0.724618  1
  O  O24  1  0.025135  0.739937  0.000000  1
  O  O25  1  0.525382  0.240245  0.500000  1
  O  O26  1  0.474865  0.739937  0.000000  1
  O  O27  1  0.974618  0.240245  0.500000  1
