# generated using pymatgen
data_Pr3ThP4
_symmetry_space_group_name_H-M   'P 1'
_cell_length_a   8.35879200
_cell_length_b   4.17314500
_cell_length_c   5.89105300
_cell_angle_alpha   90.00000000
_cell_angle_beta   89.99903351
_cell_angle_gamma   90.00000000
_symmetry_Int_Tables_number   1
_chemical_formula_structural   Pr3ThP4
_chemical_formula_sum   'Pr3 Th1 P4'
_cell_volume   205.49436785
_cell_formula_units_Z   1
loop_
 _symmetry_equiv_pos_site_id
 _symmetry_equiv_pos_as_xyz
  1  'x, y, z'
loop_
 _atom_site_type_symbol
 _atom_site_label
 _atom_site_symmetry_multiplicity
 _atom_site_fract_x
 _atom_site_fract_y
 _atom_site_fract_z
 _atom_site_occupancy
  Pr  Pr0  1  0.127906  0.749999  0.249885  1
  Pr  Pr1  1  0.621843  0.749999  0.250131  1
  Pr  Pr2  1  0.375130  0.249999  0.749860  1
  Th  Th3  1  0.875098  0.249999  0.750117  1
  P  P4  1  0.374872  0.249999  0.249860  1
  P  P5  1  0.874874  0.249999  0.250144  1
  P  P6  1  0.118431  0.749999  0.749884  1
  P  P7  1  0.631847  0.749999  0.750122  1
