# generated using pymatgen
data_DyHo2Bi(AuO5)2
_symmetry_space_group_name_H-M   'P 1'
_cell_length_a   8.53276442
_cell_length_b   8.53276634
_cell_length_c   5.70321501
_cell_angle_alpha   88.95233607
_cell_angle_beta   91.04761989
_cell_angle_gamma   89.85095316
_symmetry_Int_Tables_number   1
_chemical_formula_structural   DyHo2Bi(AuO5)2
_chemical_formula_sum   'Dy2 Ho4 Bi2 Au4 O20'
_cell_volume   415.09955989
_cell_formula_units_Z   2
loop_
 _symmetry_equiv_pos_site_id
 _symmetry_equiv_pos_as_xyz
  1  'x, y, z'
loop_
 _atom_site_type_symbol
 _atom_site_label
 _atom_site_symmetry_multiplicity
 _atom_site_fract_x
 _atom_site_fract_y
 _atom_site_fract_z
 _atom_site_occupancy
  Dy  Dy0  1  0.651662  0.651662  0.750000  1
  Dy  Dy1  1  0.848338  0.848338  0.250000  1
  Ho  Ho2  1  0.354728  0.656112  0.247497  1
  Ho  Ho3  1  0.843888  0.145271  0.747497  1
  Ho  Ho4  1  0.656112  0.354729  0.252503  1
  Ho  Ho5  1  0.145272  0.843888  0.752503  1
  Bi  Bi6  1  0.358920  0.358920  0.750000  1
  Bi  Bi7  1  0.141080  0.141080  0.250000  1
  Au  Au8  1  0.497127  0.000309  0.408183  1
  Au  Au9  1  0.499691  0.002872  0.908182  1
  Au  Au10  1  0.000309  0.497128  0.091818  1
  Au  Au11  1  0.002873  0.499691  0.591817  1
  O  O12  1  0.105938  0.288515  0.599706  1
  O  O13  1  0.909974  0.280208  0.109298  1
  O  O14  1  0.908255  0.716588  0.610102  1
  O  O15  1  0.716588  0.908255  0.889898  1
  O  O16  1  0.219792  0.590026  0.609298  1
  O  O17  1  0.404324  0.787317  0.893403  1
  O  O18  1  0.394062  0.211485  0.400294  1
  O  O19  1  0.783412  0.591745  0.110102  1
  O  O20  1  0.280208  0.909974  0.390702  1
  O  O21  1  0.590026  0.219792  0.890702  1
  O  O22  1  0.494733  0.499442  0.999658  1
  O  O23  1  0.499442  0.494734  0.500340  1
  O  O24  1  0.787316  0.404324  0.606596  1
  O  O25  1  0.095676  0.712683  0.106597  1
  O  O26  1  0.288514  0.105938  0.900294  1
  O  O27  1  0.591745  0.783412  0.389898  1
  O  O28  1  0.211486  0.394062  0.099706  1
  O  O29  1  0.005267  0.000558  0.000342  1
  O  O30  1  0.000558  0.005266  0.499660  1
  O  O31  1  0.712684  0.095676  0.393404  1
