# generated using pymatgen
data_Tb3Y5(Zr3Sn4)4
_symmetry_space_group_name_H-M   'P 1'
_cell_length_a   7.78657402
_cell_length_b   7.83388901
_cell_length_c   14.74972604
_cell_angle_alpha   89.99610821
_cell_angle_beta   90.00749790
_cell_angle_gamma   90.00479051
_symmetry_Int_Tables_number   1
_chemical_formula_structural   Tb3Y5(Zr3Sn4)4
_chemical_formula_sum   'Tb3 Y5 Zr12 Sn16'
_cell_volume   899.72083676
_cell_formula_units_Z   1
loop_
 _symmetry_equiv_pos_site_id
 _symmetry_equiv_pos_as_xyz
  1  'x, y, z'
loop_
 _atom_site_type_symbol
 _atom_site_label
 _atom_site_symmetry_multiplicity
 _atom_site_fract_x
 _atom_site_fract_y
 _atom_site_fract_z
 _atom_site_occupancy
  Tb  Tb0  1  0.987076  0.822347  0.407106  1
  Tb  Tb1  1  0.512921  0.322344  0.592885  1
  Tb  Tb2  1  0.012934  0.177647  0.907123  1
  Y  Y3  1  0.512986  0.322358  0.907103  1
  Y  Y4  1  0.012971  0.177630  0.592901  1
  Y  Y5  1  0.487017  0.677638  0.407110  1
  Y  Y6  1  0.987031  0.822372  0.092904  1
  Y  Y7  1  0.487027  0.677663  0.092882  1
  Zr  Zr8  1  0.349667  0.837145  0.870918  1
  Zr  Zr9  1  0.849665  0.662861  0.629082  1
  Zr  Zr10  1  0.650334  0.162853  0.370910  1
  Zr  Zr11  1  0.150353  0.337147  0.129079  1
  Zr  Zr12  1  0.650336  0.162857  0.129082  1
  Zr  Zr13  1  0.150356  0.337199  0.370890  1
  Zr  Zr14  1  0.349672  0.837181  0.629104  1
  Zr  Zr15  1  0.849671  0.662842  0.870894  1
  Zr  Zr16  1  0.171745  0.509879  0.750017  1
  Zr  Zr17  1  0.671717  0.990106  0.750000  1
  Zr  Zr18  1  0.828241  0.490096  0.250007  1
  Zr  Zr19  1  0.328262  0.009905  0.249992  1
  Sn  Sn20  1  0.311390  0.040459  0.042351  1
  Sn  Sn21  1  0.811356  0.459492  0.457651  1
  Sn  Sn22  1  0.688643  0.959503  0.542345  1
  Sn  Sn23  1  0.188699  0.540498  0.957664  1
  Sn  Sn24  1  0.688596  0.959526  0.957661  1
  Sn  Sn25  1  0.188598  0.540500  0.542336  1
  Sn  Sn26  1  0.311410  0.040496  0.457657  1
  Sn  Sn27  1  0.811360  0.459505  0.042339  1
  Sn  Sn28  1  0.544682  0.615757  0.749995  1
  Sn  Sn29  1  0.044685  0.884250  0.750018  1
  Sn  Sn30  1  0.455318  0.384246  0.249996  1
  Sn  Sn31  1  0.955316  0.115738  0.250013  1
  Sn  Sn32  1  0.317966  0.154125  0.750031  1
  Sn  Sn33  1  0.817953  0.345852  0.749976  1
  Sn  Sn34  1  0.681985  0.845824  0.250003  1
  Sn  Sn35  1  0.182062  0.654160  0.249974  1
