# generated using pymatgen
data_Hf16Nb3Ni4Os
_symmetry_space_group_name_H-M   'P 1'
_cell_length_a   8.71589669
_cell_length_b   8.75798445
_cell_length_c   8.75798400
_cell_angle_alpha   59.99999413
_cell_angle_beta   59.84012806
_cell_angle_gamma   59.84013156
_symmetry_Int_Tables_number   1
_chemical_formula_structural   Hf16Nb3Ni4Os
_chemical_formula_sum   'Hf16 Nb3 Ni4 Os1'
_cell_volume   471.57599654
_cell_formula_units_Z   1
loop_
 _symmetry_equiv_pos_site_id
 _symmetry_equiv_pos_as_xyz
  1  'x, y, z'
loop_
 _atom_site_type_symbol
 _atom_site_label
 _atom_site_symmetry_multiplicity
 _atom_site_fract_x
 _atom_site_fract_y
 _atom_site_fract_z
 _atom_site_occupancy
  Hf  Hf0  1  0.695120  0.101627  0.101627  1
  Hf  Hf1  1  0.100291  0.694410  0.102650  1
  Hf  Hf2  1  0.100291  0.102650  0.694410  1
  Hf  Hf3  1  0.100291  0.102650  0.102650  1
  Hf  Hf4  1  0.315229  0.315022  0.684875  1
  Hf  Hf5  1  0.689367  0.681294  0.314669  1
  Hf  Hf6  1  0.315229  0.684875  0.315022  1
  Hf  Hf7  1  0.689367  0.314669  0.681294  1
  Hf  Hf8  1  0.689367  0.314669  0.314669  1
  Hf  Hf9  1  0.315229  0.684875  0.684875  1
  Hf  Hf10  1  0.949478  0.951513  0.549505  1
  Hf  Hf11  1  0.551755  0.551138  0.948553  1
  Hf  Hf12  1  0.949478  0.549505  0.951513  1
  Hf  Hf13  1  0.551755  0.948553  0.551138  1
  Hf  Hf14  1  0.551755  0.948553  0.948553  1
  Hf  Hf15  1  0.949478  0.549505  0.549505  1
  Nb  Nb16  1  0.330795  0.000616  0.334294  1
  Nb  Nb17  1  0.330795  0.334294  0.000616  1
  Nb  Nb18  1  0.330795  0.334294  0.334294  1
  Ni  Ni19  1  0.322610  0.892464  0.892464  1
  Ni  Ni20  1  0.893488  0.324065  0.891224  1
  Ni  Ni21  1  0.893488  0.891224  0.324065  1
  Ni  Ni22  1  0.893488  0.891224  0.891224  1
  Os  Os23  1  0.991058  0.336314  0.336314  1
