# generated using pymatgen
data_Hf4TiSi4Mo3
_symmetry_space_group_name_H-M   'P 1'
_cell_length_a   3.51431200
_cell_length_b   6.94588593
_cell_length_c   8.24539132
_cell_angle_alpha   90.38388699
_cell_angle_beta   90.00000000
_cell_angle_gamma   90.00000000
_symmetry_Int_Tables_number   1
_chemical_formula_structural   Hf4TiSi4Mo3
_chemical_formula_sum   'Hf4 Ti1 Si4 Mo3'
_cell_volume   201.26556930
_cell_formula_units_Z   1
loop_
 _symmetry_equiv_pos_site_id
 _symmetry_equiv_pos_as_xyz
  1  'x, y, z'
loop_
 _atom_site_type_symbol
 _atom_site_label
 _atom_site_symmetry_multiplicity
 _atom_site_fract_x
 _atom_site_fract_y
 _atom_site_fract_z
 _atom_site_occupancy
  Hf  Hf0  1  0.250000  0.039208  0.329917  1
  Hf  Hf1  1  0.750000  0.955796  0.665333  1
  Hf  Hf2  1  0.250000  0.544830  0.165811  1
  Hf  Hf3  1  0.750000  0.454405  0.833087  1
  Ti  Ti4  1  0.750000  0.373052  0.439029  1
  Si  Si5  1  0.250000  0.255842  0.638635  1
  Si  Si6  1  0.750000  0.744263  0.364038  1
  Si  Si7  1  0.250000  0.757717  0.862437  1
  Si  Si8  1  0.750000  0.243582  0.138746  1
  Mo  Mo9  1  0.250000  0.632726  0.562089  1
  Mo  Mo10  1  0.750000  0.866907  0.062420  1
  Mo  Mo11  1  0.250000  0.131672  0.938459  1
