# generated using pymatgen
data_Dy10Er6MgNi4Ag3
_symmetry_space_group_name_H-M   'P 1'
_cell_length_a   9.43681752
_cell_length_b   9.44652017
_cell_length_c   9.44651900
_cell_angle_alpha   59.99999360
_cell_angle_beta   59.96597618
_cell_angle_gamma   59.96597817
_symmetry_Int_Tables_number   1
_chemical_formula_structural   Dy10Er6MgNi4Ag3
_chemical_formula_sum   'Dy10 Er6 Mg1 Ni4 Ag3'
_cell_volume   595.15579617
_cell_formula_units_Z   1
loop_
 _symmetry_equiv_pos_site_id
 _symmetry_equiv_pos_as_xyz
  1  'x, y, z'
loop_
 _atom_site_type_symbol
 _atom_site_label
 _atom_site_symmetry_multiplicity
 _atom_site_fract_x
 _atom_site_fract_y
 _atom_site_fract_z
 _atom_site_occupancy
  Dy  Dy0  1  0.185035  0.814187  0.814187  1
  Dy  Dy1  1  0.813177  0.186416  0.186416  1
  Dy  Dy2  1  0.813177  0.186416  0.813990  1
  Dy  Dy3  1  0.185035  0.814187  0.186593  1
  Dy  Dy4  1  0.813177  0.813990  0.186416  1
  Dy  Dy5  1  0.185035  0.186593  0.814187  1
  Dy  Dy6  1  0.598791  0.598555  0.598555  1
  Dy  Dy7  1  0.598791  0.598555  0.204101  1
  Dy  Dy8  1  0.598791  0.204101  0.598555  1
  Dy  Dy9  1  0.192750  0.602416  0.602416  1
  Er  Er10  1  0.060512  0.438635  0.438635  1
  Er  Er11  1  0.435875  0.064087  0.064087  1
  Er  Er12  1  0.435875  0.064087  0.435951  1
  Er  Er13  1  0.060512  0.438635  0.062219  1
  Er  Er14  1  0.435875  0.435951  0.064087  1
  Er  Er15  1  0.060512  0.062219  0.438635  1
  Mg  Mg16  1  0.537827  0.820724  0.820724  1
  Ni  Ni17  1  0.389290  0.394119  0.394119  1
  Ni  Ni18  1  0.389290  0.394119  0.822472  1
  Ni  Ni19  1  0.389290  0.822472  0.394119  1
  Ni  Ni20  1  0.821237  0.392920  0.392920  1
  Ag  Ag21  1  0.833381  0.833434  0.833434  1
  Ag  Ag22  1  0.833381  0.833434  0.499751  1
  Ag  Ag23  1  0.833381  0.499751  0.833434  1
