# generated using pymatgen
data_DyLuGa2NiRu
_symmetry_space_group_name_H-M   'P 1'
_cell_length_a   4.16662400
_cell_length_b   6.78294900
_cell_length_c   7.73360800
_cell_angle_alpha   90.00000000
_cell_angle_beta   90.00000000
_cell_angle_gamma   90.00000000
_symmetry_Int_Tables_number   1
_chemical_formula_structural   DyLuGa2NiRu
_chemical_formula_sum   'Dy2 Lu2 Ga4 Ni2 Ru2'
_cell_volume   218.56721456
_cell_formula_units_Z   2
loop_
 _symmetry_equiv_pos_site_id
 _symmetry_equiv_pos_as_xyz
  1  'x, y, z'
loop_
 _atom_site_type_symbol
 _atom_site_label
 _atom_site_symmetry_multiplicity
 _atom_site_fract_x
 _atom_site_fract_y
 _atom_site_fract_z
 _atom_site_occupancy
  Dy  Dy0  1  0.250000  0.024266  0.817362  1
  Dy  Dy1  1  0.250000  0.524266  0.682638  1
  Lu  Lu2  1  0.750000  0.978490  0.192724  1
  Lu  Lu3  1  0.750000  0.478490  0.307276  1
  Ga  Ga4  1  0.250000  0.158772  0.439214  1
  Ga  Ga5  1  0.250000  0.658772  0.060786  1
  Ga  Ga6  1  0.750000  0.844004  0.572591  1
  Ga  Ga7  1  0.750000  0.344004  0.927409  1
  Ni  Ni8  1  0.750000  0.224956  0.613825  1
  Ni  Ni9  1  0.750000  0.724956  0.886175  1
  Ru  Ru10  1  0.250000  0.769512  0.382920  1
  Ru  Ru11  1  0.250000  0.269512  0.117080  1
