# generated using pymatgen
data_TbY7Cd2PdPt
_symmetry_space_group_name_H-M   'P 1'
_cell_length_a   9.72630711
_cell_length_b   9.72630739
_cell_length_c   9.72290900
_cell_angle_alpha   60.01156086
_cell_angle_beta   60.01155989
_cell_angle_gamma   60.00389486
_symmetry_Int_Tables_number   1
_chemical_formula_structural   TbY7Cd2PdPt
_chemical_formula_sum   'Tb2 Y14 Cd4 Pd2 Pt2'
_cell_volume   650.52777390
_cell_formula_units_Z   2
loop_
 _symmetry_equiv_pos_site_id
 _symmetry_equiv_pos_as_xyz
  1  'x, y, z'
loop_
 _atom_site_type_symbol
 _atom_site_label
 _atom_site_symmetry_multiplicity
 _atom_site_fract_x
 _atom_site_fract_y
 _atom_site_fract_z
 _atom_site_occupancy
  Tb  Tb0  1  0.353175  0.353175  0.349254  1
  Tb  Tb1  1  0.353175  0.353175  0.944396  1
  Y  Y2  1  0.358073  0.935331  0.353298  1
  Y  Y3  1  0.935331  0.358073  0.353298  1
  Y  Y4  1  0.809732  0.190153  0.189711  1
  Y  Y5  1  0.190153  0.809732  0.810404  1
  Y  Y6  1  0.190153  0.809732  0.189711  1
  Y  Y7  1  0.809732  0.190153  0.810404  1
  Y  Y8  1  0.190836  0.190836  0.809164  1
  Y  Y9  1  0.810993  0.810993  0.189007  1
  Y  Y10  1  0.935862  0.564970  0.564402  1
  Y  Y11  1  0.564970  0.935862  0.934767  1
  Y  Y12  1  0.564970  0.935862  0.564402  1
  Y  Y13  1  0.935862  0.564970  0.934767  1
  Y  Y14  1  0.565166  0.565166  0.934834  1
  Y  Y15  1  0.935525  0.935525  0.564475  1
  Cd  Cd16  1  0.581593  0.581593  0.583145  1
  Cd  Cd17  1  0.581593  0.581593  0.253670  1
  Cd  Cd18  1  0.580785  0.253815  0.582700  1
  Cd  Cd19  1  0.253815  0.580785  0.582700  1
  Pd  Pd20  1  0.143851  0.143851  0.146506  1
  Pd  Pd21  1  0.143851  0.143851  0.565793  1
  Pt  Pt22  1  0.142028  0.568776  0.144598  1
  Pt  Pt23  1  0.568776  0.142028  0.144598  1
