# generated using pymatgen
data_Er12AlCo2Ni3
_symmetry_space_group_name_H-M   'P 1'
_cell_length_a   8.19220321
_cell_length_b   8.19220321
_cell_length_c   8.19220374
_cell_angle_alpha   109.80708171
_cell_angle_beta   111.04940972
_cell_angle_gamma   107.57612968
_symmetry_Int_Tables_number   1
_chemical_formula_structural   Er12AlCo2Ni3
_chemical_formula_sum   'Er12 Al1 Co2 Ni3'
_cell_volume   422.83644892
_cell_formula_units_Z   1
loop_
 _symmetry_equiv_pos_site_id
 _symmetry_equiv_pos_as_xyz
  1  'x, y, z'
loop_
 _atom_site_type_symbol
 _atom_site_label
 _atom_site_symmetry_multiplicity
 _atom_site_fract_x
 _atom_site_fract_y
 _atom_site_fract_z
 _atom_site_occupancy
  Er  Er0  1  0.291970  0.184877  0.476848  1
  Er  Er1  1  0.708030  0.815123  0.523152  1
  Er  Er2  1  0.291970  0.815123  0.107093  1
  Er  Er3  1  0.708030  0.184877  0.892907  1
  Er  Er4  1  0.621689  0.317854  0.303834  1
  Er  Er5  1  0.378311  0.682146  0.696166  1
  Er  Er6  1  0.014022  0.317854  0.696166  1
  Er  Er7  1  0.985978  0.682146  0.303834  1
  Er  Er8  1  0.217482  0.409192  0.191710  1
  Er  Er9  1  0.782518  0.590808  0.808290  1
  Er  Er10  1  0.217482  0.025773  0.808290  1
  Er  Er11  1  0.782518  0.974227  0.191710  1
  Al  Al12  1  0.500000  0.500000  0.000000  1
  Co  Co13  1  0.384133  0.884133  0.500000  1
  Co  Co14  1  0.615867  0.115867  0.500000  1
  Ni  Ni15  1  0.000000  0.365848  0.365848  1
  Ni  Ni16  1  0.000000  0.634152  0.634152  1
  Ni  Ni17  1  0.000000  0.000000  0.000000  1
