# generated using pymatgen
data_DyY7(Sc3Si4)4
_symmetry_space_group_name_H-M   'P 1'
_cell_length_a   7.10169201
_cell_length_b   7.39052901
_cell_length_c   14.01241001
_cell_angle_alpha   90.00305250
_cell_angle_beta   89.99636509
_cell_angle_gamma   90.00398524
_symmetry_Int_Tables_number   1
_chemical_formula_structural   DyY7(Sc3Si4)4
_chemical_formula_sum   'Dy1 Y7 Sc12 Si16'
_cell_volume   735.44498938
_cell_formula_units_Z   1
loop_
 _symmetry_equiv_pos_site_id
 _symmetry_equiv_pos_as_xyz
  1  'x, y, z'
loop_
 _atom_site_type_symbol
 _atom_site_label
 _atom_site_symmetry_multiplicity
 _atom_site_fract_x
 _atom_site_fract_y
 _atom_site_fract_z
 _atom_site_occupancy
  Dy  Dy0  1  0.487932  0.674794  0.597192  1
  Y  Y1  1  0.011985  0.174733  0.097132  1
  Y  Y2  1  0.988014  0.825262  0.902889  1
  Y  Y3  1  0.488030  0.674729  0.902869  1
  Y  Y4  1  0.988018  0.825260  0.597112  1
  Y  Y5  1  0.511977  0.325269  0.097133  1
  Y  Y6  1  0.011981  0.174752  0.402873  1
  Y  Y7  1  0.511994  0.325309  0.402896  1
  Sc  Sc8  1  0.160704  0.502526  0.749966  1
  Sc  Sc9  1  0.839328  0.497637  0.249995  1
  Sc  Sc10  1  0.339370  0.002457  0.250011  1
  Sc  Sc11  1  0.660633  0.997554  0.749981  1
  Sc  Sc12  1  0.330311  0.176681  0.625004  1
  Sc  Sc13  1  0.669729  0.823246  0.375017  1
  Sc  Sc14  1  0.169662  0.676694  0.374975  1
  Sc  Sc15  1  0.669694  0.823219  0.125022  1
  Sc  Sc16  1  0.830232  0.323249  0.624998  1
  Sc  Sc17  1  0.330368  0.176679  0.874968  1
  Sc  Sc18  1  0.830271  0.323266  0.874966  1
  Sc  Sc19  1  0.169666  0.676732  0.125019  1
  Si  Si20  1  0.033298  0.118626  0.750002  1
  Si  Si21  1  0.966719  0.881370  0.249995  1
  Si  Si22  1  0.466699  0.618633  0.249999  1
  Si  Si23  1  0.533283  0.381423  0.749967  1
  Si  Si24  1  0.285643  0.874469  0.749944  1
  Si  Si25  1  0.714443  0.125466  0.250010  1
  Si  Si26  1  0.214447  0.374552  0.249999  1
  Si  Si27  1  0.785486  0.625469  0.749983  1
  Si  Si28  1  0.157385  0.464574  0.539489  1
  Si  Si29  1  0.842715  0.535550  0.460539  1
  Si  Si30  1  0.342769  0.964407  0.460571  1
  Si  Si31  1  0.842738  0.535528  0.039475  1
  Si  Si32  1  0.657215  0.035414  0.539477  1
  Si  Si33  1  0.157266  0.464471  0.960532  1
  Si  Si34  1  0.657244  0.035529  0.960530  1
  Si  Si35  1  0.342750  0.964472  0.039472  1
