# generated using pymatgen
data_DyTh7TiSe17
_symmetry_space_group_name_H-M   'P 1'
_cell_length_a   8.45211896
_cell_length_b   8.44281531
_cell_length_c   11.20033577
_cell_angle_alpha   80.55197164
_cell_angle_beta   80.55579426
_cell_angle_gamma   64.87417390
_symmetry_Int_Tables_number   1
_chemical_formula_structural   DyTh7TiSe17
_chemical_formula_sum   'Dy1 Th7 Ti1 Se17'
_cell_volume   709.81152160
_cell_formula_units_Z   1
loop_
 _symmetry_equiv_pos_site_id
 _symmetry_equiv_pos_as_xyz
  1  'x, y, z'
loop_
 _atom_site_type_symbol
 _atom_site_label
 _atom_site_symmetry_multiplicity
 _atom_site_fract_x
 _atom_site_fract_y
 _atom_site_fract_z
 _atom_site_occupancy
  Dy  Dy0  1  0.813559  0.302574  0.297681  1
  Th  Th1  1  0.300285  0.814098  0.294359  1
  Th  Th2  1  0.185299  0.699476  0.702491  1
  Th  Th3  1  0.699597  0.187092  0.701861  1
  Th  Th4  1  0.204802  0.203786  0.540943  1
  Th  Th5  1  0.795077  0.797845  0.455123  1
  Th  Th6  1  0.682960  0.679520  0.983457  1
  Th  Th7  1  0.318445  0.317006  0.021301  1
  Ti  Ti8  1  0.999538  0.002373  0.001394  1
  Se  Se9  1  0.823296  0.430605  0.530188  1
  Se  Se10  1  0.432889  0.820643  0.531189  1
  Se  Se11  1  0.178348  0.567519  0.467520  1
  Se  Se12  1  0.569714  0.178958  0.468218  1
  Se  Se13  1  0.942544  0.321471  0.029943  1
  Se  Se14  1  0.324133  0.942404  0.026309  1
  Se  Se15  1  0.057264  0.678240  0.971858  1
  Se  Se16  1  0.676892  0.057759  0.971950  1
  Se  Se17  1  0.206317  0.207734  0.276781  1
  Se  Se18  1  0.790856  0.790492  0.723911  1
  Se  Se19  1  0.061776  0.060770  0.773061  1
  Se  Se20  1  0.935995  0.945709  0.228307  1
  Se  Se21  1  0.302906  0.304779  0.754459  1
  Se  Se22  1  0.696288  0.692892  0.246111  1
  Se  Se23  1  0.519732  0.521523  0.832711  1
  Se  Se24  1  0.479348  0.479149  0.165702  1
  Se  Se25  1  0.002140  0.995585  0.503173  1
