# generated using pymatgen
data_DyTm11InFe3Ag
_symmetry_space_group_name_H-M   'P 1'
_cell_length_a   8.20234208
_cell_length_b   8.20374901
_cell_length_c   8.20234177
_cell_angle_alpha   110.17983241
_cell_angle_beta   106.78105242
_cell_angle_gamma   111.48113429
_symmetry_Int_Tables_number   1
_chemical_formula_structural   DyTm11InFe3Ag
_chemical_formula_sum   'Dy1 Tm11 In1 Fe3 Ag1'
_cell_volume   424.16424349
_cell_formula_units_Z   1
loop_
 _symmetry_equiv_pos_site_id
 _symmetry_equiv_pos_as_xyz
  1  'x, y, z'
loop_
 _atom_site_type_symbol
 _atom_site_label
 _atom_site_symmetry_multiplicity
 _atom_site_fract_x
 _atom_site_fract_y
 _atom_site_fract_z
 _atom_site_occupancy
  Dy  Dy0  1  0.192888  0.442450  0.249562  1
  Tm  Tm1  1  0.807099  0.558746  0.751648  1
  Tm  Tm2  1  0.193041  0.944570  0.751528  1
  Tm  Tm3  1  0.959805  0.189096  0.769639  1
  Tm  Tm4  1  0.806100  0.054761  0.248661  1
  Tm  Tm5  1  0.039152  0.811174  0.228621  1
  Tm  Tm6  1  0.419457  0.189096  0.229293  1
  Tm  Tm7  1  0.582554  0.811174  0.772022  1
  Tm  Tm8  1  0.309661  0.307762  0.617888  1
  Tm  Tm9  1  0.692041  0.691992  0.382847  1
  Tm  Tm10  1  0.689875  0.307762  0.998102  1
  Tm  Tm11  1  0.309144  0.691992  0.999950  1
  In  In12  1  0.499893  0.000021  0.500128  1
  Fe  Fe13  1  0.383696  0.383486  0.999790  1
  Fe  Fe14  1  0.617604  0.617898  0.000294  1
  Fe  Fe15  1  0.999495  0.998366  0.998871  1
  Ag  Ag16  1  0.998496  0.499652  0.501156  1
