# generated using pymatgen
data_NaCaCrN3
_symmetry_space_group_name_H-M   'P 1'
_cell_length_a   5.95359949
_cell_length_b   5.95359945
_cell_length_c   11.57384200
_cell_angle_alpha   90.00000000
_cell_angle_beta   90.00000000
_cell_angle_gamma   123.80060207
_symmetry_Int_Tables_number   1
_chemical_formula_structural   NaCaCrN3
_chemical_formula_sum   'Na4 Ca4 Cr4 N12'
_cell_volume   340.89970831
_cell_formula_units_Z   4
loop_
 _symmetry_equiv_pos_site_id
 _symmetry_equiv_pos_as_xyz
  1  'x, y, z'
loop_
 _atom_site_type_symbol
 _atom_site_label
 _atom_site_symmetry_multiplicity
 _atom_site_fract_x
 _atom_site_fract_y
 _atom_site_fract_z
 _atom_site_occupancy
  Na  Na0  1  0.547805  0.452195  0.644928  1
  Na  Na1  1  0.452195  0.547805  0.355072  1
  Na  Na2  1  0.952195  0.047805  0.144928  1
  Na  Na3  1  0.047805  0.952195  0.855072  1
  Ca  Ca4  1  0.860663  0.139337  0.582339  1
  Ca  Ca5  1  0.139337  0.860663  0.417661  1
  Ca  Ca6  1  0.639337  0.360663  0.082339  1
  Ca  Ca7  1  0.360663  0.639337  0.917661  1
  Cr  Cr8  1  0.742870  0.257130  0.837694  1
  Cr  Cr9  1  0.257130  0.742870  0.162306  1
  Cr  Cr10  1  0.757130  0.242870  0.337694  1
  Cr  Cr11  1  0.242870  0.757130  0.662306  1
  N  N12  1  0.830737  0.169263  0.959479  1
  N  N13  1  0.169263  0.830737  0.040521  1
  N  N14  1  0.669263  0.330737  0.459479  1
  N  N15  1  0.330737  0.669263  0.540521  1
  N  N16  1  0.586270  0.413730  0.871579  1
  N  N17  1  0.413730  0.586270  0.128421  1
  N  N18  1  0.913730  0.086270  0.371579  1
  N  N19  1  0.086270  0.913730  0.628421  1
  N  N20  1  0.538582  0.961418  0.750000  1
  N  N21  1  0.961418  0.538582  0.250000  1
  N  N22  1  0.461418  0.038582  0.250000  1
  N  N23  1  0.038582  0.461418  0.750000  1
