# generated using pymatgen
data_CaTbAl20Os3Rh
_symmetry_space_group_name_H-M   'P 1'
_cell_length_a   6.87616427
_cell_length_b   6.87850771
_cell_length_c   9.17613109
_cell_angle_alpha   90.32548495
_cell_angle_beta   90.13558661
_cell_angle_gamma   96.49182089
_symmetry_Int_Tables_number   1
_chemical_formula_structural   CaTbAl20Os3Rh
_chemical_formula_sum   'Ca1 Tb1 Al20 Os3 Rh1'
_cell_volume   431.21853763
_cell_formula_units_Z   1
loop_
 _symmetry_equiv_pos_site_id
 _symmetry_equiv_pos_as_xyz
  1  'x, y, z'
loop_
 _atom_site_type_symbol
 _atom_site_label
 _atom_site_symmetry_multiplicity
 _atom_site_fract_x
 _atom_site_fract_y
 _atom_site_fract_z
 _atom_site_occupancy
  Ca  Ca0  1  0.872501  0.124880  0.750179  1
  Tb  Tb1  1  0.129299  0.874369  0.249697  1
  Al  Al2  1  0.620272  0.376282  0.546700  1
  Al  Al3  1  0.379594  0.623484  0.445637  1
  Al  Al4  1  0.377305  0.623086  0.051640  1
  Al  Al5  1  0.623081  0.376070  0.955612  1
  Al  Al6  1  0.223875  0.225174  0.499189  1
  Al  Al7  1  0.775096  0.777080  0.500135  1
  Al  Al8  1  0.775581  0.777774  0.998926  1
  Al  Al9  1  0.222267  0.223257  0.002312  1
  Al  Al10  1  0.844874  0.156081  0.100407  1
  Al  Al11  1  0.158951  0.839550  0.899578  1
  Al  Al12  1  0.160876  0.839685  0.602636  1
  Al  Al13  1  0.842161  0.155988  0.396949  1
  Al  Al14  1  0.854505  0.585153  0.750423  1
  Al  Al15  1  0.143310  0.415990  0.250028  1
  Al  Al16  1  0.413373  0.144043  0.750503  1
  Al  Al17  1  0.586972  0.858104  0.249484  1
  Al  Al18  1  0.220840  0.479674  0.752854  1
  Al  Al19  1  0.779149  0.518749  0.247565  1
  Al  Al20  1  0.520288  0.782044  0.748890  1
  Al  Al21  1  0.481715  0.219424  0.250942  1
  Os  Os22  1  0.999765  0.501888  0.000783  1
  Os  Os23  1  0.497655  0.000098  0.000748  1
  Os  Os24  1  0.497603  0.999931  0.499293  1
  Rh  Rh25  1  0.999092  0.502143  0.498891  1
