# generated using pymatgen
data_YU(Ni2As)4
_symmetry_space_group_name_H-M   'P 1'
_cell_length_a   7.23414274
_cell_length_b   7.23414274
_cell_length_c   3.80104400
_cell_angle_alpha   90.00000000
_cell_angle_beta   90.00000000
_cell_angle_gamma   89.17223798
_symmetry_Int_Tables_number   1
_chemical_formula_structural   YU(Ni2As)4
_chemical_formula_sum   'Y1 U1 Ni8 As4'
_cell_volume   198.89859695
_cell_formula_units_Z   1
loop_
 _symmetry_equiv_pos_site_id
 _symmetry_equiv_pos_as_xyz
  1  'x, y, z'
loop_
 _atom_site_type_symbol
 _atom_site_label
 _atom_site_symmetry_multiplicity
 _atom_site_fract_x
 _atom_site_fract_y
 _atom_site_fract_z
 _atom_site_occupancy
  Y  Y0  1  0.500000  0.500000  0.000000  1
  U  U1  1  0.000000  0.000000  0.500000  1
  Ni  Ni2  1  0.089959  0.347126  0.000000  1
  Ni  Ni3  1  0.910041  0.652873  0.000000  1
  Ni  Ni4  1  0.590160  0.154576  0.500000  1
  Ni  Ni5  1  0.409839  0.845424  0.500000  1
  Ni  Ni6  1  0.652873  0.910041  0.000000  1
  Ni  Ni7  1  0.347126  0.089959  0.000000  1
  Ni  Ni8  1  0.845424  0.409839  0.500000  1
  Ni  Ni9  1  0.154576  0.590160  0.500000  1
  As  As10  1  0.212755  0.787246  0.000000  1
  As  As11  1  0.787246  0.212755  0.000000  1
  As  As12  1  0.721249  0.721249  0.500000  1
  As  As13  1  0.278750  0.278750  0.500000  1
