# generated using pymatgen
data_TbDy2Lu2Si3H
_symmetry_space_group_name_H-M   'P 1'
_cell_length_a   8.39500449
_cell_length_b   8.39995129
_cell_length_c   6.14385500
_cell_angle_alpha   90.00000000
_cell_angle_beta   90.00000000
_cell_angle_gamma   120.01948814
_symmetry_Int_Tables_number   1
_chemical_formula_structural   TbDy2Lu2Si3H
_chemical_formula_sum   'Tb2 Dy4 Lu4 Si6 H2'
_cell_volume   375.13187774
_cell_formula_units_Z   2
loop_
 _symmetry_equiv_pos_site_id
 _symmetry_equiv_pos_as_xyz
  1  'x, y, z'
loop_
 _atom_site_type_symbol
 _atom_site_label
 _atom_site_symmetry_multiplicity
 _atom_site_fract_x
 _atom_site_fract_y
 _atom_site_fract_z
 _atom_site_occupancy
  Tb  Tb0  1  0.749690  0.749663  0.750000  1
  Tb  Tb1  1  0.250310  0.999973  0.750000  1
  Dy  Dy2  1  0.000000  0.250656  0.750000  1
  Dy  Dy3  1  0.250556  0.250624  0.250000  1
  Dy  Dy4  1  0.749444  0.000067  0.250000  1
  Dy  Dy5  1  0.000000  0.749313  0.250000  1
  Lu  Lu6  1  0.666727  0.333307  0.000048  1
  Lu  Lu7  1  0.333273  0.666581  0.000048  1
  Lu  Lu8  1  0.333273  0.666581  0.499952  1
  Lu  Lu9  1  0.666727  0.333307  0.499952  1
  Si  Si10  1  0.391411  0.391703  0.750000  1
  Si  Si11  1  0.608589  0.000292  0.750000  1
  Si  Si12  1  0.000000  0.607860  0.750000  1
  Si  Si13  1  0.608386  0.608396  0.250000  1
  Si  Si14  1  0.391614  0.000010  0.250000  1
  Si  Si15  1  0.000000  0.391551  0.250000  1
  H  H16  1  0.000000  0.000059  0.499732  1
  H  H17  1  0.000000  0.000059  0.000268  1
