# generated using pymatgen
data_Tb3In3CuNiRu
_symmetry_space_group_name_H-M   'P 1'
_cell_length_a   7.65601700
_cell_length_b   7.65601830
_cell_length_c   3.76177600
_cell_angle_alpha   90.00000000
_cell_angle_beta   90.00000000
_cell_angle_gamma   119.99999008
_symmetry_Int_Tables_number   1
_chemical_formula_structural   Tb3In3CuNiRu
_chemical_formula_sum   'Tb3 In3 Cu1 Ni1 Ru1'
_cell_volume   190.95430694
_cell_formula_units_Z   1
loop_
 _symmetry_equiv_pos_site_id
 _symmetry_equiv_pos_as_xyz
  1  'x, y, z'
loop_
 _atom_site_type_symbol
 _atom_site_label
 _atom_site_symmetry_multiplicity
 _atom_site_fract_x
 _atom_site_fract_y
 _atom_site_fract_z
 _atom_site_occupancy
  Tb  Tb0  1  0.982503  0.583926  0.500000  1
  Tb  Tb1  1  0.601423  0.017497  0.500000  1
  Tb  Tb2  1  0.416074  0.398577  0.500000  1
  In  In3  1  0.746122  0.748457  0.000000  1
  In  In4  1  0.002335  0.253878  0.000000  1
  In  In5  1  0.251543  0.997665  0.000000  1
  Cu  Cu6  1  0.333333  0.666667  0.000000  1
  Ni  Ni7  1  0.000000  0.000000  0.500000  1
  Ru  Ru8  1  0.666667  0.333333  0.000000  1
