# generated using pymatgen
data_Th3GaPd5
_symmetry_space_group_name_H-M   'P 1'
_cell_length_a   7.38435600
_cell_length_b   7.65139522
_cell_length_c   3.87557900
_cell_angle_alpha   90.00000000
_cell_angle_beta   90.00000000
_cell_angle_gamma   118.85205577
_symmetry_Int_Tables_number   1
_chemical_formula_structural   Th3GaPd5
_chemical_formula_sum   'Th3 Ga1 Pd5'
_cell_volume   191.79126515
_cell_formula_units_Z   1
loop_
 _symmetry_equiv_pos_site_id
 _symmetry_equiv_pos_as_xyz
  1  'x, y, z'
loop_
 _atom_site_type_symbol
 _atom_site_label
 _atom_site_symmetry_multiplicity
 _atom_site_fract_x
 _atom_site_fract_y
 _atom_site_fract_z
 _atom_site_occupancy
  Th  Th0  1  0.017484  0.401450  0.500000  1
  Th  Th1  1  0.616034  0.598550  0.500000  1
  Th  Th2  1  0.375427  0.000000  0.500000  1
  Ga  Ga3  1  0.738195  0.000000  0.000000  1
  Pd  Pd4  1  0.354029  0.678411  0.000000  1
  Pd  Pd5  1  0.675620  0.321589  0.000000  1
  Pd  Pd6  1  0.963903  0.000000  0.500000  1
  Pd  Pd7  1  0.001471  0.743634  0.000000  1
  Pd  Pd8  1  0.257837  0.256366  0.000000  1
