# generated using pymatgen
data_Ce2Si2(Ni5H)3
_symmetry_space_group_name_H-M   'P 1'
_cell_length_a   6.28273378
_cell_length_b   6.28273459
_cell_length_c   6.26837253
_cell_angle_alpha   83.61636817
_cell_angle_beta   83.61637784
_cell_angle_gamma   84.24134556
_symmetry_Int_Tables_number   1
_chemical_formula_structural   Ce2Si2(Ni5H)3
_chemical_formula_sum   'Ce2 Si2 Ni15 H3'
_cell_volume   243.39969562
_cell_formula_units_Z   1
loop_
 _symmetry_equiv_pos_site_id
 _symmetry_equiv_pos_as_xyz
  1  'x, y, z'
loop_
 _atom_site_type_symbol
 _atom_site_label
 _atom_site_symmetry_multiplicity
 _atom_site_fract_x
 _atom_site_fract_y
 _atom_site_fract_z
 _atom_site_occupancy
  Ce  Ce0  1  0.659175  0.659175  0.647693  1
  Ce  Ce1  1  0.340825  0.340825  0.352307  1
  Si  Si2  1  0.500000  0.000000  0.000000  1
  Si  Si3  1  0.000000  0.500000  0.000000  1
  Ni  Ni4  1  0.000000  0.000000  0.500000  1
  Ni  Ni5  1  0.707906  0.292094  0.000000  1
  Ni  Ni6  1  0.000664  0.708514  0.286698  1
  Ni  Ni7  1  0.291486  0.999336  0.713302  1
  Ni  Ni8  1  0.999336  0.291486  0.713302  1
  Ni  Ni9  1  0.708514  0.000664  0.286698  1
  Ni  Ni10  1  0.292094  0.707906  0.000000  1
  Ni  Ni11  1  0.343454  0.343454  0.862614  1
  Ni  Ni12  1  0.854054  0.344849  0.344282  1
  Ni  Ni13  1  0.344849  0.854054  0.344282  1
  Ni  Ni14  1  0.656546  0.656546  0.137386  1
  Ni  Ni15  1  0.145946  0.655151  0.655718  1
  Ni  Ni16  1  0.655151  0.145946  0.655718  1
  Ni  Ni17  1  0.900191  0.900191  0.897025  1
  Ni  Ni18  1  0.099809  0.099809  0.102975  1
  H  H19  1  0.500000  0.500000  0.000000  1
  H  H20  1  0.000000  0.500000  0.500000  1
  H  H21  1  0.500000  0.000000  0.500000  1
