# generated using pymatgen
data_Sr4Tm2MoOsO12
_symmetry_space_group_name_H-M   'P 1'
_cell_length_a   5.81891198
_cell_length_b   5.87545758
_cell_length_c   10.04288372
_cell_angle_alpha   90.07237064
_cell_angle_beta   125.30239112
_cell_angle_gamma   89.99317571
_symmetry_Int_Tables_number   1
_chemical_formula_structural   Sr4Tm2MoOsO12
_chemical_formula_sum   'Sr4 Tm2 Mo1 Os1 O12'
_cell_volume   280.21539841
_cell_formula_units_Z   1
loop_
 _symmetry_equiv_pos_site_id
 _symmetry_equiv_pos_as_xyz
  1  'x, y, z'
loop_
 _atom_site_type_symbol
 _atom_site_label
 _atom_site_symmetry_multiplicity
 _atom_site_fract_x
 _atom_site_fract_y
 _atom_site_fract_z
 _atom_site_occupancy
  Sr  Sr0  1  0.256082  0.034617  0.748831  1
  Sr  Sr1  1  0.260247  0.467825  0.252249  1
  Sr  Sr2  1  0.743918  0.965383  0.251169  1
  Sr  Sr3  1  0.739753  0.532175  0.747751  1
  Tm  Tm4  1  0.000000  0.500000  0.500000  1
  Tm  Tm5  1  0.000000  0.000000  0.000000  1
  Mo  Mo6  1  0.500000  0.000000  0.500000  1
  Os  Os7  1  0.500000  0.500000  0.000000  1
  O  O8  1  0.192436  0.483005  0.763980  1
  O  O9  1  0.195882  0.016848  0.265406  1
  O  O10  1  0.807564  0.516995  0.236020  1
  O  O11  1  0.804118  0.983152  0.734594  1
  O  O12  1  0.737743  0.202725  0.461605  1
  O  O13  1  0.735700  0.296937  0.963919  1
  O  O14  1  0.262257  0.797275  0.538395  1
  O  O15  1  0.264300  0.703063  0.036081  1
  O  O16  1  0.661746  0.722750  0.460838  1
  O  O17  1  0.663595  0.772828  0.962988  1
  O  O18  1  0.338254  0.277250  0.539162  1
  O  O19  1  0.336405  0.227172  0.037012  1
