# generated using pymatgen
data_PrTm3(CBr)2
_symmetry_space_group_name_H-M   'P 1'
_cell_length_a   3.67003700
_cell_length_b   3.67003701
_cell_length_c   14.29435100
_cell_angle_alpha   90.00000000
_cell_angle_beta   90.00000000
_cell_angle_gamma   120.00000891
_symmetry_Int_Tables_number   1
_chemical_formula_structural   PrTm3(CBr)2
_chemical_formula_sum   'Pr1 Tm3 C2 Br2'
_cell_volume   166.73851203
_cell_formula_units_Z   1
loop_
 _symmetry_equiv_pos_site_id
 _symmetry_equiv_pos_as_xyz
  1  'x, y, z'
loop_
 _atom_site_type_symbol
 _atom_site_label
 _atom_site_symmetry_multiplicity
 _atom_site_fract_x
 _atom_site_fract_y
 _atom_site_fract_z
 _atom_site_occupancy
  Pr  Pr0  1  0.333333  0.666667  0.409585  1
  Tm  Tm1  1  0.333333  0.666667  0.083241  1
  Tm  Tm2  1  0.666667  0.333333  0.594835  1
  Tm  Tm3  1  0.666667  0.333333  0.910108  1
  C  C4  1  0.000000  0.000000  0.996023  1
  C  C5  1  0.000000  0.000000  0.517199  1
  Br  Br6  1  0.666667  0.333333  0.232729  1
  Br  Br7  1  0.333333  0.666667  0.756281  1
