# generated using pymatgen
data_Pr8Nd8CdHg3Pt4
_symmetry_space_group_name_H-M   'P 1'
_cell_length_a   10.04560927
_cell_length_b   10.04753578
_cell_length_c   10.04083700
_cell_angle_alpha   60.02204882
_cell_angle_beta   60.01571032
_cell_angle_gamma   60.07862793
_symmetry_Int_Tables_number   1
_chemical_formula_structural   Pr8Nd8CdHg3Pt4
_chemical_formula_sum   'Pr8 Nd8 Cd1 Hg3 Pt4'
_cell_volume   717.25269262
_cell_formula_units_Z   1
loop_
 _symmetry_equiv_pos_site_id
 _symmetry_equiv_pos_as_xyz
  1  'x, y, z'
loop_
 _atom_site_type_symbol
 _atom_site_label
 _atom_site_symmetry_multiplicity
 _atom_site_fract_x
 _atom_site_fract_y
 _atom_site_fract_z
 _atom_site_occupancy
  Pr  Pr0  1  0.190221  0.191558  0.809111  1
  Pr  Pr1  1  0.807748  0.807984  0.192134  1
  Pr  Pr2  1  0.937153  0.563062  0.564084  1
  Pr  Pr3  1  0.561967  0.937842  0.936138  1
  Pr  Pr4  1  0.561967  0.937842  0.564051  1
  Pr  Pr5  1  0.937153  0.563062  0.935700  1
  Pr  Pr6  1  0.562108  0.563030  0.937430  1
  Pr  Pr7  1  0.936089  0.936056  0.563927  1
  Nd  Nd8  1  0.351135  0.350737  0.349859  1
  Nd  Nd9  1  0.351135  0.350737  0.948269  1
  Nd  Nd10  1  0.351827  0.945996  0.351089  1
  Nd  Nd11  1  0.943335  0.352387  0.352138  1
  Nd  Nd12  1  0.808366  0.192126  0.192181  1
  Nd  Nd13  1  0.190706  0.809219  0.808087  1
  Nd  Nd14  1  0.190706  0.809219  0.191987  1
  Nd  Nd15  1  0.808366  0.192126  0.807326  1
  Cd  Cd16  1  0.261748  0.579638  0.579306  1
  Hg  Hg17  1  0.582946  0.584877  0.585744  1
  Hg  Hg18  1  0.582946  0.584877  0.246431  1
  Hg  Hg19  1  0.583216  0.246606  0.585088  1
  Pt  Pt20  1  0.142376  0.143276  0.145434  1
  Pt  Pt21  1  0.142376  0.143276  0.568914  1
  Pt  Pt22  1  0.143993  0.570137  0.142935  1
  Pt  Pt23  1  0.570415  0.144325  0.142630  1
