# generated using pymatgen
data_Pr6MgCd22Sn
_symmetry_space_group_name_H-M   'P 1'
_cell_length_a   10.12407829
_cell_length_b   10.12497596
_cell_length_c   10.12511515
_cell_angle_alpha   60.69844373
_cell_angle_beta   60.69608824
_cell_angle_gamma   60.69573193
_symmetry_Int_Tables_number   1
_chemical_formula_structural   Pr6MgCd22Sn
_chemical_formula_sum   'Pr6 Mg1 Cd22 Sn1'
_cell_volume   745.43731408
_cell_formula_units_Z   1
loop_
 _symmetry_equiv_pos_site_id
 _symmetry_equiv_pos_as_xyz
  1  'x, y, z'
loop_
 _atom_site_type_symbol
 _atom_site_label
 _atom_site_symmetry_multiplicity
 _atom_site_fract_x
 _atom_site_fract_y
 _atom_site_fract_z
 _atom_site_occupancy
  Pr  Pr0  1  0.777293  0.777291  0.223982  1
  Pr  Pr1  1  0.222708  0.776014  0.222709  1
  Pr  Pr2  1  0.776010  0.222707  0.222709  1
  Pr  Pr3  1  0.222707  0.222709  0.776018  1
  Pr  Pr4  1  0.777292  0.223986  0.777291  1
  Pr  Pr5  1  0.223990  0.777293  0.777291  1
  Mg  Mg6  1  0.500000  0.500000  0.500000  1
  Cd  Cd7  1  0.838854  0.838841  0.479199  1
  Cd  Cd8  1  0.838857  0.479194  0.838846  1
  Cd  Cd9  1  0.479199  0.838852  0.838853  1
  Cd  Cd10  1  0.840247  0.840245  0.840244  1
  Cd  Cd11  1  0.161146  0.161159  0.520801  1
  Cd  Cd12  1  0.161143  0.520806  0.161154  1
  Cd  Cd13  1  0.520801  0.161148  0.161147  1
  Cd  Cd14  1  0.159753  0.159755  0.159756  1
  Cd  Cd15  1  0.625817  0.625808  0.125550  1
  Cd  Cd16  1  0.625810  0.125554  0.625810  1
  Cd  Cd17  1  0.125550  0.625809  0.625817  1
  Cd  Cd18  1  0.626066  0.626069  0.626059  1
  Cd  Cd19  1  0.374183  0.374192  0.874450  1
  Cd  Cd20  1  0.374190  0.874446  0.374190  1
  Cd  Cd21  1  0.874450  0.374191  0.374183  1
  Cd  Cd22  1  0.373934  0.373931  0.373941  1
  Cd  Cd23  1  0.000000  0.000000  0.500000  1
  Cd  Cd24  1  0.500000  0.000000  0.500000  1
  Cd  Cd25  1  0.000000  0.500000  0.500000  1
  Cd  Cd26  1  0.500000  0.500000  0.000000  1
  Cd  Cd27  1  0.000000  0.500000  0.000000  1
  Cd  Cd28  1  0.500000  0.000000  0.000000  1
  Sn  Sn29  1  0.000000  0.000000  0.000000  1
