# generated using pymatgen
data_Dy6Er7Th3(MgRh)4
_symmetry_space_group_name_H-M   'P 1'
_cell_length_a   9.74401436
_cell_length_b   9.73879085
_cell_length_c   9.73879000
_cell_angle_alpha   59.99999610
_cell_angle_beta   60.01772770
_cell_angle_gamma   60.01772744
_symmetry_Int_Tables_number   1
_chemical_formula_structural   Dy6Er7Th3(MgRh)4
_chemical_formula_sum   'Dy6 Er7 Th3 Mg4 Rh4'
_cell_volume   653.65601687
_cell_formula_units_Z   1
loop_
 _symmetry_equiv_pos_site_id
 _symmetry_equiv_pos_as_xyz
  1  'x, y, z'
loop_
 _atom_site_type_symbol
 _atom_site_label
 _atom_site_symmetry_multiplicity
 _atom_site_fract_x
 _atom_site_fract_y
 _atom_site_fract_z
 _atom_site_occupancy
  Dy  Dy0  1  0.184784  0.814839  0.814839  1
  Dy  Dy1  1  0.815272  0.184368  0.184368  1
  Dy  Dy2  1  0.815272  0.184368  0.815991  1
  Dy  Dy3  1  0.184784  0.814839  0.185539  1
  Dy  Dy4  1  0.815272  0.815991  0.184368  1
  Dy  Dy5  1  0.184784  0.185539  0.814839  1
  Er  Er6  1  0.203440  0.598854  0.598854  1
  Er  Er7  1  0.063839  0.436569  0.436569  1
  Er  Er8  1  0.435583  0.064783  0.064783  1
  Er  Er9  1  0.435583  0.064783  0.434851  1
  Er  Er10  1  0.063839  0.436569  0.063021  1
  Er  Er11  1  0.435583  0.434851  0.064783  1
  Er  Er12  1  0.063839  0.063021  0.436569  1
  Th  Th13  1  0.596071  0.599211  0.599211  1
  Th  Th14  1  0.596071  0.599211  0.205507  1
  Th  Th15  1  0.596071  0.205507  0.599211  1
  Mg  Mg16  1  0.832709  0.829483  0.829483  1
  Mg  Mg17  1  0.832709  0.829483  0.508324  1
  Mg  Mg18  1  0.832709  0.508324  0.829483  1
  Mg  Mg19  1  0.506064  0.831312  0.831312  1
  Rh  Rh20  1  0.395315  0.391706  0.391706  1
  Rh  Rh21  1  0.395315  0.391706  0.821274  1
  Rh  Rh22  1  0.395315  0.821274  0.391706  1
  Rh  Rh23  1  0.819771  0.393410  0.393410  1
