# generated using pymatgen
data_Rb2Sc2FeCuSe6
_symmetry_space_group_name_H-M   'P 1'
_cell_length_a   8.06341686
_cell_length_b   8.06341649
_cell_length_c   10.36197400
_cell_angle_alpha   90.00000000
_cell_angle_beta   90.00000000
_cell_angle_gamma   151.50155367
_symmetry_Int_Tables_number   1
_chemical_formula_structural   Rb2Sc2FeCuSe6
_chemical_formula_sum   'Rb2 Sc2 Fe1 Cu1 Se6'
_cell_volume   321.45627980
_cell_formula_units_Z   1
loop_
 _symmetry_equiv_pos_site_id
 _symmetry_equiv_pos_as_xyz
  1  'x, y, z'
loop_
 _atom_site_type_symbol
 _atom_site_label
 _atom_site_symmetry_multiplicity
 _atom_site_fract_x
 _atom_site_fract_y
 _atom_site_fract_z
 _atom_site_occupancy
  Rb  Rb0  1  0.755010  0.244989  0.250000  1
  Rb  Rb1  1  0.248714  0.751285  0.750000  1
  Sc  Sc2  1  0.496338  0.503662  0.985372  1
  Sc  Sc3  1  0.496338  0.503662  0.514628  1
  Fe  Fe4  1  0.033868  0.966131  0.250000  1
  Cu  Cu5  1  0.967847  0.032152  0.750000  1
  Se  Se6  1  0.114712  0.885287  0.057506  1
  Se  Se7  1  0.442076  0.557923  0.250000  1
  Se  Se8  1  0.114712  0.885287  0.442494  1
  Se  Se9  1  0.883180  0.116819  0.552431  1
  Se  Se10  1  0.564019  0.435980  0.750000  1
  Se  Se11  1  0.883180  0.116819  0.947569  1
