# generated using pymatgen
data_Tb2Dy6Hf7Si16Mo5
_symmetry_space_group_name_H-M   'P 1'
_cell_length_a   7.13466394
_cell_length_b   7.13053060
_cell_length_c   13.07534848
_cell_angle_alpha   89.76471261
_cell_angle_beta   89.96690533
_cell_angle_gamma   90.12061305
_symmetry_Int_Tables_number   1
_chemical_formula_structural   Tb2Dy6Hf7Si16Mo5
_chemical_formula_sum   'Tb2 Dy6 Hf7 Si16 Mo5'
_cell_volume   665.18729109
_cell_formula_units_Z   1
loop_
 _symmetry_equiv_pos_site_id
 _symmetry_equiv_pos_as_xyz
  1  'x, y, z'
loop_
 _atom_site_type_symbol
 _atom_site_label
 _atom_site_symmetry_multiplicity
 _atom_site_fract_x
 _atom_site_fract_y
 _atom_site_fract_z
 _atom_site_occupancy
  Tb  Tb0  1  0.345166  0.999312  0.784132  1
  Tb  Tb1  1  0.655729  0.001190  0.284245  1
  Dy  Dy2  1  0.999090  0.344944  0.218692  1
  Dy  Dy3  1  0.001519  0.656861  0.713896  1
  Dy  Dy4  1  0.154787  0.500282  0.465641  1
  Dy  Dy5  1  0.499343  0.845255  0.036113  1
  Dy  Dy6  1  0.844424  0.501680  0.965639  1
  Dy  Dy7  1  0.499503  0.154766  0.532154  1
  Hf  Hf8  1  0.852829  0.006254  0.874504  1
  Hf  Hf9  1  0.504584  0.648387  0.620938  1
  Hf  Hf10  1  0.353216  0.493039  0.876038  1
  Hf  Hf11  1  0.491679  0.349410  0.125809  1
  Hf  Hf12  1  0.647444  0.510304  0.377079  1
  Hf  Hf13  1  0.994208  0.147432  0.625873  1
  Hf  Hf14  1  0.003965  0.852014  0.124411  1
  Si  Si15  1  0.360955  0.289294  0.320773  1
  Si  Si16  1  0.639232  0.701908  0.815384  1
  Si  Si17  1  0.199450  0.863674  0.560988  1
  Si  Si18  1  0.139429  0.796409  0.932844  1
  Si  Si19  1  0.797814  0.140604  0.067088  1
  Si  Si20  1  0.870513  0.197235  0.430412  1
  Si  Si21  1  0.299545  0.360316  0.682585  1
  Si  Si22  1  0.702868  0.638288  0.183508  1
  Si  Si23  1  0.293519  0.046110  0.189334  1
  Si  Si24  1  0.705325  0.948949  0.683479  1
  Si  Si25  1  0.438757  0.797625  0.430697  1
  Si  Si26  1  0.204005  0.550085  0.066516  1
  Si  Si27  1  0.550751  0.203886  0.934643  1
  Si  Si28  1  0.794853  0.446375  0.566480  1
  Si  Si29  1  0.050493  0.296583  0.816480  1
  Si  Si30  1  0.956584  0.714396  0.317796  1
  Mo  Mo31  1  0.173823  0.174145  0.002091  1
  Mo  Mo32  1  0.827247  0.827132  0.499184  1
  Mo  Mo33  1  0.323005  0.674465  0.250153  1
  Mo  Mo34  1  0.676643  0.325271  0.750045  1
  Mo  Mo35  1  0.147705  0.996120  0.374357  1
