# generated using pymatgen
data_Na16MnNi7P8(O4F)8
_symmetry_space_group_name_H-M   'P 1'
_cell_length_a   5.26264800
_cell_length_b   13.60447666
_cell_length_c   13.86526000
_cell_angle_alpha   59.46988510
_cell_angle_beta   90.00000000
_cell_angle_gamma   90.00000000
_symmetry_Int_Tables_number   1
_chemical_formula_structural   Na16MnNi7P8(O4F)8
_chemical_formula_sum   'Na16 Mn1 Ni7 P8 O32 F8'
_cell_volume   855.06676929
_cell_formula_units_Z   1
loop_
 _symmetry_equiv_pos_site_id
 _symmetry_equiv_pos_as_xyz
  1  'x, y, z'
loop_
 _atom_site_type_symbol
 _atom_site_label
 _atom_site_symmetry_multiplicity
 _atom_site_fract_x
 _atom_site_fract_y
 _atom_site_fract_z
 _atom_site_occupancy
  Na  Na0  1  0.269692  0.918737  0.914390  1
  Na  Na1  1  0.772912  0.084463  0.584781  1
  Na  Na2  1  0.728127  0.081159  0.088044  1
  Na  Na3  1  0.227709  0.919421  0.411088  1
  Na  Na4  1  0.237040  0.170522  0.418414  1
  Na  Na5  1  0.737597  0.828223  0.082625  1
  Na  Na6  1  0.765132  0.829161  0.577905  1
  Na  Na7  1  0.262899  0.171107  0.919246  1
  Na  Na8  1  0.761931  0.580329  0.083560  1
  Na  Na9  1  0.260419  0.418734  0.418029  1
  Na  Na10  1  0.240099  0.418097  0.918480  1
  Na  Na11  1  0.739711  0.581253  0.581826  1
  Na  Na12  1  0.761852  0.329406  0.338123  1
  Na  Na13  1  0.263994  0.670617  0.161756  1
  Na  Na14  1  0.238129  0.670452  0.661863  1
  Na  Na15  1  0.738083  0.330309  0.837867  1
  Mn  Mn16  1  0.778187  0.826890  0.844742  1
  Ni  Ni17  1  0.285017  0.177323  0.648910  1
  Ni  Ni18  1  0.214169  0.176724  0.149070  1
  Ni  Ni19  1  0.714075  0.823179  0.350880  1
  Ni  Ni20  1  0.222896  0.674610  0.927562  1
  Ni  Ni21  1  0.721423  0.323696  0.575067  1
  Ni  Ni22  1  0.778502  0.322748  0.075380  1
  Ni  Ni23  1  0.278668  0.676711  0.424572  1
  P  P24  1  0.700853  0.087990  0.322914  1
  P  P25  1  0.201159  0.912218  0.177102  1
  P  P26  1  0.297938  0.913946  0.672728  1
  P  P27  1  0.797600  0.090629  0.823696  1
  P  P28  1  0.792523  0.587792  0.339150  1
  P  P29  1  0.292359  0.410891  0.162057  1
  P  P30  1  0.207400  0.412174  0.661208  1
  P  P31  1  0.709215  0.585445  0.839669  1
  O  O32  1  0.085221  0.605889  0.345660  1
  O  O33  1  0.585121  0.393264  0.154881  1
  O  O34  1  0.914752  0.394150  0.654353  1
  O  O35  1  0.417384  0.605777  0.846103  1
  O  O36  1  0.090653  0.107718  0.799607  1
  O  O37  1  0.593639  0.899939  0.687382  1
  O  O38  1  0.908392  0.892895  0.200848  1
  O  O39  1  0.408072  0.107120  0.299378  1
  O  O40  1  0.857179  0.648290  0.890535  1
  O  O41  1  0.351923  0.346050  0.612502  1
  O  O42  1  0.147866  0.345101  0.113071  1
  O  O43  1  0.648170  0.654016  0.387739  1
  O  O44  1  0.271803  0.541436  0.588322  1
  O  O45  1  0.767715  0.455530  0.910851  1
  O  O46  1  0.728292  0.458507  0.411948  1
  O  O47  1  0.226633  0.539778  0.089953  1
  O  O48  1  0.202228  0.869817  0.597187  1
  O  O49  1  0.714878  0.136011  0.899944  1
  O  O50  1  0.786145  0.131242  0.400741  1
  O  O51  1  0.286799  0.869515  0.098949  1
  O  O52  1  0.711634  0.631325  0.217669  1
  O  O53  1  0.212877  0.366821  0.283951  1
  O  O54  1  0.287167  0.368415  0.782923  1
  O  O55  1  0.789053  0.630964  0.717505  1
  O  O56  1  0.263769  0.041552  0.122400  1
  O  O57  1  0.763323  0.958579  0.377595  1
  O  O58  1  0.732023  0.961337  0.881042  1
  O  O59  1  0.227939  0.042175  0.621334  1
  O  O60  1  0.843278  0.153724  0.207866  1
  O  O61  1  0.343395  0.846059  0.292292  1
  O  O62  1  0.175969  0.845072  0.792419  1
  O  O63  1  0.655919  0.154380  0.708155  1
  F  F64  1  0.503980  0.247397  0.500999  1
  F  F65  1  0.009465  0.750739  0.001942  1
  F  F66  1  0.495299  0.752427  0.499300  1
  F  F67  1  0.996451  0.247173  0.001309  1
  F  F68  1  0.503911  0.742268  0.977983  1
  F  F69  1  0.005112  0.253305  0.530191  1
  F  F70  1  0.494598  0.251859  0.031011  1
  F  F71  1  0.994665  0.747430  0.469453  1
