# generated using pymatgen
data_Ho5Er11Cd4Ir3Pd
_symmetry_space_group_name_H-M   'P 1'
_cell_length_a   9.55548345
_cell_length_b   9.54736293
_cell_length_c   9.54736553
_cell_angle_alpha   60.31726995
_cell_angle_beta   60.28093898
_cell_angle_gamma   60.28353954
_symmetry_Int_Tables_number   1
_chemical_formula_structural   Ho5Er11Cd4Ir3Pd
_chemical_formula_sum   'Ho5 Er11 Cd4 Ir3 Pd1'
_cell_volume   619.98848505
_cell_formula_units_Z   1
loop_
 _symmetry_equiv_pos_site_id
 _symmetry_equiv_pos_as_xyz
  1  'x, y, z'
loop_
 _atom_site_type_symbol
 _atom_site_label
 _atom_site_symmetry_multiplicity
 _atom_site_fract_x
 _atom_site_fract_y
 _atom_site_fract_z
 _atom_site_occupancy
  Ho  Ho0  1  0.814224  0.187523  0.187522  1
  Ho  Ho1  1  0.813168  0.188537  0.812859  1
  Ho  Ho2  1  0.187514  0.814262  0.187213  1
  Ho  Ho3  1  0.813159  0.812861  0.188537  1
  Ho  Ho4  1  0.187514  0.187213  0.814266  1
  Er  Er5  1  0.597539  0.597587  0.597595  1
  Er  Er6  1  0.603729  0.603922  0.197476  1
  Er  Er7  1  0.603731  0.197473  0.603925  1
  Er  Er8  1  0.197314  0.603903  0.603899  1
  Er  Er9  1  0.054669  0.440371  0.440366  1
  Er  Er10  1  0.438184  0.060624  0.060617  1
  Er  Er11  1  0.440229  0.054713  0.440533  1
  Er  Er12  1  0.060674  0.438302  0.060546  1
  Er  Er13  1  0.440232  0.440538  0.054709  1
  Er  Er14  1  0.060673  0.060546  0.438305  1
  Er  Er15  1  0.188838  0.812809  0.812807  1
  Cd  Cd16  1  0.831090  0.830901  0.830890  1
  Cd  Cd17  1  0.830836  0.830849  0.506376  1
  Cd  Cd18  1  0.830840  0.506370  0.830849  1
  Cd  Cd19  1  0.506171  0.830858  0.830850  1
  Ir  Ir20  1  0.391404  0.391509  0.823844  1
  Ir  Ir21  1  0.391409  0.823872  0.391523  1
  Ir  Ir22  1  0.823829  0.391418  0.391455  1
  Pd  Pd23  1  0.393031  0.393043  0.393042  1
