# generated using pymatgen
data_Co8HgO16
_symmetry_space_group_name_H-M   'P 1'
_cell_length_a   5.73293565
_cell_length_b   6.77664065
_cell_length_c   6.93048001
_cell_angle_alpha   89.40651442
_cell_angle_beta   78.06799759
_cell_angle_gamma   77.44597064
_symmetry_Int_Tables_number   1
_chemical_formula_structural   Co8HgO16
_chemical_formula_sum   'Co8 Hg1 O16'
_cell_volume   256.96505820
_cell_formula_units_Z   1
loop_
 _symmetry_equiv_pos_site_id
 _symmetry_equiv_pos_as_xyz
  1  'x, y, z'
loop_
 _atom_site_type_symbol
 _atom_site_label
 _atom_site_symmetry_multiplicity
 _atom_site_fract_x
 _atom_site_fract_y
 _atom_site_fract_z
 _atom_site_occupancy
  Co  Co0  1  0.574689  0.510911  0.180788  1
  Co  Co1  1  0.071782  0.512138  0.184226  1
  Co  Co2  1  0.159020  0.812720  0.523401  1
  Co  Co3  1  0.660646  0.815862  0.523830  1
  Co  Co4  1  0.327834  0.184880  0.479209  1
  Co  Co5  1  0.821207  0.185296  0.480703  1
  Co  Co6  1  0.421646  0.491331  0.817651  1
  Co  Co7  1  0.917891  0.488957  0.815547  1
  Hg  Hg8  1  0.229343  0.004758  0.004677  1
  O  O9  1  0.822370  0.642864  0.056851  1
  O  O10  1  0.316341  0.654962  0.055686  1
  O  O11  1  0.972954  0.691594  0.391225  1
  O  O12  1  0.475458  0.691202  0.391839  1
  O  O13  1  0.843529  0.961741  0.644878  1
  O  O14  1  0.337664  0.961674  0.653022  1
  O  O15  1  0.335118  0.365682  0.274873  1
  O  O16  1  0.838845  0.356461  0.271410  1
  O  O17  1  0.157227  0.632272  0.714993  1
  O  O18  1  0.657504  0.637223  0.719428  1
  O  O19  1  0.145086  0.036591  0.352947  1
  O  O20  1  0.643313  0.034492  0.358925  1
  O  O21  1  0.011961  0.310705  0.609713  1
  O  O22  1  0.520243  0.306587  0.606473  1
  O  O23  1  0.174214  0.350683  0.944158  1
  O  O24  1  0.671211  0.358415  0.943545  1
