# generated using pymatgen
data_Pr3Nd3(BiO7)2
_symmetry_space_group_name_H-M   'P 1'
_cell_length_a   6.77858517
_cell_length_b   6.79303490
_cell_length_c   7.99605715
_cell_angle_alpha   106.89884219
_cell_angle_beta   89.84299135
_cell_angle_gamma   98.33982959
_symmetry_Int_Tables_number   1
_chemical_formula_structural   Pr3Nd3(BiO7)2
_chemical_formula_sum   'Pr3 Nd3 Bi2 O14'
_cell_volume   348.26906945
_cell_formula_units_Z   1
loop_
 _symmetry_equiv_pos_site_id
 _symmetry_equiv_pos_as_xyz
  1  'x, y, z'
loop_
 _atom_site_type_symbol
 _atom_site_label
 _atom_site_symmetry_multiplicity
 _atom_site_fract_x
 _atom_site_fract_y
 _atom_site_fract_z
 _atom_site_occupancy
  Pr  Pr0  1  0.732245  0.464245  0.117529  1
  Pr  Pr1  1  0.739574  0.480280  0.615954  1
  Pr  Pr2  1  0.260131  0.519865  0.384587  1
  Nd  Nd3  1  0.460463  0.003574  0.252353  1
  Nd  Nd4  1  0.538954  0.996008  0.747505  1
  Nd  Nd5  1  0.268448  0.536057  0.882175  1
  Bi  Bi6  1  0.000268  0.000529  0.500422  1
  Bi  Bi7  1  0.000529  0.000090  0.999687  1
  O  O8  1  0.440180  0.644495  0.165337  1
  O  O9  1  0.556766  0.355283  0.833233  1
  O  O10  1  0.296745  0.926913  0.954256  1
  O  O11  1  0.703611  0.071630  0.045570  1
  O  O12  1  0.292918  0.926295  0.511088  1
  O  O13  1  0.707409  0.073663  0.488828  1
  O  O14  1  0.548610  0.362322  0.345462  1
  O  O15  1  0.450326  0.637611  0.655905  1
  O  O16  1  0.926848  0.674331  0.955263  1
  O  O17  1  0.075463  0.325584  0.043160  1
  O  O18  1  0.073912  0.336579  0.616196  1
  O  O19  1  0.926877  0.664262  0.385394  1
  O  O20  1  0.887770  0.914285  0.727900  1
  O  O21  1  0.111952  0.086103  0.272195  1
