# generated using pymatgen
data_Tm3Lu9Co5Bi
_symmetry_space_group_name_H-M   'P 1'
_cell_length_a   8.12042177
_cell_length_b   8.12001994
_cell_length_c   8.12042090
_cell_angle_alpha   111.01549275
_cell_angle_beta   111.10111818
_cell_angle_gamma   106.34355312
_symmetry_Int_Tables_number   1
_chemical_formula_structural   Tm3Lu9Co5Bi
_chemical_formula_sum   'Tm3 Lu9 Co5 Bi1'
_cell_volume   411.25997157
_cell_formula_units_Z   1
loop_
 _symmetry_equiv_pos_site_id
 _symmetry_equiv_pos_as_xyz
  1  'x, y, z'
loop_
 _atom_site_type_symbol
 _atom_site_label
 _atom_site_symmetry_multiplicity
 _atom_site_fract_x
 _atom_site_fract_y
 _atom_site_fract_z
 _atom_site_occupancy
  Tm  Tm0  1  0.788450  0.591903  0.803452  1
  Tm  Tm1  1  0.211476  0.015220  0.803745  1
  Tm  Tm2  1  0.788662  0.985228  0.196566  1
  Lu  Lu3  1  0.284799  0.182795  0.467265  1
  Lu  Lu4  1  0.714898  0.817180  0.532292  1
  Lu  Lu5  1  0.284888  0.817180  0.102281  1
  Lu  Lu6  1  0.715530  0.182795  0.897997  1
  Lu  Lu7  1  0.619488  0.311427  0.308300  1
  Lu  Lu8  1  0.380118  0.688348  0.691223  1
  Lu  Lu9  1  0.003127  0.311427  0.691939  1
  Lu  Lu10  1  0.997125  0.688348  0.308231  1
  Lu  Lu11  1  0.211130  0.407736  0.196607  1
  Co  Co12  1  0.000277  0.375150  0.374873  1
  Co  Co13  1  0.999921  0.624818  0.624897  1
  Co  Co14  1  0.387247  0.887067  0.499820  1
  Co  Co15  1  0.612642  0.112698  0.500056  1
  Co  Co16  1  0.000342  0.000665  0.000324  1
  Bi  Bi17  1  0.499882  0.500014  0.000132  1
