# generated using pymatgen
data_La4Zn7Cd4Cu13
_symmetry_space_group_name_H-M   'P 1'
_cell_length_a   5.15290606
_cell_length_b   8.53942169
_cell_length_c   10.77045772
_cell_angle_alpha   90.05406003
_cell_angle_beta   89.90662411
_cell_angle_gamma   89.74050398
_symmetry_Int_Tables_number   1
_chemical_formula_structural   La4Zn7Cd4Cu13
_chemical_formula_sum   'La4 Zn7 Cd4 Cu13'
_cell_volume   473.92499920
_cell_formula_units_Z   1
loop_
 _symmetry_equiv_pos_site_id
 _symmetry_equiv_pos_as_xyz
  1  'x, y, z'
loop_
 _atom_site_type_symbol
 _atom_site_label
 _atom_site_symmetry_multiplicity
 _atom_site_fract_x
 _atom_site_fract_y
 _atom_site_fract_z
 _atom_site_occupancy
  La  La0  1  0.250560  0.756650  0.057335  1
  La  La1  1  0.749495  0.241937  0.939164  1
  La  La2  1  0.749107  0.743951  0.560012  1
  La  La3  1  0.249995  0.254652  0.445567  1
  Zn  Zn4  1  0.246702  0.818312  0.742299  1
  Zn  Zn5  1  0.757830  0.186148  0.256770  1
  Zn  Zn6  1  0.758101  0.686235  0.244086  1
  Zn  Zn7  1  0.245081  0.312042  0.755815  1
  Zn  Zn8  1  0.503935  0.565897  0.815223  1
  Zn  Zn9  1  0.496904  0.434197  0.185263  1
  Zn  Zn10  1  0.496697  0.934616  0.314788  1
  Cd  Cd11  1  0.245162  0.635738  0.367953  1
  Cd  Cd12  1  0.751196  0.361832  0.632468  1
  Cd  Cd13  1  0.752729  0.865507  0.866200  1
  Cd  Cd14  1  0.245862  0.136473  0.131919  1
  Cu  Cu15  1  0.003229  0.434390  0.186589  1
  Cu  Cu16  1  0.501717  0.065205  0.685428  1
  Cu  Cu17  1  0.997468  0.566488  0.813574  1
  Cu  Cu18  1  0.995582  0.065826  0.685756  1
  Cu  Cu19  1  0.003449  0.935113  0.313358  1
  Cu  Cu20  1  0.245600  0.917931  0.515562  1
  Cu  Cu21  1  0.752447  0.080088  0.485214  1
  Cu  Cu22  1  0.755909  0.580464  0.015707  1
  Cu  Cu23  1  0.244417  0.418466  0.984089  1
  Cu  Cu24  1  0.247994  0.557788  0.610993  1
  Cu  Cu25  1  0.751180  0.443656  0.389945  1
  Cu  Cu26  1  0.751973  0.943200  0.109968  1
  Cu  Cu27  1  0.249681  0.057198  0.888955  1
