# generated using pymatgen
data_YTa(SnPd5)3
_symmetry_space_group_name_H-M   'P 1'
_cell_length_a   4.04495700
_cell_length_b   4.04495700
_cell_length_c   20.32027500
_cell_angle_alpha   90.00000000
_cell_angle_beta   90.00000000
_cell_angle_gamma   90.00000000
_symmetry_Int_Tables_number   1
_chemical_formula_structural   YTa(SnPd5)3
_chemical_formula_sum   'Y1 Ta1 Sn3 Pd15'
_cell_volume   332.47377878
_cell_formula_units_Z   1
loop_
 _symmetry_equiv_pos_site_id
 _symmetry_equiv_pos_as_xyz
  1  'x, y, z'
loop_
 _atom_site_type_symbol
 _atom_site_label
 _atom_site_symmetry_multiplicity
 _atom_site_fract_x
 _atom_site_fract_y
 _atom_site_fract_z
 _atom_site_occupancy
  Y  Y0  1  0.000000  0.000000  0.799766  1
  Ta  Ta1  1  0.000000  0.000000  0.001142  1
  Sn  Sn2  1  0.000000  0.000000  0.201658  1
  Sn  Sn3  1  0.000000  0.000000  0.400358  1
  Sn  Sn4  1  0.000000  0.000000  0.599588  1
  Pd  Pd5  1  0.500000  0.500000  0.003060  1
  Pd  Pd6  1  0.500000  0.500000  0.195778  1
  Pd  Pd7  1  0.500000  0.500000  0.397570  1
  Pd  Pd8  1  0.500000  0.500000  0.598116  1
  Pd  Pd9  1  0.500000  0.500000  0.803711  1
  Pd  Pd10  1  0.500000  0.000000  0.095521  1
  Pd  Pd11  1  0.500000  0.000000  0.297766  1
  Pd  Pd12  1  0.500000  0.000000  0.498771  1
  Pd  Pd13  1  0.500000  0.000000  0.697980  1
  Pd  Pd14  1  0.500000  0.000000  0.909589  1
  Pd  Pd15  1  0.000000  0.500000  0.095521  1
  Pd  Pd16  1  0.000000  0.500000  0.297766  1
  Pd  Pd17  1  0.000000  0.500000  0.498771  1
  Pd  Pd18  1  0.000000  0.500000  0.697980  1
  Pd  Pd19  1  0.000000  0.500000  0.909589  1
