# generated using pymatgen
data_La2Nd3Th3(ZnRh)8
_symmetry_space_group_name_H-M   'P 1'
_cell_length_a   3.96222400
_cell_length_b   7.56473017
_cell_length_c   16.60574164
_cell_angle_alpha   90.20941075
_cell_angle_beta   90.00000000
_cell_angle_gamma   90.00000000
_symmetry_Int_Tables_number   1
_chemical_formula_structural   La2Nd3Th3(ZnRh)8
_chemical_formula_sum   'La2 Nd3 Th3 Zn8 Rh8'
_cell_volume   497.72315060
_cell_formula_units_Z   1
loop_
 _symmetry_equiv_pos_site_id
 _symmetry_equiv_pos_as_xyz
  1  'x, y, z'
loop_
 _atom_site_type_symbol
 _atom_site_label
 _atom_site_symmetry_multiplicity
 _atom_site_fract_x
 _atom_site_fract_y
 _atom_site_fract_z
 _atom_site_occupancy
  La  La0  1  0.750000  0.943703  0.283559  1
  La  La1  1  0.750000  0.827235  0.060436  1
  Nd  Nd2  1  0.750000  0.447190  0.214260  1
  Nd  Nd3  1  0.250000  0.054025  0.714991  1
  Nd  Nd4  1  0.250000  0.552262  0.785610  1
  Th  Th5  1  0.250000  0.173398  0.939393  1
  Th  Th6  1  0.250000  0.673382  0.561706  1
  Th  Th7  1  0.750000  0.326055  0.439055  1
  Zn  Zn8  1  0.750000  0.007390  0.561252  1
  Zn  Zn9  1  0.250000  0.616801  0.346671  1
  Zn  Zn10  1  0.750000  0.380603  0.654649  1
  Zn  Zn11  1  0.250000  0.499267  0.059626  1
  Zn  Zn12  1  0.750000  0.508179  0.939198  1
  Zn  Zn13  1  0.250000  0.992557  0.440221  1
  Zn  Zn14  1  0.250000  0.122761  0.151458  1
  Zn  Zn15  1  0.750000  0.880376  0.845670  1
  Rh  Rh16  1  0.750000  0.739707  0.441672  1
  Rh  Rh17  1  0.250000  0.249157  0.320844  1
  Rh  Rh18  1  0.750000  0.246407  0.820949  1
  Rh  Rh19  1  0.750000  0.749089  0.679088  1
  Rh  Rh20  1  0.250000  0.259785  0.559134  1
  Rh  Rh21  1  0.250000  0.746588  0.186992  1
  Rh  Rh22  1  0.750000  0.250065  0.058610  1
  Rh  Rh23  1  0.250000  0.754016  0.934956  1
