# generated using pymatgen
data_Er5ThAl18
_symmetry_space_group_name_H-M   'P 1'
_cell_length_a   14.58612735
_cell_length_b   14.58612780
_cell_length_c   14.58612942
_cell_angle_alpha   24.51219751
_cell_angle_beta   24.51219594
_cell_angle_gamma   24.51219463
_symmetry_Int_Tables_number   1
_chemical_formula_structural   Er5ThAl18
_chemical_formula_sum   'Er5 Th1 Al18'
_cell_volume   469.65623136
_cell_formula_units_Z   1
loop_
 _symmetry_equiv_pos_site_id
 _symmetry_equiv_pos_as_xyz
  1  'x, y, z'
loop_
 _atom_site_type_symbol
 _atom_site_label
 _atom_site_symmetry_multiplicity
 _atom_site_fract_x
 _atom_site_fract_y
 _atom_site_fract_z
 _atom_site_occupancy
  Er  Er0  1  0.891496  0.891496  0.891496  1
  Er  Er1  1  0.390667  0.390667  0.390667  1
  Er  Er2  1  0.999581  0.999581  0.999581  1
  Er  Er3  1  0.500013  0.500013  0.500013  1
  Er  Er4  1  0.609242  0.609242  0.609242  1
  Th  Th5  1  0.109086  0.109086  0.109086  1
  Al  Al6  1  0.924120  0.371322  0.371322  1
  Al  Al7  1  0.425744  0.867574  0.867574  1
  Al  Al8  1  0.371322  0.371322  0.924120  1
  Al  Al9  1  0.867574  0.867574  0.425744  1
  Al  Al10  1  0.371322  0.924120  0.371322  1
  Al  Al11  1  0.867574  0.425744  0.867574  1
  Al  Al12  1  0.576396  0.129187  0.129187  1
  Al  Al13  1  0.077973  0.628559  0.628559  1
  Al  Al14  1  0.129187  0.129187  0.576396  1
  Al  Al15  1  0.628559  0.628559  0.077973  1
  Al  Al16  1  0.129187  0.576396  0.129187  1
  Al  Al17  1  0.628559  0.077973  0.628559  1
  Al  Al18  1  0.497897  0.497897  0.002651  1
  Al  Al19  1  0.999764  0.999764  0.504422  1
  Al  Al20  1  0.497897  0.002651  0.497897  1
  Al  Al21  1  0.999764  0.504422  0.999764  1
  Al  Al22  1  0.002651  0.497897  0.497897  1
  Al  Al23  1  0.504422  0.999764  0.999764  1
