# generated using pymatgen
data_Pr4NdSn10(IrPd)2
_symmetry_space_group_name_H-M   'P 1'
_cell_length_a   14.26799820
_cell_length_b   14.24376720
_cell_length_c   4.69867400
_cell_angle_alpha   90.00000000
_cell_angle_beta   90.00000000
_cell_angle_gamma   89.98074451
_symmetry_Int_Tables_number   1
_chemical_formula_structural   Pr4NdSn10(IrPd)2
_chemical_formula_sum   'Pr8 Nd2 Sn20 Ir4 Pd4'
_cell_volume   954.91167363
_cell_formula_units_Z   2
loop_
 _symmetry_equiv_pos_site_id
 _symmetry_equiv_pos_as_xyz
  1  'x, y, z'
loop_
 _atom_site_type_symbol
 _atom_site_label
 _atom_site_symmetry_multiplicity
 _atom_site_fract_x
 _atom_site_fract_y
 _atom_site_fract_z
 _atom_site_occupancy
  Pr  Pr0  1  0.500000  0.500000  0.000000  1
  Pr  Pr1  1  0.000000  0.000000  0.000000  1
  Pr  Pr2  1  0.175390  0.318109  0.500000  1
  Pr  Pr3  1  0.824610  0.681891  0.500000  1
  Pr  Pr4  1  0.892435  0.390288  0.500000  1
  Pr  Pr5  1  0.107565  0.609712  0.500000  1
  Pr  Pr6  1  0.392492  0.109670  0.500000  1
  Pr  Pr7  1  0.607508  0.890330  0.500000  1
  Nd  Nd8  1  0.675207  0.181824  0.500000  1
  Nd  Nd9  1  0.324793  0.818176  0.500000  1
  Sn  Sn10  1  0.568011  0.070770  0.000000  1
  Sn  Sn11  1  0.431989  0.929230  0.000000  1
  Sn  Sn12  1  0.067854  0.429373  0.000000  1
  Sn  Sn13  1  0.932146  0.570627  0.000000  1
  Sn  Sn14  1  0.652057  0.703453  0.000000  1
  Sn  Sn15  1  0.347943  0.296547  0.000000  1
  Sn  Sn16  1  0.152226  0.796572  0.000000  1
  Sn  Sn17  1  0.847774  0.203428  0.000000  1
  Sn  Sn18  1  0.300230  0.652397  0.000000  1
  Sn  Sn19  1  0.699770  0.347603  0.000000  1
  Sn  Sn20  1  0.199814  0.152214  0.000000  1
  Sn  Sn21  1  0.800186  0.847786  0.000000  1
  Sn  Sn22  1  0.663775  0.504276  0.500000  1
  Sn  Sn23  1  0.336225  0.495724  0.500000  1
  Sn  Sn24  1  0.163847  0.995648  0.500000  1
  Sn  Sn25  1  0.836153  0.004352  0.500000  1
  Sn  Sn26  1  0.496690  0.662332  0.500000  1
  Sn  Sn27  1  0.503310  0.337668  0.500000  1
  Sn  Sn28  1  0.003216  0.162235  0.500000  1
  Sn  Sn29  1  0.996784  0.837765  0.500000  1
  Ir  Ir30  1  0.467547  0.743192  0.000000  1
  Ir  Ir31  1  0.532453  0.256808  0.000000  1
  Ir  Ir32  1  0.032253  0.243085  0.000000  1
  Ir  Ir33  1  0.967747  0.756915  0.000000  1
  Pd  Pd34  1  0.745067  0.531891  0.000000  1
  Pd  Pd35  1  0.254933  0.468109  0.000000  1
  Pd  Pd36  1  0.245140  0.967946  0.000000  1
  Pd  Pd37  1  0.754860  0.032054  0.000000  1
