# generated using pymatgen
data_La2Tb2Zn10SiGe
_symmetry_space_group_name_H-M   'P 1'
_cell_length_a   8.34324542
_cell_length_b   8.34324653
_cell_length_c   8.85574600
_cell_angle_alpha   90.00000000
_cell_angle_beta   90.00000000
_cell_angle_gamma   149.41868588
_symmetry_Int_Tables_number   1
_chemical_formula_structural   La2Tb2Zn10SiGe
_chemical_formula_sum   'La2 Tb2 Zn10 Si1 Ge1'
_cell_volume   313.62363289
_cell_formula_units_Z   1
loop_
 _symmetry_equiv_pos_site_id
 _symmetry_equiv_pos_as_xyz
  1  'x, y, z'
loop_
 _atom_site_type_symbol
 _atom_site_label
 _atom_site_symmetry_multiplicity
 _atom_site_fract_x
 _atom_site_fract_y
 _atom_site_fract_z
 _atom_site_occupancy
  La  La0  1  0.000267  0.999733  0.498072  1
  La  La1  1  0.000267  0.999733  0.001928  1
  Tb  Tb2  1  0.201457  0.798543  0.250000  1
  Tb  Tb3  1  0.797564  0.202436  0.750000  1
  Zn  Zn4  1  0.812269  0.187731  0.391361  1
  Zn  Zn5  1  0.187706  0.812294  0.608143  1
  Zn  Zn6  1  0.812269  0.187731  0.108639  1
  Zn  Zn7  1  0.187706  0.812294  0.891857  1
  Zn  Zn8  1  0.653157  0.346843  0.474312  1
  Zn  Zn9  1  0.345225  0.654775  0.522050  1
  Zn  Zn10  1  0.653157  0.346843  0.025688  1
  Zn  Zn11  1  0.345225  0.654775  0.977950  1
  Zn  Zn12  1  0.403162  0.596838  0.250000  1
  Zn  Zn13  1  0.599821  0.400179  0.750000  1
  Si  Si14  1  0.559732  0.440268  0.250000  1
  Ge  Ge15  1  0.441014  0.558986  0.750000  1
