# generated using pymatgen
data_Dy5CrCoO12
_symmetry_space_group_name_H-M   'P 1'
_cell_length_a   6.76601025
_cell_length_b   6.76601213
_cell_length_c   7.28532400
_cell_angle_alpha   74.45255892
_cell_angle_beta   74.45255448
_cell_angle_gamma   50.78767985
_symmetry_Int_Tables_number   1
_chemical_formula_structural   Dy5CrCoO12
_chemical_formula_sum   'Dy5 Cr1 Co1 O12'
_cell_volume   246.77338102
_cell_formula_units_Z   1
loop_
 _symmetry_equiv_pos_site_id
 _symmetry_equiv_pos_as_xyz
  1  'x, y, z'
loop_
 _atom_site_type_symbol
 _atom_site_label
 _atom_site_symmetry_multiplicity
 _atom_site_fract_x
 _atom_site_fract_y
 _atom_site_fract_z
 _atom_site_occupancy
  Dy  Dy0  1  0.685690  0.695876  0.667250  1
  Dy  Dy1  1  0.682560  0.704122  0.143044  1
  Dy  Dy2  1  0.997159  0.002841  0.000000  1
  Dy  Dy3  1  0.295878  0.317440  0.856956  1
  Dy  Dy4  1  0.304124  0.314310  0.332750  1
  Cr  Cr5  1  0.778427  0.221573  0.500000  1
  Co  Co6  1  0.258304  0.741696  0.500000  1
  O  O7  1  0.398986  0.912305  0.920510  1
  O  O8  1  0.585384  0.104612  0.577090  1
  O  O9  1  0.895388  0.414616  0.422910  1
  O  O10  1  0.087695  0.601014  0.079490  1
  O  O11  1  0.009299  0.992137  0.325308  1
  O  O12  1  0.501881  0.498402  0.678105  1
  O  O13  1  0.895447  0.406920  0.924867  1
  O  O14  1  0.099224  0.577988  0.578971  1
  O  O15  1  0.422012  0.900776  0.421029  1
  O  O16  1  0.593080  0.104553  0.075133  1
  O  O17  1  0.501598  0.498119  0.321895  1
  O  O18  1  0.007863  0.990701  0.674692  1
