# generated using pymatgen
data_YEr3(HfRh)4
_symmetry_space_group_name_H-M   'P 1'
_cell_length_a   4.57843400
_cell_length_b   6.98715983
_cell_length_c   8.23365713
_cell_angle_alpha   89.89376201
_cell_angle_beta   90.00000000
_cell_angle_gamma   90.00000000
_symmetry_Int_Tables_number   1
_chemical_formula_structural   YEr3(HfRh)4
_chemical_formula_sum   'Y1 Er3 Hf4 Rh4'
_cell_volume   263.39629827
_cell_formula_units_Z   1
loop_
 _symmetry_equiv_pos_site_id
 _symmetry_equiv_pos_as_xyz
  1  'x, y, z'
loop_
 _atom_site_type_symbol
 _atom_site_label
 _atom_site_symmetry_multiplicity
 _atom_site_fract_x
 _atom_site_fract_y
 _atom_site_fract_z
 _atom_site_occupancy
  Y  Y0  1  0.250000  0.983382  0.321809  1
  Er  Er1  1  0.250000  0.481649  0.177225  1
  Er  Er2  1  0.750000  0.018313  0.677667  1
  Er  Er3  1  0.750000  0.518015  0.822266  1
  Hf  Hf4  1  0.250000  0.359872  0.573504  1
  Hf  Hf5  1  0.250000  0.858244  0.926676  1
  Hf  Hf6  1  0.750000  0.640805  0.427978  1
  Hf  Hf7  1  0.750000  0.140477  0.070918  1
  Rh  Rh8  1  0.250000  0.230858  0.908372  1
  Rh  Rh9  1  0.250000  0.730622  0.593814  1
  Rh  Rh10  1  0.750000  0.767304  0.090343  1
  Rh  Rh11  1  0.750000  0.270461  0.409430  1
