# generated using pymatgen
data_Ce3AlPt3Au2
_symmetry_space_group_name_H-M   'P 1'
_cell_length_a   7.63584999
_cell_length_b   7.39840401
_cell_length_c   3.89335700
_cell_angle_alpha   90.00000000
_cell_angle_beta   90.00000000
_cell_angle_gamma   118.97656995
_symmetry_Int_Tables_number   1
_chemical_formula_structural   Ce3AlPt3Au2
_chemical_formula_sum   'Ce3 Al1 Pt3 Au2'
_cell_volume   192.41428605
_cell_formula_units_Z   1
loop_
 _symmetry_equiv_pos_site_id
 _symmetry_equiv_pos_as_xyz
  1  'x, y, z'
loop_
 _atom_site_type_symbol
 _atom_site_label
 _atom_site_symmetry_multiplicity
 _atom_site_fract_x
 _atom_site_fract_y
 _atom_site_fract_z
 _atom_site_occupancy
  Ce  Ce0  1  0.404383  0.395946  0.500000  1
  Ce  Ce1  1  0.595617  0.991564  0.500000  1
  Ce  Ce2  1  0.000000  0.613420  0.500000  1
  Al  Al3  1  0.000000  0.254285  0.000000  1
  Pt  Pt4  1  0.693650  0.326334  0.000000  1
  Pt  Pt5  1  0.306350  0.632685  0.000000  1
  Pt  Pt6  1  0.000000  0.044224  0.500000  1
  Au  Au7  1  0.734217  0.737879  0.000000  1
  Au  Au8  1  0.265783  0.003662  0.000000  1
