# generated using pymatgen
data_Zr8Si5P7Ir16
_symmetry_space_group_name_H-M   'P 1'
_cell_length_a   12.84204710
_cell_length_b   12.84071875
_cell_length_c   3.92872600
_cell_angle_alpha   90.00000000
_cell_angle_beta   90.00000000
_cell_angle_gamma   119.72403375
_symmetry_Int_Tables_number   1
_chemical_formula_structural   Zr8Si5P7Ir16
_chemical_formula_sum   'Zr8 Si5 P7 Ir16'
_cell_volume   562.60936194
_cell_formula_units_Z   1
loop_
 _symmetry_equiv_pos_site_id
 _symmetry_equiv_pos_as_xyz
  1  'x, y, z'
loop_
 _atom_site_type_symbol
 _atom_site_label
 _atom_site_symmetry_multiplicity
 _atom_site_fract_x
 _atom_site_fract_y
 _atom_site_fract_z
 _atom_site_occupancy
  Zr  Zr0  1  0.440636  0.444010  0.000000  1
  Zr  Zr1  1  0.556929  0.000410  0.000000  1
  Zr  Zr2  1  0.003512  0.556958  0.000000  1
  Zr  Zr3  1  0.667413  0.334015  0.000000  1
  Zr  Zr4  1  0.333701  0.669330  0.000000  1
  Zr  Zr5  1  0.808333  0.807161  0.500000  1
  Zr  Zr6  1  0.191489  0.001929  0.500000  1
  Zr  Zr7  1  0.999151  0.188122  0.500000  1
  Si  Si8  1  0.484323  0.312831  0.500000  1
  Si  Si9  1  0.690411  0.173251  0.500000  1
  Si  Si10  1  0.828514  0.515379  0.500000  1
  Si  Si11  1  0.516294  0.828287  0.500000  1
  Si  Si12  1  0.173953  0.692704  0.500000  1
  P  P13  1  0.646533  0.643550  0.000000  1
  P  P14  1  0.354126  0.001210  0.000000  1
  P  P15  1  0.996316  0.350033  0.000000  1
  P  P16  1  0.825258  0.997273  0.000000  1
  P  P17  1  0.998830  0.825745  0.000000  1
  P  P18  1  0.310241  0.481687  0.500000  1
  P  P19  1  0.172985  0.172106  0.000000  1
  Ir  Ir20  1  0.184615  0.364916  0.000000  1
  Ir  Ir21  1  0.179104  0.813016  0.000000  1
  Ir  Ir22  1  0.821802  0.629822  0.000000  1
  Ir  Ir23  1  0.809243  0.176573  0.000000  1
  Ir  Ir24  1  0.367423  0.190019  0.000000  1
  Ir  Ir25  1  0.139318  0.495897  0.500000  1
  Ir  Ir26  1  0.359002  0.873071  0.500000  1
  Ir  Ir27  1  0.502791  0.638592  0.500000  1
  Ir  Ir28  1  0.641803  0.514534  0.500000  1
  Ir  Ir29  1  0.875398  0.357927  0.500000  1
  Ir  Ir30  1  0.490580  0.132478  0.500000  1
  Ir  Ir31  1  0.999880  0.999547  0.000000  1
  Ir  Ir32  1  0.728074  0.997675  0.500000  1
  Ir  Ir33  1  0.999996  0.728863  0.500000  1
  Ir  Ir34  1  0.631016  0.817516  0.000000  1
  Ir  Ir35  1  0.271008  0.273565  0.500000  1
