# generated using pymatgen
data_Ca6Zn15PtN
_symmetry_space_group_name_H-M   'P 1'
_cell_length_a   8.23224707
_cell_length_b   8.09171853
_cell_length_c   8.23224700
_cell_angle_alpha   109.12579295
_cell_angle_beta   109.81443821
_cell_angle_gamma   109.12578402
_symmetry_Int_Tables_number   1
_chemical_formula_structural   Ca6Zn15PtN
_chemical_formula_sum   'Ca6 Zn15 Pt1 N1'
_cell_volume   423.92530585
_cell_formula_units_Z   1
loop_
 _symmetry_equiv_pos_site_id
 _symmetry_equiv_pos_as_xyz
  1  'x, y, z'
loop_
 _atom_site_type_symbol
 _atom_site_label
 _atom_site_symmetry_multiplicity
 _atom_site_fract_x
 _atom_site_fract_y
 _atom_site_fract_z
 _atom_site_occupancy
  Ca  Ca0  1  0.000000  0.259512  0.251761  1
  Ca  Ca1  1  0.251761  0.992249  0.251761  1
  Ca  Ca2  1  0.748239  0.007751  0.748239  1
  Ca  Ca3  1  0.748239  0.740488  0.000000  1
  Ca  Ca4  1  0.251761  0.259512  0.000000  1
  Ca  Ca5  1  0.000000  0.740488  0.748239  1
  Zn  Zn6  1  0.500000  0.500000  0.500000  1
  Zn  Zn7  1  0.500000  0.000000  0.000000  1
  Zn  Zn8  1  0.000000  0.000000  0.500000  1
  Zn  Zn9  1  0.682572  0.341286  0.341286  1
  Zn  Zn10  1  0.341286  0.000000  0.658714  1
  Zn  Zn11  1  0.341359  0.682303  0.341359  1
  Zn  Zn12  1  0.341286  0.341286  0.682572  1
  Zn  Zn13  1  0.341359  0.659055  0.000000  1
  Zn  Zn14  1  0.000000  0.340945  0.658641  1
  Zn  Zn15  1  0.000000  0.659055  0.341359  1
  Zn  Zn16  1  0.658714  0.658714  0.317428  1
  Zn  Zn17  1  0.658714  0.000000  0.341286  1
  Zn  Zn18  1  0.658641  0.340945  0.000000  1
  Zn  Zn19  1  0.658641  0.317697  0.658641  1
  Zn  Zn20  1  0.317428  0.658714  0.658714  1
  Pt  Pt21  1  0.000000  0.500000  0.000000  1
  N  N22  1  0.000000  0.000000  0.000000  1
