# generated using pymatgen
data_Ho4Al4Ir3Pd
_symmetry_space_group_name_H-M   'P 1'
_cell_length_a   4.28919700
_cell_length_b   6.84587220
_cell_length_c   7.89362149
_cell_angle_alpha   90.09144752
_cell_angle_beta   90.00000000
_cell_angle_gamma   90.00000000
_symmetry_Int_Tables_number   1
_chemical_formula_structural   Ho4Al4Ir3Pd
_chemical_formula_sum   'Ho4 Al4 Ir3 Pd1'
_cell_volume   231.78243730
_cell_formula_units_Z   1
loop_
 _symmetry_equiv_pos_site_id
 _symmetry_equiv_pos_as_xyz
  1  'x, y, z'
loop_
 _atom_site_type_symbol
 _atom_site_label
 _atom_site_symmetry_multiplicity
 _atom_site_fract_x
 _atom_site_fract_y
 _atom_site_fract_z
 _atom_site_occupancy
  Ho  Ho0  1  0.250000  0.026643  0.676952  1
  Ho  Ho1  1  0.250000  0.537625  0.818133  1
  Ho  Ho2  1  0.750000  0.970503  0.320193  1
  Ho  Ho3  1  0.750000  0.472740  0.184089  1
  Al  Al4  1  0.250000  0.139026  0.065324  1
  Al  Al5  1  0.250000  0.640627  0.436957  1
  Al  Al6  1  0.750000  0.854434  0.938152  1
  Al  Al7  1  0.750000  0.361428  0.558700  1
  Ir  Ir8  1  0.250000  0.267314  0.381179  1
  Ir  Ir9  1  0.250000  0.767273  0.118422  1
  Ir  Ir10  1  0.750000  0.732640  0.620600  1
  Pd  Pd11  1  0.750000  0.229748  0.881302  1
