# generated using pymatgen
data_Dy2Mn3Co9As7
_symmetry_space_group_name_H-M   'P 1'
_cell_length_a   3.73611700
_cell_length_b   9.45361050
_cell_length_c   9.45361100
_cell_angle_alpha   119.99999823
_cell_angle_beta   90.00000000
_cell_angle_gamma   90.00000000
_symmetry_Int_Tables_number   1
_chemical_formula_structural   Dy2Mn3Co9As7
_chemical_formula_sum   'Dy2 Mn3 Co9 As7'
_cell_volume   289.16554257
_cell_formula_units_Z   1
loop_
 _symmetry_equiv_pos_site_id
 _symmetry_equiv_pos_as_xyz
  1  'x, y, z'
loop_
 _atom_site_type_symbol
 _atom_site_label
 _atom_site_symmetry_multiplicity
 _atom_site_fract_x
 _atom_site_fract_y
 _atom_site_fract_z
 _atom_site_occupancy
  Dy  Dy0  1  0.000000  0.666667  0.333333  1
  Dy  Dy1  1  0.500000  0.333333  0.666667  1
  Mn  Mn2  1  0.500000  0.777786  0.895370  1
  Mn  Mn3  1  0.500000  0.117584  0.222214  1
  Mn  Mn4  1  0.500000  0.104630  0.882416  1
  Co  Co5  1  0.000000  0.570857  0.940801  1
  Co  Co6  1  0.000000  0.369944  0.429143  1
  Co  Co7  1  0.000000  0.059199  0.630056  1
  Co  Co8  1  0.000000  0.881471  0.158520  1
  Co  Co9  1  0.000000  0.277049  0.118529  1
  Co  Co10  1  0.000000  0.841480  0.722951  1
  Co  Co11  1  0.500000  0.949433  0.384645  1
  Co  Co12  1  0.500000  0.435210  0.050567  1
  Co  Co13  1  0.500000  0.615355  0.564790  1
  As  As14  1  0.000000  0.000000  0.000000  1
  As  As15  1  0.500000  0.709595  0.118661  1
  As  As16  1  0.500000  0.409067  0.290405  1
  As  As17  1  0.500000  0.881339  0.590933  1
  As  As18  1  0.000000  0.585244  0.699573  1
  As  As19  1  0.000000  0.114329  0.414756  1
  As  As20  1  0.000000  0.300427  0.885671  1
