# generated using pymatgen
data_CaHo(Be12Cu)2
_symmetry_space_group_name_H-M   'P 1'
_cell_length_a   7.29484276
_cell_length_b   7.34838202
_cell_length_c   7.27079627
_cell_angle_alpha   59.86425733
_cell_angle_beta   59.83856836
_cell_angle_gamma   59.53816631
_symmetry_Int_Tables_number   1
_chemical_formula_structural   CaHo(Be12Cu)2
_chemical_formula_sum   'Ca1 Ho1 Be24 Cu2'
_cell_volume   274.00820067
_cell_formula_units_Z   1
loop_
 _symmetry_equiv_pos_site_id
 _symmetry_equiv_pos_as_xyz
  1  'x, y, z'
loop_
 _atom_site_type_symbol
 _atom_site_label
 _atom_site_symmetry_multiplicity
 _atom_site_fract_x
 _atom_site_fract_y
 _atom_site_fract_z
 _atom_site_occupancy
  Ca  Ca0  1  0.252006  0.247993  0.252004  1
  Ho  Ho1  1  0.746377  0.753622  0.746381  1
  Be  Be2  1  0.500066  0.499933  0.500071  1
  Be  Be3  1  0.000032  0.999978  0.000025  1
  Be  Be4  1  0.568268  0.789151  0.435306  1
  Be  Be5  1  0.435303  0.207303  0.568226  1
  Be  Be6  1  0.290685  0.932895  0.712902  1
  Be  Be7  1  0.712868  0.063487  0.290723  1
  Be  Be8  1  0.928021  0.278793  0.068952  1
  Be  Be9  1  0.068929  0.724244  0.927976  1
  Be  Be10  1  0.208555  0.796194  0.560723  1
  Be  Be11  1  0.789021  0.200864  0.441403  1
  Be  Be12  1  0.441319  0.568810  0.789033  1
  Be  Be13  1  0.560768  0.434497  0.208551  1
  Be  Be14  1  0.714081  0.285647  0.933454  1
  Be  Be15  1  0.288785  0.717954  0.063153  1
  Be  Be16  1  0.063097  0.930100  0.288831  1
  Be  Be17  1  0.933447  0.066865  0.714032  1
  Be  Be18  1  0.568893  0.207402  0.788040  1
  Be  Be19  1  0.433637  0.789290  0.209394  1
  Be  Be20  1  0.788006  0.435746  0.568902  1
  Be  Be21  1  0.209455  0.567632  0.433637  1
  Be  Be22  1  0.933511  0.715779  0.290495  1
  Be  Be23  1  0.062722  0.287327  0.713120  1
  Be  Be24  1  0.290572  0.060166  0.933455  1
  Be  Be25  1  0.713095  0.936835  0.062719  1
  Cu  Cu26  1  0.802359  0.559378  0.196155  1
  Cu  Cu27  1  0.196124  0.442116  0.802336  1
