# generated using pymatgen
data_Ta19(VNi9)2
_symmetry_space_group_name_H-M   'P 1'
_cell_length_a   4.89552400
_cell_length_b   4.89552337
_cell_length_c   26.80641500
_cell_angle_alpha   90.00000000
_cell_angle_beta   90.00000000
_cell_angle_gamma   119.99999074
_symmetry_Int_Tables_number   1
_chemical_formula_structural   Ta19(VNi9)2
_chemical_formula_sum   'Ta19 V2 Ni18'
_cell_volume   556.37514599
_cell_formula_units_Z   1
loop_
 _symmetry_equiv_pos_site_id
 _symmetry_equiv_pos_as_xyz
  1  'x, y, z'
loop_
 _atom_site_type_symbol
 _atom_site_label
 _atom_site_symmetry_multiplicity
 _atom_site_fract_x
 _atom_site_fract_y
 _atom_site_fract_z
 _atom_site_occupancy
  Ta  Ta0  1  0.666667  0.333333  0.322276  1
  Ta  Ta1  1  0.000000  0.000000  0.654008  1
  Ta  Ta2  1  0.333333  0.666667  0.987391  1
  Ta  Ta3  1  0.666667  0.333333  0.012609  1
  Ta  Ta4  1  0.000000  0.000000  0.345992  1
  Ta  Ta5  1  0.333333  0.666667  0.677724  1
  Ta  Ta6  1  0.666667  0.333333  0.217551  1
  Ta  Ta7  1  0.000000  0.000000  0.549170  1
  Ta  Ta8  1  0.333333  0.666667  0.881186  1
  Ta  Ta9  1  0.666667  0.333333  0.118814  1
  Ta  Ta10  1  0.000000  0.000000  0.450830  1
  Ta  Ta11  1  0.333333  0.666667  0.782449  1
  Ta  Ta12  1  0.333333  0.666667  0.170698  1
  Ta  Ta13  1  0.666667  0.333333  0.502218  1
  Ta  Ta14  1  0.000000  0.000000  0.833775  1
  Ta  Ta15  1  0.000000  0.000000  0.166225  1
  Ta  Ta16  1  0.333333  0.666667  0.497782  1
  Ta  Ta17  1  0.666667  0.333333  0.829302  1
  Ta  Ta18  1  0.000000  0.000000  0.000000  1
  V  V19  1  0.333333  0.666667  0.334129  1
  V  V20  1  0.666667  0.333333  0.665871  1
  Ni  Ni21  1  0.169396  0.830604  0.079259  1
  Ni  Ni22  1  0.501076  0.498924  0.410011  1
  Ni  Ni23  1  0.834464  0.165536  0.741700  1
  Ni  Ni24  1  0.661209  0.830604  0.079259  1
  Ni  Ni25  1  0.997847  0.498924  0.410011  1
  Ni  Ni26  1  0.331072  0.165536  0.741700  1
  Ni  Ni27  1  0.169396  0.338791  0.079259  1
  Ni  Ni28  1  0.501076  0.002153  0.410011  1
  Ni  Ni29  1  0.834464  0.668928  0.741700  1
  Ni  Ni30  1  0.165536  0.834464  0.258300  1
  Ni  Ni31  1  0.498924  0.501076  0.589989  1
  Ni  Ni32  1  0.830604  0.169396  0.920741  1
  Ni  Ni33  1  0.668928  0.834464  0.258300  1
  Ni  Ni34  1  0.002153  0.501076  0.589989  1
  Ni  Ni35  1  0.338791  0.169396  0.920741  1
  Ni  Ni36  1  0.165536  0.331072  0.258300  1
  Ni  Ni37  1  0.498924  0.997847  0.589989  1
  Ni  Ni38  1  0.830604  0.661209  0.920741  1
