# generated using pymatgen
data_MnSb2Cl2O3
_symmetry_space_group_name_H-M   'P 1'
_cell_length_a   8.18687427
_cell_length_b   9.23560918
_cell_length_c   10.54191221
_cell_angle_alpha   67.33036855
_cell_angle_beta   82.10790819
_cell_angle_gamma   92.96910560
_symmetry_Int_Tables_number   1
_chemical_formula_structural   MnSb2Cl2O3
_chemical_formula_sum   'Mn4 Sb8 Cl8 O12'
_cell_volume   723.73782039
_cell_formula_units_Z   4
loop_
 _symmetry_equiv_pos_site_id
 _symmetry_equiv_pos_as_xyz
  1  'x, y, z'
loop_
 _atom_site_type_symbol
 _atom_site_label
 _atom_site_symmetry_multiplicity
 _atom_site_fract_x
 _atom_site_fract_y
 _atom_site_fract_z
 _atom_site_occupancy
  Mn  Mn0  1  0.510058  0.611801  0.101115  1
  Mn  Mn1  1  0.490045  0.888198  0.398863  1
  Mn  Mn2  1  0.510000  0.111875  0.601111  1
  Mn  Mn3  1  0.489972  0.388182  0.898862  1
  Sb  Sb4  1  0.693385  0.026635  0.936110  1
  Sb  Sb5  1  0.693384  0.526671  0.436136  1
  Sb  Sb6  1  0.306618  0.973307  0.063902  1
  Sb  Sb7  1  0.306594  0.473405  0.563851  1
  Sb  Sb8  1  0.701860  0.788314  0.736224  1
  Sb  Sb9  1  0.701908  0.288324  0.236238  1
  Sb  Sb10  1  0.298122  0.211682  0.263761  1
  Sb  Sb11  1  0.298087  0.711697  0.763761  1
  Cl  Cl12  1  0.780236  0.935455  0.282438  1
  Cl  Cl13  1  0.780178  0.435481  0.782413  1
  Cl  Cl14  1  0.219825  0.064509  0.717573  1
  Cl  Cl15  1  0.219799  0.564515  0.217583  1
  Cl  Cl16  1  0.834806  0.228275  0.467503  1
  Cl  Cl17  1  0.834803  0.728266  0.967480  1
  Cl  Cl18  1  0.165159  0.771721  0.532508  1
  Cl  Cl19  1  0.165195  0.271702  0.032528  1
  O  O20  1  0.487524  0.646794  0.432326  1
  O  O21  1  0.487513  0.146725  0.932345  1
  O  O22  1  0.512459  0.353282  0.567666  1
  O  O23  1  0.512502  0.853216  0.067683  1
  O  O24  1  0.355771  0.013853  0.231321  1
  O  O25  1  0.355705  0.513881  0.731312  1
  O  O26  1  0.644213  0.986126  0.768684  1
  O  O27  1  0.644274  0.486117  0.268705  1
  O  O28  1  0.503158  0.149111  0.379777  1
  O  O29  1  0.503114  0.649102  0.879780  1
  O  O30  1  0.496848  0.850894  0.620216  1
  O  O31  1  0.496881  0.350881  0.120221  1
