# generated using pymatgen
data_Cs3KNb2V2(PO5)4
_symmetry_space_group_name_H-M   'P 1'
_cell_length_a   6.55366600
_cell_length_b   10.94595500
_cell_length_c   13.15462500
_cell_angle_alpha   90.00000000
_cell_angle_beta   90.00000000
_cell_angle_gamma   90.00000000
_symmetry_Int_Tables_number   1
_chemical_formula_structural   Cs3KNb2V2(PO5)4
_chemical_formula_sum   'Cs6 K2 Nb4 V4 P8 O40'
_cell_volume   943.66193016
_cell_formula_units_Z   2
loop_
 _symmetry_equiv_pos_site_id
 _symmetry_equiv_pos_as_xyz
  1  'x, y, z'
loop_
 _atom_site_type_symbol
 _atom_site_label
 _atom_site_symmetry_multiplicity
 _atom_site_fract_x
 _atom_site_fract_y
 _atom_site_fract_z
 _atom_site_occupancy
  Cs  Cs0  1  0.708500  0.321943  0.890357  1
  Cs  Cs1  1  0.291500  0.821943  0.109643  1
  Cs  Cs2  1  0.214056  0.819458  0.615996  1
  Cs  Cs3  1  0.785944  0.319458  0.384004  1
  Cs  Cs4  1  0.820206  0.066862  0.604053  1
  Cs  Cs5  1  0.179794  0.566862  0.395947  1
  K  K6  1  0.303441  0.566731  0.893551  1
  K  K7  1  0.696559  0.066731  0.106449  1
  Nb  Nb8  1  0.001501  0.002902  0.874080  1
  Nb  Nb9  1  0.998499  0.502902  0.125920  1
  Nb  Nb10  1  0.505494  0.502900  0.631667  1
  Nb  Nb11  1  0.494506  0.002900  0.368333  1
  V  V12  1  0.244756  0.250235  0.746379  1
  V  V13  1  0.755244  0.750235  0.253621  1
  V  V14  1  0.742562  0.750446  0.756789  1
  V  V15  1  0.257438  0.250446  0.243211  1
  P  P16  1  0.001454  0.505496  0.686005  1
  P  P17  1  0.998546  0.005496  0.313995  1
  P  P18  1  0.498357  0.004510  0.821175  1
  P  P19  1  0.501643  0.504510  0.178825  1
  P  P20  1  0.169448  0.250109  0.000104  1
  P  P21  1  0.830552  0.750109  0.999896  1
  P  P22  1  0.668467  0.752289  0.500706  1
  P  P23  1  0.331533  0.252289  0.499294  1
  O  O24  1  0.453590  0.378846  0.722866  1
  O  O25  1  0.546410  0.878846  0.277134  1
  O  O26  1  0.949435  0.881237  0.780492  1
  O  O27  1  0.050565  0.381237  0.219508  1
  O  O28  1  0.045619  0.371351  0.012552  1
  O  O29  1  0.954381  0.871351  0.987448  1
  O  O30  1  0.539882  0.871238  0.484739  1
  O  O31  1  0.460118  0.371238  0.515261  1
  O  O32  1  0.314660  0.229648  0.090693  1
  O  O33  1  0.685340  0.729648  0.909307  1
  O  O34  1  0.808285  0.731773  0.408018  1
  O  O35  1  0.191715  0.231773  0.591982  1
  O  O36  1  0.040985  0.392107  0.751803  1
  O  O37  1  0.959015  0.892107  0.248197  1
  O  O38  1  0.539139  0.891352  0.754931  1
  O  O39  1  0.460861  0.391352  0.245069  1
  O  O40  1  0.531387  0.625476  0.728768  1
  O  O41  1  0.468613  0.125476  0.271232  1
  O  O42  1  0.035300  0.128406  0.780907  1
  O  O43  1  0.964700  0.628406  0.219093  1
  O  O44  1  0.962512  0.616242  0.755870  1
  O  O45  1  0.037488  0.116242  0.244130  1
  O  O46  1  0.459467  0.114263  0.750410  1
  O  O47  1  0.540533  0.614263  0.249590  1
  O  O48  1  0.814852  0.480973  0.614062  1
  O  O49  1  0.185148  0.980973  0.385938  1
  O  O50  1  0.310457  0.978277  0.891919  1
  O  O51  1  0.689543  0.478277  0.108081  1
  O  O52  1  0.291155  0.265533  0.901009  1
  O  O53  1  0.708845  0.765533  0.098991  1
  O  O54  1  0.790530  0.769713  0.599901  1
  O  O55  1  0.209470  0.269713  0.400099  1
  O  O56  1  0.188947  0.534109  0.616987  1
  O  O57  1  0.811053  0.034109  0.383013  1
  O  O58  1  0.683106  0.033693  0.892370  1
  O  O59  1  0.316894  0.533693  0.107630  1
  O  O60  1  0.015307  0.141491  0.993043  1
  O  O61  1  0.984693  0.641491  0.006957  1
  O  O62  1  0.521598  0.641193  0.513471  1
  O  O63  1  0.478402  0.141193  0.486529  1
