# generated using pymatgen
data_Ca(Ac4Pd3)2
_symmetry_space_group_name_H-M   'P 1'
_cell_length_a   8.11466714
_cell_length_b   8.11466647
_cell_length_c   8.11466692
_cell_angle_alpha   72.15542518
_cell_angle_beta   72.15542692
_cell_angle_gamma   72.15542057
_symmetry_Int_Tables_number   1
_chemical_formula_structural   Ca(Ac4Pd3)2
_chemical_formula_sum   'Ca1 Ac8 Pd6'
_cell_volume   470.65057005
_cell_formula_units_Z   1
loop_
 _symmetry_equiv_pos_site_id
 _symmetry_equiv_pos_as_xyz
  1  'x, y, z'
loop_
 _atom_site_type_symbol
 _atom_site_label
 _atom_site_symmetry_multiplicity
 _atom_site_fract_x
 _atom_site_fract_y
 _atom_site_fract_z
 _atom_site_occupancy
  Ca  Ca0  1  0.000000  0.000000  0.000000  1
  Ac  Ac1  1  0.798277  0.798277  0.798277  1
  Ac  Ac2  1  0.201723  0.201723  0.201723  1
  Ac  Ac3  1  0.327232  0.618418  0.835146  1
  Ac  Ac4  1  0.835146  0.327232  0.618418  1
  Ac  Ac5  1  0.618417  0.835146  0.327232  1
  Ac  Ac6  1  0.672768  0.381582  0.164854  1
  Ac  Ac7  1  0.164854  0.672768  0.381582  1
  Ac  Ac8  1  0.381582  0.164854  0.672768  1
  Pd  Pd9  1  0.154093  0.958048  0.591487  1
  Pd  Pd10  1  0.591487  0.154093  0.958048  1
  Pd  Pd11  1  0.958048  0.591487  0.154093  1
  Pd  Pd12  1  0.845907  0.041952  0.408513  1
  Pd  Pd13  1  0.408513  0.845907  0.041952  1
  Pd  Pd14  1  0.041952  0.408513  0.845907  1
