# generated using pymatgen
data_La2Ni18As9P
_symmetry_space_group_name_H-M   'P 1'
_cell_length_a   6.74167246
_cell_length_b   6.74167152
_cell_length_c   11.07720000
_cell_angle_alpha   90.00000000
_cell_angle_beta   90.00000000
_cell_angle_gamma   120.83844342
_symmetry_Int_Tables_number   1
_chemical_formula_structural   La2Ni18As9P
_chemical_formula_sum   'La2 Ni18 As9 P1'
_cell_volume   432.27914374
_cell_formula_units_Z   1
loop_
 _symmetry_equiv_pos_site_id
 _symmetry_equiv_pos_as_xyz
  1  'x, y, z'
loop_
 _atom_site_type_symbol
 _atom_site_label
 _atom_site_symmetry_multiplicity
 _atom_site_fract_x
 _atom_site_fract_y
 _atom_site_fract_z
 _atom_site_occupancy
  La  La0  1  0.997586  0.002414  0.003485  1
  La  La1  1  0.997586  0.002414  0.496515  1
  Ni  Ni2  1  0.535739  0.464261  0.107119  1
  Ni  Ni3  1  0.070489  0.534864  0.604378  1
  Ni  Ni4  1  0.465136  0.929511  0.604378  1
  Ni  Ni5  1  0.544616  0.073812  0.110043  1
  Ni  Ni6  1  0.926188  0.455384  0.110043  1
  Ni  Ni7  1  0.070489  0.534864  0.895622  1
  Ni  Ni8  1  0.465136  0.929511  0.895622  1
  Ni  Ni9  1  0.463410  0.536590  0.604397  1
  Ni  Ni10  1  0.463410  0.536590  0.895603  1
  Ni  Ni11  1  0.535739  0.464261  0.392881  1
  Ni  Ni12  1  0.926188  0.455384  0.389957  1
  Ni  Ni13  1  0.544616  0.073812  0.389957  1
  Ni  Ni14  1  0.211671  0.788329  0.250000  1
  Ni  Ni15  1  0.416528  0.209207  0.750000  1
  Ni  Ni16  1  0.790793  0.583472  0.750000  1
  Ni  Ni17  1  0.195058  0.403983  0.250000  1
  Ni  Ni18  1  0.596017  0.804942  0.250000  1
  Ni  Ni19  1  0.789967  0.210033  0.750000  1
  As  As20  1  0.659634  0.830017  0.750000  1
  As  As21  1  0.169983  0.340366  0.750000  1
  As  As22  1  0.832161  0.662870  0.250000  1
  As  As23  1  0.337130  0.167839  0.250000  1
  As  As24  1  0.171346  0.828654  0.750000  1
  As  As25  1  0.334943  0.665057  0.063081  1
  As  As26  1  0.664654  0.335346  0.560016  1
  As  As27  1  0.664654  0.335346  0.939984  1
  As  As28  1  0.334943  0.665057  0.436919  1
  P  P29  1  0.824189  0.175811  0.250000  1
