# generated using pymatgen
data_Cs4Na2ErInAs4
_symmetry_space_group_name_H-M   'P 1'
_cell_length_a   9.88103414
_cell_length_b   9.88103490
_cell_length_c   9.88103485
_cell_angle_alpha   137.45924457
_cell_angle_beta   138.89491305
_cell_angle_gamma   60.63958886
_symmetry_Int_Tables_number   1
_chemical_formula_structural   Cs4Na2ErInAs4
_chemical_formula_sum   'Cs4 Na2 Er1 In1 As4'
_cell_volume   424.23758839
_cell_formula_units_Z   1
loop_
 _symmetry_equiv_pos_site_id
 _symmetry_equiv_pos_as_xyz
  1  'x, y, z'
loop_
 _atom_site_type_symbol
 _atom_site_label
 _atom_site_symmetry_multiplicity
 _atom_site_fract_x
 _atom_site_fract_y
 _atom_site_fract_z
 _atom_site_occupancy
  Cs  Cs0  1  0.671435  0.401295  0.718297  1
  Cs  Cs1  1  0.828565  0.046862  0.229860  1
  Cs  Cs2  1  0.182998  0.953138  0.781703  1
  Cs  Cs3  1  0.317002  0.598705  0.270140  1
  Na  Na4  1  0.750000  0.000000  0.750000  1
  Na  Na5  1  0.250000  0.000000  0.250000  1
  Er  Er6  1  0.750000  0.500000  0.250000  1
  In  In7  1  0.250000  0.500000  0.750000  1
  As  As8  1  0.405163  0.191551  0.779966  1
  As  As9  1  0.588415  0.808449  0.213612  1
  As  As10  1  0.094837  0.374804  0.286388  1
  As  As11  1  0.911585  0.625196  0.720034  1
