# generated using pymatgen
data_Hf3In(SnRh3)2
_symmetry_space_group_name_H-M   'P 1'
_cell_length_a   4.77677935
_cell_length_b   6.08998500
_cell_length_c   14.32882833
_cell_angle_alpha   90.00000000
_cell_angle_beta   100.90882564
_cell_angle_gamma   90.00000000
_symmetry_Int_Tables_number   1
_chemical_formula_structural   Hf3In(SnRh3)2
_chemical_formula_sum   'Hf6 In2 Sn4 Rh12'
_cell_volume   409.30063982
_cell_formula_units_Z   2
loop_
 _symmetry_equiv_pos_site_id
 _symmetry_equiv_pos_as_xyz
  1  'x, y, z'
loop_
 _atom_site_type_symbol
 _atom_site_label
 _atom_site_symmetry_multiplicity
 _atom_site_fract_x
 _atom_site_fract_y
 _atom_site_fract_z
 _atom_site_occupancy
  Hf  Hf0  1  0.001374  0.000000  0.998171  1
  Hf  Hf1  1  0.501872  0.500001  0.166660  1
  Hf  Hf2  1  0.998487  0.000000  0.333251  1
  Hf  Hf3  1  0.498512  0.500001  0.501856  1
  Hf  Hf4  1  0.000058  0.000000  0.668775  1
  Hf  Hf5  1  0.499708  0.500001  0.831260  1
  In  In6  1  0.999913  0.500001  0.666713  1
  In  In7  1  0.499833  0.000000  0.833318  1
  Sn  Sn8  1  0.001505  0.500001  0.999038  1
  Sn  Sn9  1  0.501300  0.000000  0.165978  1
  Sn  Sn10  1  0.998824  0.500001  0.334025  1
  Sn  Sn11  1  0.498479  0.000000  0.500950  1
  Rh  Rh12  1  0.503767  0.250566  0.001196  1
  Rh  Rh13  1  0.503767  0.749434  0.001196  1
  Rh  Rh14  1  0.003093  0.250586  0.167036  1
  Rh  Rh15  1  0.003093  0.749415  0.167036  1
  Rh  Rh16  1  0.497081  0.249480  0.332945  1
  Rh  Rh17  1  0.497081  0.750521  0.332945  1
  Rh  Rh18  1  0.996189  0.249378  0.498779  1
  Rh  Rh19  1  0.996189  0.750621  0.498779  1
  Rh  Rh20  1  0.499446  0.249908  0.665835  1
  Rh  Rh21  1  0.499446  0.750093  0.665835  1
  Rh  Rh22  1  0.000494  0.250109  0.834210  1
  Rh  Rh23  1  0.000494  0.749892  0.834210  1
