# generated using pymatgen
data_Hf10In8Co3Pd
_symmetry_space_group_name_H-M   'P 1'
_cell_length_a   17.24632570
_cell_length_b   7.56284134
_cell_length_c   3.35098300
_cell_angle_alpha   90.00000000
_cell_angle_beta   90.00000000
_cell_angle_gamma   89.84044918
_symmetry_Int_Tables_number   1
_chemical_formula_structural   Hf10In8Co3Pd
_chemical_formula_sum   'Hf10 In8 Co3 Pd1'
_cell_volume   437.07112280
_cell_formula_units_Z   1
loop_
 _symmetry_equiv_pos_site_id
 _symmetry_equiv_pos_as_xyz
  1  'x, y, z'
loop_
 _atom_site_type_symbol
 _atom_site_label
 _atom_site_symmetry_multiplicity
 _atom_site_fract_x
 _atom_site_fract_y
 _atom_site_fract_z
 _atom_site_occupancy
  Hf  Hf0  1  0.998381  0.999607  0.000000  1
  Hf  Hf1  1  0.423650  0.143307  0.000000  1
  Hf  Hf2  1  0.725354  0.238558  0.000000  1
  Hf  Hf3  1  0.217727  0.285554  0.000000  1
  Hf  Hf4  1  0.911832  0.363502  0.000000  1
  Hf  Hf5  1  0.502211  0.501726  0.000000  1
  Hf  Hf6  1  0.084105  0.638451  0.000000  1
  Hf  Hf7  1  0.775351  0.737651  0.000000  1
  Hf  Hf8  1  0.272352  0.741327  0.000000  1
  Hf  Hf9  1  0.588282  0.863198  0.000000  1
  In  In10  1  0.848157  0.055131  0.500000  1
  In  In11  1  0.571085  0.195641  0.500000  1
  In  In12  1  0.063097  0.305493  0.500000  1
  In  In13  1  0.351338  0.440152  0.500000  1
  In  In14  1  0.652445  0.555946  0.500000  1
  In  In15  1  0.932450  0.693702  0.500000  1
  In  In16  1  0.434516  0.805113  0.500000  1
  In  In17  1  0.149129  0.944561  0.500000  1
  Co  Co18  1  0.805935  0.446545  0.500000  1
  Co  Co19  1  0.193207  0.548657  0.500000  1
  Co  Co20  1  0.694673  0.946538  0.500000  1
  Pd  Pd21  1  0.304729  0.049632  0.500000  1
