# generated using pymatgen
data_TbY7Mo2(OsC4)2
_symmetry_space_group_name_H-M   'P 1'
_cell_length_a   5.12164200
_cell_length_b   6.61132980
_cell_length_c   9.93981404
_cell_angle_alpha   89.19371558
_cell_angle_beta   90.00000000
_cell_angle_gamma   90.00000000
_symmetry_Int_Tables_number   1
_chemical_formula_structural   TbY7Mo2(OsC4)2
_chemical_formula_sum   'Tb1 Y7 Mo2 Os2 C8'
_cell_volume   336.53736998
_cell_formula_units_Z   1
loop_
 _symmetry_equiv_pos_site_id
 _symmetry_equiv_pos_as_xyz
  1  'x, y, z'
loop_
 _atom_site_type_symbol
 _atom_site_label
 _atom_site_symmetry_multiplicity
 _atom_site_fract_x
 _atom_site_fract_y
 _atom_site_fract_z
 _atom_site_occupancy
  Tb  Tb0  1  0.250000  0.679140  0.557021  1
  Y  Y1  1  0.750000  0.321049  0.442686  1
  Y  Y2  1  0.750000  0.823810  0.057603  1
  Y  Y3  1  0.250000  0.176226  0.942431  1
  Y  Y4  1  0.250000  0.537807  0.218069  1
  Y  Y5  1  0.750000  0.462028  0.781973  1
  Y  Y6  1  0.750000  0.969064  0.716511  1
  Y  Y7  1  0.250000  0.031045  0.283548  1
  Mo  Mo8  1  0.250000  0.717311  0.866417  1
  Mo  Mo9  1  0.750000  0.282642  0.133706  1
  Os  Os10  1  0.750000  0.779066  0.365474  1
  Os  Os11  1  0.250000  0.220732  0.634432  1
  C  C12  1  0.250000  0.449840  0.757192  1
  C  C13  1  0.750000  0.550299  0.242790  1
  C  C14  1  0.750000  0.045132  0.260566  1
  C  C15  1  0.250000  0.954860  0.739571  1
  C  C16  1  0.250000  0.822520  0.050426  1
  C  C17  1  0.750000  0.177503  0.949564  1
  C  C18  1  0.750000  0.678792  0.547437  1
  C  C19  1  0.250000  0.321133  0.452586  1
