# generated using pymatgen
data_NdLuCu2(TeO6)2
_symmetry_space_group_name_H-M   'P 1'
_cell_length_a   5.14988922
_cell_length_b   5.15198319
_cell_length_c   9.92513842
_cell_angle_alpha   89.99582946
_cell_angle_beta   89.99735555
_cell_angle_gamma   120.03475998
_symmetry_Int_Tables_number   1
_chemical_formula_structural   NdLuCu2(TeO6)2
_chemical_formula_sum   'Nd1 Lu1 Cu2 Te2 O12'
_cell_volume   227.97503986
_cell_formula_units_Z   1
loop_
 _symmetry_equiv_pos_site_id
 _symmetry_equiv_pos_as_xyz
  1  'x, y, z'
loop_
 _atom_site_type_symbol
 _atom_site_label
 _atom_site_symmetry_multiplicity
 _atom_site_fract_x
 _atom_site_fract_y
 _atom_site_fract_z
 _atom_site_occupancy
  Nd  Nd0  1  0.000020  0.000041  0.500022  1
  Lu  Lu1  1  0.000038  0.999987  0.000041  1
  Cu  Cu2  1  0.333239  0.666579  0.241467  1
  Cu  Cu3  1  0.666674  0.333370  0.758489  1
  Te  Te4  1  0.666871  0.333278  0.240732  1
  Te  Te5  1  0.333076  0.666723  0.759367  1
  O  O6  1  0.653830  0.642212  0.132906  1
  O  O7  1  0.988811  0.346266  0.132874  1
  O  O8  1  0.357725  0.011323  0.133049  1
  O  O9  1  0.378060  0.369204  0.353923  1
  O  O10  1  0.991635  0.622104  0.353834  1
  O  O11  1  0.630742  0.008724  0.354018  1
  O  O12  1  0.369212  0.991162  0.645922  1
  O  O13  1  0.008469  0.377935  0.646143  1
  O  O14  1  0.621944  0.630907  0.646046  1
  O  O15  1  0.642366  0.988775  0.866947  1
  O  O16  1  0.011104  0.653696  0.867130  1
  O  O17  1  0.346182  0.357714  0.867090  1
