# generated using pymatgen
data_LiV2(Co10B3)2
_symmetry_space_group_name_H-M   'P 1'
_cell_length_a   7.35641675
_cell_length_b   7.35641658
_cell_length_c   7.35641700
_cell_angle_alpha   60.00000260
_cell_angle_beta   60.00000336
_cell_angle_gamma   59.99999888
_symmetry_Int_Tables_number   1
_chemical_formula_structural   LiV2(Co10B3)2
_chemical_formula_sum   'Li1 V2 Co20 B6'
_cell_volume   281.50362791
_cell_formula_units_Z   1
loop_
 _symmetry_equiv_pos_site_id
 _symmetry_equiv_pos_as_xyz
  1  'x, y, z'
loop_
 _atom_site_type_symbol
 _atom_site_label
 _atom_site_symmetry_multiplicity
 _atom_site_fract_x
 _atom_site_fract_y
 _atom_site_fract_z
 _atom_site_occupancy
  Li  Li0  1  0.000000  0.000000  0.000000  1
  V  V1  1  0.250000  0.250000  0.250000  1
  V  V2  1  0.750000  0.750000  0.750000  1
  Co  Co3  1  0.858689  0.380437  0.380437  1
  Co  Co4  1  0.380437  0.858689  0.380437  1
  Co  Co5  1  0.380437  0.380437  0.858689  1
  Co  Co6  1  0.380437  0.380437  0.380437  1
  Co  Co7  1  0.141311  0.619563  0.619563  1
  Co  Co8  1  0.619563  0.141311  0.619563  1
  Co  Co9  1  0.619563  0.619563  0.141311  1
  Co  Co10  1  0.619563  0.619563  0.619563  1
  Co  Co11  1  0.659421  0.000000  0.000000  1
  Co  Co12  1  0.659421  0.000000  0.340579  1
  Co  Co13  1  0.659421  0.340579  0.000000  1
  Co  Co14  1  0.000000  0.659421  0.340579  1
  Co  Co15  1  0.000000  0.659421  0.000000  1
  Co  Co16  1  0.340579  0.659421  0.000000  1
  Co  Co17  1  0.000000  0.340579  0.659421  1
  Co  Co18  1  0.340579  0.000000  0.659421  1
  Co  Co19  1  0.000000  0.000000  0.659421  1
  Co  Co20  1  0.340579  0.000000  0.000000  1
  Co  Co21  1  0.000000  0.340579  0.000000  1
  Co  Co22  1  0.000000  0.000000  0.340579  1
  B  B23  1  0.726448  0.273552  0.273552  1
  B  B24  1  0.726448  0.273552  0.726448  1
  B  B25  1  0.726448  0.726448  0.273552  1
  B  B26  1  0.273552  0.726448  0.726448  1
  B  B27  1  0.273552  0.726448  0.273552  1
  B  B28  1  0.273552  0.273552  0.726448  1
