# generated using pymatgen
data_Cs19Rb(SiAs3)4
_symmetry_space_group_name_H-M   'P 1'
_cell_length_a   14.72799674
_cell_length_b   6.03480200
_cell_length_c   16.62125875
_cell_angle_alpha   90.00000000
_cell_angle_beta   89.75166924
_cell_angle_gamma   90.00000000
_symmetry_Int_Tables_number   1
_chemical_formula_structural   Cs19Rb(SiAs3)4
_chemical_formula_sum   'Cs19 Rb1 Si4 As12'
_cell_volume   1477.29264656
_cell_formula_units_Z   1
loop_
 _symmetry_equiv_pos_site_id
 _symmetry_equiv_pos_as_xyz
  1  'x, y, z'
loop_
 _atom_site_type_symbol
 _atom_site_label
 _atom_site_symmetry_multiplicity
 _atom_site_fract_x
 _atom_site_fract_y
 _atom_site_fract_z
 _atom_site_occupancy
  Cs  Cs0  1  0.064421  0.250000  0.048367  1
  Cs  Cs1  1  0.549983  0.250000  0.143726  1
  Cs  Cs2  1  0.883993  0.750000  0.184995  1
  Cs  Cs3  1  0.273592  0.250000  0.208427  1
  Cs  Cs4  1  0.771143  0.250000  0.291419  1
  Cs  Cs5  1  0.385359  0.750000  0.315126  1
  Cs  Cs6  1  0.046968  0.250000  0.351392  1
  Cs  Cs7  1  0.563810  0.250000  0.452461  1
  Cs  Cs8  1  0.145888  0.750000  0.460658  1
  Cs  Cs9  1  0.854058  0.250000  0.539012  1
  Cs  Cs10  1  0.435993  0.750000  0.547257  1
  Cs  Cs11  1  0.953214  0.750000  0.648098  1
  Cs  Cs12  1  0.615046  0.250000  0.684943  1
  Cs  Cs13  1  0.228141  0.750000  0.708491  1
  Cs  Cs14  1  0.726892  0.750000  0.791860  1
  Cs  Cs15  1  0.116349  0.250000  0.815999  1
  Cs  Cs16  1  0.452139  0.750000  0.851905  1
  Cs  Cs17  1  0.935049  0.750000  0.953208  1
  Cs  Cs18  1  0.355093  0.250000  0.961276  1
  Rb  Rb19  1  0.647438  0.750000  0.031196  1
  Si  Si20  1  0.241093  0.750000  0.065621  1
  Si  Si21  1  0.739742  0.750000  0.434913  1
  Si  Si22  1  0.260173  0.250000  0.565829  1
  Si  Si23  1  0.758288  0.250000  0.935905  1
  As  As24  1  0.800424  0.250000  0.070768  1
  As  As25  1  0.396318  0.750000  0.092911  1
  As  As26  1  0.133253  0.750000  0.168691  1
  As  As27  1  0.632576  0.750000  0.332541  1
  As  As28  1  0.895051  0.750000  0.406837  1
  As  As29  1  0.304039  0.250000  0.431108  1
  As  As30  1  0.695998  0.750000  0.569859  1
  As  As31  1  0.104787  0.250000  0.593738  1
  As  As32  1  0.367444  0.250000  0.668434  1
  As  As33  1  0.866183  0.250000  0.833238  1
  As  As34  1  0.603138  0.250000  0.908610  1
  As  As35  1  0.196924  0.750000  0.931181  1
