# generated using pymatgen
data_Ce5Re2C7
_symmetry_space_group_name_H-M   'P 1'
_cell_length_a   8.55977681
_cell_length_b   8.55977696
_cell_length_c   3.48983600
_cell_angle_alpha   90.00000000
_cell_angle_beta   90.00000000
_cell_angle_gamma   125.30983094
_symmetry_Int_Tables_number   1
_chemical_formula_structural   Ce5Re2C7
_chemical_formula_sum   'Ce5 Re2 C7'
_cell_volume   208.66063197
_cell_formula_units_Z   1
loop_
 _symmetry_equiv_pos_site_id
 _symmetry_equiv_pos_as_xyz
  1  'x, y, z'
loop_
 _atom_site_type_symbol
 _atom_site_label
 _atom_site_symmetry_multiplicity
 _atom_site_fract_x
 _atom_site_fract_y
 _atom_site_fract_z
 _atom_site_occupancy
  Ce  Ce0  1  0.319839  0.058117  0.500000  1
  Ce  Ce1  1  0.680161  0.941883  0.500000  1
  Ce  Ce2  1  0.058117  0.319839  0.500000  1
  Ce  Ce3  1  0.941883  0.680161  0.500000  1
  Ce  Ce4  1  0.500000  0.500000  0.000000  1
  Re  Re5  1  0.288490  0.711510  0.000000  1
  Re  Re6  1  0.711510  0.288490  0.000000  1
  C  C7  1  0.174751  0.174751  0.000000  1
  C  C8  1  0.825249  0.825249  0.000000  1
  C  C9  1  0.000000  0.000000  0.000000  1
  C  C10  1  0.367416  0.632584  0.500000  1
  C  C11  1  0.632584  0.367416  0.500000  1
  C  C12  1  0.500000  0.000000  0.000000  1
  C  C13  1  0.000000  0.500000  0.000000  1
