# generated using pymatgen
data_Y2Ho8Tl2In6IrPd3
_symmetry_space_group_name_H-M   'P 1'
_cell_length_a   3.62086600
_cell_length_b   8.12126891
_cell_length_c   18.24971600
_cell_angle_alpha   90.07994760
_cell_angle_beta   90.00000000
_cell_angle_gamma   90.00000000
_symmetry_Int_Tables_number   1
_chemical_formula_structural   Y2Ho8Tl2In6IrPd3
_chemical_formula_sum   'Y2 Ho8 Tl2 In6 Ir1 Pd3'
_cell_volume   536.65110913
_cell_formula_units_Z   1
loop_
 _symmetry_equiv_pos_site_id
 _symmetry_equiv_pos_as_xyz
  1  'x, y, z'
loop_
 _atom_site_type_symbol
 _atom_site_label
 _atom_site_symmetry_multiplicity
 _atom_site_fract_x
 _atom_site_fract_y
 _atom_site_fract_z
 _atom_site_occupancy
  Y  Y0  1  0.000000  0.500575  0.499821  1
  Y  Y1  1  0.000000  0.999637  0.000400  1
  Ho  Ho2  1  0.000000  0.729528  0.277955  1
  Ho  Ho3  1  0.000000  0.260699  0.719256  1
  Ho  Ho4  1  0.000000  0.760342  0.779643  1
  Ho  Ho5  1  0.000000  0.253667  0.220083  1
  Ho  Ho6  1  0.000000  0.612906  0.087907  1
  Ho  Ho7  1  0.000000  0.384111  0.915483  1
  Ho  Ho8  1  0.000000  0.884167  0.583273  1
  Ho  Ho9  1  0.000000  0.115796  0.415603  1
  Tl  Tl10  1  0.500000  0.710331  0.932468  1
  Tl  Tl11  1  0.500000  0.289193  0.067436  1
  In  In12  1  0.500000  0.791418  0.431631  1
  In  In13  1  0.500000  0.208556  0.567870  1
  In  In14  1  0.500000  0.580939  0.649794  1
  In  In15  1  0.500000  0.420423  0.351087  1
  In  In16  1  0.500000  0.919592  0.150594  1
  In  In17  1  0.500000  0.082530  0.849701  1
  Ir  Ir18  1  0.500000  0.523141  0.196800  1
  Pd  Pd19  1  0.500000  0.474264  0.803341  1
  Pd  Pd20  1  0.500000  0.976334  0.696112  1
  Pd  Pd21  1  0.500000  0.021850  0.303745  1
