# generated using pymatgen
data_Sr2CeIn5Pt6
_symmetry_space_group_name_H-M   'P 1'
_cell_length_a   4.43703400
_cell_length_b   8.00176100
_cell_length_c   9.14219700
_cell_angle_alpha   90.00000000
_cell_angle_beta   90.00000000
_cell_angle_gamma   90.00000000
_symmetry_Int_Tables_number   1
_chemical_formula_structural   Sr2CeIn5Pt6
_chemical_formula_sum   'Sr2 Ce1 In5 Pt6'
_cell_volume   324.58534501
_cell_formula_units_Z   1
loop_
 _symmetry_equiv_pos_site_id
 _symmetry_equiv_pos_as_xyz
  1  'x, y, z'
loop_
 _atom_site_type_symbol
 _atom_site_label
 _atom_site_symmetry_multiplicity
 _atom_site_fract_x
 _atom_site_fract_y
 _atom_site_fract_z
 _atom_site_occupancy
  Sr  Sr0  1  0.000000  0.000000  0.273209  1
  Sr  Sr1  1  0.500001  0.500000  0.725300  1
  Ce  Ce2  1  0.000000  0.500000  0.366535  1
  In  In3  1  0.500001  0.302621  0.115307  1
  In  In4  1  0.500001  0.697380  0.115307  1
  In  In5  1  0.500001  0.000000  0.641057  1
  In  In6  1  0.000000  0.195215  0.885566  1
  In  In7  1  0.000000  0.804784  0.885566  1
  Pt  Pt8  1  0.000000  0.500000  0.030729  1
  Pt  Pt9  1  0.500001  0.264236  0.412734  1
  Pt  Pt10  1  0.500001  0.735764  0.412734  1
  Pt  Pt11  1  0.000000  0.214664  0.587544  1
  Pt  Pt12  1  0.000000  0.785336  0.587544  1
  Pt  Pt13  1  0.500001  0.000000  0.960873  1
