# generated using pymatgen
data_Er3TiMnC6
_symmetry_space_group_name_H-M   'P 1'
_cell_length_a   8.18243200
_cell_length_b   8.18243152
_cell_length_c   4.98688400
_cell_angle_alpha   90.00000000
_cell_angle_beta   90.00000000
_cell_angle_gamma   120.00000086
_symmetry_Int_Tables_number   1
_chemical_formula_structural   Er3TiMnC6
_chemical_formula_sum   'Er6 Ti2 Mn2 C12'
_cell_volume   289.15098646
_cell_formula_units_Z   2
loop_
 _symmetry_equiv_pos_site_id
 _symmetry_equiv_pos_as_xyz
  1  'x, y, z'
loop_
 _atom_site_type_symbol
 _atom_site_label
 _atom_site_symmetry_multiplicity
 _atom_site_fract_x
 _atom_site_fract_y
 _atom_site_fract_z
 _atom_site_occupancy
  Er  Er0  1  0.622027  0.677891  0.750000  1
  Er  Er1  1  0.944136  0.622027  0.250000  1
  Er  Er2  1  0.677891  0.055864  0.250000  1
  Er  Er3  1  0.322109  0.944136  0.750000  1
  Er  Er4  1  0.055864  0.377973  0.750000  1
  Er  Er5  1  0.377973  0.322109  0.250000  1
  Ti  Ti6  1  0.000000  0.000000  0.500000  1
  Ti  Ti7  1  0.000000  0.000000  0.000000  1
  Mn  Mn8  1  0.666667  0.333333  0.750000  1
  Mn  Mn9  1  0.333333  0.666667  0.250000  1
  C  C10  1  0.966531  0.761820  0.750000  1
  C  C11  1  0.204712  0.966531  0.250000  1
  C  C12  1  0.761820  0.795288  0.250000  1
  C  C13  1  0.238180  0.204712  0.750000  1
  C  C14  1  0.795288  0.033469  0.750000  1
  C  C15  1  0.033469  0.238180  0.250000  1
  C  C16  1  0.864923  0.569055  0.750000  1
  C  C17  1  0.295868  0.864923  0.250000  1
  C  C18  1  0.569055  0.704132  0.250000  1
  C  C19  1  0.430945  0.295868  0.750000  1
  C  C20  1  0.135077  0.430945  0.250000  1
  C  C21  1  0.704132  0.135077  0.750000  1
