# generated using pymatgen
data_Sm8Si12Pt3Rh
_symmetry_space_group_name_H-M   'P 1'
_cell_length_a   8.20321600
_cell_length_b   8.20321611
_cell_length_c   8.39038800
_cell_angle_alpha   90.00000000
_cell_angle_beta   90.00000000
_cell_angle_gamma   120.00000762
_symmetry_Int_Tables_number   1
_chemical_formula_structural   Sm8Si12Pt3Rh
_chemical_formula_sum   'Sm8 Si12 Pt3 Rh1'
_cell_volume   488.96856862
_cell_formula_units_Z   1
loop_
 _symmetry_equiv_pos_site_id
 _symmetry_equiv_pos_as_xyz
  1  'x, y, z'
loop_
 _atom_site_type_symbol
 _atom_site_label
 _atom_site_symmetry_multiplicity
 _atom_site_fract_x
 _atom_site_fract_y
 _atom_site_fract_z
 _atom_site_occupancy
  Sm  Sm0  1  0.000000  0.000000  0.250662  1
  Sm  Sm1  1  0.000000  0.000000  0.749104  1
  Sm  Sm2  1  0.999371  0.499684  0.252022  1
  Sm  Sm3  1  0.500316  0.499684  0.252022  1
  Sm  Sm4  1  0.501108  0.002216  0.748050  1
  Sm  Sm5  1  0.500316  0.000629  0.252022  1
  Sm  Sm6  1  0.501108  0.498892  0.748050  1
  Sm  Sm7  1  0.997784  0.498892  0.748050  1
  Si  Si8  1  0.165917  0.331836  0.001131  1
  Si  Si9  1  0.668164  0.834083  0.001131  1
  Si  Si10  1  0.165009  0.330018  0.499751  1
  Si  Si11  1  0.330934  0.165467  0.998576  1
  Si  Si12  1  0.165917  0.834083  0.001131  1
  Si  Si13  1  0.669982  0.834991  0.499751  1
  Si  Si14  1  0.834533  0.669066  0.998576  1
  Si  Si15  1  0.335640  0.167820  0.500437  1
  Si  Si16  1  0.165009  0.834991  0.499751  1
  Si  Si17  1  0.832180  0.664360  0.500437  1
  Si  Si18  1  0.834533  0.165467  0.998576  1
  Si  Si19  1  0.832180  0.167820  0.500437  1
  Pt  Pt20  1  0.333333  0.666667  0.998931  1
  Pt  Pt21  1  0.333333  0.666667  0.501955  1
  Pt  Pt22  1  0.666667  0.333333  0.002005  1
  Rh  Rh23  1  0.666667  0.333333  0.497442  1
