# generated using pymatgen
data_Er6Tm10MgIn3Ni4
_symmetry_space_group_name_H-M   'P 1'
_cell_length_a   9.47602574
_cell_length_b   9.44648069
_cell_length_c   9.44648100
_cell_angle_alpha   60.00000943
_cell_angle_beta   60.10309433
_cell_angle_gamma   60.10310082
_symmetry_Int_Tables_number   1
_chemical_formula_structural   Er6Tm10MgIn3Ni4
_chemical_formula_sum   'Er6 Tm10 Mg1 In3 Ni4'
_cell_volume   598.86147594
_cell_formula_units_Z   1
loop_
 _symmetry_equiv_pos_site_id
 _symmetry_equiv_pos_as_xyz
  1  'x, y, z'
loop_
 _atom_site_type_symbol
 _atom_site_label
 _atom_site_symmetry_multiplicity
 _atom_site_fract_x
 _atom_site_fract_y
 _atom_site_fract_z
 _atom_site_occupancy
  Er  Er0  1  0.936549  0.563783  0.563782  1
  Er  Er1  1  0.563532  0.937149  0.937148  1
  Er  Er2  1  0.563533  0.937149  0.562170  1
  Er  Er3  1  0.936549  0.563783  0.935887  1
  Er  Er4  1  0.563532  0.562171  0.937148  1
  Er  Er5  1  0.936549  0.935888  0.563782  1
  Tm  Tm6  1  0.347631  0.346088  0.346088  1
  Tm  Tm7  1  0.347631  0.346088  0.960192  1
  Tm  Tm8  1  0.347631  0.960192  0.346088  1
  Tm  Tm9  1  0.956472  0.347843  0.347843  1
  Tm  Tm10  1  0.810740  0.188481  0.188481  1
  Tm  Tm11  1  0.185496  0.813833  0.813833  1
  Tm  Tm12  1  0.185496  0.813833  0.186836  1
  Tm  Tm13  1  0.810740  0.188481  0.812297  1
  Tm  Tm14  1  0.185496  0.186836  0.813833  1
  Tm  Tm15  1  0.810740  0.812297  0.188481  1
  Mg  Mg16  1  0.266958  0.577681  0.577681  1
  In  In17  1  0.582064  0.582798  0.582798  1
  In  In18  1  0.582064  0.582798  0.252340  1
  In  In19  1  0.582064  0.252340  0.582798  1
  Ni  Ni20  1  0.141460  0.142115  0.142115  1
  Ni  Ni21  1  0.141460  0.142115  0.574310  1
  Ni  Ni22  1  0.141460  0.574310  0.142115  1
  Ni  Ni23  1  0.574148  0.141950  0.141950  1
