# generated using pymatgen
data_Yb6TaReO12
_symmetry_space_group_name_H-M   'P 1'
_cell_length_a   5.82977458
_cell_length_b   5.49161906
_cell_length_c   9.62163409
_cell_angle_alpha   55.67126436
_cell_angle_beta   89.77891183
_cell_angle_gamma   89.93387938
_symmetry_Int_Tables_number   1
_chemical_formula_structural   Yb6TaReO12
_chemical_formula_sum   'Yb6 Ta1 Re1 O12'
_cell_volume   254.37855780
_cell_formula_units_Z   1
loop_
 _symmetry_equiv_pos_site_id
 _symmetry_equiv_pos_as_xyz
  1  'x, y, z'
loop_
 _atom_site_type_symbol
 _atom_site_label
 _atom_site_symmetry_multiplicity
 _atom_site_fract_x
 _atom_site_fract_y
 _atom_site_fract_z
 _atom_site_occupancy
  Yb  Yb0  1  0.567064  0.229371  0.245791  1
  Yb  Yb1  1  0.061767  0.783845  0.230716  1
  Yb  Yb2  1  0.500000  0.000000  0.000000  1
  Yb  Yb3  1  0.000000  0.000000  0.500000  1
  Yb  Yb4  1  0.938233  0.216155  0.769284  1
  Yb  Yb5  1  0.432936  0.770629  0.754209  1
  Ta  Ta6  1  0.000000  0.500000  0.000000  1
  Re  Re7  1  0.500000  0.500000  0.500000  1
  O  O8  1  0.552118  0.399462  0.721538  1
  O  O9  1  0.060861  0.608833  0.765832  1
  O  O10  1  0.447882  0.600538  0.278462  1
  O  O11  1  0.939139  0.391167  0.234168  1
  O  O12  1  0.773384  0.735670  0.426569  1
  O  O13  1  0.285447  0.249822  0.076752  1
  O  O14  1  0.226616  0.264330  0.573431  1
  O  O15  1  0.714553  0.750178  0.923248  1
  O  O16  1  0.180750  0.850482  0.945350  1
  O  O17  1  0.670792  0.164270  0.553002  1
  O  O18  1  0.819250  0.149518  0.054650  1
  O  O19  1  0.329208  0.835730  0.446998  1
