# generated using pymatgen
data_Dy2Er8Si5Pb
_symmetry_space_group_name_H-M   'P 1'
_cell_length_a   8.46161465
_cell_length_b   8.49628448
_cell_length_c   6.34410500
_cell_angle_alpha   90.00000000
_cell_angle_beta   90.00000000
_cell_angle_gamma   119.91003086
_symmetry_Int_Tables_number   1
_chemical_formula_structural   Dy2Er8Si5Pb
_chemical_formula_sum   'Dy2 Er8 Si5 Pb1'
_cell_volume   395.34504107
_cell_formula_units_Z   1
loop_
 _symmetry_equiv_pos_site_id
 _symmetry_equiv_pos_as_xyz
  1  'x, y, z'
loop_
 _atom_site_type_symbol
 _atom_site_label
 _atom_site_symmetry_multiplicity
 _atom_site_fract_x
 _atom_site_fract_y
 _atom_site_fract_z
 _atom_site_occupancy
  Dy  Dy0  1  0.756108  0.757697  0.250000  1
  Dy  Dy1  1  0.240160  0.000093  0.250000  1
  Er  Er2  1  0.987751  0.747548  0.750000  1
  Er  Er3  1  0.998594  0.242628  0.250000  1
  Er  Er4  1  0.767139  0.000191  0.750000  1
  Er  Er5  1  0.239869  0.252356  0.750000  1
  Er  Er6  1  0.674976  0.343591  0.003830  1
  Er  Er7  1  0.331112  0.656180  0.496186  1
  Er  Er8  1  0.331112  0.656180  0.003814  1
  Er  Er9  1  0.674976  0.343591  0.496170  1
  Si  Si10  1  0.393574  0.392355  0.250000  1
  Si  Si11  1  0.001582  0.607103  0.250000  1
  Si  Si12  1  0.998440  0.394504  0.750000  1
  Si  Si13  1  0.603994  0.605616  0.750000  1
  Si  Si14  1  0.605907  0.000341  0.250000  1
  Pb  Pb15  1  0.394707  0.000025  0.750000  1
