# generated using pymatgen
data_BaTa4GeO13
_symmetry_space_group_name_H-M   'P 1'
_cell_length_a   7.40225019
_cell_length_b   7.40225068
_cell_length_c   10.19061200
_cell_angle_alpha   90.00000000
_cell_angle_beta   90.00000000
_cell_angle_gamma   90.67215635
_symmetry_Int_Tables_number   1
_chemical_formula_structural   BaTa4GeO13
_chemical_formula_sum   'Ba2 Ta8 Ge2 O26'
_cell_volume   558.33895531
_cell_formula_units_Z   2
loop_
 _symmetry_equiv_pos_site_id
 _symmetry_equiv_pos_as_xyz
  1  'x, y, z'
loop_
 _atom_site_type_symbol
 _atom_site_label
 _atom_site_symmetry_multiplicity
 _atom_site_fract_x
 _atom_site_fract_y
 _atom_site_fract_z
 _atom_site_occupancy
  Ba  Ba0  1  0.437192  0.437192  0.435856  1
  Ba  Ba1  1  0.562808  0.562808  0.935856  1
  Ta  Ta2  1  0.550874  0.901683  0.252909  1
  Ta  Ta3  1  0.098317  0.449126  0.752909  1
  Ta  Ta4  1  0.449126  0.098317  0.752909  1
  Ta  Ta5  1  0.901683  0.550874  0.252909  1
  Ta  Ta6  1  0.169547  0.837080  0.501323  1
  Ta  Ta7  1  0.162920  0.830453  0.001323  1
  Ta  Ta8  1  0.837080  0.169547  0.501323  1
  Ta  Ta9  1  0.830453  0.162920  0.001323  1
  Ge  Ge10  1  0.162212  0.162212  0.247597  1
  Ge  Ge11  1  0.837788  0.837788  0.747597  1
  O  O12  1  0.655462  0.655462  0.251145  1
  O  O13  1  0.344538  0.344538  0.751145  1
  O  O14  1  0.396633  0.131318  0.259540  1
  O  O15  1  0.868682  0.603367  0.759540  1
  O  O16  1  0.603367  0.868682  0.759540  1
  O  O17  1  0.131318  0.396633  0.259540  1
  O  O18  1  0.793303  0.363396  0.385116  1
  O  O19  1  0.635692  0.198712  0.610210  1
  O  O20  1  0.801288  0.364308  0.110210  1
  O  O21  1  0.636604  0.206697  0.885116  1
  O  O22  1  0.198712  0.635692  0.610210  1
  O  O23  1  0.363396  0.793303  0.385116  1
  O  O24  1  0.206697  0.636604  0.885116  1
  O  O25  1  0.364308  0.801288  0.110210  1
  O  O26  1  0.067578  0.067578  0.394179  1
  O  O27  1  0.932475  0.932475  0.603615  1
  O  O28  1  0.067525  0.067525  0.103615  1
  O  O29  1  0.932422  0.932422  0.894179  1
  O  O30  1  0.698004  0.996085  0.386354  1
  O  O31  1  0.010764  0.307819  0.608550  1
  O  O32  1  0.692181  0.989236  0.108550  1
  O  O33  1  0.003915  0.301996  0.886354  1
  O  O34  1  0.307819  0.010764  0.608550  1
  O  O35  1  0.996085  0.698004  0.386354  1
  O  O36  1  0.301996  0.003915  0.886354  1
  O  O37  1  0.989236  0.692181  0.108550  1
