# generated using pymatgen
data_La4Tb6Ir3Rh
_symmetry_space_group_name_H-M   'P 1'
_cell_length_a   6.57986669
_cell_length_b   7.26433170
_cell_length_c   8.92367279
_cell_angle_alpha   96.80879149
_cell_angle_beta   111.36712624
_cell_angle_gamma   90.18517338
_symmetry_Int_Tables_number   1
_chemical_formula_structural   La4Tb6Ir3Rh
_chemical_formula_sum   'La4 Tb6 Ir3 Rh1'
_cell_volume   393.91980525
_cell_formula_units_Z   1
loop_
 _symmetry_equiv_pos_site_id
 _symmetry_equiv_pos_as_xyz
  1  'x, y, z'
loop_
 _atom_site_type_symbol
 _atom_site_label
 _atom_site_symmetry_multiplicity
 _atom_site_fract_x
 _atom_site_fract_y
 _atom_site_fract_z
 _atom_site_occupancy
  La  La0  1  0.980969  0.917488  0.193705  1
  La  La1  1  0.786745  0.581940  0.806101  1
  La  La2  1  0.019610  0.082458  0.806529  1
  La  La3  1  0.214305  0.417692  0.193872  1
  Tb  Tb4  1  0.639311  0.816882  0.432804  1
  Tb  Tb5  1  0.209943  0.683599  0.567889  1
  Tb  Tb6  1  0.359251  0.183937  0.567325  1
  Tb  Tb7  1  0.791582  0.316281  0.433842  1
  Tb  Tb8  1  0.428033  0.751269  0.999033  1
  Tb  Tb9  1  0.570034  0.247632  0.999452  1
  Ir  Ir10  1  0.588244  0.922446  0.773181  1
  Ir  Ir11  1  0.184374  0.422760  0.772530  1
  Ir  Ir12  1  0.411322  0.077517  0.226975  1
  Rh  Rh13  1  0.816277  0.578098  0.226763  1
