# generated using pymatgen
data_Dy6ScCrO12
_symmetry_space_group_name_H-M   'P 1'
_cell_length_a   6.55427960
_cell_length_b   6.55428003
_cell_length_c   6.55427970
_cell_angle_alpha   92.72292197
_cell_angle_beta   92.72292564
_cell_angle_gamma   92.72292249
_symmetry_Int_Tables_number   1
_chemical_formula_structural   Dy6ScCrO12
_chemical_formula_sum   'Dy6 Sc1 Cr1 O12'
_cell_volume   280.57750629
_cell_formula_units_Z   1
loop_
 _symmetry_equiv_pos_site_id
 _symmetry_equiv_pos_as_xyz
  1  'x, y, z'
loop_
 _atom_site_type_symbol
 _atom_site_label
 _atom_site_symmetry_multiplicity
 _atom_site_fract_x
 _atom_site_fract_y
 _atom_site_fract_z
 _atom_site_occupancy
  Dy  Dy0  1  0.742785  0.926894  0.436196  1
  Dy  Dy1  1  0.926894  0.436196  0.742785  1
  Dy  Dy2  1  0.436196  0.742785  0.926894  1
  Dy  Dy3  1  0.257215  0.073106  0.563804  1
  Dy  Dy4  1  0.073106  0.563804  0.257215  1
  Dy  Dy5  1  0.563804  0.257215  0.073106  1
  Sc  Sc6  1  0.000000  0.000000  0.000000  1
  Cr  Cr7  1  0.500000  0.500000  0.500000  1
  O  O8  1  0.587867  0.460524  0.798832  1
  O  O9  1  0.460524  0.798832  0.587867  1
  O  O10  1  0.798832  0.587867  0.460524  1
  O  O11  1  0.412133  0.539476  0.201168  1
  O  O12  1  0.539476  0.201168  0.412133  1
  O  O13  1  0.201168  0.412133  0.539476  1
  O  O14  1  0.068157  0.914905  0.307669  1
  O  O15  1  0.914905  0.307669  0.068157  1
  O  O16  1  0.692331  0.931843  0.085095  1
  O  O17  1  0.085095  0.692331  0.931843  1
  O  O18  1  0.931843  0.085095  0.692331  1
  O  O19  1  0.307669  0.068157  0.914905  1
