# generated using pymatgen
data_Y6Lu9Th(InNi)4
_symmetry_space_group_name_H-M   'P 1'
_cell_length_a   9.51146438
_cell_length_b   9.51146274
_cell_length_c   9.51146331
_cell_angle_alpha   60.12909322
_cell_angle_beta   60.12909083
_cell_angle_gamma   60.12910069
_symmetry_Int_Tables_number   1
_chemical_formula_structural   Y6Lu9Th(InNi)4
_chemical_formula_sum   'Y6 Lu9 Th1 In4 Ni4'
_cell_volume   610.23242798
_cell_formula_units_Z   1
loop_
 _symmetry_equiv_pos_site_id
 _symmetry_equiv_pos_as_xyz
  1  'x, y, z'
loop_
 _atom_site_type_symbol
 _atom_site_label
 _atom_site_symmetry_multiplicity
 _atom_site_fract_x
 _atom_site_fract_y
 _atom_site_fract_z
 _atom_site_occupancy
  Y  Y0  1  0.189554  0.811056  0.811056  1
  Y  Y1  1  0.810681  0.189283  0.189283  1
  Y  Y2  1  0.811056  0.189554  0.811056  1
  Y  Y3  1  0.189283  0.810681  0.189283  1
  Y  Y4  1  0.811056  0.811056  0.189554  1
  Y  Y5  1  0.189283  0.189283  0.810681  1
  Lu  Lu6  1  0.597002  0.597002  0.205242  1
  Lu  Lu7  1  0.597002  0.205242  0.597002  1
  Lu  Lu8  1  0.205242  0.597002  0.597002  1
  Lu  Lu9  1  0.065763  0.436090  0.436090  1
  Lu  Lu10  1  0.437635  0.063894  0.063894  1
  Lu  Lu11  1  0.436090  0.065763  0.436090  1
  Lu  Lu12  1  0.063894  0.437635  0.063894  1
  Lu  Lu13  1  0.436090  0.436090  0.065763  1
  Lu  Lu14  1  0.063894  0.063894  0.437635  1
  Th  Th15  1  0.594461  0.594461  0.594461  1
  In  In16  1  0.833123  0.833123  0.833123  1
  In  In17  1  0.833967  0.833967  0.501248  1
  In  In18  1  0.833967  0.501248  0.833967  1
  In  In19  1  0.501248  0.833967  0.833967  1
  Ni  Ni20  1  0.392778  0.392778  0.392778  1
  Ni  Ni21  1  0.391288  0.391288  0.824354  1
  Ni  Ni22  1  0.391288  0.824354  0.391288  1
  Ni  Ni23  1  0.824354  0.391288  0.391288  1
