# generated using pymatgen
data_ErLu3(TcB6)2
_symmetry_space_group_name_H-M   'P 1'
_cell_length_a   3.62742500
_cell_length_b   9.06664400
_cell_length_c   11.42362900
_cell_angle_alpha   90.00222567
_cell_angle_beta   90.00000000
_cell_angle_gamma   90.00000000
_symmetry_Int_Tables_number   1
_chemical_formula_structural   ErLu3(TcB6)2
_chemical_formula_sum   'Er2 Lu6 Tc4 B24'
_cell_volume   375.70683458
_cell_formula_units_Z   2
loop_
 _symmetry_equiv_pos_site_id
 _symmetry_equiv_pos_as_xyz
  1  'x, y, z'
loop_
 _atom_site_type_symbol
 _atom_site_label
 _atom_site_symmetry_multiplicity
 _atom_site_fract_x
 _atom_site_fract_y
 _atom_site_fract_z
 _atom_site_occupancy
  Er  Er0  1  0.000000  0.823397  0.085830  1
  Er  Er1  1  0.000000  0.176603  0.914170  1
  Lu  Lu2  1  0.000000  0.323618  0.414285  1
  Lu  Lu3  1  0.000000  0.676382  0.585715  1
  Lu  Lu4  1  0.000000  0.443037  0.130584  1
  Lu  Lu5  1  0.000000  0.556963  0.869416  1
  Lu  Lu6  1  0.000000  0.943054  0.369897  1
  Lu  Lu7  1  0.000000  0.056946  0.630103  1
  Tc  Tc8  1  0.000000  0.139654  0.180472  1
  Tc  Tc9  1  0.000000  0.860346  0.819528  1
  Tc  Tc10  1  0.000000  0.638910  0.320533  1
  Tc  Tc11  1  0.000000  0.361090  0.679467  1
  B  B12  1  0.500000  0.053508  0.067007  1
  B  B13  1  0.500000  0.946492  0.932993  1
  B  B14  1  0.500000  0.553082  0.433732  1
  B  B15  1  0.500000  0.446918  0.566268  1
  B  B16  1  0.500000  0.250694  0.081266  1
  B  B17  1  0.500000  0.749306  0.918734  1
  B  B18  1  0.500000  0.750338  0.419667  1
  B  B19  1  0.500000  0.249662  0.580333  1
  B  B20  1  0.500000  0.293348  0.235837  1
  B  B21  1  0.500000  0.706652  0.764163  1
  B  B22  1  0.500000  0.792942  0.265126  1
  B  B23  1  0.500000  0.207058  0.734874  1
  B  B24  1  0.500000  0.130634  0.316110  1
  B  B25  1  0.500000  0.869366  0.683890  1
  B  B26  1  0.500000  0.630084  0.184711  1
  B  B27  1  0.500000  0.369916  0.815289  1
  B  B28  1  0.500000  0.480798  0.288435  1
  B  B29  1  0.500000  0.519202  0.711565  1
  B  B30  1  0.500000  0.981362  0.212418  1
  B  B31  1  0.500000  0.018638  0.787582  1
  B  B32  1  0.500000  0.099420  0.472420  1
  B  B33  1  0.500000  0.900580  0.527580  1
  B  B34  1  0.500000  0.598595  0.027404  1
  B  B35  1  0.500000  0.401405  0.972596  1
