# generated using pymatgen
data_Yb6RuAu
_symmetry_space_group_name_H-M   'P 1'
_cell_length_a   6.26989000
_cell_length_b   8.00833500
_cell_length_c   9.27949900
_cell_angle_alpha   90.00000000
_cell_angle_beta   90.00000000
_cell_angle_gamma   90.00000000
_symmetry_Int_Tables_number   1
_chemical_formula_structural   Yb6RuAu
_chemical_formula_sum   'Yb12 Ru2 Au2'
_cell_volume   465.93644617
_cell_formula_units_Z   2
loop_
 _symmetry_equiv_pos_site_id
 _symmetry_equiv_pos_as_xyz
  1  'x, y, z'
loop_
 _atom_site_type_symbol
 _atom_site_label
 _atom_site_symmetry_multiplicity
 _atom_site_fract_x
 _atom_site_fract_y
 _atom_site_fract_z
 _atom_site_occupancy
  Yb  Yb0  1  0.345874  0.667021  0.074326  1
  Yb  Yb1  1  0.154126  0.167021  0.425674  1
  Yb  Yb2  1  0.639104  0.331879  0.549113  1
  Yb  Yb3  1  0.860896  0.831879  0.950887  1
  Yb  Yb4  1  0.639104  0.331879  0.950887  1
  Yb  Yb5  1  0.860896  0.831879  0.549113  1
  Yb  Yb6  1  0.345874  0.667021  0.425674  1
  Yb  Yb7  1  0.154126  0.167021  0.074326  1
  Yb  Yb8  1  0.876601  0.535803  0.250000  1
  Yb  Yb9  1  0.623399  0.035803  0.250000  1
  Yb  Yb10  1  0.120678  0.466244  0.750000  1
  Yb  Yb11  1  0.379322  0.966244  0.750000  1
  Ru  Ru12  1  0.049099  0.874981  0.250000  1
  Ru  Ru13  1  0.450901  0.374981  0.250000  1
  Au  Au14  1  0.934689  0.125173  0.750000  1
  Au  Au15  1  0.565311  0.625173  0.750000  1
