# generated using pymatgen
data_La2Nd2PtAu3
_symmetry_space_group_name_H-M   'P 1'
_cell_length_a   4.79183300
_cell_length_b   5.92940081
_cell_length_c   7.49073320
_cell_angle_alpha   90.54867215
_cell_angle_beta   90.00000000
_cell_angle_gamma   90.00000000
_symmetry_Int_Tables_number   1
_chemical_formula_structural   La2Nd2PtAu3
_chemical_formula_sum   'La2 Nd2 Pt1 Au3'
_cell_volume   212.82218533
_cell_formula_units_Z   1
loop_
 _symmetry_equiv_pos_site_id
 _symmetry_equiv_pos_as_xyz
  1  'x, y, z'
loop_
 _atom_site_type_symbol
 _atom_site_label
 _atom_site_symmetry_multiplicity
 _atom_site_fract_x
 _atom_site_fract_y
 _atom_site_fract_z
 _atom_site_occupancy
  La  La0  1  0.250000  0.358475  0.694074  1
  La  La1  1  0.250000  0.147016  0.175211  1
  Nd  Nd2  1  0.750000  0.637734  0.311602  1
  Nd  Nd3  1  0.750000  0.861995  0.819925  1
  Pt  Pt4  1  0.750000  0.346506  0.957215  1
  Au  Au5  1  0.250000  0.850695  0.540629  1
  Au  Au6  1  0.250000  0.651283  0.043613  1
  Au  Au7  1  0.750000  0.146295  0.457733  1
