# generated using pymatgen
data_Ho3Hf(NiP)4
_symmetry_space_group_name_H-M   'P 1'
_cell_length_a   3.86193200
_cell_length_b   3.86193231
_cell_length_c   14.90038500
_cell_angle_alpha   90.00000000
_cell_angle_beta   90.00000000
_cell_angle_gamma   120.00001448
_symmetry_Int_Tables_number   1
_chemical_formula_structural   Ho3Hf(NiP)4
_chemical_formula_sum   'Ho3 Hf1 Ni4 P4'
_cell_volume   192.45860707
_cell_formula_units_Z   1
loop_
 _symmetry_equiv_pos_site_id
 _symmetry_equiv_pos_as_xyz
  1  'x, y, z'
loop_
 _atom_site_type_symbol
 _atom_site_label
 _atom_site_symmetry_multiplicity
 _atom_site_fract_x
 _atom_site_fract_y
 _atom_site_fract_z
 _atom_site_occupancy
  Ho  Ho0  1  0.000000  0.000000  0.493190  1
  Ho  Ho1  1  0.000000  0.000000  0.006810  1
  Ho  Ho2  1  0.000000  0.000000  0.750000  1
  Hf  Hf3  1  0.000000  0.000000  0.250000  1
  Ni  Ni4  1  0.333333  0.666667  0.346171  1
  Ni  Ni5  1  0.666667  0.333333  0.623722  1
  Ni  Ni6  1  0.666667  0.333333  0.876278  1
  Ni  Ni7  1  0.333333  0.666667  0.153829  1
  P  P8  1  0.333333  0.666667  0.880452  1
  P  P9  1  0.666667  0.333333  0.126659  1
  P  P10  1  0.666667  0.333333  0.373341  1
  P  P11  1  0.333333  0.666667  0.619548  1
