# generated using pymatgen
data_Lu12Re7Si16Tc
_symmetry_space_group_name_H-M   'P 1'
_cell_length_a   10.44424623
_cell_length_b   10.44272461
_cell_length_c   14.10282294
_cell_angle_alpha   55.38755803
_cell_angle_beta   55.39050945
_cell_angle_gamma   30.55477154
_symmetry_Int_Tables_number   1
_chemical_formula_structural   Lu12Re7Si16Tc
_chemical_formula_sum   'Lu12 Re7 Si16 Tc1'
_cell_volume   632.01526627
_cell_formula_units_Z   1
loop_
 _symmetry_equiv_pos_site_id
 _symmetry_equiv_pos_as_xyz
  1  'x, y, z'
loop_
 _atom_site_type_symbol
 _atom_site_label
 _atom_site_symmetry_multiplicity
 _atom_site_fract_x
 _atom_site_fract_y
 _atom_site_fract_z
 _atom_site_occupancy
  Lu  Lu0  1  0.752094  0.483506  0.047982  1
  Lu  Lu1  1  0.535104  0.306457  0.155506  1
  Lu  Lu2  1  0.516606  0.247579  0.452011  1
  Lu  Lu3  1  0.464671  0.693915  0.844325  1
  Lu  Lu4  1  0.293148  0.038554  0.138044  1
  Lu  Lu5  1  0.961110  0.706705  0.361926  1
  Lu  Lu6  1  0.706756  0.961442  0.861918  1
  Lu  Lu7  1  0.038451  0.293270  0.638064  1
  Lu  Lu8  1  0.248046  0.516235  0.952141  1
  Lu  Lu9  1  0.483251  0.752261  0.548065  1
  Lu  Lu10  1  0.306090  0.535205  0.655667  1
  Lu  Lu11  1  0.694117  0.465188  0.344320  1
  Re  Re12  1  0.827527  0.643852  0.782297  1
  Re  Re13  1  0.356080  0.172439  0.717717  1
  Re  Re14  1  0.172520  0.356001  0.217806  1
  Re  Re15  1  0.136571  0.913317  0.076676  1
  Re  Re16  1  0.086809  0.863312  0.423191  1
  Re  Re17  1  0.863428  0.086920  0.923178  1
  Re  Re18  1  0.913089  0.136574  0.576940  1
  Si  Si19  1  0.900005  0.099969  0.250020  1
  Si  Si20  1  0.099904  0.900177  0.750034  1
  Si  Si21  1  0.347229  0.652685  0.250033  1
  Si  Si22  1  0.652549  0.347498  0.750016  1
  Si  Si23  1  0.001343  0.229202  0.875865  1
  Si  Si24  1  0.770662  0.998734  0.624117  1
  Si  Si25  1  0.999088  0.770174  0.124115  1
  Si  Si26  1  0.229296  0.002015  0.375409  1
  Si  Si27  1  0.605728  0.046404  0.076164  1
  Si  Si28  1  0.954153  0.393106  0.424989  1
  Si  Si29  1  0.393952  0.953317  0.924990  1
  Si  Si30  1  0.046620  0.606301  0.574885  1
  Si  Si31  1  0.386334  0.157682  0.382577  1
  Si  Si32  1  0.842764  0.613708  0.116555  1
  Si  Si33  1  0.613958  0.842130  0.616782  1
  Si  Si34  1  0.157327  0.386474  0.883557  1
  Tc  Tc35  1  0.643619  0.827692  0.282118  1
