# generated using pymatgen
data_Hf6Al4In2(PdPt)3
_symmetry_space_group_name_H-M   'P 1'
_cell_length_a   7.30532218
_cell_length_b   7.27059687
_cell_length_c   7.09905411
_cell_angle_alpha   90.02252374
_cell_angle_beta   90.05891850
_cell_angle_gamma   119.91569788
_symmetry_Int_Tables_number   1
_chemical_formula_structural   Hf6Al4In2(PdPt)3
_chemical_formula_sum   'Hf6 Al4 In2 Pd3 Pt3'
_cell_volume   326.81982305
_cell_formula_units_Z   1
loop_
 _symmetry_equiv_pos_site_id
 _symmetry_equiv_pos_as_xyz
  1  'x, y, z'
loop_
 _atom_site_type_symbol
 _atom_site_label
 _atom_site_symmetry_multiplicity
 _atom_site_fract_x
 _atom_site_fract_y
 _atom_site_fract_z
 _atom_site_occupancy
  Hf  Hf0  1  0.587127  0.976692  0.743070  1
  Hf  Hf1  1  0.028631  0.607043  0.749441  1
  Hf  Hf2  1  0.386675  0.416988  0.748455  1
  Hf  Hf3  1  0.976632  0.582215  0.252138  1
  Hf  Hf4  1  0.611306  0.024659  0.252024  1
  Hf  Hf5  1  0.409750  0.391151  0.257860  1
  Al  Al6  1  0.997789  0.249634  0.001490  1
  Al  Al7  1  0.727710  0.723617  0.502054  1
  Al  Al8  1  0.273471  0.998967  0.500237  1
  Al  Al9  1  0.997977  0.278921  0.500616  1
  In  In10  1  0.745714  0.743334  0.000209  1
  In  In11  1  0.258630  0.005679  0.000443  1
  Pd  Pd12  1  0.000718  0.010673  0.717369  1
  Pd  Pd13  1  0.999148  0.008887  0.284767  1
  Pd  Pd14  1  0.677761  0.329656  0.958796  1
  Pt  Pt15  1  0.664482  0.332491  0.529803  1
  Pt  Pt16  1  0.335040  0.668269  0.465144  1
  Pt  Pt17  1  0.321440  0.651125  0.036083  1
