# generated using pymatgen
data_HoTm5Al24Os7Pt
_symmetry_space_group_name_H-M   'P 1'
_cell_length_a   8.82566941
_cell_length_b   8.80861021
_cell_length_c   9.52195667
_cell_angle_alpha   90.42335052
_cell_angle_beta   89.99319472
_cell_angle_gamma   120.02962033
_symmetry_Int_Tables_number   1
_chemical_formula_structural   HoTm5Al24Os7Pt
_chemical_formula_sum   'Ho1 Tm5 Al24 Os7 Pt1'
_cell_volume   640.86508512
_cell_formula_units_Z   1
loop_
 _symmetry_equiv_pos_site_id
 _symmetry_equiv_pos_as_xyz
  1  'x, y, z'
loop_
 _atom_site_type_symbol
 _atom_site_label
 _atom_site_symmetry_multiplicity
 _atom_site_fract_x
 _atom_site_fract_y
 _atom_site_fract_z
 _atom_site_occupancy
  Ho  Ho0  1  0.809030  0.195690  0.748839  1
  Tm  Tm1  1  0.195502  0.391170  0.251711  1
  Tm  Tm2  1  0.804397  0.608832  0.748300  1
  Tm  Tm3  1  0.612137  0.803550  0.251411  1
  Tm  Tm4  1  0.387967  0.196620  0.748616  1
  Tm  Tm5  1  0.191337  0.803526  0.251399  1
  Al  Al6  1  0.331658  0.663386  0.023046  1
  Al  Al7  1  0.668389  0.337003  0.977199  1
  Al  Al8  1  0.666294  0.332870  0.519848  1
  Al  Al9  1  0.333447  0.667141  0.479930  1
  Al  Al10  1  0.163665  0.326956  0.575778  1
  Al  Al11  1  0.836566  0.673251  0.423948  1
  Al  Al12  1  0.674072  0.837564  0.576902  1
  Al  Al13  1  0.836913  0.673895  0.076219  1
  Al  Al14  1  0.325673  0.162039  0.422825  1
  Al  Al15  1  0.163419  0.326387  0.924094  1
  Al  Al16  1  0.163710  0.837907  0.576894  1
  Al  Al17  1  0.324743  0.166729  0.077817  1
  Al  Al18  1  0.836206  0.162092  0.422591  1
  Al  Al19  1  0.675104  0.833018  0.922392  1
  Al  Al20  1  0.841955  0.166827  0.078122  1
  Al  Al21  1  0.158043  0.833236  0.922400  1
  Al  Al22  1  0.561647  0.123456  0.251869  1
  Al  Al23  1  0.437777  0.876134  0.747948  1
  Al  Al24  1  0.878236  0.438772  0.249228  1
  Al  Al25  1  0.122065  0.561751  0.750853  1
  Al  Al26  1  0.560428  0.438703  0.249159  1
  Al  Al27  1  0.439597  0.561313  0.750829  1
  Al  Al28  1  0.999932  0.999936  0.250166  1
  Al  Al29  1  0.000590  0.999586  0.749804  1
  Os  Os30  1  0.000299  0.500437  0.000367  1
  Os  Os31  1  0.499602  0.999708  0.499664  1
  Os  Os32  1  0.499887  0.500079  0.000089  1
  Os  Os33  1  0.000151  0.500326  0.499743  1
  Os  Os34  1  0.499867  0.500073  0.499908  1
  Os  Os35  1  0.999961  0.000061  0.000002  1
  Os  Os36  1  0.999946  0.000036  0.499973  1
  Pt  Pt37  1  0.499790  0.999937  0.000117  1
