# generated using pymatgen
data_HoEr3InNi
_symmetry_space_group_name_H-M   'P 1'
_cell_length_a   9.53938857
_cell_length_b   9.53938741
_cell_length_c   9.53938900
_cell_angle_alpha   59.99999794
_cell_angle_beta   60.00000197
_cell_angle_gamma   59.99999929
_symmetry_Int_Tables_number   1
_chemical_formula_structural   HoEr3InNi
_chemical_formula_sum   'Ho4 Er12 In4 Ni4'
_cell_volume   613.82784320
_cell_formula_units_Z   4
loop_
 _symmetry_equiv_pos_site_id
 _symmetry_equiv_pos_as_xyz
  1  'x, y, z'
loop_
 _atom_site_type_symbol
 _atom_site_label
 _atom_site_symmetry_multiplicity
 _atom_site_fract_x
 _atom_site_fract_y
 _atom_site_fract_z
 _atom_site_occupancy
  Ho  Ho0  1  0.347976  0.347976  0.347976  1
  Ho  Ho1  1  0.347976  0.347976  0.956075  1
  Ho  Ho2  1  0.347976  0.956075  0.347976  1
  Ho  Ho3  1  0.956075  0.347976  0.347976  1
  Er  Er4  1  0.812306  0.187694  0.187694  1
  Er  Er5  1  0.187694  0.812306  0.812306  1
  Er  Er6  1  0.187694  0.812306  0.187694  1
  Er  Er7  1  0.812306  0.187694  0.812306  1
  Er  Er8  1  0.187694  0.187694  0.812306  1
  Er  Er9  1  0.812306  0.812306  0.187694  1
  Er  Er10  1  0.937590  0.562410  0.562410  1
  Er  Er11  1  0.562410  0.937590  0.937590  1
  Er  Er12  1  0.562410  0.937590  0.562410  1
  Er  Er13  1  0.937590  0.562410  0.937590  1
  Er  Er14  1  0.562410  0.562410  0.937590  1
  Er  Er15  1  0.937590  0.937590  0.562410  1
  In  In16  1  0.582753  0.582753  0.582753  1
  In  In17  1  0.582753  0.582753  0.251738  1
  In  In18  1  0.582753  0.251738  0.582753  1
  In  In19  1  0.251738  0.582753  0.582753  1
  Ni  Ni20  1  0.142055  0.142055  0.142055  1
  Ni  Ni21  1  0.142055  0.142055  0.573835  1
  Ni  Ni22  1  0.142055  0.573835  0.142055  1
  Ni  Ni23  1  0.573835  0.142055  0.142055  1
