# generated using pymatgen
data_Dy3Ti2(Co2Si5)2
_symmetry_space_group_name_H-M   'P 1'
_cell_length_a   12.10254500
_cell_length_b   12.10254500
_cell_length_c   3.97159800
_cell_angle_alpha   90.00000000
_cell_angle_beta   90.00000000
_cell_angle_gamma   90.00000000
_symmetry_Int_Tables_number   1
_chemical_formula_structural   Dy3Ti2(Co2Si5)2
_chemical_formula_sum   'Dy6 Ti4 Co8 Si20'
_cell_volume   581.72629565
_cell_formula_units_Z   2
loop_
 _symmetry_equiv_pos_site_id
 _symmetry_equiv_pos_as_xyz
  1  'x, y, z'
loop_
 _atom_site_type_symbol
 _atom_site_label
 _atom_site_symmetry_multiplicity
 _atom_site_fract_x
 _atom_site_fract_y
 _atom_site_fract_z
 _atom_site_occupancy
  Dy  Dy0  1  0.000000  0.000000  0.000000  1
  Dy  Dy1  1  0.500000  0.500000  0.000000  1
  Dy  Dy2  1  0.886285  0.386285  0.500000  1
  Dy  Dy3  1  0.386285  0.113715  0.500000  1
  Dy  Dy4  1  0.613715  0.886285  0.500000  1
  Dy  Dy5  1  0.113715  0.613715  0.500000  1
  Ti  Ti6  1  0.673950  0.173950  0.500000  1
  Ti  Ti7  1  0.173950  0.326050  0.500000  1
  Ti  Ti8  1  0.826050  0.673950  0.500000  1
  Ti  Ti9  1  0.326050  0.826050  0.500000  1
  Co  Co10  1  0.523067  0.253412  0.000000  1
  Co  Co11  1  0.253412  0.476933  0.000000  1
  Co  Co12  1  0.746588  0.523067  0.000000  1
  Co  Co13  1  0.476933  0.746588  0.000000  1
  Co  Co14  1  0.976933  0.753412  0.000000  1
  Co  Co15  1  0.023067  0.246588  0.000000  1
  Co  Co16  1  0.753412  0.023067  0.000000  1
  Co  Co17  1  0.246588  0.976933  0.000000  1
  Si  Si18  1  0.571203  0.071203  0.000000  1
  Si  Si19  1  0.071203  0.428797  0.000000  1
  Si  Si20  1  0.928797  0.571203  0.000000  1
  Si  Si21  1  0.428797  0.928797  0.000000  1
  Si  Si22  1  0.195528  0.161570  0.000000  1
  Si  Si23  1  0.161570  0.804472  0.000000  1
  Si  Si24  1  0.838430  0.195528  0.000000  1
  Si  Si25  1  0.804472  0.838430  0.000000  1
  Si  Si26  1  0.304472  0.661570  0.000000  1
  Si  Si27  1  0.695528  0.338430  0.000000  1
  Si  Si28  1  0.661570  0.695528  0.000000  1
  Si  Si29  1  0.338430  0.304472  0.000000  1
  Si  Si30  1  0.013832  0.168064  0.500000  1
  Si  Si31  1  0.168064  0.986168  0.500000  1
  Si  Si32  1  0.831936  0.013832  0.500000  1
  Si  Si33  1  0.986168  0.831936  0.500000  1
  Si  Si34  1  0.486168  0.668064  0.500000  1
  Si  Si35  1  0.513832  0.331936  0.500000  1
  Si  Si36  1  0.668064  0.513832  0.500000  1
  Si  Si37  1  0.331936  0.486168  0.500000  1
