# generated using pymatgen
data_Y6Cd22AgSn
_symmetry_space_group_name_H-M   'P 1'
_cell_length_a   10.07094153
_cell_length_b   9.99906137
_cell_length_c   10.07094100
_cell_angle_alpha   60.23582399
_cell_angle_beta   60.17104838
_cell_angle_gamma   60.23581923
_symmetry_Int_Tables_number   1
_chemical_formula_structural   Y6Cd22AgSn
_chemical_formula_sum   'Y6 Cd22 Ag1 Sn1'
_cell_volume   720.58541063
_cell_formula_units_Z   1
loop_
 _symmetry_equiv_pos_site_id
 _symmetry_equiv_pos_as_xyz
  1  'x, y, z'
loop_
 _atom_site_type_symbol
 _atom_site_label
 _atom_site_symmetry_multiplicity
 _atom_site_fract_x
 _atom_site_fract_y
 _atom_site_fract_z
 _atom_site_occupancy
  Y  Y0  1  0.780850  0.783092  0.219150  1
  Y  Y1  1  0.218093  0.781907  0.218093  1
  Y  Y2  1  0.780850  0.216908  0.219150  1
  Y  Y3  1  0.219150  0.216908  0.780850  1
  Y  Y4  1  0.781907  0.218093  0.781907  1
  Y  Y5  1  0.219150  0.783092  0.780850  1
  Cd  Cd6  1  0.842182  0.843261  0.471297  1
  Cd  Cd7  1  0.845596  0.469731  0.845596  1
  Cd  Cd8  1  0.471297  0.843261  0.842182  1
  Cd  Cd9  1  0.845596  0.839078  0.845596  1
  Cd  Cd10  1  0.157818  0.156739  0.528703  1
  Cd  Cd11  1  0.154404  0.530269  0.154404  1
  Cd  Cd12  1  0.528703  0.156739  0.157818  1
  Cd  Cd13  1  0.154404  0.160922  0.154404  1
  Cd  Cd14  1  0.631641  0.620937  0.126484  1
  Cd  Cd15  1  0.625298  0.127471  0.625298  1
  Cd  Cd16  1  0.126484  0.620937  0.631641  1
  Cd  Cd17  1  0.625298  0.621933  0.625298  1
  Cd  Cd18  1  0.368359  0.379063  0.873516  1
  Cd  Cd19  1  0.374702  0.872529  0.374702  1
  Cd  Cd20  1  0.873516  0.379063  0.368359  1
  Cd  Cd21  1  0.374702  0.378067  0.374702  1
  Cd  Cd22  1  0.000000  0.000000  0.500000  1
  Cd  Cd23  1  0.500000  0.000000  0.500000  1
  Cd  Cd24  1  0.000000  0.500000  0.500000  1
  Cd  Cd25  1  0.500000  0.500000  0.000000  1
  Cd  Cd26  1  0.500000  0.000000  0.000000  1
  Cd  Cd27  1  0.500000  0.500000  0.500000  1
  Ag  Ag28  1  0.000000  0.500000  0.000000  1
  Sn  Sn29  1  0.000000  0.000000  0.000000  1
