# generated using pymatgen
data_Ho9AlZn3
_symmetry_space_group_name_H-M   'P 1'
_cell_length_a   8.57866106
_cell_length_b   8.57866016
_cell_length_c   8.59794081
_cell_angle_alpha   94.47862272
_cell_angle_beta   95.50934042
_cell_angle_gamma   145.64060393
_symmetry_Int_Tables_number   1
_chemical_formula_structural   Ho9AlZn3
_chemical_formula_sum   'Ho9 Al1 Zn3'
_cell_volume   341.23709855
_cell_formula_units_Z   1
loop_
 _symmetry_equiv_pos_site_id
 _symmetry_equiv_pos_as_xyz
  1  'x, y, z'
loop_
 _atom_site_type_symbol
 _atom_site_label
 _atom_site_symmetry_multiplicity
 _atom_site_fract_x
 _atom_site_fract_y
 _atom_site_fract_z
 _atom_site_occupancy
  Ho  Ho0  1  0.501372  0.496657  0.998030  1
  Ho  Ho1  1  0.179501  0.888703  0.068204  1
  Ho  Ho2  1  0.110446  0.183322  0.293768  1
  Ho  Ho3  1  0.884497  0.403568  0.288067  1
  Ho  Ho4  1  0.601478  0.888206  0.489686  1
  Ho  Ho5  1  0.403239  0.116349  0.519587  1
  Ho  Ho6  1  0.117408  0.598280  0.715688  1
  Ho  Ho7  1  0.886360  0.816119  0.702481  1
  Ho  Ho8  1  0.816769  0.110392  0.927163  1
  Al  Al9  1  0.391913  0.734988  0.126903  1
  Zn  Zn10  1  0.735551  0.606935  0.342489  1
  Zn  Zn11  1  0.264194  0.392219  0.656412  1
  Zn  Zn12  1  0.607267  0.264254  0.871521  1
