# generated using pymatgen
data_CeP4N7
_symmetry_space_group_name_H-M   'P 1'
_cell_length_a   5.02346098
_cell_length_b   7.48076372
_cell_length_c   8.57474500
_cell_angle_alpha   73.49029180
_cell_angle_beta   107.31374952
_cell_angle_gamma   98.02716412
_symmetry_Int_Tables_number   1
_chemical_formula_structural   CeP4N7
_chemical_formula_sum   'Ce2 P8 N14'
_cell_volume   294.41505029
_cell_formula_units_Z   2
loop_
 _symmetry_equiv_pos_site_id
 _symmetry_equiv_pos_as_xyz
  1  'x, y, z'
loop_
 _atom_site_type_symbol
 _atom_site_label
 _atom_site_symmetry_multiplicity
 _atom_site_fract_x
 _atom_site_fract_y
 _atom_site_fract_z
 _atom_site_occupancy
  Ce  Ce0  1  0.338583  0.802394  0.194529  1
  Ce  Ce1  1  0.661833  0.197109  0.806500  1
  P  P2  1  0.295306  0.279414  0.079869  1
  P  P3  1  0.844374  0.124623  0.244218  1
  P  P4  1  0.724610  0.490897  0.256490  1
  P  P5  1  0.015013  0.246589  0.566908  1
  P  P6  1  0.985306  0.753629  0.433279  1
  P  P7  1  0.275127  0.508967  0.743131  1
  P  P8  1  0.155805  0.875403  0.756005  1
  P  P9  1  0.704633  0.720265  0.919915  1
  N  N10  1  0.560106  0.165679  0.088363  1
  N  N11  1  0.868943  0.641278  0.118721  1
  N  N12  1  0.089559  0.112325  0.160799  1
  N  N13  1  0.400233  0.444430  0.174049  1
  N  N14  1  0.904426  0.295880  0.342910  1
  N  N15  1  0.782346  0.931922  0.373840  1
  N  N16  1  0.732567  0.584646  0.405034  1
  N  N17  1  0.266274  0.416479  0.593868  1
  N  N18  1  0.218515  0.068444  0.626824  1
  N  N19  1  0.095190  0.704140  0.657201  1
  N  N20  1  0.599450  0.555373  0.825756  1
  N  N21  1  0.910259  0.887770  0.839152  1
  N  N22  1  0.131093  0.357969  0.880918  1
  N  N23  1  0.440447  0.834374  0.911722  1
