# generated using pymatgen
data_ScBi(BO3)2
_symmetry_space_group_name_H-M   'P 1'
_cell_length_a   6.16536441
_cell_length_b   6.16536415
_cell_length_c   6.16536543
_cell_angle_alpha   47.61037056
_cell_angle_beta   47.61037640
_cell_angle_gamma   47.61036718
_symmetry_Int_Tables_number   1
_chemical_formula_structural   ScBi(BO3)2
_chemical_formula_sum   'Sc1 Bi1 B2 O6'
_cell_volume   117.01710493
_cell_formula_units_Z   1
loop_
 _symmetry_equiv_pos_site_id
 _symmetry_equiv_pos_as_xyz
  1  'x, y, z'
loop_
 _atom_site_type_symbol
 _atom_site_label
 _atom_site_symmetry_multiplicity
 _atom_site_fract_x
 _atom_site_fract_y
 _atom_site_fract_z
 _atom_site_occupancy
  Sc  Sc0  1  0.000000  0.000000  0.000000  1
  Bi  Bi1  1  0.500000  0.500000  0.500000  1
  B  B2  1  0.743436  0.743436  0.743436  1
  B  B3  1  0.256564  0.256564  0.256564  1
  O  O4  1  0.005604  0.451084  0.776542  1
  O  O5  1  0.451084  0.776542  0.005604  1
  O  O6  1  0.776542  0.005604  0.451084  1
  O  O7  1  0.548916  0.223458  0.994396  1
  O  O8  1  0.223458  0.994396  0.548916  1
  O  O9  1  0.994396  0.548916  0.223458  1
