# generated using pymatgen
data_Er7Lu(Si4Tc3)4
_symmetry_space_group_name_H-M   'P 1'
_cell_length_a   6.75858121
_cell_length_b   6.75645481
_cell_length_c   12.62719200
_cell_angle_alpha   89.85098656
_cell_angle_beta   90.01429304
_cell_angle_gamma   90.25127950
_symmetry_Int_Tables_number   1
_chemical_formula_structural   Er7Lu(Si4Tc3)4
_chemical_formula_sum   'Er7 Lu1 Si16 Tc12'
_cell_volume   576.60119644
_cell_formula_units_Z   1
loop_
 _symmetry_equiv_pos_site_id
 _symmetry_equiv_pos_as_xyz
  1  'x, y, z'
loop_
 _atom_site_type_symbol
 _atom_site_label
 _atom_site_symmetry_multiplicity
 _atom_site_fract_x
 _atom_site_fract_y
 _atom_site_fract_z
 _atom_site_occupancy
  Er  Er0  1  0.002413  0.661925  0.030010  1
  Er  Er1  1  0.995739  0.340060  0.530872  1
  Er  Er2  1  0.659714  0.004319  0.969089  1
  Er  Er3  1  0.161352  0.494418  0.780806  1
  Er  Er4  1  0.837190  0.505441  0.280817  1
  Er  Er5  1  0.493697  0.161847  0.219106  1
  Er  Er6  1  0.504291  0.836903  0.719445  1
  Lu  Lu7  1  0.339395  0.996902  0.470183  1
  Si  Si8  1  0.026284  0.723863  0.435485  1
  Si  Si9  1  0.979551  0.271037  0.937986  1
  Si  Si10  1  0.722235  0.023358  0.563477  1
  Si  Si11  1  0.219528  0.476041  0.186044  1
  Si  Si12  1  0.773062  0.520541  0.687239  1
  Si  Si13  1  0.479785  0.226501  0.811391  1
  Si  Si14  1  0.524675  0.781140  0.315516  1
  Si  Si15  1  0.271530  0.978321  0.062912  1
  Si  Si16  1  0.885262  0.806306  0.813490  1
  Si  Si17  1  0.117933  0.194721  0.314637  1
  Si  Si18  1  0.805211  0.884103  0.186676  1
  Si  Si19  1  0.308191  0.617152  0.562521  1
  Si  Si20  1  0.692358  0.384095  0.064148  1
  Si  Si21  1  0.617422  0.305883  0.436067  1
  Si  Si22  1  0.385378  0.691272  0.936984  1
  Si  Si23  1  0.194502  0.115430  0.685261  1
  Tc  Tc24  1  0.321639  0.482203  0.376487  1
  Tc  Tc25  1  0.819394  0.020706  0.372361  1
  Tc  Tc26  1  0.976743  0.186306  0.130915  1
  Tc  Tc27  1  0.020058  0.818348  0.626617  1
  Tc  Tc28  1  0.686995  0.518947  0.879755  1
  Tc  Tc29  1  0.478510  0.313123  0.618446  1
  Tc  Tc30  1  0.515521  0.679948  0.124848  1
  Tc  Tc31  1  0.187629  0.977896  0.869863  1
  Tc  Tc32  1  0.665867  0.667349  0.499899  1
  Tc  Tc33  1  0.833794  0.164615  0.749482  1
  Tc  Tc34  1  0.164608  0.835782  0.251061  1
  Tc  Tc35  1  0.332547  0.333200  0.000107  1
