# generated using pymatgen
data_Sr3Y5(P7Ir8)2
_symmetry_space_group_name_H-M   'P 1'
_cell_length_a   3.96760100
_cell_length_b   12.84099482
_cell_length_c   13.21993916
_cell_angle_alpha   81.10865978
_cell_angle_beta   90.00000000
_cell_angle_gamma   90.00000000
_symmetry_Int_Tables_number   1
_chemical_formula_structural   Sr3Y5(P7Ir8)2
_chemical_formula_sum   'Sr3 Y5 P14 Ir16'
_cell_volume   665.43508400
_cell_formula_units_Z   1
loop_
 _symmetry_equiv_pos_site_id
 _symmetry_equiv_pos_as_xyz
  1  'x, y, z'
loop_
 _atom_site_type_symbol
 _atom_site_label
 _atom_site_symmetry_multiplicity
 _atom_site_fract_x
 _atom_site_fract_y
 _atom_site_fract_z
 _atom_site_occupancy
  Sr  Sr0  1  0.250000  0.108072  0.787546  1
  Sr  Sr1  1  0.750000  0.891286  0.212085  1
  Sr  Sr2  1  0.250000  0.282195  0.103715  1
  Y  Y3  1  0.750000  0.718480  0.897367  1
  Y  Y4  1  0.250000  0.520764  0.293758  1
  Y  Y5  1  0.750000  0.479886  0.706071  1
  Y  Y6  1  0.250000  0.209553  0.440074  1
  Y  Y7  1  0.750000  0.791503  0.559824  1
  P  P8  1  0.250000  0.053133  0.098439  1
  P  P9  1  0.750000  0.942843  0.900355  1
  P  P10  1  0.250000  0.317729  0.684944  1
  P  P11  1  0.750000  0.681968  0.314884  1
  P  P12  1  0.250000  0.609758  0.567013  1
  P  P13  1  0.750000  0.391665  0.435868  1
  P  P14  1  0.250000  0.841738  0.718054  1
  P  P15  1  0.750000  0.158176  0.283145  1
  P  P16  1  0.750000  0.257583  0.917099  1
  P  P17  1  0.250000  0.739185  0.078151  1
  P  P18  1  0.750000  0.092393  0.587256  1
  P  P19  1  0.250000  0.907155  0.413313  1
  P  P20  1  0.750000  0.473315  0.129849  1
  P  P21  1  0.250000  0.528149  0.870268  1
  Ir  Ir22  1  0.250000  0.986840  0.576618  1
  Ir  Ir23  1  0.750000  0.013164  0.424549  1
  Ir  Ir24  1  0.250000  0.662396  0.731851  1
  Ir  Ir25  1  0.750000  0.340218  0.274378  1
  Ir  Ir26  1  0.250000  0.554539  0.045924  1
  Ir  Ir27  1  0.750000  0.452572  0.948290  1
  Ir  Ir28  1  0.250000  0.064591  0.273150  1
  Ir  Ir29  1  0.750000  0.932078  0.728063  1
  Ir  Ir30  1  0.250000  0.424755  0.523054  1
  Ir  Ir31  1  0.750000  0.577523  0.479248  1
  Ir  Ir32  1  0.250000  0.913531  0.996673  1
  Ir  Ir33  1  0.750000  0.080933  0.000367  1
  Ir  Ir34  1  0.250000  0.727046  0.400856  1
  Ir  Ir35  1  0.750000  0.272665  0.599653  1
  Ir  Ir36  1  0.250000  0.344777  0.855466  1
  Ir  Ir37  1  0.750000  0.655844  0.142783  1
