# generated using pymatgen
data_Tb3Ho7Tl4In4(IrPd)2
_symmetry_space_group_name_H-M   'P 1'
_cell_length_a   3.63321700
_cell_length_b   8.17339240
_cell_length_c   18.30836193
_cell_angle_alpha   89.91318734
_cell_angle_beta   90.00000000
_cell_angle_gamma   90.00000000
_symmetry_Int_Tables_number   1
_chemical_formula_structural   Tb3Ho7Tl4In4(IrPd)2
_chemical_formula_sum   'Tb3 Ho7 Tl4 In4 Ir2 Pd2'
_cell_volume   543.67914944
_cell_formula_units_Z   1
loop_
 _symmetry_equiv_pos_site_id
 _symmetry_equiv_pos_as_xyz
  1  'x, y, z'
loop_
 _atom_site_type_symbol
 _atom_site_label
 _atom_site_symmetry_multiplicity
 _atom_site_fract_x
 _atom_site_fract_y
 _atom_site_fract_z
 _atom_site_occupancy
  Tb  Tb0  1  0.000000  0.000000  0.000000  1
  Tb  Tb1  1  0.000000  0.729684  0.279392  1
  Tb  Tb2  1  0.000000  0.270316  0.720608  1
  Ho  Ho3  1  0.000000  0.500000  0.500000  1
  Ho  Ho4  1  0.000000  0.745198  0.781448  1
  Ho  Ho5  1  0.000000  0.254802  0.218552  1
  Ho  Ho6  1  0.000000  0.613669  0.088705  1
  Ho  Ho7  1  0.000000  0.386331  0.911295  1
  Ho  Ho8  1  0.000000  0.884795  0.587002  1
  Ho  Ho9  1  0.000000  0.115205  0.412998  1
  Tl  Tl10  1  0.500000  0.708928  0.934773  1
  Tl  Tl11  1  0.500000  0.291072  0.065227  1
  Tl  Tl12  1  0.500000  0.792048  0.434154  1
  Tl  Tl13  1  0.500000  0.207952  0.565846  1
  In  In14  1  0.500000  0.581809  0.648720  1
  In  In15  1  0.500000  0.418191  0.351280  1
  In  In16  1  0.500000  0.920137  0.150752  1
  In  In17  1  0.500000  0.079863  0.849248  1
  Ir  Ir18  1  0.500000  0.523978  0.197520  1
  Ir  Ir19  1  0.500000  0.476022  0.802480  1
  Pd  Pd20  1  0.500000  0.973516  0.698063  1
  Pd  Pd21  1  0.500000  0.026484  0.301937  1
