# generated using pymatgen
data_La2Pt7O18
_symmetry_space_group_name_H-M   'P 1'
_cell_length_a   6.73056497
_cell_length_b   7.08845881
_cell_length_c   7.49524600
_cell_angle_alpha   92.95128075
_cell_angle_beta   96.85056155
_cell_angle_gamma   114.22079693
_symmetry_Int_Tables_number   1
_chemical_formula_structural   La2Pt7O18
_chemical_formula_sum   'La2 Pt7 O18'
_cell_volume   321.78894580
_cell_formula_units_Z   1
loop_
 _symmetry_equiv_pos_site_id
 _symmetry_equiv_pos_as_xyz
  1  'x, y, z'
loop_
 _atom_site_type_symbol
 _atom_site_label
 _atom_site_symmetry_multiplicity
 _atom_site_fract_x
 _atom_site_fract_y
 _atom_site_fract_z
 _atom_site_occupancy
  La  La0  1  0.679404  0.297699  0.391342  1
  La  La1  1  0.320607  0.702314  0.608653  1
  Pt  Pt2  1  0.605790  0.716164  0.117924  1
  Pt  Pt3  1  0.197495  0.879892  0.181909  1
  Pt  Pt4  1  0.178155  0.383335  0.201991  1
  Pt  Pt5  1  0.000002  0.000001  0.500001  1
  Pt  Pt6  1  0.821841  0.616661  0.798003  1
  Pt  Pt7  1  0.802509  0.120110  0.818097  1
  Pt  Pt8  1  0.394204  0.283834  0.882077  1
  O  O9  1  0.693347  0.488514  0.021330  1
  O  O10  1  0.874561  0.226755  0.078319  1
  O  O11  1  0.314814  0.182729  0.127342  1
  O  O12  1  0.514667  0.937688  0.194072  1
  O  O13  1  0.913508  0.905577  0.231708  1
  O  O14  1  0.096334  0.608238  0.288959  1
  O  O15  1  0.492293  0.561904  0.331987  1
  O  O16  1  0.062510  0.292275  0.434574  1
  O  O17  1  0.291964  0.006805  0.443132  1
  O  O18  1  0.708045  0.993199  0.556876  1
  O  O19  1  0.937489  0.707720  0.565418  1
  O  O20  1  0.507701  0.438091  0.668011  1
  O  O21  1  0.903665  0.391757  0.711041  1
  O  O22  1  0.086489  0.094422  0.768298  1
  O  O23  1  0.485343  0.062318  0.805934  1
  O  O24  1  0.685186  0.817273  0.872658  1
  O  O25  1  0.125430  0.773242  0.921686  1
  O  O26  1  0.306645  0.511480  0.978662  1
