# generated using pymatgen
data_Hf3UFe7Ge6
_symmetry_space_group_name_H-M   'P 1'
_cell_length_a   6.81177486
_cell_length_b   6.81177479
_cell_length_c   6.81177384
_cell_angle_alpha   109.20908624
_cell_angle_beta   109.20908122
_cell_angle_gamma   109.20909218
_symmetry_Int_Tables_number   1
_chemical_formula_structural   Hf3UFe7Ge6
_chemical_formula_sum   'Hf3 U1 Fe7 Ge6'
_cell_volume   245.64240576
_cell_formula_units_Z   1
loop_
 _symmetry_equiv_pos_site_id
 _symmetry_equiv_pos_as_xyz
  1  'x, y, z'
loop_
 _atom_site_type_symbol
 _atom_site_label
 _atom_site_symmetry_multiplicity
 _atom_site_fract_x
 _atom_site_fract_y
 _atom_site_fract_z
 _atom_site_occupancy
  Hf  Hf0  1  0.000000  0.000000  0.500000  1
  Hf  Hf1  1  0.500000  0.000000  0.000000  1
  Hf  Hf2  1  0.000000  0.500000  0.000000  1
  U  U3  1  0.500000  0.500000  0.500000  1
  Fe  Fe4  1  0.743078  0.256922  0.500000  1
  Fe  Fe5  1  0.500000  0.256922  0.743078  1
  Fe  Fe6  1  0.500000  0.743078  0.256922  1
  Fe  Fe7  1  0.256922  0.500000  0.743078  1
  Fe  Fe8  1  0.743078  0.500000  0.256922  1
  Fe  Fe9  1  0.256922  0.743078  0.500000  1
  Fe  Fe10  1  0.000000  0.000000  0.000000  1
  Ge  Ge11  1  0.309063  0.309063  0.989424  1
  Ge  Ge12  1  0.989424  0.309063  0.309063  1
  Ge  Ge13  1  0.010576  0.690937  0.690937  1
  Ge  Ge14  1  0.690937  0.010576  0.690937  1
  Ge  Ge15  1  0.309063  0.989424  0.309063  1
  Ge  Ge16  1  0.690937  0.690937  0.010576  1
