# generated using pymatgen
data_Dy4Mn7Fe6Ni7P12
_symmetry_space_group_name_H-M   'P 1'
_cell_length_a   3.66059800
_cell_length_b   10.37417669
_cell_length_c   12.11813910
_cell_angle_alpha   90.09547107
_cell_angle_beta   90.00000000
_cell_angle_gamma   90.00000000
_symmetry_Int_Tables_number   1
_chemical_formula_structural   Dy4Mn7Fe6Ni7P12
_chemical_formula_sum   'Dy4 Mn7 Fe6 Ni7 P12'
_cell_volume   460.19406044
_cell_formula_units_Z   1
loop_
 _symmetry_equiv_pos_site_id
 _symmetry_equiv_pos_as_xyz
  1  'x, y, z'
loop_
 _atom_site_type_symbol
 _atom_site_label
 _atom_site_symmetry_multiplicity
 _atom_site_fract_x
 _atom_site_fract_y
 _atom_site_fract_z
 _atom_site_occupancy
  Dy  Dy0  1  0.250000  0.576748  0.710793  1
  Dy  Dy1  1  0.250000  0.924100  0.209020  1
  Dy  Dy2  1  0.750000  0.417169  0.289928  1
  Dy  Dy3  1  0.750000  0.081958  0.792220  1
  Mn  Mn4  1  0.250000  0.706277  0.992889  1
  Mn  Mn5  1  0.250000  0.788505  0.495894  1
  Mn  Mn6  1  0.750000  0.295425  0.009435  1
  Mn  Mn7  1  0.750000  0.209917  0.504028  1
  Mn  Mn8  1  0.250000  0.404335  0.489771  1
  Mn  Mn9  1  0.750000  0.590758  0.507605  1
  Mn  Mn10  1  0.750000  0.908642  0.009073  1
  Fe  Fe11  1  0.750000  0.123276  0.300419  1
  Fe  Fe12  1  0.750000  0.377045  0.802712  1
  Fe  Fe13  1  0.250000  0.462882  0.935294  1
  Fe  Fe14  1  0.250000  0.035628  0.434750  1
  Fe  Fe15  1  0.750000  0.539464  0.069355  1
  Fe  Fe16  1  0.750000  0.960306  0.569207  1
  Ni  Ni17  1  0.250000  0.098240  0.985787  1
  Ni  Ni18  1  0.250000  0.223659  0.172447  1
  Ni  Ni19  1  0.250000  0.273959  0.674517  1
  Ni  Ni20  1  0.750000  0.772460  0.823020  1
  Ni  Ni21  1  0.750000  0.727657  0.321467  1
  Ni  Ni22  1  0.250000  0.878548  0.703501  1
  Ni  Ni23  1  0.250000  0.623101  0.200907  1
  P  P24  1  0.250000  0.427031  0.111162  1
  P  P25  1  0.250000  0.073128  0.610988  1
  P  P26  1  0.750000  0.570567  0.889554  1
  P  P27  1  0.750000  0.929648  0.388689  1
  P  P28  1  0.250000  0.272419  0.863094  1
  P  P29  1  0.250000  0.227836  0.364028  1
  P  P30  1  0.750000  0.737311  0.129847  1
  P  P31  1  0.750000  0.763956  0.630957  1
  P  P32  1  0.250000  0.599006  0.388140  1
  P  P33  1  0.250000  0.901941  0.892524  1
  P  P34  1  0.750000  0.398895  0.614855  1
  P  P35  1  0.750000  0.098201  0.112127  1
