# generated using pymatgen
data_Ba4Na2PdAu3
_symmetry_space_group_name_H-M   'P 1'
_cell_length_a   8.71500800
_cell_length_b   8.71500752
_cell_length_c   4.47265300
_cell_angle_alpha   90.00000000
_cell_angle_beta   90.00000000
_cell_angle_gamma   90.63220530
_symmetry_Int_Tables_number   1
_chemical_formula_structural   Ba4Na2PdAu3
_chemical_formula_sum   'Ba4 Na2 Pd1 Au3'
_cell_volume   339.68340006
_cell_formula_units_Z   1
loop_
 _symmetry_equiv_pos_site_id
 _symmetry_equiv_pos_as_xyz
  1  'x, y, z'
loop_
 _atom_site_type_symbol
 _atom_site_label
 _atom_site_symmetry_multiplicity
 _atom_site_fract_x
 _atom_site_fract_y
 _atom_site_fract_z
 _atom_site_occupancy
  Ba  Ba0  1  0.667876  0.167876  0.500000  1
  Ba  Ba1  1  0.321385  0.821385  0.500000  1
  Ba  Ba2  1  0.171493  0.340361  0.500000  1
  Ba  Ba3  1  0.840361  0.671493  0.500000  1
  Na  Na4  1  0.001736  0.000977  0.000000  1
  Na  Na5  1  0.500977  0.501736  0.000000  1
  Pd  Pd6  1  0.121521  0.621521  0.000000  1
  Au  Au7  1  0.878039  0.378039  0.000000  1
  Au  Au8  1  0.622931  0.873682  0.000000  1
  Au  Au9  1  0.373682  0.122931  0.000000  1
