# generated using pymatgen
data_Ho16In4IrPdRu2
_symmetry_space_group_name_H-M   'P 1'
_cell_length_a   9.63064842
_cell_length_b   9.59938166
_cell_length_c   9.64498646
_cell_angle_alpha   60.17164166
_cell_angle_beta   60.12950752
_cell_angle_gamma   60.11799989
_symmetry_Int_Tables_number   1
_chemical_formula_structural   Ho16In4IrPdRu2
_chemical_formula_sum   'Ho16 In4 Ir1 Pd1 Ru2'
_cell_volume   632.49564192
_cell_formula_units_Z   1
loop_
 _symmetry_equiv_pos_site_id
 _symmetry_equiv_pos_as_xyz
  1  'x, y, z'
loop_
 _atom_site_type_symbol
 _atom_site_label
 _atom_site_symmetry_multiplicity
 _atom_site_fract_x
 _atom_site_fract_y
 _atom_site_fract_z
 _atom_site_occupancy
  Ho  Ho0  1  0.442469  0.434481  0.061513  1
  Ho  Ho1  1  0.654540  0.648653  0.048095  1
  Ho  Ho2  1  0.186426  0.808719  0.196127  1
  Ho  Ho3  1  0.059627  0.441211  0.057911  1
  Ho  Ho4  1  0.183907  0.809054  0.811035  1
  Ho  Ho5  1  0.061863  0.437866  0.440032  1
  Ho  Ho6  1  0.811283  0.191397  0.189173  1
  Ho  Ho7  1  0.655242  0.648057  0.648739  1
  Ho  Ho8  1  0.811103  0.189325  0.810286  1
  Ho  Ho9  1  0.183887  0.196019  0.811043  1
  Ho  Ho10  1  0.043032  0.652680  0.651568  1
  Ho  Ho11  1  0.442503  0.061511  0.061475  1
  Ho  Ho12  1  0.061843  0.060212  0.440055  1
  Ho  Ho13  1  0.655220  0.047969  0.648715  1
  Ho  Ho14  1  0.811282  0.808134  0.189187  1
  Ho  Ho15  1  0.441302  0.061951  0.434803  1
  In  In16  1  0.417281  0.417246  0.417819  1
  In  In17  1  0.416475  0.417869  0.747880  1
  In  In18  1  0.417282  0.747832  0.417640  1
  In  In19  1  0.748700  0.416922  0.417339  1
  Ir  Ir20  1  0.856361  0.859972  0.423714  1
  Pd  Pd21  1  0.424938  0.858279  0.858534  1
  Ru  Ru22  1  0.856712  0.860052  0.858636  1
  Ru  Ru23  1  0.856726  0.424593  0.858684  1
