# generated using pymatgen
data_InBi3IrRh3O14
_symmetry_space_group_name_H-M   'P 1'
_cell_length_a   7.33320147
_cell_length_b   7.24478149
_cell_length_c   7.33320189
_cell_angle_alpha   59.80645899
_cell_angle_beta   60.10903132
_cell_angle_gamma   59.80645668
_symmetry_Int_Tables_number   1
_chemical_formula_structural   InBi3IrRh3O14
_chemical_formula_sum   'In1 Bi3 Ir1 Rh3 O14'
_cell_volume   274.90037100
_cell_formula_units_Z   1
loop_
 _symmetry_equiv_pos_site_id
 _symmetry_equiv_pos_as_xyz
  1  'x, y, z'
loop_
 _atom_site_type_symbol
 _atom_site_label
 _atom_site_symmetry_multiplicity
 _atom_site_fract_x
 _atom_site_fract_y
 _atom_site_fract_z
 _atom_site_occupancy
  In  In0  1  0.125000  0.625000  0.125000  1
  Bi  Bi1  1  0.125000  0.125000  0.125000  1
  Bi  Bi2  1  0.625000  0.125000  0.125000  1
  Bi  Bi3  1  0.125000  0.125000  0.625000  1
  Ir  Ir4  1  0.625000  0.625000  0.625000  1
  Rh  Rh5  1  0.625000  0.625000  0.125000  1
  Rh  Rh6  1  0.125000  0.625000  0.625000  1
  Rh  Rh7  1  0.625000  0.125000  0.625000  1
  O  O8  1  0.244789  0.267734  0.244789  1
  O  O9  1  0.289609  0.702189  0.289609  1
  O  O10  1  0.958965  0.960279  0.542230  1
  O  O11  1  0.543300  0.954328  0.543300  1
  O  O12  1  0.714510  0.701619  0.294591  1
  O  O13  1  0.955409  0.548381  0.535490  1
  O  O14  1  0.706700  0.295672  0.706700  1
  O  O15  1  0.291035  0.289721  0.707770  1
  O  O16  1  0.707770  0.289721  0.291035  1
  O  O17  1  0.294591  0.701619  0.714510  1
  O  O18  1  0.960391  0.547811  0.960391  1
  O  O19  1  0.535490  0.548381  0.955409  1
  O  O20  1  0.005211  0.982266  0.005211  1
  O  O21  1  0.542230  0.960279  0.958965  1
