# generated using pymatgen
data_HoPa(BrN)2
_symmetry_space_group_name_H-M   'P 1'
_cell_length_a   10.84346036
_cell_length_b   10.84346065
_cell_length_c   10.84346088
_cell_angle_alpha   20.76952260
_cell_angle_beta   20.76951979
_cell_angle_gamma   20.76951819
_symmetry_Int_Tables_number   1
_chemical_formula_structural   HoPa(BrN)2
_chemical_formula_sum   'Ho1 Pa1 Br2 N2'
_cell_volume   140.36655644
_cell_formula_units_Z   1
loop_
 _symmetry_equiv_pos_site_id
 _symmetry_equiv_pos_as_xyz
  1  'x, y, z'
loop_
 _atom_site_type_symbol
 _atom_site_label
 _atom_site_symmetry_multiplicity
 _atom_site_fract_x
 _atom_site_fract_y
 _atom_site_fract_z
 _atom_site_occupancy
  Ho  Ho0  1  0.786944  0.786944  0.786944  1
  Pa  Pa1  1  0.207511  0.207511  0.207511  1
  Br  Br2  1  0.606020  0.606020  0.606020  1
  Br  Br3  1  0.393632  0.393632  0.393632  1
  N  N4  1  0.863372  0.863372  0.863372  1
  N  N5  1  0.142521  0.142521  0.142521  1
