# generated using pymatgen
data_La3Mg3OsAu2
_symmetry_space_group_name_H-M   'P 1'
_cell_length_a   7.70438900
_cell_length_b   7.70439010
_cell_length_c   4.27780600
_cell_angle_alpha   90.00000000
_cell_angle_beta   90.00000000
_cell_angle_gamma   120.00000815
_symmetry_Int_Tables_number   1
_chemical_formula_structural   La3Mg3OsAu2
_chemical_formula_sum   'La3 Mg3 Os1 Au2'
_cell_volume   219.90147801
_cell_formula_units_Z   1
loop_
 _symmetry_equiv_pos_site_id
 _symmetry_equiv_pos_as_xyz
  1  'x, y, z'
loop_
 _atom_site_type_symbol
 _atom_site_label
 _atom_site_symmetry_multiplicity
 _atom_site_fract_x
 _atom_site_fract_y
 _atom_site_fract_z
 _atom_site_occupancy
  La  La0  1  0.569978  0.974919  0.000000  1
  La  La1  1  0.025081  0.595058  0.000000  1
  La  La2  1  0.404942  0.430022  0.000000  1
  Mg  Mg3  1  0.241604  0.996854  0.500000  1
  Mg  Mg4  1  0.003146  0.244750  0.500000  1
  Mg  Mg5  1  0.755250  0.758396  0.500000  1
  Os  Os6  1  0.333333  0.666667  0.500000  1
  Au  Au7  1  0.666667  0.333333  0.500000  1
  Au  Au8  1  0.000000  0.000000  0.000000  1
