# generated using pymatgen
data_CeTm5RuO12
_symmetry_space_group_name_H-M   'P 1'
_cell_length_a   6.41349501
_cell_length_b   6.39428783
_cell_length_c   6.41346387
_cell_angle_alpha   98.72617950
_cell_angle_beta   98.87178734
_cell_angle_gamma   98.69403439
_symmetry_Int_Tables_number   1
_chemical_formula_structural   CeTm5RuO12
_chemical_formula_sum   'Ce1 Tm5 Ru1 O12'
_cell_volume   252.72336564
_cell_formula_units_Z   1
loop_
 _symmetry_equiv_pos_site_id
 _symmetry_equiv_pos_as_xyz
  1  'x, y, z'
loop_
 _atom_site_type_symbol
 _atom_site_label
 _atom_site_symmetry_multiplicity
 _atom_site_fract_x
 _atom_site_fract_y
 _atom_site_fract_z
 _atom_site_occupancy
  Ce  Ce0  1  0.693080  0.860760  0.393815  1
  Tm  Tm1  1  0.385906  0.688256  0.856584  1
  Tm  Tm2  1  0.862042  0.391253  0.699970  1
  Tm  Tm3  1  0.305522  0.144309  0.614930  1
  Tm  Tm4  1  0.608904  0.306031  0.134423  1
  Tm  Tm5  1  0.141710  0.605657  0.308435  1
  Ru  Ru6  1  0.003334  0.000049  0.003222  1
  O  O7  1  0.431873  0.587313  0.176465  1
  O  O8  1  0.175051  0.434587  0.587614  1
  O  O9  1  0.590381  0.176031  0.432346  1
  O  O10  1  0.564975  0.409712  0.820169  1
  O  O11  1  0.819119  0.566667  0.410494  1
  O  O12  1  0.408281  0.823229  0.566412  1
  O  O13  1  0.936956  0.049454  0.697119  1
  O  O14  1  0.956676  0.304323  0.072156  1
  O  O15  1  0.305205  0.071686  0.960146  1
  O  O16  1  0.073598  0.955575  0.303384  1
  O  O17  1  0.041480  0.696353  0.926914  1
  O  O18  1  0.695909  0.928756  0.035401  1
