# generated using pymatgen
data_YEr3(GaRh)4
_symmetry_space_group_name_H-M   'P 1'
_cell_length_a   4.31488300
_cell_length_b   6.78650717
_cell_length_c   7.76709165
_cell_angle_alpha   89.77212740
_cell_angle_beta   90.00000000
_cell_angle_gamma   90.00000000
_symmetry_Int_Tables_number   1
_chemical_formula_structural   YEr3(GaRh)4
_chemical_formula_sum   'Y1 Er3 Ga4 Rh4'
_cell_volume   227.44182478
_cell_formula_units_Z   1
loop_
 _symmetry_equiv_pos_site_id
 _symmetry_equiv_pos_as_xyz
  1  'x, y, z'
loop_
 _atom_site_type_symbol
 _atom_site_label
 _atom_site_symmetry_multiplicity
 _atom_site_fract_x
 _atom_site_fract_y
 _atom_site_fract_z
 _atom_site_occupancy
  Y  Y0  1  0.250000  0.975611  0.308829  1
  Er  Er1  1  0.250000  0.475419  0.190202  1
  Er  Er2  1  0.750000  0.025098  0.691206  1
  Er  Er3  1  0.750000  0.524194  0.808745  1
  Ga  Ga4  1  0.250000  0.342368  0.570960  1
  Ga  Ga5  1  0.250000  0.841738  0.928692  1
  Ga  Ga6  1  0.750000  0.658369  0.429742  1
  Ga  Ga7  1  0.750000  0.158643  0.070731  1
  Rh  Rh8  1  0.250000  0.232821  0.894317  1
  Rh  Rh9  1  0.250000  0.731387  0.608441  1
  Rh  Rh10  1  0.750000  0.764268  0.104091  1
  Rh  Rh11  1  0.750000  0.270086  0.394046  1
