# generated using pymatgen
data_Er2Lu6Zn(Si4Rh)3
_symmetry_space_group_name_H-M   'P 1'
_cell_length_a   8.12929400
_cell_length_b   8.12929390
_cell_length_c   7.69385500
_cell_angle_alpha   90.00000000
_cell_angle_beta   90.00000000
_cell_angle_gamma   120.00000042
_symmetry_Int_Tables_number   1
_chemical_formula_structural   Er2Lu6Zn(Si4Rh)3
_chemical_formula_sum   'Er2 Lu6 Zn1 Si12 Rh3'
_cell_volume   440.33203487
_cell_formula_units_Z   1
loop_
 _symmetry_equiv_pos_site_id
 _symmetry_equiv_pos_as_xyz
  1  'x, y, z'
loop_
 _atom_site_type_symbol
 _atom_site_label
 _atom_site_symmetry_multiplicity
 _atom_site_fract_x
 _atom_site_fract_y
 _atom_site_fract_z
 _atom_site_occupancy
  Er  Er0  1  0.000000  0.000000  0.747940  1
  Er  Er1  1  0.000000  0.000000  0.245945  1
  Lu  Lu2  1  0.970327  0.485163  0.253567  1
  Lu  Lu3  1  0.514837  0.485163  0.253567  1
  Lu  Lu4  1  0.491287  0.982575  0.746442  1
  Lu  Lu5  1  0.017425  0.508713  0.746442  1
  Lu  Lu6  1  0.491287  0.508713  0.746442  1
  Lu  Lu7  1  0.514837  0.029673  0.253567  1
  Zn  Zn8  1  0.333333  0.666667  0.069216  1
  Si  Si9  1  0.167061  0.832939  0.494362  1
  Si  Si10  1  0.167061  0.334122  0.494362  1
  Si  Si11  1  0.665878  0.832939  0.494362  1
  Si  Si12  1  0.336419  0.168210  0.999094  1
  Si  Si13  1  0.833399  0.666799  0.503397  1
  Si  Si14  1  0.831790  0.168210  0.999094  1
  Si  Si15  1  0.831790  0.663581  0.999094  1
  Si  Si16  1  0.165020  0.330039  0.995726  1
  Si  Si17  1  0.669961  0.834980  0.995726  1
  Si  Si18  1  0.333201  0.166601  0.503397  1
  Si  Si19  1  0.833399  0.166601  0.503397  1
  Si  Si20  1  0.165020  0.834980  0.995726  1
  Rh  Rh21  1  0.666667  0.333333  0.958037  1
  Rh  Rh22  1  0.666667  0.333333  0.536477  1
  Rh  Rh23  1  0.333333  0.666667  0.464618  1
