# generated using pymatgen
data_UNi4Au
_symmetry_space_group_name_H-M   'P 1'
_cell_length_a   4.93356644
_cell_length_b   4.93356624
_cell_length_c   4.93356600
_cell_angle_alpha   60.00000159
_cell_angle_beta   60.00000298
_cell_angle_gamma   60.00000059
_symmetry_Int_Tables_number   1
_chemical_formula_structural   UNi4Au
_chemical_formula_sum   'U1 Ni4 Au1'
_cell_volume   84.91177244
_cell_formula_units_Z   1
loop_
 _symmetry_equiv_pos_site_id
 _symmetry_equiv_pos_as_xyz
  1  'x, y, z'
loop_
 _atom_site_type_symbol
 _atom_site_label
 _atom_site_symmetry_multiplicity
 _atom_site_fract_x
 _atom_site_fract_y
 _atom_site_fract_z
 _atom_site_occupancy
  U  U0  1  0.000000  0.000000  0.000000  1
  Ni  Ni1  1  0.624652  0.624652  0.126044  1
  Ni  Ni2  1  0.624652  0.126044  0.624652  1
  Ni  Ni3  1  0.126044  0.624652  0.624652  1
  Ni  Ni4  1  0.624652  0.624652  0.624652  1
  Au  Au5  1  0.250000  0.250000  0.250000  1
