# generated using pymatgen
data_Pu4Te3N2
_symmetry_space_group_name_H-M   'P 1'
_cell_length_a   7.12066900
_cell_length_b   11.07645700
_cell_length_c   11.18455600
_cell_angle_alpha   90.00000000
_cell_angle_beta   90.00000000
_cell_angle_gamma   90.00000000
_symmetry_Int_Tables_number   1
_chemical_formula_structural   Pu4Te3N2
_chemical_formula_sum   'Pu16 Te12 N8'
_cell_volume   882.14588485
_cell_formula_units_Z   4
loop_
 _symmetry_equiv_pos_site_id
 _symmetry_equiv_pos_as_xyz
  1  'x, y, z'
loop_
 _atom_site_type_symbol
 _atom_site_label
 _atom_site_symmetry_multiplicity
 _atom_site_fract_x
 _atom_site_fract_y
 _atom_site_fract_z
 _atom_site_occupancy
  Pu  Pu0  1  0.153026  0.390297  0.552780  1
  Pu  Pu1  1  0.346974  0.890297  0.052780  1
  Pu  Pu2  1  0.218848  0.025409  0.750000  1
  Pu  Pu3  1  0.153026  0.390297  0.947220  1
  Pu  Pu4  1  0.281152  0.525409  0.250000  1
  Pu  Pu5  1  0.846974  0.609703  0.447220  1
  Pu  Pu6  1  0.911957  0.339232  0.250000  1
  Pu  Pu7  1  0.088043  0.660768  0.750000  1
  Pu  Pu8  1  0.588043  0.839232  0.750000  1
  Pu  Pu9  1  0.411957  0.160768  0.250000  1
  Pu  Pu10  1  0.718848  0.474591  0.750000  1
  Pu  Pu11  1  0.846974  0.609703  0.052780  1
  Pu  Pu12  1  0.781152  0.974591  0.250000  1
  Pu  Pu13  1  0.653026  0.109703  0.947220  1
  Pu  Pu14  1  0.346974  0.890297  0.447220  1
  Pu  Pu15  1  0.653026  0.109703  0.552780  1
  Te  Te16  1  0.919807  0.231873  0.750000  1
  Te  Te17  1  0.580193  0.731873  0.250000  1
  Te  Te18  1  0.432088  0.635331  0.924353  1
  Te  Te19  1  0.432088  0.635331  0.575647  1
  Te  Te20  1  0.567912  0.364669  0.424353  1
  Te  Te21  1  0.932088  0.864669  0.575647  1
  Te  Te22  1  0.067912  0.135331  0.424353  1
  Te  Te23  1  0.067912  0.135331  0.075647  1
  Te  Te24  1  0.932088  0.864669  0.924353  1
  Te  Te25  1  0.567912  0.364669  0.075647  1
  Te  Te26  1  0.419807  0.268127  0.750000  1
  Te  Te27  1  0.080193  0.768127  0.250000  1
  N  N28  1  0.554322  0.032718  0.379780  1
  N  N29  1  0.445678  0.967282  0.879780  1
  N  N30  1  0.945678  0.532718  0.879780  1
  N  N31  1  0.054322  0.467282  0.379780  1
  N  N32  1  0.445678  0.967282  0.620220  1
  N  N33  1  0.945678  0.532718  0.620220  1
  N  N34  1  0.054322  0.467282  0.120220  1
  N  N35  1  0.554322  0.032718  0.120220  1
