# generated using pymatgen
data_AlPPd3Pt2
_symmetry_space_group_name_H-M   'P 1'
_cell_length_a   3.90695400
_cell_length_b   3.95641800
_cell_length_c   6.88509100
_cell_angle_alpha   90.00000000
_cell_angle_beta   90.00000000
_cell_angle_gamma   90.00000000
_symmetry_Int_Tables_number   1
_chemical_formula_structural   AlPPd3Pt2
_chemical_formula_sum   'Al1 P1 Pd3 Pt2'
_cell_volume   106.42659109
_cell_formula_units_Z   1
loop_
 _symmetry_equiv_pos_site_id
 _symmetry_equiv_pos_as_xyz
  1  'x, y, z'
loop_
 _atom_site_type_symbol
 _atom_site_label
 _atom_site_symmetry_multiplicity
 _atom_site_fract_x
 _atom_site_fract_y
 _atom_site_fract_z
 _atom_site_occupancy
  Al  Al0  1  0.500000  0.500000  0.997919  1
  P  P1  1  0.000000  0.000000  0.501169  1
  Pd  Pd2  1  0.000000  0.500000  0.291186  1
  Pd  Pd3  1  0.000000  0.500000  0.708878  1
  Pd  Pd4  1  0.500000  0.000000  0.289721  1
  Pt  Pt5  1  0.500000  0.000000  0.710224  1
  Pt  Pt6  1  0.000000  0.000000  0.000903  1
