# generated using pymatgen
data_ThMg3Ge6Ir7
_symmetry_space_group_name_H-M   'P 1'
_cell_length_a   7.20500349
_cell_length_b   7.20500320
_cell_length_c   7.20500469
_cell_angle_alpha   109.90500579
_cell_angle_beta   109.90500077
_cell_angle_gamma   109.90501623
_symmetry_Int_Tables_number   1
_chemical_formula_structural   ThMg3Ge6Ir7
_chemical_formula_sum   'Th1 Mg3 Ge6 Ir7'
_cell_volume   283.20733563
_cell_formula_units_Z   1
loop_
 _symmetry_equiv_pos_site_id
 _symmetry_equiv_pos_as_xyz
  1  'x, y, z'
loop_
 _atom_site_type_symbol
 _atom_site_label
 _atom_site_symmetry_multiplicity
 _atom_site_fract_x
 _atom_site_fract_y
 _atom_site_fract_z
 _atom_site_occupancy
  Th  Th0  1  0.500000  0.500000  0.500000  1
  Mg  Mg1  1  0.000000  0.000000  0.500000  1
  Mg  Mg2  1  0.000000  0.500000  0.000000  1
  Mg  Mg3  1  0.500000  0.000000  0.000000  1
  Ge  Ge4  1  0.695610  0.695610  0.016056  1
  Ge  Ge5  1  0.304390  0.983944  0.304390  1
  Ge  Ge6  1  0.983944  0.304390  0.304390  1
  Ge  Ge7  1  0.304390  0.304390  0.983944  1
  Ge  Ge8  1  0.695610  0.016056  0.695610  1
  Ge  Ge9  1  0.016056  0.695610  0.695610  1
  Ir  Ir10  1  0.753621  0.246379  0.500000  1
  Ir  Ir11  1  0.753621  0.500000  0.246379  1
  Ir  Ir12  1  0.500000  0.246379  0.753621  1
  Ir  Ir13  1  0.246379  0.500000  0.753621  1
  Ir  Ir14  1  0.246379  0.753621  0.500000  1
  Ir  Ir15  1  0.500000  0.753621  0.246379  1
  Ir  Ir16  1  0.000000  0.000000  0.000000  1
