# generated using pymatgen
data_BaLi2CaV2O8
_symmetry_space_group_name_H-M   'P 1'
_cell_length_a   5.39652441
_cell_length_b   9.44312603
_cell_length_c   9.44164807
_cell_angle_alpha   59.33894558
_cell_angle_beta   73.40149368
_cell_angle_gamma   73.38661876
_symmetry_Int_Tables_number   1
_chemical_formula_structural   BaLi2CaV2O8
_chemical_formula_sum   'Ba2 Li4 Ca2 V4 O16'
_cell_volume   390.85438574
_cell_formula_units_Z   2
loop_
 _symmetry_equiv_pos_site_id
 _symmetry_equiv_pos_as_xyz
  1  'x, y, z'
loop_
 _atom_site_type_symbol
 _atom_site_label
 _atom_site_symmetry_multiplicity
 _atom_site_fract_x
 _atom_site_fract_y
 _atom_site_fract_z
 _atom_site_occupancy
  Ba  Ba0  1  0.750021  0.250029  0.249969  1
  Ba  Ba1  1  0.249987  0.750014  0.749985  1
  Li  Li2  1  0.626663  0.706429  0.039999  1
  Li  Li3  1  0.126650  0.206448  0.540000  1
  Li  Li4  1  0.373337  0.293574  0.959998  1
  Li  Li5  1  0.873338  0.793562  0.459997  1
  Ca  Ca6  1  0.500041  0.499962  0.500044  1
  Ca  Ca7  1  0.999983  0.000015  0.999947  1
  V  V8  1  0.132670  0.533789  0.200728  1
  V  V9  1  0.632662  0.033776  0.700681  1
  V  V10  1  0.867340  0.466228  0.799310  1
  V  V11  1  0.367336  0.966201  0.299275  1
  O  O12  1  0.244225  0.422515  0.089367  1
  O  O13  1  0.744234  0.922465  0.589257  1
  O  O14  1  0.755778  0.577499  0.910762  1
  O  O15  1  0.255832  0.077374  0.410612  1
  O  O16  1  0.759242  0.273582  0.925658  1
  O  O17  1  0.259388  0.773789  0.425519  1
  O  O18  1  0.210455  0.442409  0.757149  1
  O  O19  1  0.709994  0.942469  0.257173  1
  O  O20  1  0.731750  0.583604  0.615769  1
  O  O21  1  0.231864  0.083465  0.115971  1
  O  O22  1  0.240709  0.726362  0.074359  1
  O  O23  1  0.740797  0.226459  0.574296  1
  O  O24  1  0.789724  0.557548  0.242865  1
  O  O25  1  0.289477  0.057601  0.742852  1
  O  O26  1  0.268243  0.416451  0.384188  1
  O  O27  1  0.768259  0.916382  0.884269  1
