# generated using pymatgen
data_Np6Sb(P3Rh5)4
_symmetry_space_group_name_H-M   'P 1'
_cell_length_a   13.80571700
_cell_length_b   13.80571483
_cell_length_c   4.03009600
_cell_angle_alpha   90.00000000
_cell_angle_beta   90.00000000
_cell_angle_gamma   119.99999801
_symmetry_Int_Tables_number   1
_chemical_formula_structural   Np6Sb(P3Rh5)4
_chemical_formula_sum   'Np6 Sb1 P12 Rh20'
_cell_volume   665.21785409
_cell_formula_units_Z   1
loop_
 _symmetry_equiv_pos_site_id
 _symmetry_equiv_pos_as_xyz
  1  'x, y, z'
loop_
 _atom_site_type_symbol
 _atom_site_label
 _atom_site_symmetry_multiplicity
 _atom_site_fract_x
 _atom_site_fract_y
 _atom_site_fract_z
 _atom_site_occupancy
  Np  Np0  1  0.527277  0.717006  0.250529  1
  Np  Np1  1  0.282994  0.810271  0.250529  1
  Np  Np2  1  0.189729  0.472723  0.250529  1
  Np  Np3  1  0.472723  0.282994  0.749471  1
  Np  Np4  1  0.717006  0.189729  0.749471  1
  Np  Np5  1  0.810271  0.527277  0.749471  1
  Sb  Sb6  1  0.000000  0.000000  0.000000  1
  P  P7  1  0.526979  0.136989  0.247137  1
  P  P8  1  0.863011  0.389991  0.247137  1
  P  P9  1  0.610009  0.473021  0.247137  1
  P  P10  1  0.945758  0.713142  0.247221  1
  P  P11  1  0.286858  0.232616  0.247221  1
  P  P12  1  0.767384  0.054242  0.247221  1
  P  P13  1  0.389991  0.526979  0.752863  1
  P  P14  1  0.473021  0.863011  0.752863  1
  P  P15  1  0.136989  0.610009  0.752863  1
  P  P16  1  0.713142  0.767384  0.752779  1
  P  P17  1  0.232616  0.945758  0.752779  1
  P  P18  1  0.054242  0.286858  0.752779  1
  Rh  Rh19  1  0.333333  0.666667  0.752207  1
  Rh  Rh20  1  0.917883  0.253428  0.242600  1
  Rh  Rh21  1  0.746572  0.664455  0.242600  1
  Rh  Rh22  1  0.335545  0.082117  0.242600  1
  Rh  Rh23  1  0.439565  0.021618  0.747241  1
  Rh  Rh24  1  0.978382  0.417947  0.747241  1
  Rh  Rh25  1  0.582053  0.560435  0.747241  1
  Rh  Rh26  1  0.666667  0.333333  0.247793  1
  Rh  Rh27  1  0.102103  0.205431  0.269333  1
  Rh  Rh28  1  0.794569  0.896673  0.269333  1
  Rh  Rh29  1  0.103327  0.897897  0.269333  1
  Rh  Rh30  1  0.021618  0.582053  0.252759  1
  Rh  Rh31  1  0.417947  0.439565  0.252759  1
  Rh  Rh32  1  0.560435  0.978382  0.252759  1
  Rh  Rh33  1  0.664455  0.917883  0.757400  1
  Rh  Rh34  1  0.082117  0.746572  0.757400  1
  Rh  Rh35  1  0.253428  0.335545  0.757400  1
  Rh  Rh36  1  0.897897  0.794569  0.730667  1
  Rh  Rh37  1  0.205431  0.103327  0.730667  1
  Rh  Rh38  1  0.896673  0.102103  0.730667  1
