# generated using pymatgen
data_HoEr15CdIn3Rh4
_symmetry_space_group_name_H-M   'P 1'
_cell_length_a   9.57607206
_cell_length_b   9.57570051
_cell_length_c   9.58841700
_cell_angle_alpha   59.95606398
_cell_angle_beta   59.95734974
_cell_angle_gamma   59.99190343
_symmetry_Int_Tables_number   1
_chemical_formula_structural   HoEr15CdIn3Rh4
_chemical_formula_sum   'Ho1 Er15 Cd1 In3 Rh4'
_cell_volume   621.26777452
_cell_formula_units_Z   1
loop_
 _symmetry_equiv_pos_site_id
 _symmetry_equiv_pos_as_xyz
  1  'x, y, z'
loop_
 _atom_site_type_symbol
 _atom_site_label
 _atom_site_symmetry_multiplicity
 _atom_site_fract_x
 _atom_site_fract_y
 _atom_site_fract_z
 _atom_site_occupancy
  Ho  Ho0  1  0.189658  0.190067  0.810138  1
  Er  Er1  1  0.437089  0.060680  0.065049  1
  Er  Er2  1  0.437089  0.060680  0.437183  1
  Er  Er3  1  0.062783  0.436507  0.063135  1
  Er  Er4  1  0.649129  0.050254  0.650308  1
  Er  Er5  1  0.189132  0.811817  0.811039  1
  Er  Er6  1  0.063606  0.060270  0.438063  1
  Er  Er7  1  0.810492  0.190650  0.189228  1
  Er  Er8  1  0.811631  0.811108  0.188630  1
  Er  Er9  1  0.650263  0.649629  0.048027  1
  Er  Er10  1  0.650263  0.649629  0.652082  1
  Er  Er11  1  0.062783  0.436507  0.437575  1
  Er  Er12  1  0.050090  0.648776  0.650567  1
  Er  Er13  1  0.810492  0.190650  0.809631  1
  Er  Er14  1  0.437588  0.435499  0.063457  1
  Er  Er15  1  0.189132  0.811817  0.188012  1
  Cd  Cd16  1  0.417523  0.748067  0.417204  1
  In  In17  1  0.416705  0.419065  0.747945  1
  In  In18  1  0.747984  0.419359  0.416328  1
  In  In19  1  0.416705  0.419065  0.416284  1
  Rh  Rh20  1  0.857047  0.428023  0.857464  1
  Rh  Rh21  1  0.857447  0.857407  0.427912  1
  Rh  Rh22  1  0.427923  0.857068  0.857505  1
  Rh  Rh23  1  0.857447  0.857407  0.857235  1
