# generated using pymatgen
data_ErTm9In8(PtAu)2
_symmetry_space_group_name_H-M   'P 1'
_cell_length_a   3.61645200
_cell_length_b   8.11700085
_cell_length_c   18.17865205
_cell_angle_alpha   90.05164133
_cell_angle_beta   90.00000000
_cell_angle_gamma   90.00000000
_symmetry_Int_Tables_number   1
_chemical_formula_structural   ErTm9In8(PtAu)2
_chemical_formula_sum   'Er1 Tm9 In8 Pt2 Au2'
_cell_volume   533.62945950
_cell_formula_units_Z   1
loop_
 _symmetry_equiv_pos_site_id
 _symmetry_equiv_pos_as_xyz
  1  'x, y, z'
loop_
 _atom_site_type_symbol
 _atom_site_label
 _atom_site_symmetry_multiplicity
 _atom_site_fract_x
 _atom_site_fract_y
 _atom_site_fract_z
 _atom_site_occupancy
  Er  Er0  1  0.000000  0.000000  0.000000  1
  Tm  Tm1  1  0.000000  0.120008  0.418644  1
  Tm  Tm2  1  0.000000  0.879992  0.581356  1
  Tm  Tm3  1  0.000000  0.384577  0.915768  1
  Tm  Tm4  1  0.000000  0.615423  0.084232  1
  Tm  Tm5  1  0.000000  0.251830  0.217648  1
  Tm  Tm6  1  0.000000  0.748170  0.782352  1
  Tm  Tm7  1  0.000000  0.267852  0.721291  1
  Tm  Tm8  1  0.000000  0.732148  0.278709  1
  Tm  Tm9  1  0.000000  0.500000  0.500000  1
  In  In10  1  0.500000  0.423465  0.352750  1
  In  In11  1  0.500000  0.576535  0.647250  1
  In  In12  1  0.500000  0.077466  0.852995  1
  In  In13  1  0.500000  0.922534  0.147005  1
  In  In14  1  0.500000  0.291955  0.065625  1
  In  In15  1  0.500000  0.708045  0.934375  1
  In  In16  1  0.500000  0.209665  0.566118  1
  In  In17  1  0.500000  0.790335  0.433882  1
  Pt  Pt18  1  0.500000  0.473423  0.803529  1
  Pt  Pt19  1  0.500000  0.526577  0.196471  1
  Au  Au20  1  0.500000  0.027403  0.302506  1
  Au  Au21  1  0.500000  0.972597  0.697494  1
