# generated using pymatgen
data_TbDy3(Lu2Os)4
_symmetry_space_group_name_H-M   'P 1'
_cell_length_a   7.36810100
_cell_length_b   8.84115800
_cell_length_c   6.22796750
_cell_angle_alpha   90.00000000
_cell_angle_beta   89.99756914
_cell_angle_gamma   90.00000000
_symmetry_Int_Tables_number   1
_chemical_formula_structural   TbDy3(Lu2Os)4
_chemical_formula_sum   'Tb1 Dy3 Lu8 Os4'
_cell_volume   405.70565334
_cell_formula_units_Z   1
loop_
 _symmetry_equiv_pos_site_id
 _symmetry_equiv_pos_as_xyz
  1  'x, y, z'
loop_
 _atom_site_type_symbol
 _atom_site_label
 _atom_site_symmetry_multiplicity
 _atom_site_fract_x
 _atom_site_fract_y
 _atom_site_fract_z
 _atom_site_occupancy
  Tb  Tb0  1  0.960601  0.750000  0.372672  1
  Dy  Dy1  1  0.539309  0.250000  0.872387  1
  Dy  Dy2  1  0.039673  0.250000  0.627681  1
  Dy  Dy3  1  0.460722  0.750000  0.127601  1
  Lu  Lu4  1  0.674385  0.062840  0.335743  1
  Lu  Lu5  1  0.173850  0.437217  0.164512  1
  Lu  Lu6  1  0.325703  0.562926  0.664143  1
  Lu  Lu7  1  0.825953  0.937201  0.835458  1
  Lu  Lu8  1  0.325703  0.937074  0.664143  1
  Lu  Lu9  1  0.825953  0.562799  0.835458  1
  Lu  Lu10  1  0.674385  0.437160  0.335743  1
  Lu  Lu11  1  0.173850  0.062783  0.164512  1
  Os  Os12  1  0.882307  0.250000  0.043481  1
  Os  Os13  1  0.382553  0.250000  0.456319  1
  Os  Os14  1  0.117802  0.750000  0.956675  1
  Os  Os15  1  0.617252  0.750000  0.543472  1
