# generated using pymatgen
data_Dy10Y6MgHg3Pt4
_symmetry_space_group_name_H-M   'P 1'
_cell_length_a   9.68308753
_cell_length_b   9.68396503
_cell_length_c   9.68396500
_cell_angle_alpha   60.00000353
_cell_angle_beta   59.99700572
_cell_angle_gamma   59.99699744
_symmetry_Int_Tables_number   1
_chemical_formula_structural   Dy10Y6MgHg3Pt4
_chemical_formula_sum   'Dy10 Y6 Mg1 Hg3 Pt4'
_cell_volume   642.07477892
_cell_formula_units_Z   1
loop_
 _symmetry_equiv_pos_site_id
 _symmetry_equiv_pos_as_xyz
  1  'x, y, z'
loop_
 _atom_site_type_symbol
 _atom_site_label
 _atom_site_symmetry_multiplicity
 _atom_site_fract_x
 _atom_site_fract_y
 _atom_site_fract_z
 _atom_site_occupancy
  Dy  Dy0  1  0.603889  0.601378  0.601378  1
  Dy  Dy1  1  0.603889  0.601378  0.193356  1
  Dy  Dy2  1  0.603889  0.193356  0.601378  1
  Dy  Dy3  1  0.184169  0.605278  0.605278  1
  Dy  Dy4  1  0.059044  0.440443  0.440443  1
  Dy  Dy5  1  0.436406  0.062257  0.062257  1
  Dy  Dy6  1  0.436406  0.062257  0.439079  1
  Dy  Dy7  1  0.059044  0.440443  0.060070  1
  Dy  Dy8  1  0.436406  0.439079  0.062257  1
  Dy  Dy9  1  0.059044  0.060070  0.440443  1
  Y  Y10  1  0.183259  0.815461  0.815461  1
  Y  Y11  1  0.813395  0.185902  0.185902  1
  Y  Y12  1  0.813395  0.185902  0.814803  1
  Y  Y13  1  0.183259  0.815461  0.185819  1
  Y  Y14  1  0.813395  0.814803  0.185902  1
  Y  Y15  1  0.183259  0.185819  0.815461  1
  Mg  Mg16  1  0.531413  0.822862  0.822862  1
  Hg  Hg17  1  0.833499  0.838427  0.838427  1
  Hg  Hg18  1  0.833499  0.838427  0.489648  1
  Hg  Hg19  1  0.833499  0.489648  0.838427  1
  Pt  Pt20  1  0.391845  0.394512  0.394512  1
  Pt  Pt21  1  0.391845  0.394512  0.819133  1
  Pt  Pt22  1  0.391845  0.819133  0.394512  1
  Pt  Pt23  1  0.820409  0.393197  0.393197  1
