# generated using pymatgen
data_HoZnIO6
_symmetry_space_group_name_H-M   'P 1'
_cell_length_a   4.91162200
_cell_length_b   4.90827600
_cell_length_c   9.69513300
_cell_angle_alpha   90.00000000
_cell_angle_beta   90.00000000
_cell_angle_gamma   90.00000000
_symmetry_Int_Tables_number   1
_chemical_formula_structural   HoZnIO6
_chemical_formula_sum   'Ho2 Zn2 I2 O12'
_cell_volume   233.72635325
_cell_formula_units_Z   2
loop_
 _symmetry_equiv_pos_site_id
 _symmetry_equiv_pos_as_xyz
  1  'x, y, z'
loop_
 _atom_site_type_symbol
 _atom_site_label
 _atom_site_symmetry_multiplicity
 _atom_site_fract_x
 _atom_site_fract_y
 _atom_site_fract_z
 _atom_site_occupancy
  Ho  Ho0  1  0.000000  0.000000  0.344679  1
  Ho  Ho1  1  0.500000  0.500000  0.155321  1
  Zn  Zn2  1  0.000000  0.000000  0.671863  1
  Zn  Zn3  1  0.500000  0.500000  0.828137  1
  I  I4  1  0.500000  0.500000  0.513150  1
  I  I5  1  0.000000  0.000000  0.986850  1
  O  O6  1  0.687865  0.688099  0.653785  1
  O  O7  1  0.312135  0.311901  0.653785  1
  O  O8  1  0.812135  0.188099  0.846215  1
  O  O9  1  0.187865  0.811901  0.846215  1
  O  O10  1  0.320550  0.320363  0.358397  1
  O  O11  1  0.679450  0.679637  0.358397  1
  O  O12  1  0.179450  0.820363  0.141603  1
  O  O13  1  0.820550  0.179637  0.141603  1
  O  O14  1  0.723996  0.724099  0.994134  1
  O  O15  1  0.276004  0.275901  0.994134  1
  O  O16  1  0.776004  0.224099  0.505866  1
  O  O17  1  0.223996  0.775901  0.505866  1
