# generated using pymatgen
data_LaPr(InRh)2
_symmetry_space_group_name_H-M   'P 1'
_cell_length_a   4.23726600
_cell_length_b   7.77439896
_cell_length_c   17.04655603
_cell_angle_alpha   90.12403879
_cell_angle_beta   90.00000000
_cell_angle_gamma   90.00000000
_symmetry_Int_Tables_number   1
_chemical_formula_structural   LaPr(InRh)2
_chemical_formula_sum   'La4 Pr4 In8 Rh8'
_cell_volume   561.54968070
_cell_formula_units_Z   4
loop_
 _symmetry_equiv_pos_site_id
 _symmetry_equiv_pos_as_xyz
  1  'x, y, z'
loop_
 _atom_site_type_symbol
 _atom_site_label
 _atom_site_symmetry_multiplicity
 _atom_site_fract_x
 _atom_site_fract_y
 _atom_site_fract_z
 _atom_site_occupancy
  La  La0  1  0.750000  0.442326  0.217527  1
  La  La1  1  0.750000  0.941948  0.283318  1
  La  La2  1  0.750000  0.834649  0.060081  1
  La  La3  1  0.250000  0.057568  0.716817  1
  Pr  Pr4  1  0.250000  0.161769  0.938170  1
  Pr  Pr5  1  0.250000  0.557181  0.783006  1
  Pr  Pr6  1  0.750000  0.338710  0.440114  1
  Pr  Pr7  1  0.250000  0.665548  0.561351  1
  In  In8  1  0.250000  0.004592  0.435561  1
  In  In9  1  0.750000  0.494585  0.933501  1
  In  In10  1  0.750000  0.001649  0.563968  1
  In  In11  1  0.250000  0.616410  0.349025  1
  In  In12  1  0.750000  0.386798  0.653572  1
  In  In13  1  0.750000  0.879374  0.847832  1
  In  In14  1  0.250000  0.496308  0.064063  1
  In  In15  1  0.250000  0.117148  0.153102  1
  Rh  Rh16  1  0.250000  0.249122  0.566015  1
  Rh  Rh17  1  0.750000  0.253692  0.065435  1
  Rh  Rh18  1  0.250000  0.251508  0.314063  1
  Rh  Rh19  1  0.750000  0.244059  0.813495  1
  Rh  Rh20  1  0.250000  0.743836  0.936977  1
  Rh  Rh21  1  0.750000  0.756016  0.684628  1
  Rh  Rh22  1  0.750000  0.757076  0.434196  1
  Rh  Rh23  1  0.250000  0.748129  0.184181  1
