# generated using pymatgen
data_Yb4B15C
_symmetry_space_group_name_H-M   'P 1'
_cell_length_a   7.02172123
_cell_length_b   7.02172123
_cell_length_c   4.08544900
_cell_angle_alpha   90.00000000
_cell_angle_beta   90.00000000
_cell_angle_gamma   90.54093089
_symmetry_Int_Tables_number   1
_chemical_formula_structural   Yb4B15C
_chemical_formula_sum   'Yb4 B15 C1'
_cell_volume   201.42232541
_cell_formula_units_Z   1
loop_
 _symmetry_equiv_pos_site_id
 _symmetry_equiv_pos_as_xyz
  1  'x, y, z'
loop_
 _atom_site_type_symbol
 _atom_site_label
 _atom_site_symmetry_multiplicity
 _atom_site_fract_x
 _atom_site_fract_y
 _atom_site_fract_z
 _atom_site_occupancy
  Yb  Yb0  1  0.815034  0.313306  0.000000  1
  Yb  Yb1  1  0.186694  0.684966  0.000000  1
  Yb  Yb2  1  0.317967  0.182033  0.000000  1
  Yb  Yb3  1  0.678118  0.821882  0.000000  1
  B  B4  1  0.504436  0.502492  0.795191  1
  B  B5  1  0.997508  0.995564  0.795191  1
  B  B6  1  0.504436  0.502492  0.204809  1
  B  B7  1  0.997508  0.995564  0.204809  1
  B  B8  1  0.078126  0.421874  0.500000  1
  B  B9  1  0.413155  0.915617  0.500000  1
  B  B10  1  0.584383  0.086845  0.500000  1
  B  B11  1  0.685183  0.540646  0.500000  1
  B  B12  1  0.326340  0.467588  0.500000  1
  B  B13  1  0.174193  0.960409  0.500000  1
  B  B14  1  0.820775  0.031011  0.500000  1
  B  B15  1  0.468989  0.679225  0.500000  1
  B  B16  1  0.539591  0.325807  0.500000  1
  B  B17  1  0.032412  0.173660  0.500000  1
  B  B18  1  0.959354  0.814817  0.500000  1
  C  C19  1  0.915798  0.584202  0.500000  1
