# generated using pymatgen
data_Tm2Si(PRu2)6
_symmetry_space_group_name_H-M   'P 1'
_cell_length_a   9.42248800
_cell_length_b   9.42248752
_cell_length_c   3.95660500
_cell_angle_alpha   90.00000000
_cell_angle_beta   90.00000000
_cell_angle_gamma   119.99999466
_symmetry_Int_Tables_number   1
_chemical_formula_structural   Tm2Si(PRu2)6
_chemical_formula_sum   'Tm2 Si1 P6 Ru12'
_cell_volume   304.21772521
_cell_formula_units_Z   1
loop_
 _symmetry_equiv_pos_site_id
 _symmetry_equiv_pos_as_xyz
  1  'x, y, z'
loop_
 _atom_site_type_symbol
 _atom_site_label
 _atom_site_symmetry_multiplicity
 _atom_site_fract_x
 _atom_site_fract_y
 _atom_site_fract_z
 _atom_site_occupancy
  Tm  Tm0  1  0.666667  0.333333  0.500000  1
  Tm  Tm1  1  0.333333  0.666667  0.000000  1
  Si  Si2  1  0.000000  0.000000  0.000000  1
  P  P3  1  0.601259  0.719668  0.500000  1
  P  P4  1  0.280332  0.881591  0.500000  1
  P  P5  1  0.118409  0.398741  0.500000  1
  P  P6  1  0.885592  0.574813  0.000000  1
  P  P7  1  0.425187  0.310778  0.000000  1
  P  P8  1  0.689222  0.114408  0.000000  1
  Ru  Ru9  1  0.554150  0.949877  0.500000  1
  Ru  Ru10  1  0.395729  0.445850  0.500000  1
  Ru  Ru11  1  0.912579  0.121093  0.500000  1
  Ru  Ru12  1  0.208514  0.087421  0.500000  1
  Ru  Ru13  1  0.878907  0.791486  0.500000  1
  Ru  Ru14  1  0.719992  0.886756  0.000000  1
  Ru  Ru15  1  0.113244  0.833236  0.000000  1
  Ru  Ru16  1  0.166764  0.280008  0.000000  1
  Ru  Ru17  1  0.425185  0.067957  0.000000  1
  Ru  Ru18  1  0.932043  0.357229  0.000000  1
  Ru  Ru19  1  0.642771  0.574815  0.000000  1
  Ru  Ru20  1  0.050123  0.604271  0.500000  1
