# generated using pymatgen
data_Ho12Th4Mg3InCo4
_symmetry_space_group_name_H-M   'P 1'
_cell_length_a   9.59883837
_cell_length_b   9.59883755
_cell_length_c   9.59883801
_cell_angle_alpha   60.00339019
_cell_angle_beta   60.00339198
_cell_angle_gamma   60.00339563
_symmetry_Int_Tables_number   1
_chemical_formula_structural   Ho12Th4Mg3InCo4
_chemical_formula_sum   'Ho12 Th4 Mg3 In1 Co4'
_cell_volume   625.42377778
_cell_formula_units_Z   1
loop_
 _symmetry_equiv_pos_site_id
 _symmetry_equiv_pos_as_xyz
  1  'x, y, z'
loop_
 _atom_site_type_symbol
 _atom_site_label
 _atom_site_symmetry_multiplicity
 _atom_site_fract_x
 _atom_site_fract_y
 _atom_site_fract_z
 _atom_site_occupancy
  Ho  Ho0  1  0.813455  0.186691  0.186691  1
  Ho  Ho1  1  0.186045  0.812649  0.812649  1
  Ho  Ho2  1  0.186691  0.813455  0.186691  1
  Ho  Ho3  1  0.812649  0.186045  0.812649  1
  Ho  Ho4  1  0.186691  0.186691  0.813455  1
  Ho  Ho5  1  0.812649  0.812649  0.186045  1
  Ho  Ho6  1  0.937865  0.564998  0.564998  1
  Ho  Ho7  1  0.563308  0.935977  0.935977  1
  Ho  Ho8  1  0.564998  0.937865  0.564998  1
  Ho  Ho9  1  0.935977  0.563308  0.935977  1
  Ho  Ho10  1  0.564998  0.564998  0.937865  1
  Ho  Ho11  1  0.935977  0.935977  0.563308  1
  Th  Th12  1  0.343332  0.343332  0.343332  1
  Th  Th13  1  0.346069  0.346069  0.964522  1
  Th  Th14  1  0.346069  0.964522  0.346069  1
  Th  Th15  1  0.964522  0.346069  0.346069  1
  Mg  Mg16  1  0.579045  0.579045  0.261951  1
  Mg  Mg17  1  0.579045  0.261951  0.579045  1
  Mg  Mg18  1  0.261951  0.579045  0.579045  1
  In  In19  1  0.582219  0.582219  0.582219  1
  Co  Co20  1  0.144263  0.144263  0.144263  1
  Co  Co21  1  0.143388  0.143388  0.565403  1
  Co  Co22  1  0.143388  0.565403  0.143388  1
  Co  Co23  1  0.565403  0.143388  0.143388  1
