# generated using pymatgen
data_NdLuNi7B2Pt
_symmetry_space_group_name_H-M   'P 1'
_cell_length_a   5.04012000
_cell_length_b   5.04012054
_cell_length_c   7.10170300
_cell_angle_alpha   90.00000000
_cell_angle_beta   90.00000000
_cell_angle_gamma   120.00000961
_symmetry_Int_Tables_number   1
_chemical_formula_structural   NdLuNi7B2Pt
_chemical_formula_sum   'Nd1 Lu1 Ni7 B2 Pt1'
_cell_volume   156.23376363
_cell_formula_units_Z   1
loop_
 _symmetry_equiv_pos_site_id
 _symmetry_equiv_pos_as_xyz
  1  'x, y, z'
loop_
 _atom_site_type_symbol
 _atom_site_label
 _atom_site_symmetry_multiplicity
 _atom_site_fract_x
 _atom_site_fract_y
 _atom_site_fract_z
 _atom_site_occupancy
  Nd  Nd0  1  0.000000  0.000000  0.000000  1
  Lu  Lu1  1  0.000000  0.000000  0.500000  1
  Ni  Ni2  1  0.333333  0.666667  0.000000  1
  Ni  Ni3  1  0.499205  0.500795  0.696888  1
  Ni  Ni4  1  0.499205  0.998409  0.696888  1
  Ni  Ni5  1  0.001591  0.500795  0.696888  1
  Ni  Ni6  1  0.499205  0.500795  0.303112  1
  Ni  Ni7  1  0.499205  0.998409  0.303112  1
  Ni  Ni8  1  0.001591  0.500795  0.303112  1
  B  B9  1  0.666667  0.333333  0.500000  1
  B  B10  1  0.333333  0.666667  0.500000  1
  Pt  Pt11  1  0.666667  0.333333  0.000000  1
