# generated using pymatgen
data_Gd5Mn3(Si3Ir4)4
_symmetry_space_group_name_H-M   'P 1'
_cell_length_a   13.08189400
_cell_length_b   13.08189354
_cell_length_c   4.01649100
_cell_angle_alpha   90.00000000
_cell_angle_beta   90.00000000
_cell_angle_gamma   120.00000117
_symmetry_Int_Tables_number   1
_chemical_formula_structural   Gd5Mn3(Si3Ir4)4
_chemical_formula_sum   'Gd5 Mn3 Si12 Ir16'
_cell_volume   595.27639440
_cell_formula_units_Z   1
loop_
 _symmetry_equiv_pos_site_id
 _symmetry_equiv_pos_as_xyz
  1  'x, y, z'
loop_
 _atom_site_type_symbol
 _atom_site_label
 _atom_site_symmetry_multiplicity
 _atom_site_fract_x
 _atom_site_fract_y
 _atom_site_fract_z
 _atom_site_occupancy
  Gd  Gd0  1  0.333333  0.666667  0.000000  1
  Gd  Gd1  1  0.666667  0.333333  0.000000  1
  Gd  Gd2  1  0.814484  0.000000  0.500000  1
  Gd  Gd3  1  0.000000  0.814484  0.500000  1
  Gd  Gd4  1  0.185516  0.185516  0.500000  1
  Mn  Mn5  1  0.441907  0.000000  0.000000  1
  Mn  Mn6  1  0.000000  0.441907  0.000000  1
  Mn  Mn7  1  0.558093  0.558093  0.000000  1
  Si  Si8  1  0.184144  0.000000  0.000000  1
  Si  Si9  1  0.000000  0.184144  0.000000  1
  Si  Si10  1  0.815856  0.815856  0.000000  1
  Si  Si11  1  0.172327  0.480192  0.500000  1
  Si  Si12  1  0.519808  0.692135  0.500000  1
  Si  Si13  1  0.307865  0.827673  0.500000  1
  Si  Si14  1  0.692135  0.519808  0.500000  1
  Si  Si15  1  0.827673  0.307865  0.500000  1
  Si  Si16  1  0.480192  0.172327  0.500000  1
  Si  Si17  1  0.630538  0.000000  0.000000  1
  Si  Si18  1  0.000000  0.630538  0.000000  1
  Si  Si19  1  0.369462  0.369462  0.000000  1
  Ir  Ir20  1  0.365340  0.489543  0.500000  1
  Ir  Ir21  1  0.510457  0.875798  0.500000  1
  Ir  Ir22  1  0.124202  0.634660  0.500000  1
  Ir  Ir23  1  0.875798  0.510457  0.500000  1
  Ir  Ir24  1  0.634660  0.124202  0.500000  1
  Ir  Ir25  1  0.489543  0.365340  0.500000  1
  Ir  Ir26  1  0.182478  0.376750  0.000000  1
  Ir  Ir27  1  0.623250  0.805730  0.000000  1
  Ir  Ir28  1  0.194270  0.817522  0.000000  1
  Ir  Ir29  1  0.805730  0.623250  0.000000  1
  Ir  Ir30  1  0.817522  0.194270  0.000000  1
  Ir  Ir31  1  0.376750  0.182478  0.000000  1
  Ir  Ir32  1  0.284229  0.000000  0.500000  1
  Ir  Ir33  1  0.000000  0.284229  0.500000  1
  Ir  Ir34  1  0.715771  0.715771  0.500000  1
  Ir  Ir35  1  0.000000  0.000000  0.000000  1
