# generated using pymatgen
data_Yb4DyIr2
_symmetry_space_group_name_H-M   'P 1'
_cell_length_a   6.55663098
_cell_length_b   7.31769112
_cell_length_c   8.51687112
_cell_angle_alpha   97.16763115
_cell_angle_beta   112.63878934
_cell_angle_gamma   89.99999764
_symmetry_Int_Tables_number   1
_chemical_formula_structural   Yb4DyIr2
_chemical_formula_sum   'Yb8 Dy2 Ir4'
_cell_volume   373.68672915
_cell_formula_units_Z   2
loop_
 _symmetry_equiv_pos_site_id
 _symmetry_equiv_pos_as_xyz
  1  'x, y, z'
loop_
 _atom_site_type_symbol
 _atom_site_label
 _atom_site_symmetry_multiplicity
 _atom_site_fract_x
 _atom_site_fract_y
 _atom_site_fract_z
 _atom_site_occupancy
  Yb  Yb0  1  0.972660  0.921456  0.171018  1
  Yb  Yb1  1  0.801643  0.578544  0.828982  1
  Yb  Yb2  1  0.027340  0.078544  0.828982  1
  Yb  Yb3  1  0.198357  0.421456  0.171018  1
  Yb  Yb4  1  0.643929  0.819939  0.437631  1
  Yb  Yb5  1  0.206298  0.680061  0.562369  1
  Yb  Yb6  1  0.356071  0.180061  0.562369  1
  Yb  Yb7  1  0.793702  0.319939  0.437631  1
  Dy  Dy8  1  0.437497  0.750000  0.000000  1
  Dy  Dy9  1  0.562503  0.250000  0.000000  1
  Ir  Ir10  1  0.815019  0.573823  0.211729  1
  Ir  Ir11  1  0.603292  0.926177  0.788271  1
  Ir  Ir12  1  0.184981  0.426177  0.788271  1
  Ir  Ir13  1  0.396708  0.073823  0.211729  1
