# generated using pymatgen
data_Y2B4IrRu3
_symmetry_space_group_name_H-M   'P 1'
_cell_length_a   6.70023622
_cell_length_b   5.93499256
_cell_length_c   5.54937558
_cell_angle_alpha   71.29316902
_cell_angle_beta   57.03404917
_cell_angle_gamma   52.00788397
_symmetry_Int_Tables_number   1
_chemical_formula_structural   Y2B4IrRu3
_chemical_formula_sum   'Y2 B4 Ir1 Ru3'
_cell_volume   145.87862434
_cell_formula_units_Z   1
loop_
 _symmetry_equiv_pos_site_id
 _symmetry_equiv_pos_as_xyz
  1  'x, y, z'
loop_
 _atom_site_type_symbol
 _atom_site_label
 _atom_site_symmetry_multiplicity
 _atom_site_fract_x
 _atom_site_fract_y
 _atom_site_fract_z
 _atom_site_occupancy
  Y  Y0  1  0.749234  0.749234  0.750766  1
  Y  Y1  1  0.498671  0.498671  0.501329  1
  B  B2  1  0.063715  0.439707  0.058275  1
  B  B3  1  0.813693  0.184586  0.815664  1
  B  B4  1  0.439707  0.063715  0.438303  1
  B  B5  1  0.184586  0.813693  0.186057  1
  Ir  Ir6  1  0.113654  0.113654  0.386346  1
  Ru  Ru7  1  0.386879  0.386879  0.113121  1
  Ru  Ru8  1  0.136948  0.136948  0.863052  1
  Ru  Ru9  1  0.862913  0.862913  0.137087  1
