# generated using pymatgen
data_Mn3AlPt8
_symmetry_space_group_name_H-M   'P 1'
_cell_length_a   3.98642900
_cell_length_b   5.54495700
_cell_length_c   16.46651000
_cell_angle_alpha   90.00000000
_cell_angle_beta   90.00000000
_cell_angle_gamma   90.00000000
_symmetry_Int_Tables_number   1
_chemical_formula_structural   Mn3AlPt8
_chemical_formula_sum   'Mn6 Al2 Pt16'
_cell_volume   363.98524461
_cell_formula_units_Z   2
loop_
 _symmetry_equiv_pos_site_id
 _symmetry_equiv_pos_as_xyz
  1  'x, y, z'
loop_
 _atom_site_type_symbol
 _atom_site_label
 _atom_site_symmetry_multiplicity
 _atom_site_fract_x
 _atom_site_fract_y
 _atom_site_fract_z
 _atom_site_occupancy
  Mn  Mn0  1  0.000000  0.204431  0.750000  1
  Mn  Mn1  1  0.000000  0.795569  0.250000  1
  Mn  Mn2  1  0.000000  0.702097  0.588401  1
  Mn  Mn3  1  0.000000  0.297903  0.411599  1
  Mn  Mn4  1  0.000000  0.702097  0.911599  1
  Mn  Mn5  1  0.000000  0.297903  0.088401  1
  Al  Al6  1  0.500000  0.000000  0.500000  1
  Al  Al7  1  0.500000  0.000000  0.000000  1
  Pt  Pt8  1  0.500000  0.046091  0.338869  1
  Pt  Pt9  1  0.500000  0.953909  0.661131  1
  Pt  Pt10  1  0.500000  0.548692  0.166404  1
  Pt  Pt11  1  0.500000  0.451308  0.833596  1
  Pt  Pt12  1  0.500000  0.548692  0.333596  1
  Pt  Pt13  1  0.500000  0.451308  0.666404  1
  Pt  Pt14  1  0.000000  0.288915  0.250000  1
  Pt  Pt15  1  0.000000  0.711085  0.750000  1
  Pt  Pt16  1  0.500000  0.953909  0.838869  1
  Pt  Pt17  1  0.500000  0.046091  0.161131  1
  Pt  Pt18  1  0.500000  0.500000  0.500000  1
  Pt  Pt19  1  0.500000  0.500000  0.000000  1
  Pt  Pt20  1  0.000000  0.203575  0.573247  1
  Pt  Pt21  1  0.000000  0.796425  0.426753  1
  Pt  Pt22  1  0.000000  0.203575  0.926753  1
  Pt  Pt23  1  0.000000  0.796425  0.073247  1
