# generated using pymatgen
data_Y2HoHfIn2Ir3
_symmetry_space_group_name_H-M   'P 1'
_cell_length_a   7.40345639
_cell_length_b   7.27856067
_cell_length_c   4.18071000
_cell_angle_alpha   90.00000000
_cell_angle_beta   90.00000000
_cell_angle_gamma   119.44348217
_symmetry_Int_Tables_number   1
_chemical_formula_structural   Y2HoHfIn2Ir3
_chemical_formula_sum   'Y2 Ho1 Hf1 In2 Ir3'
_cell_volume   196.18642141
_cell_formula_units_Z   1
loop_
 _symmetry_equiv_pos_site_id
 _symmetry_equiv_pos_as_xyz
  1  'x, y, z'
loop_
 _atom_site_type_symbol
 _atom_site_label
 _atom_site_symmetry_multiplicity
 _atom_site_fract_x
 _atom_site_fract_y
 _atom_site_fract_z
 _atom_site_occupancy
  Y  Y0  1  0.580441  0.586312  0.000000  1
  Y  Y1  1  0.419559  0.005871  0.000000  1
  Ho  Ho2  1  0.000000  0.395079  0.000000  1
  Hf  Hf3  1  0.000000  0.754992  0.500000  1
  In  In4  1  0.255268  0.253500  0.500000  1
  In  In5  1  0.744732  0.998232  0.500000  1
  Ir  Ir6  1  0.000000  0.980306  0.000000  1
  Ir  Ir7  1  0.686849  0.356278  0.500000  1
  Ir  Ir8  1  0.313151  0.669430  0.500000  1
