# generated using pymatgen
data_Cs4Hf4Zr2CBr18
_symmetry_space_group_name_H-M   'P 1'
_cell_length_a   10.77760874
_cell_length_b   11.11404394
_cell_length_c   11.22861232
_cell_angle_alpha   118.24497194
_cell_angle_beta   100.58098145
_cell_angle_gamma   104.30044325
_symmetry_Int_Tables_number   1
_chemical_formula_structural   Cs4Hf4Zr2CBr18
_chemical_formula_sum   'Cs4 Hf4 Zr2 C1 Br18'
_cell_volume   1074.63483966
_cell_formula_units_Z   1
loop_
 _symmetry_equiv_pos_site_id
 _symmetry_equiv_pos_as_xyz
  1  'x, y, z'
loop_
 _atom_site_type_symbol
 _atom_site_label
 _atom_site_symmetry_multiplicity
 _atom_site_fract_x
 _atom_site_fract_y
 _atom_site_fract_z
 _atom_site_occupancy
  Cs  Cs0  1  0.194035  0.727779  0.563655  1
  Cs  Cs1  1  0.838912  0.964244  0.770613  1
  Cs  Cs2  1  0.161789  0.037678  0.230108  1
  Cs  Cs3  1  0.805743  0.274450  0.437884  1
  Hf  Hf4  1  0.358696  0.444853  0.786044  1
  Hf  Hf5  1  0.368220  0.612936  0.120132  1
  Hf  Hf6  1  0.638009  0.721710  0.042015  1
  Hf  Hf7  1  0.641150  0.550860  0.211997  1
  Zr  Zr8  1  0.363932  0.277336  0.956470  1
  Zr  Zr9  1  0.629457  0.384353  0.879488  1
  C  C10  1  0.500132  0.505655  0.002755  1
  Br  Br11  1  0.812671  0.432188  0.111559  1
  Br  Br12  1  0.514959  0.692538  0.384387  1
  Br  Br13  1  0.189750  0.000353  0.902940  1
  Br  Br14  1  0.190238  0.568699  0.891445  1
  Br  Br15  1  0.817866  0.817236  0.296235  1
  Br  Br16  1  0.506025  0.307791  0.201454  1
  Br  Br17  1  0.790194  0.246871  0.732760  1
  Br  Br18  1  0.179120  0.181247  0.700215  1
  Br  Br19  1  0.506998  0.884798  0.184045  1
  Br  Br20  1  0.807658  0.627413  0.912373  1
  Br  Br21  1  0.213449  0.753704  0.265658  1
  Br  Br22  1  0.180665  0.383147  0.524184  1
  Br  Br23  1  0.495257  0.692640  0.802172  1
  Br  Br24  1  0.806260  0.996731  0.097507  1
  Br  Br25  1  0.483795  0.307251  0.611994  1
  Br  Br26  1  0.192419  0.376501  0.089602  1
  Br  Br27  1  0.819385  0.620306  0.477401  1
  Br  Br28  1  0.493215  0.108730  0.812909  1
