# generated using pymatgen
data_Li2ErLu5(Co4P3)4
_symmetry_space_group_name_H-M   'P 1'
_cell_length_a   3.67990400
_cell_length_b   10.50057800
_cell_length_c   12.07200500
_cell_angle_alpha   90.00000000
_cell_angle_beta   90.00000000
_cell_angle_gamma   90.00000000
_symmetry_Int_Tables_number   1
_chemical_formula_structural   Li2ErLu5(Co4P3)4
_chemical_formula_sum   'Li2 Er1 Lu5 Co16 P12'
_cell_volume   466.47578159
_cell_formula_units_Z   1
loop_
 _symmetry_equiv_pos_site_id
 _symmetry_equiv_pos_as_xyz
  1  'x, y, z'
loop_
 _atom_site_type_symbol
 _atom_site_label
 _atom_site_symmetry_multiplicity
 _atom_site_fract_x
 _atom_site_fract_y
 _atom_site_fract_z
 _atom_site_occupancy
  Li  Li0  1  0.500000  0.500000  0.153828  1
  Li  Li1  1  0.000000  0.000000  0.845809  1
  Er  Er2  1  0.000000  0.500000  0.523905  1
  Lu  Lu3  1  0.500000  0.000000  0.476221  1
  Lu  Lu4  1  0.500000  0.820770  0.205977  1
  Lu  Lu5  1  0.500000  0.179230  0.205977  1
  Lu  Lu6  1  0.000000  0.679452  0.794138  1
  Lu  Lu7  1  0.000000  0.320548  0.794138  1
  Co  Co8  1  0.500000  0.500000  0.704979  1
  Co  Co9  1  0.000000  0.000000  0.295996  1
  Co  Co10  1  0.000000  0.500000  0.987441  1
  Co  Co11  1  0.500000  0.000000  0.012642  1
  Co  Co12  1  0.500000  0.332699  0.996999  1
  Co  Co13  1  0.500000  0.667301  0.996999  1
  Co  Co14  1  0.000000  0.167245  0.003034  1
  Co  Co15  1  0.000000  0.832755  0.003034  1
  Co  Co16  1  0.500000  0.295919  0.431213  1
  Co  Co17  1  0.500000  0.704081  0.431213  1
  Co  Co18  1  0.000000  0.202914  0.568626  1
  Co  Co19  1  0.000000  0.797086  0.568626  1
  Co  Co20  1  0.500000  0.877804  0.706227  1
  Co  Co21  1  0.500000  0.122196  0.706227  1
  Co  Co22  1  0.000000  0.622559  0.293452  1
  Co  Co23  1  0.000000  0.377441  0.293452  1
  P  P24  1  0.500000  0.500000  0.884477  1
  P  P25  1  0.000000  0.000000  0.115864  1
  P  P26  1  0.500000  0.500000  0.347098  1
  P  P27  1  0.000000  0.000000  0.651919  1
  P  P28  1  0.500000  0.310943  0.617149  1
  P  P29  1  0.500000  0.689057  0.617149  1
  P  P30  1  0.000000  0.188296  0.383123  1
  P  P31  1  0.000000  0.811704  0.383123  1
  P  P32  1  0.500000  0.842279  0.891735  1
  P  P33  1  0.500000  0.157721  0.891735  1
  P  P34  1  0.000000  0.657839  0.108238  1
  P  P35  1  0.000000  0.342161  0.108238  1
