# generated using pymatgen
data_Dy3PaNiIr3
_symmetry_space_group_name_H-M   'P 1'
_cell_length_a   4.27677000
_cell_length_b   5.57158534
_cell_length_c   7.08766440
_cell_angle_alpha   91.92061297
_cell_angle_beta   90.00000000
_cell_angle_gamma   90.00000000
_symmetry_Int_Tables_number   1
_chemical_formula_structural   Dy3PaNiIr3
_chemical_formula_sum   'Dy3 Pa1 Ni1 Ir3'
_cell_volume   168.79274752
_cell_formula_units_Z   1
loop_
 _symmetry_equiv_pos_site_id
 _symmetry_equiv_pos_as_xyz
  1  'x, y, z'
loop_
 _atom_site_type_symbol
 _atom_site_label
 _atom_site_symmetry_multiplicity
 _atom_site_fract_x
 _atom_site_fract_y
 _atom_site_fract_z
 _atom_site_occupancy
  Dy  Dy0  1  0.750000  0.641338  0.320372  1
  Dy  Dy1  1  0.750000  0.861296  0.825369  1
  Dy  Dy2  1  0.250000  0.139874  0.180840  1
  Pa  Pa3  1  0.250000  0.362459  0.677019  1
  Ni  Ni4  1  0.250000  0.627508  0.031116  1
  Ir  Ir5  1  0.250000  0.835444  0.557415  1
  Ir  Ir6  1  0.750000  0.168412  0.466411  1
  Ir  Ir7  1  0.750000  0.363668  0.941456  1
