# generated using pymatgen
data_Np4Sc4Re3B24Rh
_symmetry_space_group_name_H-M   'P 1'
_cell_length_a   3.58157400
_cell_length_b   9.00271125
_cell_length_c   11.37244791
_cell_angle_alpha   90.13508759
_cell_angle_beta   90.00000000
_cell_angle_gamma   90.00000000
_symmetry_Int_Tables_number   1
_chemical_formula_structural   Np4Sc4Re3B24Rh
_chemical_formula_sum   'Np4 Sc4 Re3 B24 Rh1'
_cell_volume   366.69078718
_cell_formula_units_Z   1
loop_
 _symmetry_equiv_pos_site_id
 _symmetry_equiv_pos_as_xyz
  1  'x, y, z'
loop_
 _atom_site_type_symbol
 _atom_site_label
 _atom_site_symmetry_multiplicity
 _atom_site_fract_x
 _atom_site_fract_y
 _atom_site_fract_z
 _atom_site_occupancy
  Np  Np0  1  0.000000  0.318909  0.415658  1
  Np  Np1  1  0.000000  0.677591  0.589086  1
  Np  Np2  1  0.000000  0.824004  0.083701  1
  Np  Np3  1  0.000000  0.179620  0.913948  1
  Sc  Sc4  1  0.000000  0.945556  0.373778  1
  Sc  Sc5  1  0.000000  0.054223  0.625739  1
  Sc  Sc6  1  0.000000  0.444286  0.125270  1
  Sc  Sc7  1  0.000000  0.554539  0.874678  1
  Re  Re8  1  0.000000  0.360329  0.679570  1
  Re  Re9  1  0.000000  0.139804  0.180122  1
  Re  Re10  1  0.000000  0.859885  0.819761  1
  B  B11  1  0.500000  0.554230  0.433703  1
  B  B12  1  0.500000  0.446517  0.566355  1
  B  B13  1  0.500000  0.053911  0.066293  1
  B  B14  1  0.500000  0.946736  0.933284  1
  B  B15  1  0.500000  0.753706  0.421040  1
  B  B16  1  0.500000  0.246236  0.580120  1
  B  B17  1  0.500000  0.253644  0.079907  1
  B  B18  1  0.500000  0.746819  0.919908  1
  B  B19  1  0.500000  0.794610  0.264439  1
  B  B20  1  0.500000  0.204785  0.735000  1
  B  B21  1  0.500000  0.295915  0.235554  1
  B  B22  1  0.500000  0.705016  0.765261  1
  B  B23  1  0.500000  0.630708  0.180632  1
  B  B24  1  0.500000  0.369517  0.817775  1
  B  B25  1  0.500000  0.130483  0.317735  1
  B  B26  1  0.500000  0.869381  0.682541  1
  B  B27  1  0.500000  0.980392  0.214323  1
  B  B28  1  0.500000  0.019448  0.785690  1
  B  B29  1  0.500000  0.481231  0.285854  1
  B  B30  1  0.500000  0.519003  0.714583  1
  B  B31  1  0.500000  0.600542  0.027982  1
  B  B32  1  0.500000  0.399946  0.972806  1
  B  B33  1  0.500000  0.099114  0.472385  1
  B  B34  1  0.500000  0.898653  0.526904  1
  Rh  Rh35  1  0.000000  0.640713  0.318615  1
