# generated using pymatgen
data_La2Zn20IrPt
_symmetry_space_group_name_H-M   'P 1'
_cell_length_a   8.39967303
_cell_length_b   8.40636987
_cell_length_c   8.35450562
_cell_angle_alpha   99.34018806
_cell_angle_beta   100.27194268
_cell_angle_gamma   131.62202326
_symmetry_Int_Tables_number   1
_chemical_formula_structural   La2Zn20IrPt
_chemical_formula_sum   'La2 Zn20 Ir1 Pt1'
_cell_volume   401.07332235
_cell_formula_units_Z   1
loop_
 _symmetry_equiv_pos_site_id
 _symmetry_equiv_pos_as_xyz
  1  'x, y, z'
loop_
 _atom_site_type_symbol
 _atom_site_label
 _atom_site_symmetry_multiplicity
 _atom_site_fract_x
 _atom_site_fract_y
 _atom_site_fract_z
 _atom_site_occupancy
  La  La0  1  0.243327  0.749688  0.498757  1
  La  La1  1  0.006673  0.000312  0.001243  1
  Zn  Zn2  1  0.898798  0.572459  0.083805  1
  Zn  Zn3  1  0.428394  0.513155  0.331984  1
  Zn  Zn4  1  0.485351  0.572425  0.670351  1
  Zn  Zn5  1  0.429308  0.099401  0.915369  1
  Zn  Zn6  1  0.764649  0.177575  0.829649  1
  Zn  Zn7  1  0.487099  0.816023  0.914635  1
  Zn  Zn8  1  0.486903  0.500309  0.995155  1
  Zn  Zn9  1  0.762901  0.933977  0.585365  1
  Zn  Zn10  1  0.763097  0.249691  0.504845  1
  Zn  Zn11  1  0.066030  0.646001  0.825829  1
  Zn  Zn12  1  0.351202  0.177541  0.416195  1
  Zn  Zn13  1  0.820692  0.650599  0.584631  1
  Zn  Zn14  1  0.896116  0.813751  0.324059  1
  Zn  Zn15  1  0.183970  0.103999  0.674171  1
  Zn  Zn16  1  0.069418  0.240816  0.418541  1
  Zn  Zn17  1  0.353884  0.936249  0.175941  1
  Zn  Zn18  1  0.821606  0.236845  0.168016  1
  Zn  Zn19  1  0.180582  0.509184  0.081459  1
  Zn  Zn20  1  0.625000  0.375000  0.250000  1
  Zn  Zn21  1  0.625000  0.375000  0.750000  1
  Ir  Ir22  1  0.125000  0.375000  0.750000  1
  Pt  Pt23  1  0.625000  0.875000  0.250000  1
