# generated using pymatgen
data_CaTb2Tm5(B6Ru)4
_symmetry_space_group_name_H-M   'P 1'
_cell_length_a   3.63709800
_cell_length_b   9.10608146
_cell_length_c   11.50074400
_cell_angle_alpha   89.91369142
_cell_angle_beta   90.00000000
_cell_angle_gamma   90.00000000
_symmetry_Int_Tables_number   1
_chemical_formula_structural   CaTb2Tm5(B6Ru)4
_chemical_formula_sum   'Ca1 Tb2 Tm5 B24 Ru4'
_cell_volume   380.90088176
_cell_formula_units_Z   1
loop_
 _symmetry_equiv_pos_site_id
 _symmetry_equiv_pos_as_xyz
  1  'x, y, z'
loop_
 _atom_site_type_symbol
 _atom_site_label
 _atom_site_symmetry_multiplicity
 _atom_site_fract_x
 _atom_site_fract_y
 _atom_site_fract_z
 _atom_site_occupancy
  Ca  Ca0  1  0.000000  0.322067  0.413991  1
  Tb  Tb1  1  0.000000  0.676273  0.585189  1
  Tb  Tb2  1  0.000000  0.822401  0.086167  1
  Tm  Tm3  1  0.000000  0.178606  0.914736  1
  Tm  Tm4  1  0.000000  0.944213  0.371088  1
  Tm  Tm5  1  0.000000  0.058007  0.628243  1
  Tm  Tm6  1  0.000000  0.442725  0.129157  1
  Tm  Tm7  1  0.000000  0.555861  0.872345  1
  B  B8  1  0.500000  0.554596  0.432240  1
  B  B9  1  0.500000  0.445546  0.568249  1
  B  B10  1  0.500000  0.053993  0.065985  1
  B  B11  1  0.500000  0.946381  0.932257  1
  B  B12  1  0.500000  0.749392  0.418643  1
  B  B13  1  0.500000  0.251235  0.581906  1
  B  B14  1  0.500000  0.248347  0.079818  1
  B  B15  1  0.500000  0.751038  0.919026  1
  B  B16  1  0.500000  0.791790  0.265869  1
  B  B17  1  0.500000  0.208807  0.735206  1
  B  B18  1  0.500000  0.290174  0.233060  1
  B  B19  1  0.500000  0.709173  0.766406  1
  B  B20  1  0.500000  0.631055  0.185343  1
  B  B21  1  0.500000  0.368579  0.816263  1
  B  B22  1  0.500000  0.130410  0.313944  1
  B  B23  1  0.500000  0.869619  0.685085  1
  B  B24  1  0.500000  0.983327  0.211945  1
  B  B25  1  0.500000  0.017774  0.787338  1
  B  B26  1  0.500000  0.483444  0.287006  1
  B  B27  1  0.500000  0.516378  0.713621  1
  B  B28  1  0.500000  0.605256  0.029173  1
  B  B29  1  0.500000  0.393461  0.971039  1
  B  B30  1  0.500000  0.102290  0.471800  1
  B  B31  1  0.500000  0.896975  0.528475  1
  Ru  Ru32  1  0.000000  0.640125  0.319619  1
  Ru  Ru33  1  0.000000  0.361071  0.681836  1
  Ru  Ru34  1  0.000000  0.137053  0.177291  1
  Ru  Ru35  1  0.000000  0.862555  0.820642  1
