# generated using pymatgen
data_KHfCrS4
_symmetry_space_group_name_H-M   'P 1'
_cell_length_a   3.64438400
_cell_length_b   6.11392680
_cell_length_c   7.72145297
_cell_angle_alpha   89.28435842
_cell_angle_beta   90.00000000
_cell_angle_gamma   90.00000000
_symmetry_Int_Tables_number   1
_chemical_formula_structural   KHfCrS4
_chemical_formula_sum   'K1 Hf1 Cr1 S4'
_cell_volume   172.03211117
_cell_formula_units_Z   1
loop_
 _symmetry_equiv_pos_site_id
 _symmetry_equiv_pos_as_xyz
  1  'x, y, z'
loop_
 _atom_site_type_symbol
 _atom_site_label
 _atom_site_symmetry_multiplicity
 _atom_site_fract_x
 _atom_site_fract_y
 _atom_site_fract_z
 _atom_site_occupancy
  K  K0  1  0.000000  0.500000  0.000000  1
  Hf  Hf1  1  0.500000  0.000000  0.500000  1
  Cr  Cr2  1  0.000000  0.500000  0.500000  1
  S  S3  1  0.000000  0.828687  0.315831  1
  S  S4  1  0.500000  0.351045  0.322969  1
  S  S5  1  0.500000  0.648955  0.677031  1
  S  S6  1  0.000000  0.171313  0.684169  1
