# generated using pymatgen
data_Na6Sn2Au
_symmetry_space_group_name_H-M   'P 1'
_cell_length_a   5.68528755
_cell_length_b   5.68528854
_cell_length_c   9.69564840
_cell_angle_alpha   82.93924514
_cell_angle_beta   82.93924140
_cell_angle_gamma   56.21010593
_symmetry_Int_Tables_number   1
_chemical_formula_structural   Na6Sn2Au
_chemical_formula_sum   'Na6 Sn2 Au1'
_cell_volume   257.90966855
_cell_formula_units_Z   1
loop_
 _symmetry_equiv_pos_site_id
 _symmetry_equiv_pos_as_xyz
  1  'x, y, z'
loop_
 _atom_site_type_symbol
 _atom_site_label
 _atom_site_symmetry_multiplicity
 _atom_site_fract_x
 _atom_site_fract_y
 _atom_site_fract_z
 _atom_site_occupancy
  Na  Na0  1  0.530274  0.530274  0.274290  1
  Na  Na1  1  0.826816  0.826816  0.589999  1
  Na  Na2  1  0.706119  0.706119  0.931872  1
  Na  Na3  1  0.173184  0.173184  0.410001  1
  Na  Na4  1  0.469726  0.469726  0.725710  1
  Na  Na5  1  0.293881  0.293881  0.068128  1
  Sn  Sn6  1  0.853849  0.853849  0.255973  1
  Sn  Sn7  1  0.146151  0.146151  0.744027  1
  Au  Au8  1  0.000000  0.000000  0.000000  1
