# generated using pymatgen
data_Gd5Se7
_symmetry_space_group_name_H-M   'P 1'
_cell_length_a   7.07878234
_cell_length_b   7.07878211
_cell_length_c   12.32894200
_cell_angle_alpha   76.15304123
_cell_angle_beta   76.15304168
_cell_angle_gamma   33.03576389
_symmetry_Int_Tables_number   1
_chemical_formula_structural   Gd5Se7
_chemical_formula_sum   'Gd5 Se7'
_cell_volume   326.13478850
_cell_formula_units_Z   1
loop_
 _symmetry_equiv_pos_site_id
 _symmetry_equiv_pos_as_xyz
  1  'x, y, z'
loop_
 _atom_site_type_symbol
 _atom_site_label
 _atom_site_symmetry_multiplicity
 _atom_site_fract_x
 _atom_site_fract_y
 _atom_site_fract_z
 _atom_site_occupancy
  Gd  Gd0  1  0.000000  0.000000  0.000000  1
  Gd  Gd1  1  0.114951  0.114951  0.579587  1
  Gd  Gd2  1  0.885049  0.885049  0.420413  1
  Gd  Gd3  1  0.300562  0.300562  0.812048  1
  Gd  Gd4  1  0.699438  0.699438  0.187952  1
  Se  Se5  1  0.500000  0.500000  0.500000  1
  Se  Se6  1  0.657606  0.657606  0.949575  1
  Se  Se7  1  0.342394  0.342394  0.050425  1
  Se  Se8  1  0.958834  0.958834  0.786152  1
  Se  Se9  1  0.041166  0.041166  0.213848  1
  Se  Se10  1  0.260158  0.260158  0.352972  1
  Se  Se11  1  0.739842  0.739842  0.647028  1
