# generated using pymatgen
data_Er8Be3Si12Ir
_symmetry_space_group_name_H-M   'P 1'
_cell_length_a   7.92692600
_cell_length_b   7.92692525
_cell_length_c   7.96804400
_cell_angle_alpha   90.00000000
_cell_angle_beta   90.00000000
_cell_angle_gamma   119.99999479
_symmetry_Int_Tables_number   1
_chemical_formula_structural   Er8Be3Si12Ir
_chemical_formula_sum   'Er8 Be3 Si12 Ir1'
_cell_volume   433.60266709
_cell_formula_units_Z   1
loop_
 _symmetry_equiv_pos_site_id
 _symmetry_equiv_pos_as_xyz
  1  'x, y, z'
loop_
 _atom_site_type_symbol
 _atom_site_label
 _atom_site_symmetry_multiplicity
 _atom_site_fract_x
 _atom_site_fract_y
 _atom_site_fract_z
 _atom_site_occupancy
  Er  Er0  1  0.501827  0.003654  0.248769  1
  Er  Er1  1  0.499687  0.999374  0.751153  1
  Er  Er2  1  0.996346  0.498173  0.248769  1
  Er  Er3  1  0.000626  0.500313  0.751153  1
  Er  Er4  1  0.501827  0.498173  0.248769  1
  Er  Er5  1  0.499687  0.500313  0.751153  1
  Er  Er6  1  0.000000  0.000000  0.247869  1
  Er  Er7  1  0.000000  0.000000  0.751836  1
  Be  Be8  1  0.333333  0.666667  0.005013  1
  Be  Be9  1  0.666667  0.333333  0.996883  1
  Be  Be10  1  0.666667  0.333333  0.502927  1
  Si  Si11  1  0.172467  0.344933  0.000395  1
  Si  Si12  1  0.826757  0.653514  0.999216  1
  Si  Si13  1  0.655067  0.827533  0.000395  1
  Si  Si14  1  0.828577  0.657155  0.500967  1
  Si  Si15  1  0.346486  0.173243  0.999216  1
  Si  Si16  1  0.166860  0.333720  0.499446  1
  Si  Si17  1  0.172467  0.827533  0.000395  1
  Si  Si18  1  0.342845  0.171423  0.500967  1
  Si  Si19  1  0.826757  0.173243  0.999216  1
  Si  Si20  1  0.666280  0.833140  0.499446  1
  Si  Si21  1  0.828577  0.171423  0.500967  1
  Si  Si22  1  0.166860  0.833140  0.499446  1
  Ir  Ir23  1  0.333333  0.666667  0.495637  1
