# generated using pymatgen
data_TbSmMn2(CuO5)2
_symmetry_space_group_name_H-M   'P 1'
_cell_length_a   5.66760500
_cell_length_b   7.62182002
_cell_length_c   8.53085727
_cell_angle_alpha   89.77098402
_cell_angle_beta   90.00000000
_cell_angle_gamma   90.00000000
_symmetry_Int_Tables_number   1
_chemical_formula_structural   TbSmMn2(CuO5)2
_chemical_formula_sum   'Tb2 Sm2 Mn4 Cu4 O20'
_cell_volume   368.50846646
_cell_formula_units_Z   2
loop_
 _symmetry_equiv_pos_site_id
 _symmetry_equiv_pos_as_xyz
  1  'x, y, z'
loop_
 _atom_site_type_symbol
 _atom_site_label
 _atom_site_symmetry_multiplicity
 _atom_site_fract_x
 _atom_site_fract_y
 _atom_site_fract_z
 _atom_site_occupancy
  Tb  Tb0  1  0.000000  0.850107  0.825656  1
  Tb  Tb1  1  0.000000  0.149893  0.174344  1
  Sm  Sm2  1  0.000000  0.349945  0.675023  1
  Sm  Sm3  1  0.000000  0.650055  0.324977  1
  Mn  Mn4  1  0.260648  0.500000  0.000000  1
  Mn  Mn5  1  0.740055  0.000000  0.500000  1
  Mn  Mn6  1  0.739352  0.500000  0.000000  1
  Mn  Mn7  1  0.259945  0.000000  0.500000  1
  Cu  Cu8  1  0.500000  0.067929  0.850085  1
  Cu  Cu9  1  0.500000  0.932071  0.149915  1
  Cu  Cu10  1  0.500000  0.571820  0.650466  1
  Cu  Cu11  1  0.500000  0.428180  0.349534  1
  O  O12  1  0.243336  0.911461  0.286056  1
  O  O13  1  0.243336  0.088539  0.713944  1
  O  O14  1  0.755437  0.403091  0.212228  1
  O  O15  1  0.755437  0.596909  0.787772  1
  O  O16  1  0.756664  0.088539  0.713944  1
  O  O17  1  0.756664  0.911461  0.286056  1
  O  O18  1  0.244563  0.596909  0.787772  1
  O  O19  1  0.244563  0.403091  0.212228  1
  O  O20  1  0.500000  0.348859  0.937661  1
  O  O21  1  0.500000  0.651141  0.062339  1
  O  O22  1  0.500000  0.846699  0.557150  1
  O  O23  1  0.500000  0.153301  0.442850  1
  O  O24  1  0.272901  0.000000  0.000000  1
  O  O25  1  0.723592  0.500000  0.500000  1
  O  O26  1  0.727099  0.000000  0.000000  1
  O  O27  1  0.276408  0.500000  0.500000  1
  O  O28  1  0.000000  0.162204  0.448014  1
  O  O29  1  0.000000  0.837796  0.551986  1
  O  O30  1  0.000000  0.662670  0.048565  1
  O  O31  1  0.000000  0.337330  0.951435  1
