# generated using pymatgen
data_CaTb5Si24Os3Ru5
_symmetry_space_group_name_H-M   'P 1'
_cell_length_a   10.13861434
_cell_length_b   10.13861450
_cell_length_c   8.15300900
_cell_angle_alpha   89.99728444
_cell_angle_beta   89.99728466
_cell_angle_gamma   132.53126334
_symmetry_Int_Tables_number   1
_chemical_formula_structural   CaTb5Si24Os3Ru5
_chemical_formula_sum   'Ca1 Tb5 Si24 Os3 Ru5'
_cell_volume   617.57364329
_cell_formula_units_Z   1
loop_
 _symmetry_equiv_pos_site_id
 _symmetry_equiv_pos_as_xyz
  1  'x, y, z'
loop_
 _atom_site_type_symbol
 _atom_site_label
 _atom_site_symmetry_multiplicity
 _atom_site_fract_x
 _atom_site_fract_y
 _atom_site_fract_z
 _atom_site_occupancy
  Ca  Ca0  1  0.500048  0.499952  0.500000  1
  Tb  Tb1  1  0.999980  0.000020  0.000000  1
  Tb  Tb2  1  0.501776  0.002017  0.749844  1
  Tb  Tb3  1  0.997983  0.498224  0.250156  1
  Tb  Tb4  1  0.498143  0.997885  0.249970  1
  Tb  Tb5  1  0.002115  0.501857  0.750030  1
  Si  Si6  1  0.796491  0.203509  0.500000  1
  Si  Si7  1  0.296137  0.703863  0.000000  1
  Si  Si8  1  0.203591  0.796409  0.500000  1
  Si  Si9  1  0.704367  0.295633  0.000000  1
  Si  Si10  1  0.333714  0.333404  0.832008  1
  Si  Si11  1  0.666596  0.666286  0.167992  1
  Si  Si12  1  0.168413  0.168524  0.333986  1
  Si  Si13  1  0.831476  0.831587  0.666014  1
  Si  Si14  1  0.122293  0.889135  0.727967  1
  Si  Si15  1  0.110865  0.877707  0.272033  1
  Si  Si16  1  0.611675  0.379001  0.228876  1
  Si  Si17  1  0.620999  0.388325  0.771124  1
  Si  Si18  1  0.877280  0.110760  0.271161  1
  Si  Si19  1  0.889240  0.122720  0.728839  1
  Si  Si20  1  0.389337  0.621954  0.770643  1
  Si  Si21  1  0.378046  0.610663  0.229357  1
  Si  Si22  1  0.345833  0.113994  0.505635  1
  Si  Si23  1  0.886006  0.654167  0.494365  1
  Si  Si24  1  0.388502  0.155951  0.004359  1
  Si  Si25  1  0.844049  0.611498  0.995641  1
  Si  Si26  1  0.654321  0.886068  0.494171  1
  Si  Si27  1  0.113932  0.345679  0.505829  1
  Si  Si28  1  0.612679  0.845516  0.994611  1
  Si  Si29  1  0.154484  0.387321  0.005389  1
  Os  Os30  1  0.670981  0.329019  0.500000  1
  Os  Os31  1  0.169940  0.830060  0.000000  1
  Os  Os32  1  0.329080  0.670920  0.500000  1
  Ru  Ru33  1  0.829853  0.170147  0.000000  1
  Ru  Ru34  1  0.124928  0.124926  0.627903  1
  Ru  Ru35  1  0.875074  0.875072  0.372097  1
  Ru  Ru36  1  0.372758  0.372984  0.125566  1
  Ru  Ru37  1  0.627016  0.627242  0.874434  1
