# generated using pymatgen
data_Mn4VZn3Rh8
_symmetry_space_group_name_H-M   'P 1'
_cell_length_a   6.03942700
_cell_length_b   6.03949300
_cell_length_c   6.01229900
_cell_angle_alpha   90.00000000
_cell_angle_beta   90.00025615
_cell_angle_gamma   90.00000000
_symmetry_Int_Tables_number   1
_chemical_formula_structural   Mn4VZn3Rh8
_chemical_formula_sum   'Mn4 V1 Zn3 Rh8'
_cell_volume   219.29906952
_cell_formula_units_Z   1
loop_
 _symmetry_equiv_pos_site_id
 _symmetry_equiv_pos_as_xyz
  1  'x, y, z'
loop_
 _atom_site_type_symbol
 _atom_site_label
 _atom_site_symmetry_multiplicity
 _atom_site_fract_x
 _atom_site_fract_y
 _atom_site_fract_z
 _atom_site_occupancy
  Mn  Mn0  1  0.750123  0.250000  0.999996  1
  Mn  Mn1  1  0.249826  0.750001  0.999975  1
  Mn  Mn2  1  0.250113  0.750001  0.500008  1
  Mn  Mn3  1  0.749869  0.250000  0.500024  1
  V  V4  1  0.249967  0.250000  0.000017  1
  Zn  Zn5  1  0.750081  0.750001  0.000010  1
  Zn  Zn6  1  0.250089  0.250000  0.500009  1
  Zn  Zn7  1  0.749925  0.750001  0.499996  1
  Rh  Rh8  1  0.497563  0.002452  0.245918  1
  Rh  Rh9  1  0.497563  0.497550  0.245918  1
  Rh  Rh10  1  0.002436  0.002468  0.246059  1
  Rh  Rh11  1  0.002436  0.497531  0.246059  1
  Rh  Rh12  1  0.002443  0.002470  0.753930  1
  Rh  Rh13  1  0.002443  0.497530  0.753930  1
  Rh  Rh14  1  0.497562  0.002453  0.754076  1
  Rh  Rh15  1  0.497562  0.497544  0.754076  1
