# generated using pymatgen
data_Ho15Lu5(Ir3Rh)3
_symmetry_space_group_name_H-M   'P 1'
_cell_length_a   10.80910918
_cell_length_b   10.80806714
_cell_length_c   6.34848300
_cell_angle_alpha   90.00931952
_cell_angle_beta   89.98957884
_cell_angle_gamma   89.99901567
_symmetry_Int_Tables_number   1
_chemical_formula_structural   Ho15Lu5(Ir3Rh)3
_chemical_formula_sum   'Ho15 Lu5 Ir9 Rh3'
_cell_volume   741.66517230
_cell_formula_units_Z   1
loop_
 _symmetry_equiv_pos_site_id
 _symmetry_equiv_pos_as_xyz
  1  'x, y, z'
loop_
 _atom_site_type_symbol
 _atom_site_label
 _atom_site_symmetry_multiplicity
 _atom_site_fract_x
 _atom_site_fract_y
 _atom_site_fract_z
 _atom_site_occupancy
  Ho  Ho0  1  0.289243  0.088607  0.378403  1
  Ho  Ho1  1  0.289730  0.911730  0.878430  1
  Ho  Ho2  1  0.710389  0.088392  0.878721  1
  Ho  Ho3  1  0.710176  0.912060  0.378798  1
  Ho  Ho4  1  0.588311  0.789732  0.878461  1
  Ho  Ho5  1  0.587950  0.210225  0.378800  1
  Ho  Ho6  1  0.411974  0.789856  0.378883  1
  Ho  Ho7  1  0.411595  0.210270  0.878795  1
  Ho  Ho8  1  0.209266  0.411511  0.620007  1
  Ho  Ho9  1  0.209679  0.587550  0.122136  1
  Ho  Ho10  1  0.790642  0.411527  0.122246  1
  Ho  Ho11  1  0.790686  0.587863  0.619839  1
  Ho  Ho12  1  0.911839  0.709778  0.122343  1
  Ho  Ho13  1  0.912488  0.290330  0.619903  1
  Ho  Ho14  1  0.087905  0.709369  0.619846  1
  Lu  Lu15  1  0.087960  0.291160  0.121824  1
  Lu  Lu16  1  0.000090  0.000092  0.500550  1
  Lu  Lu17  1  0.000299  0.000688  0.000669  1
  Lu  Lu18  1  0.499990  0.499819  0.000439  1
  Lu  Lu19  1  0.499891  0.499892  0.500393  1
  Ir  Ir20  1  0.848772  0.151904  0.249067  1
  Ir  Ir21  1  0.847854  0.848400  0.749885  1
  Ir  Ir22  1  0.151644  0.152497  0.752605  1
  Ir  Ir23  1  0.152457  0.848850  0.249941  1
  Ir  Ir24  1  0.651573  0.347790  0.749884  1
  Ir  Ir25  1  0.651083  0.652542  0.249968  1
  Ir  Ir26  1  0.347307  0.347394  0.248992  1
  Ir  Ir27  1  0.348341  0.652180  0.749980  1
  Ir  Ir28  1  0.000576  0.498884  0.374341  1
  Rh  Rh29  1  0.499847  0.000131  0.124221  1
  Rh  Rh30  1  0.499939  0.000188  0.624395  1
  Rh  Rh31  1  0.000503  0.498785  0.877231  1
