# generated using pymatgen
data_SrLa6NiBr12
_symmetry_space_group_name_H-M   'P 1'
_cell_length_a   9.61298723
_cell_length_b   9.61298632
_cell_length_c   9.61298700
_cell_angle_alpha   106.22767954
_cell_angle_beta   106.22768417
_cell_angle_gamma   106.22767521
_symmetry_Int_Tables_number   1
_chemical_formula_structural   SrLa6NiBr12
_chemical_formula_sum   'Sr1 La6 Ni1 Br12'
_cell_volume   754.85523507
_cell_formula_units_Z   1
loop_
 _symmetry_equiv_pos_site_id
 _symmetry_equiv_pos_as_xyz
  1  'x, y, z'
loop_
 _atom_site_type_symbol
 _atom_site_label
 _atom_site_symmetry_multiplicity
 _atom_site_fract_x
 _atom_site_fract_y
 _atom_site_fract_z
 _atom_site_occupancy
  Sr  Sr0  1  0.500000  0.500000  0.500000  1
  La  La1  1  0.102937  0.313746  0.020736  1
  La  La2  1  0.020736  0.102937  0.313746  1
  La  La3  1  0.313746  0.020736  0.102937  1
  La  La4  1  0.897063  0.686254  0.979264  1
  La  La5  1  0.979264  0.897063  0.686254  1
  La  La6  1  0.686254  0.979264  0.897063  1
  Ni  Ni7  1  0.000000  0.000000  0.000000  1
  Br  Br8  1  0.450713  0.370186  0.150907  1
  Br  Br9  1  0.150907  0.450713  0.370186  1
  Br  Br10  1  0.370186  0.150907  0.450713  1
  Br  Br11  1  0.549287  0.629814  0.849093  1
  Br  Br12  1  0.849093  0.549287  0.629814  1
  Br  Br13  1  0.629814  0.849093  0.549287  1
  Br  Br14  1  0.776524  0.320379  0.926703  1
  Br  Br15  1  0.926703  0.776524  0.320379  1
  Br  Br16  1  0.320379  0.926703  0.776524  1
  Br  Br17  1  0.223476  0.679621  0.073297  1
  Br  Br18  1  0.073297  0.223476  0.679621  1
  Br  Br19  1  0.679621  0.073297  0.223476  1
