# generated using pymatgen
data_CaNi2Te3(ClO4)2
_symmetry_space_group_name_H-M   'P 1'
_cell_length_a   9.17154300
_cell_length_b   6.62204108
_cell_length_c   19.06632428
_cell_angle_alpha   73.40879751
_cell_angle_beta   90.00000000
_cell_angle_gamma   90.00000000
_symmetry_Int_Tables_number   1
_chemical_formula_structural   CaNi2Te3(ClO4)2
_chemical_formula_sum   'Ca4 Ni8 Te12 Cl8 O32'
_cell_volume   1109.76965218
_cell_formula_units_Z   4
loop_
 _symmetry_equiv_pos_site_id
 _symmetry_equiv_pos_as_xyz
  1  'x, y, z'
loop_
 _atom_site_type_symbol
 _atom_site_label
 _atom_site_symmetry_multiplicity
 _atom_site_fract_x
 _atom_site_fract_y
 _atom_site_fract_z
 _atom_site_occupancy
  Ca  Ca0  1  0.114026  0.511056  0.730075  1
  Ca  Ca1  1  0.385974  0.511056  0.230075  1
  Ca  Ca2  1  0.885974  0.488944  0.269925  1
  Ca  Ca3  1  0.614026  0.488944  0.769925  1
  Ni  Ni4  1  0.246561  0.064070  0.323575  1
  Ni  Ni5  1  0.753439  0.935930  0.676425  1
  Ni  Ni6  1  0.459984  0.193235  0.679461  1
  Ni  Ni7  1  0.959984  0.806765  0.820539  1
  Ni  Ni8  1  0.253439  0.064070  0.823575  1
  Ni  Ni9  1  0.540016  0.806765  0.320539  1
  Ni  Ni10  1  0.040016  0.193235  0.179461  1
  Ni  Ni11  1  0.746561  0.935930  0.176425  1
  Te  Te12  1  0.294359  0.542076  0.890823  1
  Te  Te13  1  0.079152  0.775578  0.112115  1
  Te  Te14  1  0.392143  0.091644  0.139449  1
  Te  Te15  1  0.107857  0.091644  0.639449  1
  Te  Te16  1  0.420848  0.775578  0.612115  1
  Te  Te17  1  0.607857  0.908356  0.860551  1
  Te  Te18  1  0.579152  0.224422  0.387885  1
  Te  Te19  1  0.892143  0.908356  0.360551  1
  Te  Te20  1  0.920848  0.224422  0.887885  1
  Te  Te21  1  0.794359  0.457924  0.609177  1
  Te  Te22  1  0.705641  0.457924  0.109177  1
  Te  Te23  1  0.205641  0.542076  0.390823  1
  Cl  Cl24  1  0.680314  0.092352  0.046835  1
  Cl  Cl25  1  0.819686  0.092352  0.546835  1
  Cl  Cl26  1  0.319686  0.907648  0.953165  1
  Cl  Cl27  1  0.105610  0.259874  0.050075  1
  Cl  Cl28  1  0.180314  0.907648  0.453165  1
  Cl  Cl29  1  0.605610  0.740126  0.449925  1
  Cl  Cl30  1  0.394390  0.259874  0.550075  1
  Cl  Cl31  1  0.894390  0.740126  0.949925  1
  O  O32  1  0.012088  0.626569  0.354398  1
  O  O33  1  0.265922  0.170718  0.207107  1
  O  O34  1  0.808971  0.235964  0.176211  1
  O  O35  1  0.234078  0.170718  0.707107  1
  O  O36  1  0.023657  0.102688  0.823600  1
  O  O37  1  0.228168  0.806378  0.648518  1
  O  O38  1  0.977754  0.904911  0.705258  1
  O  O39  1  0.512088  0.373431  0.145602  1
  O  O40  1  0.733483  0.633028  0.170847  1
  O  O41  1  0.061245  0.502735  0.178509  1
  O  O42  1  0.728168  0.193622  0.851482  1
  O  O43  1  0.022246  0.095089  0.294742  1
  O  O44  1  0.765922  0.829282  0.292893  1
  O  O45  1  0.191029  0.764036  0.823789  1
  O  O46  1  0.271832  0.806378  0.148518  1
  O  O47  1  0.691029  0.235964  0.676211  1
  O  O48  1  0.976343  0.897312  0.176400  1
  O  O49  1  0.233483  0.366972  0.329153  1
  O  O50  1  0.523657  0.897312  0.676400  1
  O  O51  1  0.438755  0.502735  0.678509  1
  O  O52  1  0.308971  0.764036  0.323789  1
  O  O53  1  0.561245  0.497265  0.321491  1
  O  O54  1  0.734078  0.829282  0.792893  1
  O  O55  1  0.266517  0.366972  0.829153  1
  O  O56  1  0.477754  0.095089  0.794742  1
  O  O57  1  0.771832  0.193622  0.351482  1
  O  O58  1  0.987912  0.373431  0.645602  1
  O  O59  1  0.938755  0.497265  0.821491  1
  O  O60  1  0.476343  0.102688  0.323600  1
  O  O61  1  0.522246  0.904911  0.205258  1
  O  O62  1  0.487912  0.626569  0.854398  1
  O  O63  1  0.766517  0.633028  0.670847  1
