# generated using pymatgen
data_Ho3Lu3Zn23P
_symmetry_space_group_name_H-M   'P 1'
_cell_length_a   8.98607169
_cell_length_b   8.98577005
_cell_length_c   8.98583000
_cell_angle_alpha   59.99925657
_cell_angle_beta   60.00054369
_cell_angle_gamma   60.00102344
_symmetry_Int_Tables_number   1
_chemical_formula_structural   Ho3Lu3Zn23P
_chemical_formula_sum   'Ho3 Lu3 Zn23 P1'
_cell_volume   513.06345742
_cell_formula_units_Z   1
loop_
 _symmetry_equiv_pos_site_id
 _symmetry_equiv_pos_as_xyz
  1  'x, y, z'
loop_
 _atom_site_type_symbol
 _atom_site_label
 _atom_site_symmetry_multiplicity
 _atom_site_fract_x
 _atom_site_fract_y
 _atom_site_fract_z
 _atom_site_occupancy
  Ho  Ho0  1  0.289103  0.711203  0.711206  1
  Ho  Ho1  1  0.289100  0.711196  0.288509  1
  Ho  Ho2  1  0.289105  0.288496  0.711198  1
  Lu  Lu3  1  0.710914  0.289491  0.289449  1
  Lu  Lu4  1  0.710835  0.289531  0.710104  1
  Lu  Lu5  1  0.710888  0.710152  0.289476  1
  Zn  Zn6  1  0.628804  0.123735  0.123733  1
  Zn  Zn7  1  0.122380  0.626292  0.125667  1
  Zn  Zn8  1  0.122369  0.125670  0.626287  1
  Zn  Zn9  1  0.122389  0.125663  0.125658  1
  Zn  Zn10  1  0.375144  0.874946  0.874963  1
  Zn  Zn11  1  0.873813  0.372381  0.876907  1
  Zn  Zn12  1  0.873834  0.876890  0.372377  1
  Zn  Zn13  1  0.873830  0.876895  0.876900  1
  Zn  Zn14  1  0.501392  0.999764  0.999773  1
  Zn  Zn15  1  0.501403  0.999757  0.499078  1
  Zn  Zn16  1  0.501402  0.499063  0.999765  1
  Zn  Zn17  1  0.999695  0.499763  0.499779  1
  Zn  Zn18  1  0.999689  0.499766  0.000778  1
  Zn  Zn19  1  0.999691  0.000770  0.499776  1
  Zn  Zn20  1  0.001309  0.999573  0.999564  1
  Zn  Zn21  1  0.009423  0.330190  0.330193  1
  Zn  Zn22  1  0.330055  0.012265  0.328846  1
  Zn  Zn23  1  0.330048  0.328840  0.012267  1
  Zn  Zn24  1  0.330050  0.328838  0.328847  1
  Zn  Zn25  1  0.986376  0.671208  0.671211  1
  Zn  Zn26  1  0.671125  0.989085  0.669895  1
  Zn  Zn27  1  0.671116  0.669889  0.989105  1
  Zn  Zn28  1  0.671124  0.669888  0.669893  1
  P  P29  1  0.503594  0.498804  0.498799  1
