# generated using pymatgen
data_ScMn3Fe2(B2Rh5)2
_symmetry_space_group_name_H-M   'P 1'
_cell_length_a   9.34643427
_cell_length_b   9.34643427
_cell_length_c   2.96041200
_cell_angle_alpha   90.00000000
_cell_angle_beta   90.00000000
_cell_angle_gamma   89.42108326
_symmetry_Int_Tables_number   1
_chemical_formula_structural   ScMn3Fe2(B2Rh5)2
_chemical_formula_sum   'Sc1 Mn3 Fe2 B4 Rh10'
_cell_volume   258.59605740
_cell_formula_units_Z   1
loop_
 _symmetry_equiv_pos_site_id
 _symmetry_equiv_pos_as_xyz
  1  'x, y, z'
loop_
 _atom_site_type_symbol
 _atom_site_label
 _atom_site_symmetry_multiplicity
 _atom_site_fract_x
 _atom_site_fract_y
 _atom_site_fract_z
 _atom_site_occupancy
  Sc  Sc0  1  0.824702  0.324702  0.000000  1
  Mn  Mn1  1  0.323318  0.176445  0.000000  1
  Mn  Mn2  1  0.676445  0.823318  0.000000  1
  Mn  Mn3  1  0.178883  0.678883  0.000000  1
  Fe  Fe4  1  0.000209  0.999191  0.000000  1
  Fe  Fe5  1  0.499191  0.500209  0.000000  1
  B  B6  1  0.623276  0.123276  0.000000  1
  B  B7  1  0.128275  0.372167  0.000000  1
  B  B8  1  0.872167  0.628275  0.000000  1
  B  B9  1  0.372797  0.872797  0.000000  1
  Rh  Rh10  1  0.072602  0.214383  0.500000  1
  Rh  Rh11  1  0.214456  0.929788  0.500000  1
  Rh  Rh12  1  0.783854  0.068214  0.500000  1
  Rh  Rh13  1  0.929707  0.785596  0.500000  1
  Rh  Rh14  1  0.429788  0.714456  0.500000  1
  Rh  Rh15  1  0.568214  0.283854  0.500000  1
  Rh  Rh16  1  0.714383  0.572602  0.500000  1
  Rh  Rh17  1  0.285596  0.429707  0.500000  1
  Rh  Rh18  1  0.499202  0.999202  0.500000  1
  Rh  Rh19  1  0.002936  0.502936  0.500000  1
