# generated using pymatgen
data_PrNd15(PaRh4)4
_symmetry_space_group_name_H-M   'P 1'
_cell_length_a   7.58773169
_cell_length_b   7.66185072
_cell_length_c   14.79428100
_cell_angle_alpha   90.21236243
_cell_angle_beta   90.16295312
_cell_angle_gamma   90.32284496
_symmetry_Int_Tables_number   1
_chemical_formula_structural   PrNd15(PaRh4)4
_chemical_formula_sum   'Pr1 Nd15 Pa4 Rh16'
_cell_volume   860.05822713
_cell_formula_units_Z   1
loop_
 _symmetry_equiv_pos_site_id
 _symmetry_equiv_pos_as_xyz
  1  'x, y, z'
loop_
 _atom_site_type_symbol
 _atom_site_label
 _atom_site_symmetry_multiplicity
 _atom_site_fract_x
 _atom_site_fract_y
 _atom_site_fract_z
 _atom_site_occupancy
  Pr  Pr0  1  0.666430  0.159293  0.618438  1
  Nd  Nd1  1  0.833658  0.660143  0.121730  1
  Nd  Nd2  1  0.666484  0.160341  0.881257  1
  Nd  Nd3  1  0.164216  0.337632  0.619686  1
  Nd  Nd4  1  0.509768  0.679377  0.589958  1
  Nd  Nd5  1  0.013695  0.819719  0.905958  1
  Nd  Nd6  1  0.483946  0.316468  0.093799  1
  Nd  Nd7  1  0.991895  0.177513  0.407300  1
  Nd  Nd8  1  0.489136  0.319870  0.405469  1
  Nd  Nd9  1  0.985545  0.178247  0.086925  1
  Nd  Nd10  1  0.516455  0.677229  0.909449  1
  Nd  Nd11  1  0.008765  0.817230  0.593407  1
  Nd  Nd12  1  0.814695  0.511669  0.748294  1
  Nd  Nd13  1  0.327197  0.981902  0.749275  1
  Nd  Nd14  1  0.178298  0.478553  0.247536  1
  Nd  Nd15  1  0.689804  0.021017  0.249346  1
  Pa  Pa16  1  0.165002  0.341047  0.875847  1
  Pa  Pa17  1  0.335925  0.846488  0.122697  1
  Pa  Pa18  1  0.839944  0.657155  0.376439  1
  Pa  Pa19  1  0.339234  0.840996  0.376145  1
  Rh  Rh20  1  0.676752  0.933552  0.451744  1
  Rh  Rh21  1  0.208640  0.564000  0.037864  1
  Rh  Rh22  1  0.294802  0.054998  0.968779  1
  Rh  Rh23  1  0.818089  0.478678  0.527027  1
  Rh  Rh24  1  0.314195  0.020528  0.524742  1
  Rh  Rh25  1  0.869433  0.456388  0.952090  1
  Rh  Rh26  1  0.641074  0.957997  0.049030  1
  Rh  Rh27  1  0.178429  0.560367  0.452215  1
  Rh  Rh28  1  0.440251  0.369959  0.763437  1
  Rh  Rh29  1  0.972493  0.126461  0.757798  1
  Rh  Rh30  1  0.528531  0.645870  0.258349  1
  Rh  Rh31  1  0.046598  0.856547  0.258598  1
  Rh  Rh32  1  0.706259  0.863804  0.751700  1
  Rh  Rh33  1  0.187484  0.628907  0.758812  1
  Rh  Rh34  1  0.305213  0.110293  0.247015  1
  Rh  Rh35  1  0.791668  0.389754  0.261845  1
