# generated using pymatgen
data_Be8Pt9
_symmetry_space_group_name_H-M   'P 1'
_cell_length_a   4.92175949
_cell_length_b   6.30692872
_cell_length_c   6.90148131
_cell_angle_alpha   79.54969747
_cell_angle_beta   89.79285925
_cell_angle_gamma   105.10621556
_symmetry_Int_Tables_number   1
_chemical_formula_structural   Be8Pt9
_chemical_formula_sum   'Be8 Pt9'
_cell_volume   203.10424439
_cell_formula_units_Z   1
loop_
 _symmetry_equiv_pos_site_id
 _symmetry_equiv_pos_as_xyz
  1  'x, y, z'
loop_
 _atom_site_type_symbol
 _atom_site_label
 _atom_site_symmetry_multiplicity
 _atom_site_fract_x
 _atom_site_fract_y
 _atom_site_fract_z
 _atom_site_occupancy
  Be  Be0  1  0.159769  0.334152  0.574427  1
  Be  Be1  1  0.059402  0.006299  0.131752  1
  Be  Be2  1  0.726864  0.998384  0.800106  1
  Be  Be3  1  0.385384  0.002079  0.458198  1
  Be  Be4  1  0.612732  0.665063  0.350861  1
  Be  Be5  1  0.282348  0.667854  0.023668  1
  Be  Be6  1  0.939588  0.672270  0.681703  1
  Be  Be7  1  0.509360  0.336228  0.909698  1
  Pt  Pt8  1  0.442309  0.668412  0.686169  1
  Pt  Pt9  1  0.782467  0.667943  0.019700  1
  Pt  Pt10  1  0.110169  0.667211  0.352345  1
  Pt  Pt11  1  0.558793  0.003408  0.130460  1
  Pt  Pt12  1  0.665923  0.335128  0.574469  1
  Pt  Pt13  1  0.002967  0.335299  0.909485  1
  Pt  Pt14  1  0.886188  0.003323  0.462822  1
  Pt  Pt15  1  0.334910  0.335751  0.241891  1
  Pt  Pt16  1  0.225495  0.002078  0.796431  1
