# generated using pymatgen
data_Dy5Lu15Cd6FeRu
_symmetry_space_group_name_H-M   'P 1'
_cell_length_a   9.41600201
_cell_length_b   9.41569919
_cell_length_c   9.63229000
_cell_angle_alpha   90.00000000
_cell_angle_beta   90.00000000
_cell_angle_gamma   119.88920206
_symmetry_Int_Tables_number   1
_chemical_formula_structural   Dy5Lu15Cd6FeRu
_chemical_formula_sum   'Dy5 Lu15 Cd6 Fe1 Ru1'
_cell_volume   740.39434897
_cell_formula_units_Z   1
loop_
 _symmetry_equiv_pos_site_id
 _symmetry_equiv_pos_as_xyz
  1  'x, y, z'
loop_
 _atom_site_type_symbol
 _atom_site_label
 _atom_site_symmetry_multiplicity
 _atom_site_fract_x
 _atom_site_fract_y
 _atom_site_fract_z
 _atom_site_occupancy
  Dy  Dy0  1  0.539311  0.079132  0.250000  1
  Dy  Dy1  1  0.920825  0.460660  0.250000  1
  Dy  Dy2  1  0.459336  0.540655  0.750000  1
  Dy  Dy3  1  0.459478  0.919592  0.750000  1
  Dy  Dy4  1  0.080393  0.540521  0.750000  1
  Lu  Lu5  1  0.000321  0.999681  0.499711  1
  Lu  Lu6  1  0.000321  0.999681  0.000289  1
  Lu  Lu7  1  0.212412  0.787565  0.436476  1
  Lu  Lu8  1  0.213497  0.424747  0.436197  1
  Lu  Lu9  1  0.575262  0.786505  0.436187  1
  Lu  Lu10  1  0.790239  0.209764  0.559221  1
  Lu  Lu11  1  0.789078  0.580034  0.558694  1
  Lu  Lu12  1  0.419955  0.210913  0.558695  1
  Lu  Lu13  1  0.790239  0.209764  0.940779  1
  Lu  Lu14  1  0.789078  0.580034  0.941306  1
  Lu  Lu15  1  0.419955  0.210913  0.941305  1
  Lu  Lu16  1  0.212412  0.787565  0.063524  1
  Lu  Lu17  1  0.213497  0.424747  0.063803  1
  Lu  Lu18  1  0.575262  0.786505  0.063813  1
  Lu  Lu19  1  0.538431  0.461558  0.250000  1
  Cd  Cd20  1  0.886261  0.113731  0.250000  1
  Cd  Cd21  1  0.884271  0.771393  0.250000  1
  Cd  Cd22  1  0.228607  0.115776  0.250000  1
  Cd  Cd23  1  0.113421  0.886656  0.750000  1
  Cd  Cd24  1  0.113833  0.226510  0.750000  1
  Cd  Cd25  1  0.773482  0.886180  0.750000  1
  Fe  Fe26  1  0.333947  0.666076  0.250000  1
  Ru  Ru27  1  0.666880  0.333144  0.750000  1
