# generated using pymatgen
data_HoLu3(AlRu)4
_symmetry_space_group_name_H-M   'P 1'
_cell_length_a   3.97617800
_cell_length_b   6.96513262
_cell_length_c   8.03054888
_cell_angle_alpha   90.23052033
_cell_angle_beta   90.00000000
_cell_angle_gamma   90.00000000
_symmetry_Int_Tables_number   1
_chemical_formula_structural   HoLu3(AlRu)4
_chemical_formula_sum   'Ho1 Lu3 Al4 Ru4'
_cell_volume   222.40109617
_cell_formula_units_Z   1
loop_
 _symmetry_equiv_pos_site_id
 _symmetry_equiv_pos_as_xyz
  1  'x, y, z'
loop_
 _atom_site_type_symbol
 _atom_site_label
 _atom_site_symmetry_multiplicity
 _atom_site_fract_x
 _atom_site_fract_y
 _atom_site_fract_z
 _atom_site_occupancy
  Ho  Ho0  1  0.250000  0.032967  0.323421  1
  Lu  Lu1  1  0.250000  0.535111  0.174334  1
  Lu  Lu2  1  0.750000  0.466289  0.824712  1
  Lu  Lu3  1  0.750000  0.964975  0.676493  1
  Al  Al4  1  0.250000  0.635352  0.558241  1
  Al  Al5  1  0.750000  0.363814  0.443858  1
  Al  Al6  1  0.750000  0.863459  0.056818  1
  Al  Al7  1  0.250000  0.137224  0.941753  1
  Ru  Ru8  1  0.250000  0.768178  0.870058  1
  Ru  Ru9  1  0.750000  0.237149  0.127643  1
  Ru  Ru10  1  0.750000  0.728320  0.370653  1
  Ru  Ru11  1  0.250000  0.267163  0.632013  1
