# generated using pymatgen
data_Tb3Ho7(In2Ni)4
_symmetry_space_group_name_H-M   'P 1'
_cell_length_a   3.59174100
_cell_length_b   8.01112528
_cell_length_c   17.95785463
_cell_angle_alpha   89.96975854
_cell_angle_beta   90.00000000
_cell_angle_gamma   90.00000000
_symmetry_Int_Tables_number   1
_chemical_formula_structural   Tb3Ho7(In2Ni)4
_chemical_formula_sum   'Tb3 Ho7 In8 Ni4'
_cell_volume   516.71720994
_cell_formula_units_Z   1
loop_
 _symmetry_equiv_pos_site_id
 _symmetry_equiv_pos_as_xyz
  1  'x, y, z'
loop_
 _atom_site_type_symbol
 _atom_site_label
 _atom_site_symmetry_multiplicity
 _atom_site_fract_x
 _atom_site_fract_y
 _atom_site_fract_z
 _atom_site_occupancy
  Tb  Tb0  1  0.000000  0.499194  0.500246  1
  Tb  Tb1  1  0.000000  0.000127  0.999854  1
  Tb  Tb2  1  0.000000  0.117622  0.411932  1
  Ho  Ho3  1  0.000000  0.746492  0.277747  1
  Ho  Ho4  1  0.000000  0.253858  0.722083  1
  Ho  Ho5  1  0.000000  0.753920  0.778468  1
  Ho  Ho6  1  0.000000  0.246371  0.221336  1
  Ho  Ho7  1  0.000000  0.617527  0.088393  1
  Ho  Ho8  1  0.000000  0.382671  0.911419  1
  Ho  Ho9  1  0.000000  0.881960  0.588893  1
  In  In10  1  0.500000  0.704184  0.930940  1
  In  In11  1  0.500000  0.296504  0.068842  1
  In  In12  1  0.500000  0.793350  0.430600  1
  In  In13  1  0.500000  0.204158  0.570224  1
  In  In14  1  0.500000  0.572039  0.652404  1
  In  In15  1  0.500000  0.429217  0.347450  1
  In  In16  1  0.500000  0.927187  0.151846  1
  In  In17  1  0.500000  0.072592  0.847993  1
  Ni  Ni18  1  0.500000  0.522739  0.195224  1
  Ni  Ni19  1  0.500000  0.477070  0.804176  1
  Ni  Ni20  1  0.500000  0.977140  0.696257  1
  Ni  Ni21  1  0.500000  0.024077  0.303672  1
