# generated using pymatgen
data_Er3LuMnOsC4
_symmetry_space_group_name_H-M   'P 1'
_cell_length_a   5.00465600
_cell_length_b   6.36137732
_cell_length_c   9.60447407
_cell_angle_alpha   90.74589801
_cell_angle_beta   90.00000000
_cell_angle_gamma   90.00000000
_symmetry_Int_Tables_number   1
_chemical_formula_structural   Er3LuMnOsC4
_chemical_formula_sum   'Er6 Lu2 Mn2 Os2 C8'
_cell_volume   305.74697777
_cell_formula_units_Z   2
loop_
 _symmetry_equiv_pos_site_id
 _symmetry_equiv_pos_as_xyz
  1  'x, y, z'
loop_
 _atom_site_type_symbol
 _atom_site_label
 _atom_site_symmetry_multiplicity
 _atom_site_fract_x
 _atom_site_fract_y
 _atom_site_fract_z
 _atom_site_occupancy
  Er  Er0  1  0.750000  0.820229  0.053014  1
  Er  Er1  1  0.250000  0.179771  0.946986  1
  Er  Er2  1  0.250000  0.525440  0.218221  1
  Er  Er3  1  0.750000  0.474560  0.781779  1
  Er  Er4  1  0.750000  0.974520  0.713947  1
  Er  Er5  1  0.250000  0.025480  0.286053  1
  Lu  Lu6  1  0.250000  0.679746  0.557530  1
  Lu  Lu7  1  0.750000  0.320254  0.442470  1
  Mn  Mn8  1  0.250000  0.726770  0.862035  1
  Mn  Mn9  1  0.750000  0.273230  0.137965  1
  Os  Os10  1  0.750000  0.776156  0.363802  1
  Os  Os11  1  0.250000  0.223844  0.636198  1
  C  C12  1  0.250000  0.467785  0.763730  1
  C  C13  1  0.750000  0.532215  0.236270  1
  C  C14  1  0.750000  0.047978  0.255748  1
  C  C15  1  0.250000  0.952022  0.744252  1
  C  C16  1  0.250000  0.814682  0.040962  1
  C  C17  1  0.750000  0.185318  0.959038  1
  C  C18  1  0.750000  0.672587  0.553066  1
  C  C19  1  0.250000  0.327413  0.446934  1
