# generated using pymatgen
data_Tb10Sn6PCl
_symmetry_space_group_name_H-M   'P 1'
_cell_length_a   9.12115200
_cell_length_b   9.12115343
_cell_length_c   6.71124900
_cell_angle_alpha   90.00000000
_cell_angle_beta   90.00000000
_cell_angle_gamma   119.99999480
_symmetry_Int_Tables_number   1
_chemical_formula_structural   Tb10Sn6PCl
_chemical_formula_sum   'Tb10 Sn6 P1 Cl1'
_cell_volume   483.54117473
_cell_formula_units_Z   1
loop_
 _symmetry_equiv_pos_site_id
 _symmetry_equiv_pos_as_xyz
  1  'x, y, z'
loop_
 _atom_site_type_symbol
 _atom_site_label
 _atom_site_symmetry_multiplicity
 _atom_site_fract_x
 _atom_site_fract_y
 _atom_site_fract_z
 _atom_site_occupancy
  Tb  Tb0  1  0.248399  0.248399  0.760072  1
  Tb  Tb1  1  0.000000  0.751601  0.760072  1
  Tb  Tb2  1  0.248399  0.000000  0.239928  1
  Tb  Tb3  1  0.751601  0.000000  0.760072  1
  Tb  Tb4  1  0.333333  0.666667  0.500000  1
  Tb  Tb5  1  0.666667  0.333333  0.500000  1
  Tb  Tb6  1  0.751601  0.751601  0.239928  1
  Tb  Tb7  1  0.000000  0.248399  0.239928  1
  Tb  Tb8  1  0.333333  0.666667  0.000000  1
  Tb  Tb9  1  0.666667  0.333333  0.000000  1
  Sn  Sn10  1  0.603782  0.000000  0.249607  1
  Sn  Sn11  1  0.000000  0.603782  0.249607  1
  Sn  Sn12  1  0.603782  0.603782  0.750393  1
  Sn  Sn13  1  0.396218  0.396218  0.249607  1
  Sn  Sn14  1  0.000000  0.396218  0.750393  1
  Sn  Sn15  1  0.396218  0.000000  0.750393  1
  P  P16  1  0.000000  0.000000  0.000000  1
  Cl  Cl17  1  0.000000  0.000000  0.500000  1
