# generated using pymatgen
data_La4InPt3F28
_symmetry_space_group_name_H-M   'P 1'
_cell_length_a   5.79895841
_cell_length_b   9.36544891
_cell_length_c   12.57136049
_cell_angle_alpha   62.28211204
_cell_angle_beta   89.71537051
_cell_angle_gamma   90.09416783
_symmetry_Int_Tables_number   1
_chemical_formula_structural   La4InPt3F28
_chemical_formula_sum   'La4 In1 Pt3 F28'
_cell_volume   604.38873407
_cell_formula_units_Z   1
loop_
 _symmetry_equiv_pos_site_id
 _symmetry_equiv_pos_as_xyz
  1  'x, y, z'
loop_
 _atom_site_type_symbol
 _atom_site_label
 _atom_site_symmetry_multiplicity
 _atom_site_fract_x
 _atom_site_fract_y
 _atom_site_fract_z
 _atom_site_occupancy
  La  La0  1  0.763801  0.808224  0.766533  1
  La  La1  1  0.260434  0.190057  0.738539  1
  La  La2  1  0.242545  0.193212  0.226525  1
  La  La3  1  0.739363  0.820882  0.257124  1
  In  In4  1  0.754700  0.275841  0.955863  1
  Pt  Pt5  1  0.258018  0.729265  0.540205  1
  Pt  Pt6  1  0.242355  0.724715  0.045351  1
  Pt  Pt7  1  0.743422  0.275794  0.455304  1
  F  F8  1  0.424009  0.707070  0.920399  1
  F  F9  1  0.928554  0.294238  0.577736  1
  F  F10  1  0.554859  0.286519  0.091646  1
  F  F11  1  0.073224  0.708477  0.418536  1
  F  F12  1  0.458168  0.283040  0.537454  1
  F  F13  1  0.954887  0.720410  0.964616  1
  F  F14  1  0.544610  0.720139  0.459941  1
  F  F15  1  0.056859  0.281247  0.046020  1
  F  F16  1  0.770436  0.529514  0.857629  1
  F  F17  1  0.264219  0.494746  0.630796  1
  F  F18  1  0.230476  0.490524  0.140909  1
  F  F19  1  0.736740  0.510908  0.362964  1
  F  F20  1  0.763822  0.021346  0.059664  1
  F  F21  1  0.259024  0.963491  0.452738  1
  F  F22  1  0.246665  0.959364  0.956173  1
  F  F23  1  0.743762  0.041000  0.544908  1
  F  F24  1  0.974280  0.733812  0.623818  1
  F  F25  1  0.462676  0.268819  0.860943  1
  F  F26  1  0.025680  0.271880  0.370558  1
  F  F27  1  0.525599  0.722491  0.130651  1
  F  F28  1  0.063915  0.736406  0.174010  1
  F  F29  1  0.558387  0.258892  0.331756  1
  F  F30  1  0.949121  0.251598  0.823607  1
  F  F31  1  0.439603  0.746189  0.665384  1
  F  F32  1  0.400489  0.960140  0.235105  1
  F  F33  1  0.909995  0.028660  0.274308  1
  F  F34  1  0.585574  0.025484  0.768630  1
  F  F35  1  0.089727  0.965606  0.733658  1
