# generated using pymatgen
data_Y20Hg6IrRu
_symmetry_space_group_name_H-M   'P 1'
_cell_length_a   9.69641500
_cell_length_b   9.69640793
_cell_length_c   9.69264200
_cell_angle_alpha   90.00000000
_cell_angle_beta   90.00000000
_cell_angle_gamma   119.99998932
_symmetry_Int_Tables_number   1
_chemical_formula_structural   Y20Hg6IrRu
_chemical_formula_sum   'Y20 Hg6 Ir1 Ru1'
_cell_volume   789.21425988
_cell_formula_units_Z   1
loop_
 _symmetry_equiv_pos_site_id
 _symmetry_equiv_pos_as_xyz
  1  'x, y, z'
loop_
 _atom_site_type_symbol
 _atom_site_label
 _atom_site_symmetry_multiplicity
 _atom_site_fract_x
 _atom_site_fract_y
 _atom_site_fract_z
 _atom_site_occupancy
  Y  Y0  1  0.000000  0.000000  0.499489  1
  Y  Y1  1  0.000000  0.000000  0.000511  1
  Y  Y2  1  0.208684  0.791317  0.440162  1
  Y  Y3  1  0.208683  0.417367  0.440162  1
  Y  Y4  1  0.582634  0.791317  0.440161  1
  Y  Y5  1  0.790780  0.209220  0.560581  1
  Y  Y6  1  0.790780  0.581559  0.560580  1
  Y  Y7  1  0.418442  0.209220  0.560580  1
  Y  Y8  1  0.790780  0.209220  0.939419  1
  Y  Y9  1  0.790780  0.581559  0.939420  1
  Y  Y10  1  0.418442  0.209220  0.939420  1
  Y  Y11  1  0.208684  0.791317  0.059838  1
  Y  Y12  1  0.208683  0.417367  0.059838  1
  Y  Y13  1  0.582634  0.791317  0.059839  1
  Y  Y14  1  0.541094  0.458906  0.250000  1
  Y  Y15  1  0.541094  0.082189  0.250000  1
  Y  Y16  1  0.917811  0.458906  0.250000  1
  Y  Y17  1  0.459088  0.540913  0.750000  1
  Y  Y18  1  0.459088  0.918175  0.750000  1
  Y  Y19  1  0.081825  0.540912  0.750000  1
  Hg  Hg20  1  0.880829  0.119171  0.250000  1
  Hg  Hg21  1  0.880829  0.761658  0.250000  1
  Hg  Hg22  1  0.238342  0.119171  0.250000  1
  Hg  Hg23  1  0.119094  0.880906  0.750000  1
  Hg  Hg24  1  0.119094  0.238187  0.750000  1
  Hg  Hg25  1  0.761813  0.880906  0.750000  1
  Ir  Ir26  1  0.333333  0.666667  0.250000  1
  Ru  Ru27  1  0.666667  0.333334  0.750000  1
