# generated using pymatgen
data_Ga2Ni(SeO3)4
_symmetry_space_group_name_H-M   'P 1'
_cell_length_a   4.69822000
_cell_length_b   8.54907924
_cell_length_c   15.08877982
_cell_angle_alpha   70.86506770
_cell_angle_beta   89.99981654
_cell_angle_gamma   89.99987804
_symmetry_Int_Tables_number   1
_chemical_formula_structural   Ga2Ni(SeO3)4
_chemical_formula_sum   'Ga4 Ni2 Se8 O24'
_cell_volume   572.56310999
_cell_formula_units_Z   2
loop_
 _symmetry_equiv_pos_site_id
 _symmetry_equiv_pos_as_xyz
  1  'x, y, z'
loop_
 _atom_site_type_symbol
 _atom_site_label
 _atom_site_symmetry_multiplicity
 _atom_site_fract_x
 _atom_site_fract_y
 _atom_site_fract_z
 _atom_site_occupancy
  Ga  Ga0  1  0.526257  0.142074  0.791363  1
  Ga  Ga1  1  0.973739  0.142076  0.291364  1
  Ga  Ga2  1  0.473743  0.857926  0.208637  1
  Ga  Ga3  1  0.026261  0.857924  0.708636  1
  Ni  Ni4  1  0.000000  0.000000  0.000000  1
  Ni  Ni5  1  0.500000  0.000000  0.500000  1
  Se  Se6  1  0.568745  0.786490  0.881822  1
  Se  Se7  1  0.931255  0.786493  0.381822  1
  Se  Se8  1  0.431255  0.213510  0.118178  1
  Se  Se9  1  0.068745  0.213507  0.618178  1
  Se  Se10  1  0.010141  0.336405  0.870532  1
  Se  Se11  1  0.489852  0.336406  0.370533  1
  Se  Se12  1  0.989859  0.663595  0.129468  1
  Se  Se13  1  0.510148  0.663594  0.629467  1
  O  O14  1  0.746678  0.333000  0.790746  1
  O  O15  1  0.753315  0.333003  0.290746  1
  O  O16  1  0.253322  0.667000  0.209254  1
  O  O17  1  0.246685  0.666997  0.709254  1
  O  O18  1  0.830603  0.723575  0.821654  1
  O  O19  1  0.669402  0.723577  0.321653  1
  O  O20  1  0.169397  0.276425  0.178346  1
  O  O21  1  0.330598  0.276423  0.678347  1
  O  O22  1  0.222284  0.160073  0.878900  1
  O  O23  1  0.277706  0.160076  0.378901  1
  O  O24  1  0.777716  0.839927  0.121100  1
  O  O25  1  0.722294  0.839924  0.621099  1
  O  O26  1  0.706456  0.963748  0.900639  1
  O  O27  1  0.793538  0.963751  0.400637  1
  O  O28  1  0.293544  0.036252  0.099361  1
  O  O29  1  0.206462  0.036249  0.599363  1
  O  O30  1  0.350987  0.916512  0.793029  1
  O  O31  1  0.149016  0.916514  0.293029  1
  O  O32  1  0.649013  0.083488  0.206971  1
  O  O33  1  0.850984  0.083486  0.706971  1
  O  O34  1  0.859456  0.239967  0.977651  1
  O  O35  1  0.640536  0.239965  0.477652  1
  O  O36  1  0.140544  0.760033  0.022349  1
  O  O37  1  0.359464  0.760035  0.522348  1
