# generated using pymatgen
data_KRb2ErAs2
_symmetry_space_group_name_H-M   'P 1'
_cell_length_a   9.60954656
_cell_length_b   9.60954609
_cell_length_c   9.60954640
_cell_angle_alpha   131.35035312
_cell_angle_beta   135.29766358
_cell_angle_gamma   68.19601391
_symmetry_Int_Tables_number   1
_chemical_formula_structural   KRb2ErAs2
_chemical_formula_sum   'K2 Rb4 Er2 As4'
_cell_volume   460.41388618
_cell_formula_units_Z   2
loop_
 _symmetry_equiv_pos_site_id
 _symmetry_equiv_pos_as_xyz
  1  'x, y, z'
loop_
 _atom_site_type_symbol
 _atom_site_label
 _atom_site_symmetry_multiplicity
 _atom_site_fract_x
 _atom_site_fract_y
 _atom_site_fract_z
 _atom_site_occupancy
  K  K0  1  0.750000  0.000000  0.750000  1
  K  K1  1  0.250000  0.000000  0.250000  1
  Rb  Rb2  1  0.685584  0.446561  0.760977  1
  Rb  Rb3  1  0.814416  0.075392  0.260977  1
  Rb  Rb4  1  0.185584  0.924608  0.739023  1
  Rb  Rb5  1  0.314416  0.553439  0.239023  1
  Er  Er6  1  0.250000  0.500000  0.750000  1
  Er  Er7  1  0.750000  0.500000  0.250000  1
  As  As8  1  0.404556  0.209017  0.804461  1
  As  As9  1  0.595444  0.790983  0.195539  1
  As  As10  1  0.095444  0.399905  0.304461  1
  As  As11  1  0.904556  0.600095  0.695539  1
