# generated using pymatgen
data_La3NdFe2(OsI)2
_symmetry_space_group_name_H-M   'P 1'
_cell_length_a   4.21172300
_cell_length_b   4.21172315
_cell_length_c   17.93123900
_cell_angle_alpha   90.00000000
_cell_angle_beta   90.00000000
_cell_angle_gamma   120.00000665
_symmetry_Int_Tables_number   1
_chemical_formula_structural   La3NdFe2(OsI)2
_chemical_formula_sum   'La3 Nd1 Fe2 Os2 I2'
_cell_volume   275.46125285
_cell_formula_units_Z   1
loop_
 _symmetry_equiv_pos_site_id
 _symmetry_equiv_pos_as_xyz
  1  'x, y, z'
loop_
 _atom_site_type_symbol
 _atom_site_label
 _atom_site_symmetry_multiplicity
 _atom_site_fract_x
 _atom_site_fract_y
 _atom_site_fract_z
 _atom_site_occupancy
  La  La0  1  0.000000  0.000000  0.605939  1
  La  La1  1  0.000000  0.000000  0.895242  1
  La  La2  1  0.000000  0.000000  0.392891  1
  Nd  Nd3  1  0.000000  0.000000  0.105914  1
  Fe  Fe4  1  0.333333  0.666667  0.006965  1
  Fe  Fe5  1  0.666667  0.333333  0.502990  1
  Os  Os6  1  0.666667  0.333333  0.997484  1
  Os  Os7  1  0.333333  0.666667  0.496111  1
  I  I8  1  0.666667  0.333333  0.246534  1
  I  I9  1  0.333333  0.666667  0.749934  1
