# generated using pymatgen
data_La4In2CuNi3
_symmetry_space_group_name_H-M   'P 1'
_cell_length_a   7.74754702
_cell_length_b   7.74754702
_cell_length_c   3.83908600
_cell_angle_alpha   90.00000000
_cell_angle_beta   90.00000000
_cell_angle_gamma   90.49409929
_symmetry_Int_Tables_number   1
_chemical_formula_structural   La4In2CuNi3
_chemical_formula_sum   'La4 In2 Cu1 Ni3'
_cell_volume   230.43059085
_cell_formula_units_Z   1
loop_
 _symmetry_equiv_pos_site_id
 _symmetry_equiv_pos_as_xyz
  1  'x, y, z'
loop_
 _atom_site_type_symbol
 _atom_site_label
 _atom_site_symmetry_multiplicity
 _atom_site_fract_x
 _atom_site_fract_y
 _atom_site_fract_z
 _atom_site_occupancy
  La  La0  1  0.675445  0.186083  0.500000  1
  La  La1  1  0.177413  0.322587  0.500000  1
  La  La2  1  0.833067  0.666933  0.500000  1
  La  La3  1  0.313917  0.824555  0.500000  1
  In  In4  1  0.998656  0.001347  0.000000  1
  In  In5  1  0.498653  0.501344  0.000000  1
  Cu  Cu6  1  0.616714  0.883286  0.000000  1
  Ni  Ni7  1  0.383581  0.116419  0.000000  1
  Ni  Ni8  1  0.882741  0.380189  0.000000  1
  Ni  Ni9  1  0.119811  0.617259  0.000000  1
