# generated using pymatgen
data_Zr4PaCoBiSb2
_symmetry_space_group_name_H-M   'P 1'
_cell_length_a   5.88427690
_cell_length_b   8.93529852
_cell_length_c   8.93537117
_cell_angle_alpha   121.99599056
_cell_angle_beta   89.96700798
_cell_angle_gamma   89.96719859
_symmetry_Int_Tables_number   1
_chemical_formula_structural   Zr4PaCoBiSb2
_chemical_formula_sum   'Zr8 Pa2 Co2 Bi2 Sb4'
_cell_volume   398.43174458
_cell_formula_units_Z   2
loop_
 _symmetry_equiv_pos_site_id
 _symmetry_equiv_pos_as_xyz
  1  'x, y, z'
loop_
 _atom_site_type_symbol
 _atom_site_label
 _atom_site_symmetry_multiplicity
 _atom_site_fract_x
 _atom_site_fract_y
 _atom_site_fract_z
 _atom_site_occupancy
  Zr  Zr0  1  0.749905  0.987043  0.259094  1
  Zr  Zr1  1  0.250095  0.012977  0.740877  1
  Zr  Zr2  1  0.749905  0.259094  0.987043  1
  Zr  Zr3  1  0.250094  0.740877  0.012976  1
  Zr  Zr4  1  0.000005  0.667817  0.332180  1
  Zr  Zr5  1  0.000004  0.332179  0.667815  1
  Zr  Zr6  1  0.499993  0.332168  0.667826  1
  Zr  Zr7  1  0.499993  0.667828  0.332169  1
  Pa  Pa8  1  0.749987  0.779379  0.779380  1
  Pa  Pa9  1  0.250005  0.220598  0.220599  1
  Co  Co10  1  0.000128  0.000035  0.000035  1
  Co  Co11  1  0.499884  0.000030  0.000030  1
  Bi  Bi12  1  0.749994  0.388297  0.388296  1
  Bi  Bi13  1  0.250001  0.611689  0.611688  1
  Sb  Sb14  1  0.749984  0.002649  0.604595  1
  Sb  Sb15  1  0.250020  0.997376  0.395368  1
  Sb  Sb16  1  0.749983  0.604596  0.002650  1
  Sb  Sb17  1  0.250020  0.395368  0.997376  1
