# generated using pymatgen
data_Cs2K2OsO5
_symmetry_space_group_name_H-M   'P 1'
_cell_length_a   9.12758200
_cell_length_b   9.12758200
_cell_length_c   9.46910100
_cell_angle_alpha   90.00000000
_cell_angle_beta   90.00000000
_cell_angle_gamma   90.00000000
_symmetry_Int_Tables_number   1
_chemical_formula_structural   Cs2K2OsO5
_chemical_formula_sum   'Cs8 K8 Os4 O20'
_cell_volume   788.89687432
_cell_formula_units_Z   4
loop_
 _symmetry_equiv_pos_site_id
 _symmetry_equiv_pos_as_xyz
  1  'x, y, z'
loop_
 _atom_site_type_symbol
 _atom_site_label
 _atom_site_symmetry_multiplicity
 _atom_site_fract_x
 _atom_site_fract_y
 _atom_site_fract_z
 _atom_site_occupancy
  Cs  Cs0  1  0.663677  0.663677  0.500000  1
  Cs  Cs1  1  0.336323  0.336323  0.500000  1
  Cs  Cs2  1  0.836323  0.163677  0.000000  1
  Cs  Cs3  1  0.500000  0.000000  0.750000  1
  Cs  Cs4  1  0.163677  0.836323  0.000000  1
  Cs  Cs5  1  0.000000  0.500000  0.250000  1
  Cs  Cs6  1  0.000000  0.500000  0.750000  1
  Cs  Cs7  1  0.500000  0.000000  0.250000  1
  K  K8  1  0.122183  0.122183  0.717620  1
  K  K9  1  0.877817  0.877817  0.282380  1
  K  K10  1  0.622183  0.377817  0.782380  1
  K  K11  1  0.377817  0.622183  0.217620  1
  K  K12  1  0.377817  0.622183  0.782380  1
  K  K13  1  0.622183  0.377817  0.217620  1
  K  K14  1  0.122183  0.122183  0.282380  1
  K  K15  1  0.877817  0.877817  0.717620  1
  Os  Os16  1  0.194450  0.805550  0.500000  1
  Os  Os17  1  0.694450  0.694450  0.000000  1
  Os  Os18  1  0.305550  0.305550  0.000000  1
  Os  Os19  1  0.805550  0.194450  0.500000  1
  O  O20  1  0.503377  0.762464  0.000000  1
  O  O21  1  0.237536  0.496623  0.000000  1
  O  O22  1  0.737536  0.003377  0.500000  1
  O  O23  1  0.182220  0.817780  0.708231  1
  O  O24  1  0.317780  0.317780  0.208231  1
  O  O25  1  0.496623  0.237536  0.000000  1
  O  O26  1  0.317780  0.317780  0.791769  1
  O  O27  1  0.163115  0.163115  0.000000  1
  O  O28  1  0.262464  0.996623  0.500000  1
  O  O29  1  0.817780  0.182220  0.708231  1
  O  O30  1  0.762464  0.503377  0.000000  1
  O  O31  1  0.682220  0.682220  0.791769  1
  O  O32  1  0.663115  0.336885  0.500000  1
  O  O33  1  0.003377  0.737536  0.500000  1
  O  O34  1  0.336885  0.663115  0.500000  1
  O  O35  1  0.182220  0.817780  0.291769  1
  O  O36  1  0.682220  0.682220  0.208231  1
  O  O37  1  0.996623  0.262464  0.500000  1
  O  O38  1  0.817780  0.182220  0.291769  1
  O  O39  1  0.836885  0.836885  0.000000  1
