# generated using pymatgen
data_LaPr5(IO8)2
_symmetry_space_group_name_H-M   'P 1'
_cell_length_a   7.52833400
_cell_length_b   7.52735523
_cell_length_c   6.31446400
_cell_angle_alpha   90.00000000
_cell_angle_beta   90.00000000
_cell_angle_gamma   109.64476751
_symmetry_Int_Tables_number   1
_chemical_formula_structural   LaPr5(IO8)2
_chemical_formula_sum   'La1 Pr5 I2 O16'
_cell_volume   337.00332968
_cell_formula_units_Z   1
loop_
 _symmetry_equiv_pos_site_id
 _symmetry_equiv_pos_as_xyz
  1  'x, y, z'
loop_
 _atom_site_type_symbol
 _atom_site_label
 _atom_site_symmetry_multiplicity
 _atom_site_fract_x
 _atom_site_fract_y
 _atom_site_fract_z
 _atom_site_occupancy
  La  La0  1  0.672747  0.888354  0.250000  1
  Pr  Pr1  1  0.111422  0.331124  0.250000  1
  Pr  Pr2  1  0.888840  0.669078  0.750000  1
  Pr  Pr3  1  0.601959  0.395014  0.250000  1
  Pr  Pr4  1  0.396777  0.601713  0.750000  1
  Pr  Pr5  1  0.330141  0.110643  0.750000  1
  I  I6  1  0.183933  0.816363  0.250000  1
  I  I7  1  0.816456  0.184616  0.750000  1
  O  O8  1  0.967986  0.031470  0.750000  1
  O  O9  1  0.033199  0.969898  0.250000  1
  O  O10  1  0.028946  0.413308  0.750000  1
  O  O11  1  0.970792  0.588316  0.250000  1
  O  O12  1  0.661226  0.338435  0.750000  1
  O  O13  1  0.336685  0.660233  0.250000  1
  O  O14  1  0.588089  0.971818  0.750000  1
  O  O15  1  0.411837  0.028898  0.250000  1
  O  O16  1  0.659928  0.658798  0.999992  1
  O  O17  1  0.338917  0.338883  0.500297  1
  O  O18  1  0.338917  0.338883  0.999703  1
  O  O19  1  0.659928  0.658798  0.500008  1
  O  O20  1  0.808644  0.194810  0.050963  1
  O  O21  1  0.191994  0.807865  0.551254  1
  O  O22  1  0.191994  0.807865  0.948746  1
  O  O23  1  0.808644  0.194810  0.449037  1
