# generated using pymatgen
data_NpFeSb12OsRu2
_symmetry_space_group_name_H-M   'P 1'
_cell_length_a   8.04990993
_cell_length_b   8.05866851
_cell_length_c   8.06035289
_cell_angle_alpha   109.44693471
_cell_angle_beta   109.36521980
_cell_angle_gamma   109.37041249
_symmetry_Int_Tables_number   1
_chemical_formula_structural   NpFeSb12OsRu2
_chemical_formula_sum   'Np1 Fe1 Sb12 Os1 Ru2'
_cell_volume   403.66280477
_cell_formula_units_Z   1
loop_
 _symmetry_equiv_pos_site_id
 _symmetry_equiv_pos_as_xyz
  1  'x, y, z'
loop_
 _atom_site_type_symbol
 _atom_site_label
 _atom_site_symmetry_multiplicity
 _atom_site_fract_x
 _atom_site_fract_y
 _atom_site_fract_z
 _atom_site_occupancy
  Np  Np0  1  0.000000  0.000000  0.000000  1
  Fe  Fe1  1  0.500000  0.500000  0.500000  1
  Sb  Sb2  1  0.835265  0.660813  0.505767  1
  Sb  Sb3  1  0.164735  0.339187  0.494233  1
  Sb  Sb4  1  0.156179  0.660358  0.817848  1
  Sb  Sb5  1  0.843821  0.339642  0.182152  1
  Sb  Sb6  1  0.660572  0.505685  0.835009  1
  Sb  Sb7  1  0.339428  0.494315  0.164991  1
  Sb  Sb8  1  0.662052  0.817772  0.157771  1
  Sb  Sb9  1  0.337948  0.182228  0.842229  1
  Sb  Sb10  1  0.505468  0.834814  0.659461  1
  Sb  Sb11  1  0.494532  0.165186  0.340539  1
  Sb  Sb12  1  0.181253  0.842646  0.338092  1
  Sb  Sb13  1  0.818747  0.157354  0.661908  1
  Os  Os14  1  0.500000  0.000000  0.000000  1
  Ru  Ru15  1  0.000000  0.500000  0.000000  1
  Ru  Ru16  1  0.000000  0.000000  0.500000  1
