# generated using pymatgen
data_Tm2Lu14Cd4Ni3Ru
_symmetry_space_group_name_H-M   'P 1'
_cell_length_a   9.39391930
_cell_length_b   9.39392019
_cell_length_c   9.39412928
_cell_angle_alpha   59.81609789
_cell_angle_beta   59.81609786
_cell_angle_gamma   59.81378344
_symmetry_Int_Tables_number   1
_chemical_formula_structural   Tm2Lu14Cd4Ni3Ru
_chemical_formula_sum   'Tm2 Lu14 Cd4 Ni3 Ru1'
_cell_volume   583.72850504
_cell_formula_units_Z   1
loop_
 _symmetry_equiv_pos_site_id
 _symmetry_equiv_pos_as_xyz
  1  'x, y, z'
loop_
 _atom_site_type_symbol
 _atom_site_label
 _atom_site_symmetry_multiplicity
 _atom_site_fract_x
 _atom_site_fract_y
 _atom_site_fract_z
 _atom_site_occupancy
  Tm  Tm0  1  0.347764  0.347764  0.347863  1
  Tm  Tm1  1  0.349718  0.349718  0.956529  1
  Lu  Lu2  1  0.349634  0.956677  0.349691  1
  Lu  Lu3  1  0.956677  0.349634  0.349691  1
  Lu  Lu4  1  0.811071  0.187751  0.187735  1
  Lu  Lu5  1  0.187429  0.811079  0.810961  1
  Lu  Lu6  1  0.187751  0.811071  0.187735  1
  Lu  Lu7  1  0.811079  0.187429  0.810961  1
  Lu  Lu8  1  0.187703  0.187703  0.811044  1
  Lu  Lu9  1  0.810983  0.810983  0.187454  1
  Lu  Lu10  1  0.935709  0.564294  0.564304  1
  Lu  Lu11  1  0.559103  0.938030  0.938076  1
  Lu  Lu12  1  0.564294  0.935709  0.564304  1
  Lu  Lu13  1  0.938030  0.559103  0.938076  1
  Lu  Lu14  1  0.564342  0.564342  0.935685  1
  Lu  Lu15  1  0.938110  0.938110  0.559056  1
  Cd  Cd16  1  0.580939  0.580939  0.580725  1
  Cd  Cd17  1  0.580985  0.580985  0.255513  1
  Cd  Cd18  1  0.581017  0.255480  0.580910  1
  Cd  Cd19  1  0.255480  0.581017  0.580910  1
  Ni  Ni20  1  0.141893  0.141893  0.575881  1
  Ni  Ni21  1  0.141746  0.576075  0.142044  1
  Ni  Ni22  1  0.576075  0.141746  0.142044  1
  Ru  Ru23  1  0.142465  0.142465  0.142809  1
