# generated using pymatgen
data_Ho5Ta3(P3Ir4)4
_symmetry_space_group_name_H-M   'P 1'
_cell_length_a   12.75001900
_cell_length_b   12.75001931
_cell_length_c   3.98715000
_cell_angle_alpha   90.00000000
_cell_angle_beta   90.00000000
_cell_angle_gamma   119.99999660
_symmetry_Int_Tables_number   1
_chemical_formula_structural   Ho5Ta3(P3Ir4)4
_chemical_formula_sum   'Ho5 Ta3 P12 Ir16'
_cell_volume   561.32565986
_cell_formula_units_Z   1
loop_
 _symmetry_equiv_pos_site_id
 _symmetry_equiv_pos_as_xyz
  1  'x, y, z'
loop_
 _atom_site_type_symbol
 _atom_site_label
 _atom_site_symmetry_multiplicity
 _atom_site_fract_x
 _atom_site_fract_y
 _atom_site_fract_z
 _atom_site_occupancy
  Ho  Ho0  1  0.333333  0.666667  0.500000  1
  Ho  Ho1  1  0.666667  0.333333  0.500000  1
  Ho  Ho2  1  0.000000  0.813729  0.000000  1
  Ho  Ho3  1  0.186271  0.186271  0.000000  1
  Ho  Ho4  1  0.813729  0.000000  0.000000  1
  Ta  Ta5  1  0.000000  0.453027  0.500000  1
  Ta  Ta6  1  0.546973  0.546973  0.500000  1
  Ta  Ta7  1  0.453027  0.000000  0.500000  1
  P  P8  1  0.000000  0.643455  0.500000  1
  P  P9  1  0.356545  0.356545  0.500000  1
  P  P10  1  0.643455  0.000000  0.500000  1
  P  P11  1  0.517133  0.684931  0.000000  1
  P  P12  1  0.315069  0.832202  0.000000  1
  P  P13  1  0.167798  0.482867  0.000000  1
  P  P14  1  0.482867  0.167798  0.000000  1
  P  P15  1  0.684931  0.517133  0.000000  1
  P  P16  1  0.832202  0.315069  0.000000  1
  P  P17  1  0.000000  0.176160  0.500000  1
  P  P18  1  0.823840  0.823840  0.500000  1
  P  P19  1  0.176160  0.000000  0.500000  1
  Ir  Ir20  1  0.506679  0.863695  0.000000  1
  Ir  Ir21  1  0.136305  0.642986  0.000000  1
  Ir  Ir22  1  0.357014  0.493321  0.000000  1
  Ir  Ir23  1  0.493321  0.357014  0.000000  1
  Ir  Ir24  1  0.863695  0.506679  0.000000  1
  Ir  Ir25  1  0.642986  0.136305  0.000000  1
  Ir  Ir26  1  0.000000  0.283611  0.000000  1
  Ir  Ir27  1  0.716389  0.716389  0.000000  1
  Ir  Ir28  1  0.283611  0.000000  0.000000  1
  Ir  Ir29  1  0.627025  0.804727  0.500000  1
  Ir  Ir30  1  0.195273  0.822298  0.500000  1
  Ir  Ir31  1  0.177702  0.372975  0.500000  1
  Ir  Ir32  1  0.372975  0.177702  0.500000  1
  Ir  Ir33  1  0.804727  0.627025  0.500000  1
  Ir  Ir34  1  0.822298  0.195273  0.500000  1
  Ir  Ir35  1  0.000000  0.000000  0.500000  1
