# generated using pymatgen
data_Y2Ni9P7Ir3
_symmetry_space_group_name_H-M   'P 1'
_cell_length_a   9.15603800
_cell_length_b   9.15603706
_cell_length_c   3.81914000
_cell_angle_alpha   90.00000000
_cell_angle_beta   90.00000000
_cell_angle_gamma   119.99999616
_symmetry_Int_Tables_number   1
_chemical_formula_structural   Y2Ni9P7Ir3
_chemical_formula_sum   'Y2 Ni9 P7 Ir3'
_cell_volume   277.27540970
_cell_formula_units_Z   1
loop_
 _symmetry_equiv_pos_site_id
 _symmetry_equiv_pos_as_xyz
  1  'x, y, z'
loop_
 _atom_site_type_symbol
 _atom_site_label
 _atom_site_symmetry_multiplicity
 _atom_site_fract_x
 _atom_site_fract_y
 _atom_site_fract_z
 _atom_site_occupancy
  Y  Y0  1  0.666667  0.333333  0.000000  1
  Y  Y1  1  0.333333  0.666667  0.500000  1
  Ni  Ni2  1  0.061769  0.629511  0.000000  1
  Ni  Ni3  1  0.567741  0.938231  0.000000  1
  Ni  Ni4  1  0.370489  0.432259  0.000000  1
  Ni  Ni5  1  0.272643  0.118685  0.000000  1
  Ni  Ni6  1  0.846043  0.727357  0.000000  1
  Ni  Ni7  1  0.881315  0.153957  0.000000  1
  Ni  Ni8  1  0.075555  0.880718  0.500000  1
  Ni  Ni9  1  0.805163  0.924445  0.500000  1
  Ni  Ni10  1  0.119282  0.194837  0.500000  1
  P  P11  1  0.292386  0.880958  0.000000  1
  P  P12  1  0.588571  0.707614  0.000000  1
  P  P13  1  0.119042  0.411429  0.000000  1
  P  P14  1  0.397778  0.291638  0.500000  1
  P  P15  1  0.893860  0.602222  0.500000  1
  P  P16  1  0.708362  0.106140  0.500000  1
  P  P17  1  0.000000  0.000000  0.000000  1
  Ir  Ir18  1  0.427692  0.044703  0.500000  1
  Ir  Ir19  1  0.617010  0.572308  0.500000  1
  Ir  Ir20  1  0.955297  0.382990  0.500000  1
