# generated using pymatgen
data_Ho3Co5P6(IrRu)2
_symmetry_space_group_name_H-M   'P 1'
_cell_length_a   3.77762500
_cell_length_b   10.76820600
_cell_length_c   12.49750700
_cell_angle_alpha   90.00000000
_cell_angle_beta   90.00000000
_cell_angle_gamma   90.00000000
_symmetry_Int_Tables_number   1
_chemical_formula_structural   Ho3Co5P6(IrRu)2
_chemical_formula_sum   'Ho6 Co10 P12 Ir4 Ru4'
_cell_volume   508.37664152
_cell_formula_units_Z   2
loop_
 _symmetry_equiv_pos_site_id
 _symmetry_equiv_pos_as_xyz
  1  'x, y, z'
loop_
 _atom_site_type_symbol
 _atom_site_label
 _atom_site_symmetry_multiplicity
 _atom_site_fract_x
 _atom_site_fract_y
 _atom_site_fract_z
 _atom_site_occupancy
  Ho  Ho0  1  0.000000  0.500000  0.520495  1
  Ho  Ho1  1  0.500000  0.000000  0.477922  1
  Ho  Ho2  1  0.500000  0.815086  0.198260  1
  Ho  Ho3  1  0.500000  0.184914  0.198260  1
  Ho  Ho4  1  0.000000  0.685001  0.802050  1
  Ho  Ho5  1  0.000000  0.314999  0.802050  1
  Co  Co6  1  0.000000  0.500000  0.990378  1
  Co  Co7  1  0.500000  0.000000  0.009804  1
  Co  Co8  1  0.500000  0.880369  0.716403  1
  Co  Co9  1  0.500000  0.119631  0.716403  1
  Co  Co10  1  0.000000  0.619453  0.283483  1
  Co  Co11  1  0.000000  0.380547  0.283483  1
  Co  Co12  1  0.500000  0.332009  0.993786  1
  Co  Co13  1  0.500000  0.667991  0.993786  1
  Co  Co14  1  0.000000  0.168065  0.006395  1
  Co  Co15  1  0.000000  0.831935  0.006395  1
  P  P16  1  0.500000  0.310393  0.621360  1
  P  P17  1  0.500000  0.689607  0.621360  1
  P  P18  1  0.000000  0.193528  0.376108  1
  P  P19  1  0.000000  0.806472  0.376108  1
  P  P20  1  0.500000  0.500000  0.893876  1
  P  P21  1  0.000000  0.000000  0.106310  1
  P  P22  1  0.500000  0.845263  0.895650  1
  P  P23  1  0.500000  0.154737  0.895650  1
  P  P24  1  0.000000  0.654261  0.104701  1
  P  P25  1  0.000000  0.345739  0.104701  1
  P  P26  1  0.500000  0.500000  0.343178  1
  P  P27  1  0.000000  0.000000  0.657748  1
  Ir  Ir28  1  0.000000  0.200335  0.575259  1
  Ir  Ir29  1  0.000000  0.799665  0.575259  1
  Ir  Ir30  1  0.500000  0.500000  0.708420  1
  Ir  Ir31  1  0.000000  0.000000  0.292344  1
  Ru  Ru32  1  0.500000  0.297966  0.426486  1
  Ru  Ru33  1  0.500000  0.702034  0.426486  1
  Ru  Ru34  1  0.500000  0.500000  0.157297  1
  Ru  Ru35  1  0.000000  0.000000  0.842348  1
