# generated using pymatgen
data_Th8Si15Pt
_symmetry_space_group_name_H-M   'P 1'
_cell_length_a   8.27961000
_cell_length_b   8.27961035
_cell_length_c   8.32335700
_cell_angle_alpha   90.00000000
_cell_angle_beta   90.00000000
_cell_angle_gamma   119.99999859
_symmetry_Int_Tables_number   1
_chemical_formula_structural   Th8Si15Pt
_chemical_formula_sum   'Th8 Si15 Pt1'
_cell_volume   494.13878112
_cell_formula_units_Z   1
loop_
 _symmetry_equiv_pos_site_id
 _symmetry_equiv_pos_as_xyz
  1  'x, y, z'
loop_
 _atom_site_type_symbol
 _atom_site_label
 _atom_site_symmetry_multiplicity
 _atom_site_fract_x
 _atom_site_fract_y
 _atom_site_fract_z
 _atom_site_occupancy
  Th  Th0  1  0.000000  0.000000  0.746127  1
  Th  Th1  1  0.000000  0.000000  0.253730  1
  Th  Th2  1  0.497140  0.502860  0.745243  1
  Th  Th3  1  0.497140  0.994281  0.745243  1
  Th  Th4  1  0.005719  0.502860  0.745243  1
  Th  Th5  1  0.497401  0.502599  0.254859  1
  Th  Th6  1  0.005202  0.502599  0.254859  1
  Th  Th7  1  0.497401  0.994798  0.254859  1
  Si  Si8  1  0.836453  0.163547  0.000419  1
  Si  Si9  1  0.836453  0.672906  0.000419  1
  Si  Si10  1  0.327094  0.163547  0.000419  1
  Si  Si11  1  0.834565  0.165435  0.500182  1
  Si  Si12  1  0.834565  0.669132  0.500182  1
  Si  Si13  1  0.330868  0.165435  0.500182  1
  Si  Si14  1  0.168605  0.831395  0.499864  1
  Si  Si15  1  0.662792  0.831395  0.499864  1
  Si  Si16  1  0.168605  0.337208  0.499864  1
  Si  Si17  1  0.169008  0.830992  0.999598  1
  Si  Si18  1  0.661982  0.830992  0.999598  1
  Si  Si19  1  0.169008  0.338018  0.999598  1
  Si  Si20  1  0.666667  0.333333  0.500266  1
  Si  Si21  1  0.333333  0.666667  0.499597  1
  Si  Si22  1  0.333333  0.666667  0.000704  1
  Pt  Pt23  1  0.666667  0.333333  0.999078  1
