# generated using pymatgen
data_Tm11ThTc3Pt
_symmetry_space_group_name_H-M   'P 1'
_cell_length_a   6.26163705
_cell_length_b   7.33958405
_cell_length_c   9.08926900
_cell_angle_alpha   90.00000000
_cell_angle_beta   90.00000000
_cell_angle_gamma   90.31254853
_symmetry_Int_Tables_number   1
_chemical_formula_structural   Tm11ThTc3Pt
_chemical_formula_sum   'Tm11 Th1 Tc3 Pt1'
_cell_volume   417.71669610
_cell_formula_units_Z   1
loop_
 _symmetry_equiv_pos_site_id
 _symmetry_equiv_pos_as_xyz
  1  'x, y, z'
loop_
 _atom_site_type_symbol
 _atom_site_label
 _atom_site_symmetry_multiplicity
 _atom_site_fract_x
 _atom_site_fract_y
 _atom_site_fract_z
 _atom_site_occupancy
  Tm  Tm0  1  0.333759  0.677916  0.065747  1
  Tm  Tm1  1  0.164838  0.177584  0.437901  1
  Tm  Tm2  1  0.666221  0.314349  0.562308  1
  Tm  Tm3  1  0.837028  0.830169  0.937242  1
  Tm  Tm4  1  0.666221  0.314349  0.937692  1
  Tm  Tm5  1  0.837028  0.830169  0.562758  1
  Tm  Tm6  1  0.333759  0.677916  0.434253  1
  Tm  Tm7  1  0.164838  0.177584  0.062099  1
  Tm  Tm8  1  0.622563  0.039504  0.250000  1
  Tm  Tm9  1  0.127768  0.458269  0.750000  1
  Tm  Tm10  1  0.372256  0.964434  0.750000  1
  Th  Th11  1  0.863397  0.548302  0.250000  1
  Tc  Tc12  1  0.026435  0.873644  0.250000  1
  Tc  Tc13  1  0.478924  0.386818  0.250000  1
  Tc  Tc14  1  0.960022  0.114847  0.750000  1
  Pt  Pt15  1  0.544940  0.614147  0.750000  1
