# generated using pymatgen
data_Tb3Yb(Si4Tc3)2
_symmetry_space_group_name_H-M   'P 1'
_cell_length_a   6.81335100
_cell_length_b   6.73931236
_cell_length_c   6.79217111
_cell_angle_alpha   70.11805956
_cell_angle_beta   90.03054470
_cell_angle_gamma   89.88264845
_symmetry_Int_Tables_number   1
_chemical_formula_structural   Tb3Yb(Si4Tc3)2
_chemical_formula_sum   'Tb3 Yb1 Si8 Tc6'
_cell_volume   293.28791340
_cell_formula_units_Z   1
loop_
 _symmetry_equiv_pos_site_id
 _symmetry_equiv_pos_as_xyz
  1  'x, y, z'
loop_
 _atom_site_type_symbol
 _atom_site_label
 _atom_site_symmetry_multiplicity
 _atom_site_fract_x
 _atom_site_fract_y
 _atom_site_fract_z
 _atom_site_occupancy
  Tb  Tb0  1  0.833005  0.941365  0.192336  1
  Tb  Tb1  1  0.665842  0.443247  0.189085  1
  Tb  Tb2  1  0.167813  0.058259  0.807117  1
  Yb  Yb3  1  0.334485  0.554426  0.815225  1
  Si  Si4  1  0.549934  0.880123  0.894575  1
  Si  Si5  1  0.051103  0.619586  0.102351  1
  Si  Si6  1  0.449779  0.120699  0.101776  1
  Si  Si7  1  0.952112  0.381698  0.894150  1
  Si  Si8  1  0.144034  0.863729  0.491796  1
  Si  Si9  1  0.638187  0.631097  0.515164  1
  Si  Si10  1  0.858194  0.132479  0.511962  1
  Si  Si11  1  0.357892  0.371765  0.489319  1
  Tc  Tc12  1  0.499872  0.001490  0.499002  1
  Tc  Tc13  1  0.997519  0.500255  0.497164  1
  Tc  Tc14  1  0.846557  0.757386  0.759641  1
  Tc  Tc15  1  0.345629  0.745089  0.238730  1
  Tc  Tc16  1  0.152809  0.240824  0.240653  1
  Tc  Tc17  1  0.655237  0.256483  0.759957  1
