# generated using pymatgen
data_Dy2HoIn3Cu2Pt
_symmetry_space_group_name_H-M   'P 1'
_cell_length_a   7.55816305
_cell_length_b   7.54917022
_cell_length_c   3.89770800
_cell_angle_alpha   90.00000000
_cell_angle_beta   90.00000000
_cell_angle_gamma   120.02604237
_symmetry_Int_Tables_number   1
_chemical_formula_structural   Dy2HoIn3Cu2Pt
_chemical_formula_sum   'Dy2 Ho1 In3 Cu2 Pt1'
_cell_volume   192.54904955
_cell_formula_units_Z   1
loop_
 _symmetry_equiv_pos_site_id
 _symmetry_equiv_pos_as_xyz
  1  'x, y, z'
loop_
 _atom_site_type_symbol
 _atom_site_label
 _atom_site_symmetry_multiplicity
 _atom_site_fract_x
 _atom_site_fract_y
 _atom_site_fract_z
 _atom_site_occupancy
  Dy  Dy0  1  0.006922  0.415511  0.500000  1
  Dy  Dy1  1  0.584315  0.591507  0.500000  1
  Ho  Ho2  1  0.408355  0.992711  0.500000  1
  In  In3  1  0.752636  0.007341  0.000000  1
  In  In4  1  0.993003  0.745818  0.000000  1
  In  In5  1  0.254580  0.246650  0.000000  1
  Cu  Cu6  1  0.000302  0.000001  0.500000  1
  Cu  Cu7  1  0.666141  0.332568  0.000000  1
  Pt  Pt8  1  0.333745  0.667891  0.000000  1
