# generated using pymatgen
data_Yb6Er2Si12Ag3Pt
_symmetry_space_group_name_H-M   'P 1'
_cell_length_a   8.31239700
_cell_length_b   8.31239628
_cell_length_c   8.13116700
_cell_angle_alpha   90.00000000
_cell_angle_beta   90.00000000
_cell_angle_gamma   119.99999094
_symmetry_Int_Tables_number   1
_chemical_formula_structural   Yb6Er2Si12Ag3Pt
_chemical_formula_sum   'Yb6 Er2 Si12 Ag3 Pt1'
_cell_volume   486.55962525
_cell_formula_units_Z   1
loop_
 _symmetry_equiv_pos_site_id
 _symmetry_equiv_pos_as_xyz
  1  'x, y, z'
loop_
 _atom_site_type_symbol
 _atom_site_label
 _atom_site_symmetry_multiplicity
 _atom_site_fract_x
 _atom_site_fract_y
 _atom_site_fract_z
 _atom_site_occupancy
  Yb  Yb0  1  0.499218  0.998437  0.246475  1
  Yb  Yb1  1  0.494965  0.989929  0.753333  1
  Yb  Yb2  1  0.001563  0.500782  0.246475  1
  Yb  Yb3  1  0.010071  0.505035  0.753333  1
  Yb  Yb4  1  0.499218  0.500782  0.246475  1
  Yb  Yb5  1  0.494965  0.505035  0.753333  1
  Er  Er6  1  0.000000  0.000000  0.249104  1
  Er  Er7  1  0.000000  0.000000  0.750925  1
  Si  Si8  1  0.165259  0.330517  0.001993  1
  Si  Si9  1  0.840806  0.681613  0.998810  1
  Si  Si10  1  0.669483  0.834741  0.001993  1
  Si  Si11  1  0.838892  0.677786  0.501126  1
  Si  Si12  1  0.318387  0.159194  0.998810  1
  Si  Si13  1  0.159968  0.319935  0.499001  1
  Si  Si14  1  0.165259  0.834741  0.001993  1
  Si  Si15  1  0.322214  0.161108  0.501126  1
  Si  Si16  1  0.840806  0.159194  0.998810  1
  Si  Si17  1  0.680065  0.840032  0.499001  1
  Si  Si18  1  0.838892  0.161108  0.501126  1
  Si  Si19  1  0.159968  0.840032  0.499001  1
  Ag  Ag20  1  0.666667  0.333333  0.992759  1
  Ag  Ag21  1  0.666667  0.333333  0.508747  1
  Ag  Ag22  1  0.333333  0.666667  0.490871  1
  Pt  Pt23  1  0.333333  0.666667  0.005385  1
