# generated using pymatgen
data_K4Np2Si8O23
_symmetry_space_group_name_H-M   'P 1'
_cell_length_a   6.86269244
_cell_length_b   8.02913654
_cell_length_c   11.57384797
_cell_angle_alpha   104.41784896
_cell_angle_beta   89.34443356
_cell_angle_gamma   105.39781267
_symmetry_Int_Tables_number   1
_chemical_formula_structural   K4Np2Si8O23
_chemical_formula_sum   'K4 Np2 Si8 O23'
_cell_volume   594.45940877
_cell_formula_units_Z   1
loop_
 _symmetry_equiv_pos_site_id
 _symmetry_equiv_pos_as_xyz
  1  'x, y, z'
loop_
 _atom_site_type_symbol
 _atom_site_label
 _atom_site_symmetry_multiplicity
 _atom_site_fract_x
 _atom_site_fract_y
 _atom_site_fract_z
 _atom_site_occupancy
  K  K0  1  0.287794  0.246460  0.487045  1
  K  K1  1  0.712206  0.753540  0.512955  1
  K  K2  1  0.342416  0.304805  0.151820  1
  K  K3  1  0.657584  0.695195  0.848180  1
  Np  Np4  1  0.791484  0.263985  0.306259  1
  Np  Np5  1  0.208516  0.736015  0.693741  1
  Si  Si6  1  0.967137  0.884089  0.208517  1
  Si  Si7  1  0.032863  0.115911  0.791483  1
  Si  Si8  1  0.180676  0.700691  0.373737  1
  Si  Si9  1  0.819324  0.299309  0.626263  1
  Si  Si10  1  0.505542  0.815396  0.213915  1
  Si  Si11  1  0.494458  0.184604  0.786085  1
  Si  Si12  1  0.171589  0.687488  0.008386  1
  Si  Si13  1  0.828411  0.312512  0.991614  1
  O  O14  1  0.367020  0.690831  0.091696  1
  O  O15  1  0.632980  0.309169  0.908304  1
  O  O16  1  0.414536  0.729761  0.325713  1
  O  O17  1  0.585464  0.270239  0.674287  1
  O  O18  1  0.727059  0.774628  0.190444  1
  O  O19  1  0.272941  0.225372  0.809556  1
  O  O20  1  0.520440  0.025459  0.243795  1
  O  O21  1  0.479560  0.974541  0.756205  1
  O  O22  1  0.071205  0.488084  0.336835  1
  O  O23  1  0.928795  0.511916  0.663165  1
  O  O24  1  0.998302  0.099573  0.253414  1
  O  O25  1  0.001698  0.900427  0.746586  1
  O  O26  1  0.612542  0.405517  0.363553  1
  O  O27  1  0.387458  0.594483  0.636447  1
  O  O28  1  0.071122  0.847311  0.079499  1
  O  O29  1  0.928878  0.152689  0.920501  1
  O  O30  1  0.756265  0.288478  0.119623  1
  O  O31  1  0.243735  0.711522  0.880377  1
  O  O32  1  0.000000  0.500000  0.000000  1
  O  O33  1  0.068224  0.813922  0.307118  1
  O  O34  1  0.931776  0.186078  0.692882  1
  O  O35  1  0.815026  0.208228  0.484503  1
  O  O36  1  0.184974  0.791772  0.515497  1
