# generated using pymatgen
data_HfZr3Ge(B7Ir6)2
_symmetry_space_group_name_H-M   'P 1'
_cell_length_a   3.48147739
_cell_length_b   7.77100319
_cell_length_c   13.45331500
_cell_angle_alpha   89.99295427
_cell_angle_beta   90.06716943
_cell_angle_gamma   90.06883819
_symmetry_Int_Tables_number   1
_chemical_formula_structural   HfZr3Ge(B7Ir6)2
_chemical_formula_sum   'Hf1 Zr3 Ge1 B14 Ir12'
_cell_volume   363.97316278
_cell_formula_units_Z   1
loop_
 _symmetry_equiv_pos_site_id
 _symmetry_equiv_pos_as_xyz
  1  'x, y, z'
loop_
 _atom_site_type_symbol
 _atom_site_label
 _atom_site_symmetry_multiplicity
 _atom_site_fract_x
 _atom_site_fract_y
 _atom_site_fract_z
 _atom_site_occupancy
  Hf  Hf0  1  0.251366  0.498261  0.835043  1
  Zr  Zr1  1  0.253119  0.001424  0.331531  1
  Zr  Zr2  1  0.746876  0.998666  0.668617  1
  Zr  Zr3  1  0.748677  0.501594  0.164714  1
  Ge  Ge4  1  0.500092  0.499956  0.500065  1
  B  B5  1  0.500297  0.000110  0.999976  1
  B  B6  1  0.999689  0.000088  0.999974  1
  B  B7  1  0.756527  0.327190  0.728126  1
  B  B8  1  0.754538  0.829412  0.220123  1
  B  B9  1  0.751157  0.751892  0.805340  1
  B  B10  1  0.754471  0.247547  0.299290  1
  B  B11  1  0.749805  0.423479  0.973904  1
  B  B12  1  0.761847  0.920184  0.473817  1
  B  B13  1  0.245452  0.171005  0.779798  1
  B  B14  1  0.243615  0.673507  0.272356  1
  B  B15  1  0.245490  0.752184  0.700956  1
  B  B16  1  0.248881  0.247421  0.194805  1
  B  B17  1  0.238200  0.079878  0.526233  1
  B  B18  1  0.250137  0.576452  0.025213  1
  Ir  Ir19  1  0.746042  0.593649  0.675201  1
  Ir  Ir20  1  0.750242  0.091104  0.163153  1
  Ir  Ir21  1  0.750900  0.702901  0.962950  1
  Ir  Ir22  1  0.741612  0.197662  0.460807  1
  Ir  Ir23  1  0.748014  0.203413  0.873799  1
  Ir  Ir24  1  0.745449  0.710214  0.364954  1
  Ir  Ir25  1  0.249784  0.909235  0.837013  1
  Ir  Ir26  1  0.253626  0.405210  0.325928  1
  Ir  Ir27  1  0.258538  0.802206  0.539361  1
  Ir  Ir28  1  0.249063  0.295781  0.036083  1
  Ir  Ir29  1  0.254497  0.289978  0.635053  1
  Ir  Ir30  1  0.251995  0.798398  0.125816  1
