# generated using pymatgen
data_Zr6Si7Ni9Ir7
_symmetry_space_group_name_H-M   'P 1'
_cell_length_a   8.34005849
_cell_length_b   8.32261108
_cell_length_c   8.32261126
_cell_angle_alpha   60.00130825
_cell_angle_beta   59.91818489
_cell_angle_gamma   59.91818759
_symmetry_Int_Tables_number   1
_chemical_formula_structural   Zr6Si7Ni9Ir7
_chemical_formula_sum   'Zr6 Si7 Ni9 Ir7'
_cell_volume   407.98052124
_cell_formula_units_Z   1
loop_
 _symmetry_equiv_pos_site_id
 _symmetry_equiv_pos_as_xyz
  1  'x, y, z'
loop_
 _atom_site_type_symbol
 _atom_site_label
 _atom_site_symmetry_multiplicity
 _atom_site_fract_x
 _atom_site_fract_y
 _atom_site_fract_z
 _atom_site_occupancy
  Zr  Zr0  1  0.797844  0.203873  0.796676  1
  Zr  Zr1  1  0.797844  0.796676  0.203873  1
  Zr  Zr2  1  0.207013  0.794853  0.794853  1
  Zr  Zr3  1  0.206235  0.201456  0.796760  1
  Zr  Zr4  1  0.798002  0.202393  0.202393  1
  Zr  Zr5  1  0.206235  0.796760  0.201456  1
  Si  Si6  1  0.992516  0.506315  0.990916  1
  Si  Si7  1  0.501708  0.506997  0.506997  1
  Si  Si8  1  0.505679  0.498735  0.992167  1
  Si  Si9  1  0.505679  0.992167  0.498735  1
  Si  Si10  1  0.987734  0.506543  0.506543  1
  Si  Si11  1  0.992516  0.990916  0.506315  1
  Si  Si12  1  0.506414  0.997679  0.997679  1
  Ni  Ni13  1  0.828070  0.832749  0.832749  1
  Ni  Ni14  1  0.849826  0.386200  0.386200  1
  Ni  Ni15  1  0.390771  0.381797  0.853461  1
  Ni  Ni16  1  0.390771  0.853461  0.381797  1
  Ni  Ni17  1  0.509603  0.828228  0.828228  1
  Ni  Ni18  1  0.619758  0.619161  0.619161  1
  Ni  Ni19  1  0.823416  0.830318  0.508284  1
  Ni  Ni20  1  0.500975  0.164190  0.164190  1
  Ni  Ni21  1  0.823416  0.508284  0.830318  1
  Ir  Ir22  1  0.162220  0.163737  0.163737  1
  Ir  Ir23  1  0.621516  0.622842  0.145502  1
  Ir  Ir24  1  0.390129  0.378043  0.378043  1
  Ir  Ir25  1  0.160552  0.508341  0.161317  1
  Ir  Ir26  1  0.160552  0.161317  0.508341  1
  Ir  Ir27  1  0.141494  0.620464  0.620464  1
  Ir  Ir28  1  0.621516  0.145502  0.622842  1
