# generated using pymatgen
data_Dy2HoIn3Ag2Au
_symmetry_space_group_name_H-M   'P 1'
_cell_length_a   7.83283811
_cell_length_b   7.82678210
_cell_length_c   3.95281400
_cell_angle_alpha   90.00000000
_cell_angle_beta   90.00000000
_cell_angle_gamma   119.72767840
_symmetry_Int_Tables_number   1
_chemical_formula_structural   Dy2HoIn3Ag2Au
_chemical_formula_sum   'Dy2 Ho1 In3 Ag2 Au1'
_cell_volume   210.43822035
_cell_formula_units_Z   1
loop_
 _symmetry_equiv_pos_site_id
 _symmetry_equiv_pos_as_xyz
  1  'x, y, z'
loop_
 _atom_site_type_symbol
 _atom_site_label
 _atom_site_symmetry_multiplicity
 _atom_site_fract_x
 _atom_site_fract_y
 _atom_site_fract_z
 _atom_site_occupancy
  Dy  Dy0  1  0.591608  0.992524  0.500000  1
  Dy  Dy1  1  0.007736  0.599127  0.500000  1
  Ho  Ho2  1  0.400295  0.408341  0.500000  1
  In  In3  1  0.740571  0.733995  0.000000  1
  In  In4  1  0.265863  0.008022  0.000000  1
  In  In5  1  0.994495  0.258937  0.000000  1
  Ag  Ag6  1  0.666360  0.333230  0.000000  1
  Ag  Ag7  1  0.999743  0.999723  0.500000  1
  Au  Au8  1  0.333333  0.666099  0.000000  1
