# generated using pymatgen
data_Dy3Ho3MnTe2
_symmetry_space_group_name_H-M   'P 1'
_cell_length_a   4.08014600
_cell_length_b   8.27889329
_cell_length_c   8.28076292
_cell_angle_alpha   119.99253129
_cell_angle_beta   90.00000000
_cell_angle_gamma   90.00000000
_symmetry_Int_Tables_number   1
_chemical_formula_structural   Dy3Ho3MnTe2
_chemical_formula_sum   'Dy3 Ho3 Mn1 Te2'
_cell_volume   242.25996545
_cell_formula_units_Z   1
loop_
 _symmetry_equiv_pos_site_id
 _symmetry_equiv_pos_as_xyz
  1  'x, y, z'
loop_
 _atom_site_type_symbol
 _atom_site_label
 _atom_site_symmetry_multiplicity
 _atom_site_fract_x
 _atom_site_fract_y
 _atom_site_fract_z
 _atom_site_occupancy
  Dy  Dy0  1  0.500000  0.605971  0.000000  1
  Dy  Dy1  1  0.500000  0.394079  0.394059  1
  Dy  Dy2  1  0.500000  0.000020  0.605941  1
  Ho  Ho3  1  0.000000  0.237137  0.000000  1
  Ho  Ho4  1  0.000000  0.762788  0.762759  1
  Ho  Ho5  1  0.000000  0.000029  0.237241  1
  Mn  Mn6  1  0.500000  0.999826  0.000000  1
  Te  Te7  1  0.000000  0.333357  0.666663  1
  Te  Te8  1  0.000000  0.666694  0.333337  1
