# generated using pymatgen
data_Ba2TiSnO6
_symmetry_space_group_name_H-M   'P 1'
_cell_length_a   5.81411623
_cell_length_b   5.81411600
_cell_length_c   5.81411600
_cell_angle_alpha   119.99998860
_cell_angle_beta   119.99998731
_cell_angle_gamma   59.99999732
_symmetry_Int_Tables_number   1
_chemical_formula_structural   Ba2TiSnO6
_chemical_formula_sum   'Ba2 Ti1 Sn1 O6'
_cell_volume   138.97483496
_cell_formula_units_Z   1
loop_
 _symmetry_equiv_pos_site_id
 _symmetry_equiv_pos_as_xyz
  1  'x, y, z'
loop_
 _atom_site_type_symbol
 _atom_site_label
 _atom_site_symmetry_multiplicity
 _atom_site_fract_x
 _atom_site_fract_y
 _atom_site_fract_z
 _atom_site_occupancy
  Ba  Ba0  1  0.750001  0.750001  0.250003  1
  Ba  Ba1  1  0.249999  0.249999  0.750001  1
  Ti  Ti2  1  0.000000  0.000000  0.000000  1
  Sn  Sn3  1  0.500000  0.500000  0.500000  1
  O  O4  1  0.243708  0.243708  0.243707  1
  O  O5  1  0.756291  0.243708  0.243709  1
  O  O6  1  0.243708  0.756291  0.243709  1
  O  O7  1  0.756291  0.243709  0.756291  1
  O  O8  1  0.243709  0.756291  0.756291  1
  O  O9  1  0.756293  0.756293  0.756293  1
