# generated using pymatgen
data_Dy3Th(Zn3Cd)3
_symmetry_space_group_name_H-M   'P 1'
_cell_length_a   4.46059200
_cell_length_b   7.13808845
_cell_length_c   10.09381689
_cell_angle_alpha   90.07985211
_cell_angle_beta   90.00000000
_cell_angle_gamma   90.00000000
_symmetry_Int_Tables_number   1
_chemical_formula_structural   Dy3Th(Zn3Cd)3
_chemical_formula_sum   'Dy3 Th1 Zn9 Cd3'
_cell_volume   321.38782934
_cell_formula_units_Z   1
loop_
 _symmetry_equiv_pos_site_id
 _symmetry_equiv_pos_as_xyz
  1  'x, y, z'
loop_
 _atom_site_type_symbol
 _atom_site_label
 _atom_site_symmetry_multiplicity
 _atom_site_fract_x
 _atom_site_fract_y
 _atom_site_fract_z
 _atom_site_occupancy
  Dy  Dy0  1  0.750000  0.697453  0.331413  1
  Dy  Dy1  1  0.250000  0.804853  0.824020  1
  Dy  Dy2  1  0.750000  0.197897  0.173174  1
  Th  Th3  1  0.250000  0.299271  0.671207  1
  Zn  Zn4  1  0.750000  0.967289  0.598638  1
  Zn  Zn5  1  0.750000  0.300659  0.462304  1
  Zn  Zn6  1  0.250000  0.698990  0.537616  1
  Zn  Zn7  1  0.750000  0.813485  0.038016  1
  Zn  Zn8  1  0.250000  0.180978  0.966112  1
  Zn  Zn9  1  0.750000  0.599907  0.642377  1
  Zn  Zn10  1  0.250000  0.414983  0.355065  1
  Zn  Zn11  1  0.750000  0.082878  0.848727  1
  Zn  Zn12  1  0.250000  0.911428  0.147835  1
  Cd  Cd13  1  0.250000  0.530640  0.098229  1
  Cd  Cd14  1  0.750000  0.470052  0.901139  1
  Cd  Cd15  1  0.250000  0.029236  0.404128  1
