# generated using pymatgen
data_Er20SiBi9Sb2
_symmetry_space_group_name_H-M   'P 1'
_cell_length_a   8.05853543
_cell_length_b   9.33751300
_cell_length_c   11.81985000
_cell_angle_alpha   90.00000000
_cell_angle_beta   89.80551407
_cell_angle_gamma   90.00000000
_symmetry_Int_Tables_number   1
_chemical_formula_structural   Er20SiBi9Sb2
_chemical_formula_sum   'Er20 Si1 Bi9 Sb2'
_cell_volume   889.39933839
_cell_formula_units_Z   1
loop_
 _symmetry_equiv_pos_site_id
 _symmetry_equiv_pos_as_xyz
  1  'x, y, z'
loop_
 _atom_site_type_symbol
 _atom_site_label
 _atom_site_symmetry_multiplicity
 _atom_site_fract_x
 _atom_site_fract_y
 _atom_site_fract_z
 _atom_site_occupancy
  Er  Er0  1  0.037497  0.250000  0.510556  1
  Er  Er1  1  0.976169  0.750000  0.490277  1
  Er  Er2  1  0.471565  0.750000  0.012310  1
  Er  Er3  1  0.525884  0.250000  0.988059  1
  Er  Er4  1  0.355139  0.250000  0.295589  1
  Er  Er5  1  0.648811  0.750000  0.713326  1
  Er  Er6  1  0.146249  0.750000  0.784351  1
  Er  Er7  1  0.851428  0.250000  0.216757  1
  Er  Er8  1  0.194288  0.250000  0.775389  1
  Er  Er9  1  0.814403  0.750000  0.217615  1
  Er  Er10  1  0.316661  0.750000  0.282502  1
  Er  Er11  1  0.667034  0.250000  0.707803  1
  Er  Er12  1  0.192538  0.061986  0.060755  1
  Er  Er13  1  0.809474  0.932858  0.941787  1
  Er  Er14  1  0.313048  0.949306  0.558005  1
  Er  Er15  1  0.809474  0.567142  0.941787  1
  Er  Er16  1  0.682130  0.069472  0.446126  1
  Er  Er17  1  0.192538  0.438014  0.060755  1
  Er  Er18  1  0.682130  0.430528  0.446126  1
  Er  Er19  1  0.313048  0.550694  0.558005  1
  Si  Si20  1  0.407904  0.250000  0.536784  1
  Bi  Bi21  1  0.909042  0.250000  0.954172  1
  Bi  Bi22  1  0.064241  0.002728  0.325239  1
  Bi  Bi23  1  0.933800  0.999073  0.674703  1
  Bi  Bi24  1  0.435006  0.994709  0.825416  1
  Bi  Bi25  1  0.933800  0.500927  0.674703  1
  Bi  Bi26  1  0.565356  0.004841  0.175545  1
  Bi  Bi27  1  0.064241  0.497272  0.325239  1
  Bi  Bi28  1  0.565356  0.495159  0.175545  1
  Bi  Bi29  1  0.435006  0.505291  0.825416  1
  Sb  Sb30  1  0.593964  0.750000  0.458423  1
  Sb  Sb31  1  0.092776  0.750000  0.040941  1
