# generated using pymatgen
data_Ce2Y(SnRh)3
_symmetry_space_group_name_H-M   'P 1'
_cell_length_a   7.52746600
_cell_length_b   7.52746580
_cell_length_c   4.02628600
_cell_angle_alpha   90.00000000
_cell_angle_beta   90.00000000
_cell_angle_gamma   120.42181767
_symmetry_Int_Tables_number   1
_chemical_formula_structural   Ce2Y(SnRh)3
_chemical_formula_sum   'Ce2 Y1 Sn3 Rh3'
_cell_volume   196.73024545
_cell_formula_units_Z   1
loop_
 _symmetry_equiv_pos_site_id
 _symmetry_equiv_pos_as_xyz
  1  'x, y, z'
loop_
 _atom_site_type_symbol
 _atom_site_label
 _atom_site_symmetry_multiplicity
 _atom_site_fract_x
 _atom_site_fract_y
 _atom_site_fract_z
 _atom_site_occupancy
  Ce  Ce0  1  0.413712  0.999830  0.500000  1
  Ce  Ce1  1  0.999830  0.413712  0.500000  1
  Y  Y2  1  0.592085  0.592085  0.500000  1
  Sn  Sn3  1  0.745006  0.992766  0.000000  1
  Sn  Sn4  1  0.992766  0.745006  0.000000  1
  Sn  Sn5  1  0.261431  0.261431  0.000000  1
  Rh  Rh6  1  0.322276  0.668000  0.000000  1
  Rh  Rh7  1  0.668000  0.322276  0.000000  1
  Rh  Rh8  1  0.004895  0.004895  0.500000  1
