# generated using pymatgen
data_Ce8Zr7Si16Mo5
_symmetry_space_group_name_H-M   'P 1'
_cell_length_a   7.18653340
_cell_length_b   7.18266615
_cell_length_c   13.18051500
_cell_angle_alpha   89.72007968
_cell_angle_beta   89.88138270
_cell_angle_gamma   90.08721467
_symmetry_Int_Tables_number   1
_chemical_formula_structural   Ce8Zr7Si16Mo5
_chemical_formula_sum   'Ce8 Zr7 Si16 Mo5'
_cell_volume   680.34764458
_cell_formula_units_Z   1
loop_
 _symmetry_equiv_pos_site_id
 _symmetry_equiv_pos_as_xyz
  1  'x, y, z'
loop_
 _atom_site_type_symbol
 _atom_site_label
 _atom_site_symmetry_multiplicity
 _atom_site_fract_x
 _atom_site_fract_y
 _atom_site_fract_z
 _atom_site_occupancy
  Ce  Ce0  1  0.996984  0.342255  0.218369  1
  Ce  Ce1  1  0.004934  0.659326  0.712397  1
  Ce  Ce2  1  0.157084  0.497725  0.464103  1
  Ce  Ce3  1  0.500353  0.843425  0.037451  1
  Ce  Ce4  1  0.841314  0.503745  0.964737  1
  Ce  Ce5  1  0.498058  0.156677  0.532968  1
  Ce  Ce6  1  0.343539  0.996966  0.784744  1
  Ce  Ce7  1  0.658188  0.002565  0.285374  1
  Zr  Zr8  1  0.850835  0.003334  0.873431  1
  Zr  Zr9  1  0.500486  0.651463  0.620800  1
  Zr  Zr10  1  0.351225  0.496904  0.876793  1
  Zr  Zr11  1  0.493098  0.347910  0.125221  1
  Zr  Zr12  1  0.649559  0.504616  0.377164  1
  Zr  Zr13  1  0.998251  0.149909  0.626434  1
  Zr  Zr14  1  0.002454  0.851358  0.126236  1
  Si  Si15  1  0.362294  0.287596  0.318906  1
  Si  Si16  1  0.639735  0.699378  0.812306  1
  Si  Si17  1  0.196289  0.865015  0.556341  1
  Si  Si18  1  0.138908  0.800127  0.936129  1
  Si  Si19  1  0.800029  0.140188  0.064802  1
  Si  Si20  1  0.872389  0.192302  0.433159  1
  Si  Si21  1  0.302662  0.361026  0.685522  1
  Si  Si22  1  0.700050  0.637158  0.186394  1
  Si  Si23  1  0.290567  0.044366  0.190474  1
  Si  Si24  1  0.706455  0.951041  0.681759  1
  Si  Si25  1  0.439188  0.795407  0.428890  1
  Si  Si26  1  0.204107  0.548874  0.067829  1
  Si  Si27  1  0.549406  0.206281  0.933630  1
  Si  Si28  1  0.792862  0.449533  0.567322  1
  Si  Si29  1  0.050401  0.294612  0.817245  1
  Si  Si30  1  0.957903  0.717303  0.318882  1
  Mo  Mo31  1  0.171834  0.171879  0.002061  1
  Mo  Mo32  1  0.829628  0.830114  0.498957  1
  Mo  Mo33  1  0.324386  0.673475  0.250070  1
  Mo  Mo34  1  0.673502  0.327955  0.749695  1
  Mo  Mo35  1  0.151040  0.998192  0.373403  1
