# generated using pymatgen
data_Zr12Sn4IrRh7N4
_symmetry_space_group_name_H-M   'P 1'
_cell_length_a   8.74972822
_cell_length_b   8.75453012
_cell_length_c   8.75453100
_cell_angle_alpha   60.00000044
_cell_angle_beta   59.98184445
_cell_angle_gamma   59.98184317
_symmetry_Int_Tables_number   1
_chemical_formula_structural   Zr12Sn4IrRh7N4
_chemical_formula_sum   'Zr12 Sn4 Ir1 Rh7 N4'
_cell_volume   474.05207811
_cell_formula_units_Z   1
loop_
 _symmetry_equiv_pos_site_id
 _symmetry_equiv_pos_as_xyz
  1  'x, y, z'
loop_
 _atom_site_type_symbol
 _atom_site_label
 _atom_site_symmetry_multiplicity
 _atom_site_fract_x
 _atom_site_fract_y
 _atom_site_fract_z
 _atom_site_occupancy
  Zr  Zr0  1  0.813740  0.813064  0.186598  1
  Zr  Zr1  1  0.185694  0.186205  0.814050  1
  Zr  Zr2  1  0.813740  0.186598  0.813064  1
  Zr  Zr3  1  0.185694  0.814050  0.186205  1
  Zr  Zr4  1  0.185694  0.814050  0.814050  1
  Zr  Zr5  1  0.813740  0.186598  0.186598  1
  Zr  Zr6  1  0.435991  0.436150  0.063929  1
  Zr  Zr7  1  0.062594  0.065171  0.436117  1
  Zr  Zr8  1  0.435991  0.063929  0.436150  1
  Zr  Zr9  1  0.062594  0.436117  0.065171  1
  Zr  Zr10  1  0.062594  0.436117  0.436117  1
  Zr  Zr11  1  0.435991  0.063929  0.063929  1
  Sn  Sn12  1  0.124821  0.625060  0.625060  1
  Sn  Sn13  1  0.624912  0.124349  0.625370  1
  Sn  Sn14  1  0.624912  0.625370  0.124349  1
  Sn  Sn15  1  0.624912  0.625370  0.625370  1
  Ir  Ir16  1  0.775329  0.408223  0.408223  1
  Rh  Rh17  1  0.409400  0.772830  0.408885  1
  Rh  Rh18  1  0.409400  0.408885  0.772830  1
  Rh  Rh19  1  0.409400  0.408885  0.408885  1
  Rh  Rh20  1  0.477126  0.840958  0.840958  1
  Rh  Rh21  1  0.841222  0.476814  0.840982  1
  Rh  Rh22  1  0.841222  0.840982  0.476814  1
  Rh  Rh23  1  0.841222  0.840982  0.840982  1
  N  N24  1  0.624959  0.125014  0.125014  1
  N  N25  1  0.125701  0.625331  0.124484  1
  N  N26  1  0.125701  0.124484  0.625331  1
  N  N27  1  0.125701  0.124484  0.124484  1
