# generated using pymatgen
data_Dy3Ho3GaNiOs
_symmetry_space_group_name_H-M   'P 1'
_cell_length_a   8.33828666
_cell_length_b   8.33828730
_cell_length_c   8.34236294
_cell_angle_alpha   113.09942376
_cell_angle_beta   110.18696203
_cell_angle_gamma   105.20224339
_symmetry_Int_Tables_number   1
_chemical_formula_structural   Dy3Ho3GaNiOs
_chemical_formula_sum   'Dy6 Ho6 Ga2 Ni2 Os2'
_cell_volume   444.47398591
_cell_formula_units_Z   2
loop_
 _symmetry_equiv_pos_site_id
 _symmetry_equiv_pos_as_xyz
  1  'x, y, z'
loop_
 _atom_site_type_symbol
 _atom_site_label
 _atom_site_symmetry_multiplicity
 _atom_site_fract_x
 _atom_site_fract_y
 _atom_site_fract_z
 _atom_site_occupancy
  Dy  Dy0  1  0.435130  0.241868  0.192850  1
  Dy  Dy1  1  0.564870  0.758132  0.807150  1
  Dy  Dy2  1  0.049018  0.242280  0.807150  1
  Dy  Dy3  1  0.950982  0.757720  0.192850  1
  Dy  Dy4  1  0.180167  0.278538  0.458704  1
  Dy  Dy5  1  0.819833  0.721462  0.541296  1
  Ho  Ho6  1  0.180256  0.721690  0.901946  1
  Ho  Ho7  1  0.819744  0.278310  0.098054  1
  Ho  Ho8  1  0.330370  0.642855  0.312147  1
  Ho  Ho9  1  0.669630  0.357145  0.687853  1
  Ho  Ho10  1  0.330709  0.018222  0.687853  1
  Ho  Ho11  1  0.669291  0.981778  0.312147  1
  Ga  Ga12  1  0.500000  0.500000  0.000000  1
  Ga  Ga13  1  0.000000  0.000000  0.000000  1
  Ni  Ni14  1  0.116898  0.616898  0.500000  1
  Ni  Ni15  1  0.883102  0.383102  0.500000  1
  Os  Os16  1  0.329898  0.999846  0.329744  1
  Os  Os17  1  0.670102  0.000154  0.670256  1
