# generated using pymatgen
data_Nd2Co3Re14C3
_symmetry_space_group_name_H-M   'P 1'
_cell_length_a   6.92996157
_cell_length_b   6.92996091
_cell_length_c   6.92996236
_cell_angle_alpha   82.76319213
_cell_angle_beta   82.76318374
_cell_angle_gamma   82.76317861
_symmetry_Int_Tables_number   1
_chemical_formula_structural   Nd2Co3Re14C3
_chemical_formula_sum   'Nd2 Co3 Re14 C3'
_cell_volume   325.46963858
_cell_formula_units_Z   1
loop_
 _symmetry_equiv_pos_site_id
 _symmetry_equiv_pos_as_xyz
  1  'x, y, z'
loop_
 _atom_site_type_symbol
 _atom_site_label
 _atom_site_symmetry_multiplicity
 _atom_site_fract_x
 _atom_site_fract_y
 _atom_site_fract_z
 _atom_site_occupancy
  Nd  Nd0  1  0.650394  0.650394  0.650394  1
  Nd  Nd1  1  0.349606  0.349606  0.349606  1
  Co  Co2  1  0.000000  0.000000  0.500000  1
  Co  Co3  1  0.500000  0.000000  0.000000  1
  Co  Co4  1  0.000000  0.500000  0.000000  1
  Re  Re5  1  0.722686  0.277314  0.000000  1
  Re  Re6  1  0.000000  0.722686  0.277314  1
  Re  Re7  1  0.277314  0.000000  0.722686  1
  Re  Re8  1  0.000000  0.277314  0.722686  1
  Re  Re9  1  0.722686  0.000000  0.277314  1
  Re  Re10  1  0.277314  0.722686  0.000000  1
  Re  Re11  1  0.344301  0.344301  0.860942  1
  Re  Re12  1  0.860942  0.344301  0.344301  1
  Re  Re13  1  0.344301  0.860942  0.344301  1
  Re  Re14  1  0.655699  0.655699  0.139058  1
  Re  Re15  1  0.139058  0.655699  0.655699  1
  Re  Re16  1  0.655699  0.139058  0.655699  1
  Re  Re17  1  0.898032  0.898032  0.898032  1
  Re  Re18  1  0.101968  0.101968  0.101968  1
  C  C19  1  0.500000  0.500000  0.000000  1
  C  C20  1  0.000000  0.500000  0.500000  1
  C  C21  1  0.500000  0.000000  0.500000  1
