# generated using pymatgen
data_Tb5Nd5(Ni2Sn5)4
_symmetry_space_group_name_H-M   'P 1'
_cell_length_a   13.90970400
_cell_length_b   13.90970400
_cell_length_c   4.52528700
_cell_angle_alpha   90.00000000
_cell_angle_beta   90.00000000
_cell_angle_gamma   90.00000000
_symmetry_Int_Tables_number   1
_chemical_formula_structural   Tb5Nd5(Ni2Sn5)4
_chemical_formula_sum   'Tb5 Nd5 Ni8 Sn20'
_cell_volume   875.55191951
_cell_formula_units_Z   1
loop_
 _symmetry_equiv_pos_site_id
 _symmetry_equiv_pos_as_xyz
  1  'x, y, z'
loop_
 _atom_site_type_symbol
 _atom_site_label
 _atom_site_symmetry_multiplicity
 _atom_site_fract_x
 _atom_site_fract_y
 _atom_site_fract_z
 _atom_site_occupancy
  Tb  Tb0  1  0.000000  0.000000  0.000000  1
  Tb  Tb1  1  0.180600  0.681256  0.500000  1
  Tb  Tb2  1  0.819400  0.318744  0.500000  1
  Tb  Tb3  1  0.681256  0.819400  0.500000  1
  Tb  Tb4  1  0.318744  0.180600  0.500000  1
  Nd  Nd5  1  0.500000  0.500000  0.000000  1
  Nd  Nd6  1  0.892423  0.608142  0.500000  1
  Nd  Nd7  1  0.107577  0.391858  0.500000  1
  Nd  Nd8  1  0.391858  0.892423  0.500000  1
  Nd  Nd9  1  0.608142  0.107577  0.500000  1
  Ni  Ni10  1  0.255984  0.534774  0.000000  1
  Ni  Ni11  1  0.744016  0.465226  0.000000  1
  Ni  Ni12  1  0.757106  0.965416  0.000000  1
  Ni  Ni13  1  0.242894  0.034584  0.000000  1
  Ni  Ni14  1  0.465226  0.255984  0.000000  1
  Ni  Ni15  1  0.534774  0.744016  0.000000  1
  Ni  Ni16  1  0.034584  0.757106  0.000000  1
  Ni  Ni17  1  0.965416  0.242894  0.000000  1
  Sn  Sn18  1  0.350490  0.700605  0.000000  1
  Sn  Sn19  1  0.649510  0.299395  0.000000  1
  Sn  Sn20  1  0.850823  0.799888  0.000000  1
  Sn  Sn21  1  0.149177  0.200112  0.000000  1
  Sn  Sn22  1  0.299395  0.350490  0.000000  1
  Sn  Sn23  1  0.700605  0.649510  0.000000  1
  Sn  Sn24  1  0.200112  0.850823  0.000000  1
  Sn  Sn25  1  0.799888  0.149177  0.000000  1
  Sn  Sn26  1  0.333264  0.508759  0.500000  1
  Sn  Sn27  1  0.666736  0.491241  0.500000  1
  Sn  Sn28  1  0.835317  0.991112  0.500000  1
  Sn  Sn29  1  0.164683  0.008888  0.500000  1
  Sn  Sn30  1  0.491241  0.333264  0.500000  1
  Sn  Sn31  1  0.508759  0.666736  0.500000  1
  Sn  Sn32  1  0.008888  0.835317  0.500000  1
  Sn  Sn33  1  0.991112  0.164683  0.500000  1
  Sn  Sn34  1  0.072503  0.572718  0.000000  1
  Sn  Sn35  1  0.927497  0.427282  0.000000  1
  Sn  Sn36  1  0.572718  0.927497  0.000000  1
  Sn  Sn37  1  0.427282  0.072503  0.000000  1
