# generated using pymatgen
data_Ti3Mn2NbB4
_symmetry_space_group_name_H-M   'P 1'
_cell_length_a   5.79304845
_cell_length_b   5.79304876
_cell_length_c   3.18276400
_cell_angle_alpha   90.00000000
_cell_angle_beta   90.00000000
_cell_angle_gamma   89.98043647
_symmetry_Int_Tables_number   1
_chemical_formula_structural   Ti3Mn2NbB4
_chemical_formula_sum   'Ti3 Mn2 Nb1 B4'
_cell_volume   106.81168246
_cell_formula_units_Z   1
loop_
 _symmetry_equiv_pos_site_id
 _symmetry_equiv_pos_as_xyz
  1  'x, y, z'
loop_
 _atom_site_type_symbol
 _atom_site_label
 _atom_site_symmetry_multiplicity
 _atom_site_fract_x
 _atom_site_fract_y
 _atom_site_fract_z
 _atom_site_occupancy
  Ti  Ti0  1  0.818697  0.679352  0.500000  1
  Ti  Ti1  1  0.179352  0.318697  0.500000  1
  Ti  Ti2  1  0.682506  0.182506  0.500000  1
  Mn  Mn3  1  0.501472  0.497037  0.000000  1
  Mn  Mn4  1  0.997037  0.001472  0.000000  1
  Nb  Nb5  1  0.318916  0.818916  0.500000  1
  B  B6  1  0.106177  0.606177  0.000000  1
  B  B7  1  0.888744  0.388744  0.000000  1
  B  B8  1  0.615262  0.891837  0.000000  1
  B  B9  1  0.391837  0.115262  0.000000  1
