# generated using pymatgen
data_BiMoO4F
_symmetry_space_group_name_H-M   'P 1'
_cell_length_a   6.27456656
_cell_length_b   6.27456598
_cell_length_c   7.26251451
_cell_angle_alpha   105.14593535
_cell_angle_beta   105.14593742
_cell_angle_gamma   73.93560834
_symmetry_Int_Tables_number   1
_chemical_formula_structural   BiMoO4F
_chemical_formula_sum   'Bi2 Mo2 O8 F2'
_cell_volume   259.65458759
_cell_formula_units_Z   2
loop_
 _symmetry_equiv_pos_site_id
 _symmetry_equiv_pos_as_xyz
  1  'x, y, z'
loop_
 _atom_site_type_symbol
 _atom_site_label
 _atom_site_symmetry_multiplicity
 _atom_site_fract_x
 _atom_site_fract_y
 _atom_site_fract_z
 _atom_site_occupancy
  Bi  Bi0  1  0.798328  0.798328  0.372027  1
  Bi  Bi1  1  0.201672  0.201672  0.627974  1
  Mo  Mo2  1  0.348940  0.348940  0.217969  1
  Mo  Mo3  1  0.651059  0.651059  0.782030  1
  O  O4  1  0.734267  0.734267  0.041894  1
  O  O5  1  0.534234  0.534234  0.275701  1
  O  O6  1  0.485250  0.104816  0.328487  1
  O  O7  1  0.104816  0.485250  0.328487  1
  O  O8  1  0.895184  0.514750  0.671513  1
  O  O9  1  0.514750  0.895184  0.671513  1
  O  O10  1  0.465766  0.465766  0.724298  1
  O  O11  1  0.265732  0.265732  0.958106  1
  F  F12  1  0.006658  0.006658  0.324909  1
  F  F13  1  0.993341  0.993341  0.675090  1
