# generated using pymatgen
data_Tm5Fe3Co(P4Ru5)3
_symmetry_space_group_name_H-M   'P 1'
_cell_length_a   12.40189500
_cell_length_b   12.40189378
_cell_length_c   3.88095900
_cell_angle_alpha   90.00000000
_cell_angle_beta   90.00000000
_cell_angle_gamma   120.00000060
_symmetry_Int_Tables_number   1
_chemical_formula_structural   Tm5Fe3Co(P4Ru5)3
_chemical_formula_sum   'Tm5 Fe3 Co1 P12 Ru15'
_cell_volume   516.94666882
_cell_formula_units_Z   1
loop_
 _symmetry_equiv_pos_site_id
 _symmetry_equiv_pos_as_xyz
  1  'x, y, z'
loop_
 _atom_site_type_symbol
 _atom_site_label
 _atom_site_symmetry_multiplicity
 _atom_site_fract_x
 _atom_site_fract_y
 _atom_site_fract_z
 _atom_site_occupancy
  Tm  Tm0  1  0.666667  0.333333  0.000000  1
  Tm  Tm1  1  0.333333  0.666667  0.000000  1
  Tm  Tm2  1  0.179669  0.179669  0.500000  1
  Tm  Tm3  1  0.820331  0.000000  0.500000  1
  Tm  Tm4  1  0.000000  0.820331  0.500000  1
  Fe  Fe5  1  0.720543  0.720543  0.500000  1
  Fe  Fe6  1  0.279457  0.000000  0.500000  1
  Fe  Fe7  1  0.000000  0.279457  0.500000  1
  Co  Co8  1  0.000000  0.000000  0.000000  1
  P  P9  1  0.371831  0.371831  0.000000  1
  P  P10  1  0.628169  0.000000  0.000000  1
  P  P11  1  0.000000  0.628169  0.000000  1
  P  P12  1  0.838460  0.310081  0.500000  1
  P  P13  1  0.689919  0.528378  0.500000  1
  P  P14  1  0.471622  0.161540  0.500000  1
  P  P15  1  0.310081  0.838460  0.500000  1
  P  P16  1  0.528378  0.689919  0.500000  1
  P  P17  1  0.161540  0.471622  0.500000  1
  P  P18  1  0.821863  0.821863  0.000000  1
  P  P19  1  0.178137  0.000000  0.000000  1
  P  P20  1  0.000000  0.178137  0.000000  1
  Ru  Ru21  1  0.819467  0.191424  0.000000  1
  Ru  Ru22  1  0.808576  0.628042  0.000000  1
  Ru  Ru23  1  0.371958  0.180533  0.000000  1
  Ru  Ru24  1  0.191424  0.819467  0.000000  1
  Ru  Ru25  1  0.628042  0.808576  0.000000  1
  Ru  Ru26  1  0.180533  0.371958  0.000000  1
  Ru  Ru27  1  0.558263  0.558263  0.000000  1
  Ru  Ru28  1  0.441737  0.000000  0.000000  1
  Ru  Ru29  1  0.000000  0.441737  0.000000  1
  Ru  Ru30  1  0.637585  0.127244  0.500000  1
  Ru  Ru31  1  0.872756  0.510343  0.500000  1
  Ru  Ru32  1  0.489657  0.362415  0.500000  1
  Ru  Ru33  1  0.127244  0.637585  0.500000  1
  Ru  Ru34  1  0.510343  0.872756  0.500000  1
  Ru  Ru35  1  0.362415  0.489657  0.500000  1
