# generated using pymatgen
data_Hf10In6Hg2Ir3Rh
_symmetry_space_group_name_H-M   'P 1'
_cell_length_a   3.32782100
_cell_length_b   7.67580200
_cell_length_c   17.57757502
_cell_angle_alpha   89.99825644
_cell_angle_beta   90.00000000
_cell_angle_gamma   90.00000000
_symmetry_Int_Tables_number   1
_chemical_formula_structural   Hf10In6Hg2Ir3Rh
_chemical_formula_sum   'Hf10 In6 Hg2 Ir3 Rh1'
_cell_volume   448.99621640
_cell_formula_units_Z   1
loop_
 _symmetry_equiv_pos_site_id
 _symmetry_equiv_pos_as_xyz
  1  'x, y, z'
loop_
 _atom_site_type_symbol
 _atom_site_label
 _atom_site_symmetry_multiplicity
 _atom_site_fract_x
 _atom_site_fract_y
 _atom_site_fract_z
 _atom_site_occupancy
  Hf  Hf0  1  0.000000  0.263291  0.222492  1
  Hf  Hf1  1  0.000000  0.638822  0.079776  1
  Hf  Hf2  1  0.000000  0.761474  0.279993  1
  Hf  Hf3  1  0.000000  0.861312  0.579721  1
  Hf  Hf4  1  0.000000  0.237861  0.722029  1
  Hf  Hf5  1  0.000000  0.737477  0.779600  1
  Hf  Hf6  1  0.000000  0.132828  0.419643  1
  Hf  Hf7  1  0.000000  0.000084  0.999782  1
  Hf  Hf8  1  0.000000  0.366534  0.920159  1
  Hf  Hf9  1  0.000000  0.499573  0.499721  1
  In  In10  1  0.500000  0.059933  0.852299  1
  In  In11  1  0.500000  0.560038  0.647622  1
  In  In12  1  0.500000  0.198231  0.565520  1
  In  In13  1  0.500000  0.941045  0.148650  1
  In  In14  1  0.500000  0.438425  0.352389  1
  In  In15  1  0.500000  0.301166  0.065891  1
  Hg  Hg16  1  0.500000  0.798982  0.432726  1
  Hg  Hg17  1  0.500000  0.702238  0.933833  1
  Ir  Ir18  1  0.500000  0.449460  0.805642  1
  Ir  Ir19  1  0.500000  0.550428  0.193559  1
  Ir  Ir20  1  0.500000  0.949825  0.693267  1
  Rh  Rh21  1  0.500000  0.050973  0.305684  1
