# generated using pymatgen
data_LiYPaAlPt2
_symmetry_space_group_name_H-M   'P 1'
_cell_length_a   4.28813700
_cell_length_b   6.84383700
_cell_length_c   8.12605100
_cell_angle_alpha   90.00000000
_cell_angle_beta   90.00000000
_cell_angle_gamma   90.00000000
_symmetry_Int_Tables_number   1
_chemical_formula_structural   LiYPaAlPt2
_chemical_formula_sum   'Li2 Y2 Pa2 Al2 Pt4'
_cell_volume   238.47774315
_cell_formula_units_Z   2
loop_
 _symmetry_equiv_pos_site_id
 _symmetry_equiv_pos_as_xyz
  1  'x, y, z'
loop_
 _atom_site_type_symbol
 _atom_site_label
 _atom_site_symmetry_multiplicity
 _atom_site_fract_x
 _atom_site_fract_y
 _atom_site_fract_z
 _atom_site_occupancy
  Li  Li0  1  0.250000  0.136788  0.067185  1
  Li  Li1  1  0.250000  0.636788  0.432815  1
  Y  Y2  1  0.750000  0.961846  0.312673  1
  Y  Y3  1  0.750000  0.461846  0.187327  1
  Pa  Pa4  1  0.250000  0.034675  0.688616  1
  Pa  Pa5  1  0.250000  0.534675  0.811384  1
  Al  Al6  1  0.750000  0.867429  0.944897  1
  Al  Al7  1  0.750000  0.367429  0.555103  1
  Pt  Pt8  1  0.250000  0.251433  0.402791  1
  Pt  Pt9  1  0.250000  0.751433  0.097209  1
  Pt  Pt10  1  0.750000  0.747828  0.629367  1
  Pt  Pt11  1  0.750000  0.247828  0.870633  1
