# generated using pymatgen
data_DyErB8OsRh
_symmetry_space_group_name_H-M   'P 1'
_cell_length_a   3.56485000
_cell_length_b   5.95679341
_cell_length_c   11.54156709
_cell_angle_alpha   89.99507043
_cell_angle_beta   90.00000000
_cell_angle_gamma   90.00000000
_symmetry_Int_Tables_number   1
_chemical_formula_structural   DyErB8OsRh
_chemical_formula_sum   'Dy2 Er2 B16 Os2 Rh2'
_cell_volume   245.08604178
_cell_formula_units_Z   2
loop_
 _symmetry_equiv_pos_site_id
 _symmetry_equiv_pos_as_xyz
  1  'x, y, z'
loop_
 _atom_site_type_symbol
 _atom_site_label
 _atom_site_symmetry_multiplicity
 _atom_site_fract_x
 _atom_site_fract_y
 _atom_site_fract_z
 _atom_site_occupancy
  Dy  Dy0  1  0.000000  0.129411  0.149326  1
  Dy  Dy1  1  0.000000  0.870589  0.850674  1
  Er  Er2  1  0.000000  0.629534  0.350976  1
  Er  Er3  1  0.000000  0.370466  0.649024  1
  B  B4  1  0.500000  0.787936  0.187823  1
  B  B5  1  0.500000  0.212064  0.812177  1
  B  B6  1  0.500000  0.289743  0.313394  1
  B  B7  1  0.500000  0.710257  0.686606  1
  B  B8  1  0.500000  0.862965  0.029679  1
  B  B9  1  0.500000  0.137035  0.970321  1
  B  B10  1  0.500000  0.364264  0.470080  1
  B  B11  1  0.500000  0.635736  0.529920  1
  B  B12  1  0.500000  0.887087  0.453222  1
  B  B13  1  0.500000  0.112913  0.546778  1
  B  B14  1  0.500000  0.387727  0.047399  1
  B  B15  1  0.500000  0.612273  0.952601  1
  B  B16  1  0.500000  0.973586  0.308251  1
  B  B17  1  0.500000  0.026414  0.691749  1
  B  B18  1  0.500000  0.478481  0.193816  1
  B  B19  1  0.500000  0.521519  0.806184  1
  Os  Os20  1  0.000000  0.142722  0.407163  1
  Os  Os21  1  0.000000  0.857278  0.592837  1
  Rh  Rh22  1  0.000000  0.640972  0.095410  1
  Rh  Rh23  1  0.000000  0.359028  0.904590  1
