# generated using pymatgen
data_Y8AlCuPd23
_symmetry_space_group_name_H-M   'P 1'
_cell_length_a   8.35221200
_cell_length_b   8.40465700
_cell_length_c   8.33320700
_cell_angle_alpha   90.00000000
_cell_angle_beta   90.00000000
_cell_angle_gamma   90.00000000
_symmetry_Int_Tables_number   1
_chemical_formula_structural   Y8AlCuPd23
_chemical_formula_sum   'Y8 Al1 Cu1 Pd23'
_cell_volume   584.97010715
_cell_formula_units_Z   1
loop_
 _symmetry_equiv_pos_site_id
 _symmetry_equiv_pos_as_xyz
  1  'x, y, z'
loop_
 _atom_site_type_symbol
 _atom_site_label
 _atom_site_symmetry_multiplicity
 _atom_site_fract_x
 _atom_site_fract_y
 _atom_site_fract_z
 _atom_site_occupancy
  Y  Y0  1  0.252142  0.250029  0.255213  1
  Y  Y1  1  0.747629  0.747263  0.748988  1
  Y  Y2  1  0.747629  0.747263  0.251012  1
  Y  Y3  1  0.747629  0.252737  0.748988  1
  Y  Y4  1  0.252142  0.250029  0.744787  1
  Y  Y5  1  0.252142  0.749971  0.255213  1
  Y  Y6  1  0.252142  0.749971  0.744787  1
  Y  Y7  1  0.747629  0.252737  0.251012  1
  Al  Al8  1  0.997915  0.000000  0.000000  1
  Cu  Cu9  1  0.264264  0.500000  0.000000  1
  Pd  Pd10  1  0.742697  0.500000  0.000000  1
  Pd  Pd11  1  0.998767  0.260068  0.500000  1
  Pd  Pd12  1  0.494070  0.262992  0.000000  1
  Pd  Pd13  1  0.998767  0.739932  0.500000  1
  Pd  Pd14  1  0.494070  0.737008  0.000000  1
  Pd  Pd15  1  0.500073  0.000000  0.259939  1
  Pd  Pd16  1  0.259746  0.000000  0.500000  1
  Pd  Pd17  1  0.500073  0.000000  0.740061  1
  Pd  Pd18  1  0.739645  0.000000  0.500000  1
  Pd  Pd19  1  0.002521  0.500000  0.259642  1
  Pd  Pd20  1  0.002521  0.500000  0.740358  1
  Pd  Pd21  1  0.252492  0.500000  0.500000  1
  Pd  Pd22  1  0.746950  0.500000  0.500000  1
  Pd  Pd23  1  0.500761  0.253270  0.500000  1
  Pd  Pd24  1  0.500761  0.746730  0.500000  1
  Pd  Pd25  1  0.495611  0.500000  0.250350  1
  Pd  Pd26  1  0.495611  0.500000  0.749650  1
  Pd  Pd27  1  0.287798  0.000000  0.000000  1
  Pd  Pd28  1  0.707908  0.000000  0.000000  1
  Pd  Pd29  1  0.009782  0.291968  0.000000  1
  Pd  Pd30  1  0.009782  0.708032  0.000000  1
  Pd  Pd31  1  0.999168  0.000000  0.289954  1
  Pd  Pd32  1  0.999168  0.000000  0.710046  1
