# generated using pymatgen
data_LiTbCu4
_symmetry_space_group_name_H-M   'P 1'
_cell_length_a   5.05737815
_cell_length_b   5.05737805
_cell_length_c   5.05737900
_cell_angle_alpha   60.00000031
_cell_angle_beta   60.00000099
_cell_angle_gamma   60.00000375
_symmetry_Int_Tables_number   1
_chemical_formula_structural   LiTbCu4
_chemical_formula_sum   'Li1 Tb1 Cu4'
_cell_volume   91.46635379
_cell_formula_units_Z   1
loop_
 _symmetry_equiv_pos_site_id
 _symmetry_equiv_pos_as_xyz
  1  'x, y, z'
loop_
 _atom_site_type_symbol
 _atom_site_label
 _atom_site_symmetry_multiplicity
 _atom_site_fract_x
 _atom_site_fract_y
 _atom_site_fract_z
 _atom_site_occupancy
  Li  Li0  1  0.250000  0.250000  0.250000  1
  Tb  Tb1  1  0.000000  0.000000  0.000000  1
  Cu  Cu2  1  0.623536  0.623536  0.129394  1
  Cu  Cu3  1  0.623536  0.129394  0.623536  1
  Cu  Cu4  1  0.129394  0.623536  0.623536  1
  Cu  Cu5  1  0.623536  0.623536  0.623536  1
