# generated using pymatgen
data_Er5B(OsC3)2
_symmetry_space_group_name_H-M   'P 1'
_cell_length_a   8.12356588
_cell_length_b   8.12356598
_cell_length_c   3.47357900
_cell_angle_alpha   90.00000000
_cell_angle_beta   90.00000000
_cell_angle_gamma   121.57373406
_symmetry_Int_Tables_number   1
_chemical_formula_structural   Er5B(OsC3)2
_chemical_formula_sum   'Er5 B1 Os2 C6'
_cell_volume   195.29602334
_cell_formula_units_Z   1
loop_
 _symmetry_equiv_pos_site_id
 _symmetry_equiv_pos_as_xyz
  1  'x, y, z'
loop_
 _atom_site_type_symbol
 _atom_site_label
 _atom_site_symmetry_multiplicity
 _atom_site_fract_x
 _atom_site_fract_y
 _atom_site_fract_z
 _atom_site_occupancy
  Er  Er0  1  0.500000  0.500000  0.000000  1
  Er  Er1  1  0.079618  0.333279  0.500000  1
  Er  Er2  1  0.920382  0.666721  0.500000  1
  Er  Er3  1  0.666721  0.920382  0.500000  1
  Er  Er4  1  0.333279  0.079618  0.500000  1
  B  B5  1  0.000000  0.000000  0.000000  1
  Os  Os6  1  0.713972  0.286028  0.000000  1
  Os  Os7  1  0.286028  0.713972  0.000000  1
  C  C8  1  0.631671  0.368329  0.500000  1
  C  C9  1  0.368329  0.631671  0.500000  1
  C  C10  1  0.185042  0.185042  0.000000  1
  C  C11  1  0.814958  0.814958  0.000000  1
  C  C12  1  0.000000  0.500000  0.000000  1
  C  C13  1  0.500000  0.000000  0.000000  1
