# generated using pymatgen
data_BaScGa(SeO3)4
_symmetry_space_group_name_H-M   'P 1'
_cell_length_a   5.33845600
_cell_length_b   10.41772905
_cell_length_c   14.32894719
_cell_angle_alpha   49.07208915
_cell_angle_beta   90.00000000
_cell_angle_gamma   90.00000000
_symmetry_Int_Tables_number   1
_chemical_formula_structural   BaScGa(SeO3)4
_chemical_formula_sum   'Ba2 Sc2 Ga2 Se8 O24'
_cell_volume   602.08425281
_cell_formula_units_Z   2
loop_
 _symmetry_equiv_pos_site_id
 _symmetry_equiv_pos_as_xyz
  1  'x, y, z'
loop_
 _atom_site_type_symbol
 _atom_site_label
 _atom_site_symmetry_multiplicity
 _atom_site_fract_x
 _atom_site_fract_y
 _atom_site_fract_z
 _atom_site_occupancy
  Ba  Ba0  1  0.059272  0.000000  0.750000  1
  Ba  Ba1  1  0.940728  0.000000  0.250000  1
  Sc  Sc2  1  0.500000  0.000000  0.000000  1
  Sc  Sc3  1  0.500000  0.000000  0.500000  1
  Ga  Ga4  1  0.000000  0.500000  0.500000  1
  Ga  Ga5  1  0.000000  0.500000  0.000000  1
  Se  Se6  1  0.498599  0.346128  0.175652  1
  Se  Se7  1  0.011003  0.737986  0.594482  1
  Se  Se8  1  0.011003  0.262014  0.905518  1
  Se  Se9  1  0.988997  0.262014  0.405518  1
  Se  Se10  1  0.501401  0.346128  0.675652  1
  Se  Se11  1  0.501401  0.653872  0.824348  1
  Se  Se12  1  0.498599  0.653872  0.324348  1
  Se  Se13  1  0.988997  0.737986  0.094482  1
  O  O14  1  0.214195  0.700910  0.355032  1
  O  O15  1  0.286982  0.804347  0.034882  1
  O  O16  1  0.785805  0.700910  0.855032  1
  O  O17  1  0.817748  0.906788  0.967263  1
  O  O18  1  0.713018  0.804347  0.534882  1
  O  O19  1  0.298483  0.349901  0.578433  1
  O  O20  1  0.182252  0.093212  0.032737  1
  O  O21  1  0.701517  0.349901  0.078433  1
  O  O22  1  0.785805  0.299090  0.644968  1
  O  O23  1  0.583530  0.144279  0.309855  1
  O  O24  1  0.701517  0.650099  0.421567  1
  O  O25  1  0.286982  0.195653  0.465118  1
  O  O26  1  0.583530  0.855721  0.190145  1
  O  O27  1  0.817748  0.093212  0.532737  1
  O  O28  1  0.416470  0.144279  0.809855  1
  O  O29  1  0.060196  0.428462  0.901996  1
  O  O30  1  0.713018  0.195653  0.965118  1
  O  O31  1  0.939804  0.428462  0.401996  1
  O  O32  1  0.060196  0.571538  0.598004  1
  O  O33  1  0.416470  0.855721  0.690145  1
  O  O34  1  0.298483  0.650099  0.921567  1
  O  O35  1  0.182252  0.906788  0.467263  1
  O  O36  1  0.939804  0.571538  0.098004  1
  O  O37  1  0.214195  0.299090  0.144968  1
