# generated using pymatgen
data_Tm3Sn2SbIr3
_symmetry_space_group_name_H-M   'P 1'
_cell_length_a   7.39775667
_cell_length_b   7.40863515
_cell_length_c   3.96885100
_cell_angle_alpha   90.00000000
_cell_angle_beta   90.00000000
_cell_angle_gamma   120.04866577
_symmetry_Int_Tables_number   1
_chemical_formula_structural   Tm3Sn2SbIr3
_chemical_formula_sum   'Tm3 Sn2 Sb1 Ir3'
_cell_volume   188.28706869
_cell_formula_units_Z   1
loop_
 _symmetry_equiv_pos_site_id
 _symmetry_equiv_pos_as_xyz
  1  'x, y, z'
loop_
 _atom_site_type_symbol
 _atom_site_label
 _atom_site_symmetry_multiplicity
 _atom_site_fract_x
 _atom_site_fract_y
 _atom_site_fract_z
 _atom_site_occupancy
  Tm  Tm0  1  0.000000  0.399852  0.500000  1
  Tm  Tm1  1  0.593811  0.597117  0.500000  1
  Tm  Tm2  1  0.406189  0.003306  0.500000  1
  Sn  Sn3  1  0.260808  0.261663  0.000000  1
  Sn  Sn4  1  0.739192  0.000855  0.000000  1
  Sb  Sb5  1  0.000000  0.738182  0.000000  1
  Ir  Ir6  1  0.331798  0.667068  0.000000  1
  Ir  Ir7  1  0.668202  0.335269  0.000000  1
  Ir  Ir8  1  0.000000  0.996688  0.500000  1
