# generated using pymatgen
data_NaLi2PrSb2
_symmetry_space_group_name_H-M   'P 1'
_cell_length_a   4.71235600
_cell_length_b   4.71235599
_cell_length_c   7.54923400
_cell_angle_alpha   90.00000000
_cell_angle_beta   90.00000000
_cell_angle_gamma   120.00000005
_symmetry_Int_Tables_number   1
_chemical_formula_structural   NaLi2PrSb2
_chemical_formula_sum   'Na1 Li2 Pr1 Sb2'
_cell_volume   145.18097296
_cell_formula_units_Z   1
loop_
 _symmetry_equiv_pos_site_id
 _symmetry_equiv_pos_as_xyz
  1  'x, y, z'
loop_
 _atom_site_type_symbol
 _atom_site_label
 _atom_site_symmetry_multiplicity
 _atom_site_fract_x
 _atom_site_fract_y
 _atom_site_fract_z
 _atom_site_occupancy
  Na  Na0  1  0.000000  0.000000  0.500000  1
  Li  Li1  1  0.666667  0.333333  0.345423  1
  Li  Li2  1  0.333333  0.666667  0.654577  1
  Pr  Pr3  1  0.000000  0.000000  0.000000  1
  Sb  Sb4  1  0.666667  0.333333  0.752420  1
  Sb  Sb5  1  0.333333  0.666667  0.247580  1
