# generated using pymatgen
data_Ho5In4AgRu
_symmetry_space_group_name_H-M   'P 1'
_cell_length_a   3.62030200
_cell_length_b   8.19020229
_cell_length_c   18.34390897
_cell_angle_alpha   89.91502429
_cell_angle_beta   90.00000000
_cell_angle_gamma   90.00000000
_symmetry_Int_Tables_number   1
_chemical_formula_structural   Ho5In4AgRu
_chemical_formula_sum   'Ho10 In8 Ag2 Ru2'
_cell_volume   543.91475147
_cell_formula_units_Z   2
loop_
 _symmetry_equiv_pos_site_id
 _symmetry_equiv_pos_as_xyz
  1  'x, y, z'
loop_
 _atom_site_type_symbol
 _atom_site_label
 _atom_site_symmetry_multiplicity
 _atom_site_fract_x
 _atom_site_fract_y
 _atom_site_fract_z
 _atom_site_occupancy
  Ho  Ho0  1  0.000000  0.500000  0.500000  1
  Ho  Ho1  1  0.000000  0.000000  0.000000  1
  Ho  Ho2  1  0.000000  0.713662  0.276956  1
  Ho  Ho3  1  0.000000  0.286338  0.723044  1
  Ho  Ho4  1  0.000000  0.735628  0.783034  1
  Ho  Ho5  1  0.000000  0.264372  0.216966  1
  Ho  Ho6  1  0.000000  0.614670  0.085723  1
  Ho  Ho7  1  0.000000  0.385330  0.914277  1
  Ho  Ho8  1  0.000000  0.877502  0.578330  1
  Ho  Ho9  1  0.000000  0.122498  0.421670  1
  In  In10  1  0.500000  0.708149  0.931867  1
  In  In11  1  0.500000  0.291851  0.068133  1
  In  In12  1  0.500000  0.790129  0.430797  1
  In  In13  1  0.500000  0.209871  0.569203  1
  In  In14  1  0.500000  0.578735  0.648935  1
  In  In15  1  0.500000  0.421265  0.351065  1
  In  In16  1  0.500000  0.920077  0.148383  1
  In  In17  1  0.500000  0.079923  0.851617  1
  Ag  Ag18  1  0.500000  0.980828  0.698652  1
  Ag  Ag19  1  0.500000  0.019172  0.301348  1
  Ru  Ru20  1  0.500000  0.520817  0.194677  1
  Ru  Ru21  1  0.500000  0.479183  0.805323  1
