# generated using pymatgen
data_CeDy3Al18PtRh5
_symmetry_space_group_name_H-M   'P 1'
_cell_length_a   7.58982368
_cell_length_b   7.58844692
_cell_length_c   9.45714206
_cell_angle_alpha   89.99140147
_cell_angle_beta   89.99599632
_cell_angle_gamma   119.45978229
_symmetry_Int_Tables_number   1
_chemical_formula_structural   CeDy3Al18PtRh5
_chemical_formula_sum   'Ce1 Dy3 Al18 Pt1 Rh5'
_cell_volume   474.25683313
_cell_formula_units_Z   1
loop_
 _symmetry_equiv_pos_site_id
 _symmetry_equiv_pos_as_xyz
  1  'x, y, z'
loop_
 _atom_site_type_symbol
 _atom_site_label
 _atom_site_symmetry_multiplicity
 _atom_site_fract_x
 _atom_site_fract_y
 _atom_site_fract_z
 _atom_site_occupancy
  Ce  Ce0  1  0.993538  0.670194  0.750455  1
  Dy  Dy1  1  0.003998  0.327905  0.250373  1
  Dy  Dy2  1  0.673578  0.996336  0.749599  1
  Dy  Dy3  1  0.330227  0.006525  0.249911  1
  Al  Al4  1  0.130389  0.129265  0.750363  1
  Al  Al5  1  0.874298  0.873822  0.249406  1
  Al  Al6  1  0.005043  0.334758  0.576243  1
  Al  Al7  1  0.003076  0.668455  0.421081  1
  Al  Al8  1  0.000547  0.664318  0.077939  1
  Al  Al9  1  0.337467  0.000762  0.925454  1
  Al  Al10  1  0.001010  0.333937  0.925428  1
  Al  Al11  1  0.664561  0.999807  0.076879  1
  Al  Al12  1  0.664328  0.995742  0.421469  1
  Al  Al13  1  0.333175  0.998009  0.576085  1
  Al  Al14  1  0.331180  0.331389  0.052863  1
  Al  Al15  1  0.665490  0.667349  0.953775  1
  Al  Al16  1  0.664595  0.669232  0.549897  1
  Al  Al17  1  0.329464  0.332733  0.443980  1
  Al  Al18  1  0.342560  0.551512  0.750422  1
  Al  Al19  1  0.659205  0.451911  0.246501  1
  Al  Al20  1  0.545363  0.340396  0.753387  1
  Al  Al21  1  0.447839  0.659013  0.249251  1
  Pt  Pt22  1  0.671900  0.327213  0.499955  1
  Rh  Rh23  1  0.327904  0.671427  0.499715  1
  Rh  Rh24  1  0.327712  0.671314  0.999965  1
  Rh  Rh25  1  0.671892  0.327341  0.999883  1
  Rh  Rh26  1  0.999657  0.999881  0.500235  1
  Rh  Rh27  1  0.000001  0.999453  0.999485  1
