# generated using pymatgen
data_SrPrBe2(AlCu2)8
_symmetry_space_group_name_H-M   'P 1'
_cell_length_a   8.21714837
_cell_length_b   8.21702963
_cell_length_c   8.21438206
_cell_angle_alpha   119.90441023
_cell_angle_beta   119.90448700
_cell_angle_gamma   90.18079602
_symmetry_Int_Tables_number   1
_chemical_formula_structural   SrPrBe2(AlCu2)8
_chemical_formula_sum   'Sr1 Pr1 Be2 Al8 Cu16'
_cell_volume   392.70173995
_cell_formula_units_Z   1
loop_
 _symmetry_equiv_pos_site_id
 _symmetry_equiv_pos_as_xyz
  1  'x, y, z'
loop_
 _atom_site_type_symbol
 _atom_site_label
 _atom_site_symmetry_multiplicity
 _atom_site_fract_x
 _atom_site_fract_y
 _atom_site_fract_z
 _atom_site_occupancy
  Sr  Sr0  1  0.749996  0.750006  0.000001  1
  Pr  Pr1  1  0.250042  0.249967  0.000005  1
  Be  Be2  1  0.500004  0.000004  0.500005  1
  Be  Be3  1  0.000028  0.499966  0.499996  1
  Al  Al4  1  0.805827  0.303787  0.865477  1
  Al  Al5  1  0.559599  0.061761  0.865594  1
  Al  Al6  1  0.061889  0.196207  0.502246  1
  Al  Al7  1  0.303788  0.438111  0.497755  1
  Al  Al8  1  0.940296  0.805909  0.502036  1
  Al  Al9  1  0.438239  0.940409  0.134410  1
  Al  Al10  1  0.196213  0.694176  0.134526  1
  Al  Al11  1  0.694095  0.559705  0.497964  1
  Cu  Cu12  1  0.943506  0.209571  0.152474  1
  Cu  Cu13  1  0.209427  0.057085  0.265838  1
  Cu  Cu14  1  0.791181  0.943589  0.734179  1
  Cu  Cu15  1  0.442907  0.290568  0.734157  1
  Cu  Cu16  1  0.056981  0.791029  0.847504  1
  Cu  Cu17  1  0.785143  0.062997  0.500380  1
  Cu  Cu18  1  0.562701  0.284748  0.499699  1
  Cu  Cu19  1  0.215260  0.937295  0.500305  1
  Cu  Cu20  1  0.436995  0.714846  0.499603  1
  Cu  Cu21  1  0.937380  0.437046  0.722074  1
  Cu  Cu22  1  0.715050  0.215316  0.278058  1
  Cu  Cu23  1  0.062950  0.562620  0.277923  1
  Cu  Cu24  1  0.708973  0.443023  0.152497  1
  Cu  Cu25  1  0.556410  0.708822  0.265821  1
  Cu  Cu26  1  0.284686  0.784951  0.721948  1
  Cu  Cu27  1  0.290434  0.556488  0.847526  1
