# generated using pymatgen
data_HoIn2(SnRh)4
_symmetry_space_group_name_H-M   'P 1'
_cell_length_a   6.98717452
_cell_length_b   6.98717488
_cell_length_c   6.96415786
_cell_angle_alpha   120.47364762
_cell_angle_beta   120.47364920
_cell_angle_gamma   89.37301362
_symmetry_Int_Tables_number   1
_chemical_formula_structural   HoIn2(SnRh)4
_chemical_formula_sum   'Ho1 In2 Sn4 Rh4'
_cell_volume   238.26867086
_cell_formula_units_Z   1
loop_
 _symmetry_equiv_pos_site_id
 _symmetry_equiv_pos_as_xyz
  1  'x, y, z'
loop_
 _atom_site_type_symbol
 _atom_site_label
 _atom_site_symmetry_multiplicity
 _atom_site_fract_x
 _atom_site_fract_y
 _atom_site_fract_z
 _atom_site_occupancy
  Ho  Ho0  1  0.999789  0.999789  0.000000  1
  In  In1  1  0.460096  0.124289  0.000000  1
  In  In2  1  0.124289  0.460096  0.000000  1
  Sn  Sn3  1  0.873230  0.873230  0.332433  1
  Sn  Sn4  1  0.500852  0.000852  0.500000  1
  Sn  Sn5  1  0.000852  0.500852  0.500000  1
  Sn  Sn6  1  0.540796  0.540796  0.667566  1
  Rh  Rh7  1  0.751320  0.393597  0.000000  1
  Rh  Rh8  1  0.393597  0.751320  0.000000  1
  Rh  Rh9  1  0.615606  0.615606  0.376034  1
  Rh  Rh10  1  0.239571  0.239571  0.623965  1
