# generated using pymatgen
data_Tm6Fe3Si6Rh
_symmetry_space_group_name_H-M   'P 1'
_cell_length_a   5.58982415
_cell_length_b   5.58982341
_cell_length_c   13.50418247
_cell_angle_alpha   89.84375759
_cell_angle_beta   90.15624230
_cell_angle_gamma   137.00924185
_symmetry_Int_Tables_number   1
_chemical_formula_structural   Tm6Fe3Si6Rh
_chemical_formula_sum   'Tm6 Fe3 Si6 Rh1'
_cell_volume   287.72053771
_cell_formula_units_Z   1
loop_
 _symmetry_equiv_pos_site_id
 _symmetry_equiv_pos_as_xyz
  1  'x, y, z'
loop_
 _atom_site_type_symbol
 _atom_site_label
 _atom_site_symmetry_multiplicity
 _atom_site_fract_x
 _atom_site_fract_y
 _atom_site_fract_z
 _atom_site_occupancy
  Tm  Tm0  1  0.637575  0.362425  0.248797  1
  Tm  Tm1  1  0.361906  0.638094  0.750187  1
  Tm  Tm2  1  0.919143  0.080857  0.111252  1
  Tm  Tm3  1  0.078216  0.921784  0.890120  1
  Tm  Tm4  1  0.080869  0.919131  0.614406  1
  Tm  Tm5  1  0.920241  0.079759  0.383886  1
  Fe  Fe6  1  0.214125  0.785875  0.418439  1
  Fe  Fe7  1  0.213513  0.786487  0.080688  1
  Fe  Fe8  1  0.785730  0.214270  0.920269  1
  Si  Si9  1  0.326238  0.673762  0.247998  1
  Si  Si10  1  0.669153  0.330847  0.756314  1
  Si  Si11  1  0.623466  0.376534  0.039710  1
  Si  Si12  1  0.375213  0.624787  0.960525  1
  Si  Si13  1  0.388612  0.611388  0.534601  1
  Si  Si14  1  0.617059  0.382941  0.458337  1
  Rh  Rh15  1  0.788942  0.211058  0.584472  1
