# generated using pymatgen
data_La5Nd3Cd2IrRu
_symmetry_space_group_name_H-M   'P 1'
_cell_length_a   10.06305930
_cell_length_b   10.06305916
_cell_length_c   10.07907800
_cell_angle_alpha   59.94732817
_cell_angle_beta   59.94732863
_cell_angle_gamma   59.90340474
_symmetry_Int_Tables_number   1
_chemical_formula_structural   La5Nd3Cd2IrRu
_chemical_formula_sum   'La10 Nd6 Cd4 Ir2 Ru2'
_cell_volume   720.61302919
_cell_formula_units_Z   2
loop_
 _symmetry_equiv_pos_site_id
 _symmetry_equiv_pos_as_xyz
  1  'x, y, z'
loop_
 _atom_site_type_symbol
 _atom_site_label
 _atom_site_symmetry_multiplicity
 _atom_site_fract_x
 _atom_site_fract_y
 _atom_site_fract_z
 _atom_site_occupancy
  La  La0  1  0.346034  0.346034  0.349061  1
  La  La1  1  0.346034  0.346034  0.958872  1
  La  La2  1  0.344745  0.959740  0.347757  1
  La  La3  1  0.959740  0.344745  0.347757  1
  La  La4  1  0.812411  0.190936  0.190143  1
  La  La5  1  0.190936  0.812411  0.806510  1
  La  La6  1  0.190936  0.812411  0.190143  1
  La  La7  1  0.812411  0.190936  0.806510  1
  La  La8  1  0.190229  0.190229  0.809771  1
  La  La9  1  0.808393  0.808393  0.191607  1
  Nd  Nd10  1  0.936863  0.562814  0.563622  1
  Nd  Nd11  1  0.562814  0.936863  0.936702  1
  Nd  Nd12  1  0.562814  0.936863  0.563622  1
  Nd  Nd13  1  0.936863  0.562814  0.936702  1
  Nd  Nd14  1  0.563589  0.563589  0.936411  1
  Nd  Nd15  1  0.937297  0.937297  0.562703  1
  Cd  Cd16  1  0.580058  0.580058  0.580122  1
  Cd  Cd17  1  0.580058  0.580058  0.259761  1
  Cd  Cd18  1  0.580074  0.258823  0.580551  1
  Cd  Cd19  1  0.258823  0.580074  0.580551  1
  Ir  Ir20  1  0.141389  0.579814  0.139397  1
  Ir  Ir21  1  0.579814  0.141389  0.139397  1
  Ru  Ru22  1  0.138837  0.138837  0.136197  1
  Ru  Ru23  1  0.138837  0.138837  0.586128  1
