# generated using pymatgen
data_Ac12Ni6Sn
_symmetry_space_group_name_H-M   'P 1'
_cell_length_a   9.23441585
_cell_length_b   9.23441639
_cell_length_c   9.24527901
_cell_angle_alpha   109.50893027
_cell_angle_beta   109.44891951
_cell_angle_gamma   109.40815682
_symmetry_Int_Tables_number   1
_chemical_formula_structural   Ac12Ni6Sn
_chemical_formula_sum   'Ac12 Ni6 Sn1'
_cell_volume   607.25614341
_cell_formula_units_Z   1
loop_
 _symmetry_equiv_pos_site_id
 _symmetry_equiv_pos_as_xyz
  1  'x, y, z'
loop_
 _atom_site_type_symbol
 _atom_site_label
 _atom_site_symmetry_multiplicity
 _atom_site_fract_x
 _atom_site_fract_y
 _atom_site_fract_z
 _atom_site_occupancy
  Ac  Ac0  1  0.688240  0.181421  0.869661  1
  Ac  Ac1  1  0.818540  0.506976  0.688856  1
  Ac  Ac2  1  0.493443  0.311514  0.181780  1
  Ac  Ac3  1  0.818482  0.129902  0.311526  1
  Ac  Ac4  1  0.507010  0.688438  0.818761  1
  Ac  Ac5  1  0.181625  0.493044  0.311526  1
  Ac  Ac6  1  0.130323  0.311751  0.818761  1
  Ac  Ac7  1  0.870266  0.688338  0.181780  1
  Ac  Ac8  1  0.181880  0.870316  0.688856  1
  Ac  Ac9  1  0.688677  0.818556  0.507233  1
  Ac  Ac10  1  0.311156  0.181478  0.492634  1
  Ac  Ac11  1  0.311596  0.818245  0.129841  1
  Ni  Ni12  1  0.616512  0.117490  0.498783  1
  Ni  Ni13  1  0.882526  0.500355  0.382881  1
  Ni  Ni14  1  0.500330  0.382402  0.882731  1
  Ni  Ni15  1  0.117454  0.500409  0.617865  1
  Ni  Ni16  1  0.500037  0.617556  0.117592  1
  Ni  Ni17  1  0.381294  0.882271  0.498783  1
  Sn  Sn18  1  0.000610  0.999540  0.000150  1
