# generated using pymatgen
data_Ho2Th2AlRe7
_symmetry_space_group_name_H-M   'P 1'
_cell_length_a   5.44194400
_cell_length_b   5.44194385
_cell_length_c   9.02881200
_cell_angle_alpha   90.00000000
_cell_angle_beta   90.00000000
_cell_angle_gamma   120.00001307
_symmetry_Int_Tables_number   1
_chemical_formula_structural   Ho2Th2AlRe7
_chemical_formula_sum   'Ho2 Th2 Al1 Re7'
_cell_volume   231.56307576
_cell_formula_units_Z   1
loop_
 _symmetry_equiv_pos_site_id
 _symmetry_equiv_pos_as_xyz
  1  'x, y, z'
loop_
 _atom_site_type_symbol
 _atom_site_label
 _atom_site_symmetry_multiplicity
 _atom_site_fract_x
 _atom_site_fract_y
 _atom_site_fract_z
 _atom_site_occupancy
  Ho  Ho0  1  0.333333  0.666667  0.437764  1
  Ho  Ho1  1  0.666667  0.333333  0.562236  1
  Th  Th2  1  0.666667  0.333333  0.931895  1
  Th  Th3  1  0.333333  0.666667  0.068105  1
  Al  Al4  1  0.000000  0.000000  0.000000  1
  Re  Re5  1  0.000000  0.000000  0.500000  1
  Re  Re6  1  0.829771  0.170229  0.255978  1
  Re  Re7  1  0.829771  0.659541  0.255978  1
  Re  Re8  1  0.340459  0.170229  0.255978  1
  Re  Re9  1  0.170229  0.829771  0.744022  1
  Re  Re10  1  0.170229  0.340459  0.744022  1
  Re  Re11  1  0.659541  0.829771  0.744022  1
