# generated using pymatgen
data_Hf3Zn3PdRh2
_symmetry_space_group_name_H-M   'P 1'
_cell_length_a   7.33159800
_cell_length_b   7.33159876
_cell_length_c   3.28083400
_cell_angle_alpha   90.00000000
_cell_angle_beta   90.00000000
_cell_angle_gamma   119.99999655
_symmetry_Int_Tables_number   1
_chemical_formula_structural   Hf3Zn3PdRh2
_chemical_formula_sum   'Hf3 Zn3 Pd1 Rh2'
_cell_volume   152.72573967
_cell_formula_units_Z   1
loop_
 _symmetry_equiv_pos_site_id
 _symmetry_equiv_pos_as_xyz
  1  'x, y, z'
loop_
 _atom_site_type_symbol
 _atom_site_label
 _atom_site_symmetry_multiplicity
 _atom_site_fract_x
 _atom_site_fract_y
 _atom_site_fract_z
 _atom_site_occupancy
  Hf  Hf0  1  0.397794  0.000000  0.500000  1
  Hf  Hf1  1  0.000000  0.397794  0.500000  1
  Hf  Hf2  1  0.602206  0.602206  0.500000  1
  Zn  Zn3  1  0.725847  0.000000  0.000000  1
  Zn  Zn4  1  0.000000  0.725847  0.000000  1
  Zn  Zn5  1  0.274153  0.274153  0.000000  1
  Pd  Pd6  1  0.000000  0.000000  0.500000  1
  Rh  Rh7  1  0.333333  0.666667  0.000000  1
  Rh  Rh8  1  0.666667  0.333333  0.000000  1
