# generated using pymatgen
data_LiNd16Cd2HgPt4
_symmetry_space_group_name_H-M   'P 1'
_cell_length_a   10.01162800
_cell_length_b   10.01162921
_cell_length_c   10.01244388
_cell_angle_alpha   60.20254449
_cell_angle_beta   60.20254216
_cell_angle_gamma   60.16674998
_symmetry_Int_Tables_number   1
_chemical_formula_structural   LiNd16Cd2HgPt4
_chemical_formula_sum   'Li1 Nd16 Cd2 Hg1 Pt4'
_cell_volume   712.69713698
_cell_formula_units_Z   1
loop_
 _symmetry_equiv_pos_site_id
 _symmetry_equiv_pos_as_xyz
  1  'x, y, z'
loop_
 _atom_site_type_symbol
 _atom_site_label
 _atom_site_symmetry_multiplicity
 _atom_site_fract_x
 _atom_site_fract_y
 _atom_site_fract_z
 _atom_site_occupancy
  Li  Li0  1  0.571485  0.571485  0.569081  1
  Nd  Nd1  1  0.350396  0.350396  0.350359  1
  Nd  Nd2  1  0.350801  0.350801  0.948393  1
  Nd  Nd3  1  0.351265  0.947273  0.350912  1
  Nd  Nd4  1  0.947273  0.351265  0.350912  1
  Nd  Nd5  1  0.809465  0.192327  0.193272  1
  Nd  Nd6  1  0.187361  0.811770  0.811951  1
  Nd  Nd7  1  0.192327  0.809465  0.193272  1
  Nd  Nd8  1  0.811770  0.187361  0.811951  1
  Nd  Nd9  1  0.192183  0.192183  0.810008  1
  Nd  Nd10  1  0.811509  0.811509  0.188252  1
  Nd  Nd11  1  0.937216  0.564224  0.564926  1
  Nd  Nd12  1  0.561810  0.935659  0.937589  1
  Nd  Nd13  1  0.564224  0.937216  0.564926  1
  Nd  Nd14  1  0.935659  0.561810  0.937589  1
  Nd  Nd15  1  0.563868  0.563868  0.939018  1
  Nd  Nd16  1  0.936279  0.936279  0.562494  1
  Cd  Cd17  1  0.581655  0.255824  0.582847  1
  Cd  Cd18  1  0.255824  0.581655  0.582847  1
  Hg  Hg19  1  0.586051  0.586051  0.247602  1
  Pt  Pt20  1  0.144207  0.144207  0.144461  1
  Pt  Pt21  1  0.143214  0.143214  0.570693  1
  Pt  Pt22  1  0.143304  0.570856  0.143324  1
  Pt  Pt23  1  0.570856  0.143304  0.143324  1
