# generated using pymatgen
data_Dy8Ta4Nb8Si15Ge
_symmetry_space_group_name_H-M   'P 1'
_cell_length_a   6.88694699
_cell_length_b   7.07895283
_cell_length_c   13.44348324
_cell_angle_alpha   90.03869281
_cell_angle_beta   89.92542420
_cell_angle_gamma   90.00909031
_symmetry_Int_Tables_number   1
_chemical_formula_structural   Dy8Ta4Nb8Si15Ge
_chemical_formula_sum   'Dy8 Ta4 Nb8 Si15 Ge1'
_cell_volume   655.40099541
_cell_formula_units_Z   1
loop_
 _symmetry_equiv_pos_site_id
 _symmetry_equiv_pos_as_xyz
  1  'x, y, z'
loop_
 _atom_site_type_symbol
 _atom_site_label
 _atom_site_symmetry_multiplicity
 _atom_site_fract_x
 _atom_site_fract_y
 _atom_site_fract_z
 _atom_site_occupancy
  Dy  Dy0  1  0.502746  0.328736  0.095909  1
  Dy  Dy1  1  0.001714  0.170952  0.403688  1
  Dy  Dy2  1  0.500304  0.673221  0.596664  1
  Dy  Dy3  1  0.997169  0.828525  0.904494  1
  Dy  Dy4  1  0.497148  0.671277  0.904387  1
  Dy  Dy5  1  0.997159  0.829322  0.596127  1
  Dy  Dy6  1  0.503217  0.327394  0.403200  1
  Dy  Dy7  1  0.002704  0.171634  0.095667  1
  Ta  Ta8  1  0.663189  0.008682  0.750210  1
  Ta  Ta9  1  0.163144  0.490474  0.752037  1
  Ta  Ta10  1  0.336388  0.991335  0.249736  1
  Ta  Ta11  1  0.836748  0.509035  0.249802  1
  Nb  Nb12  1  0.836555  0.324310  0.626000  1
  Nb  Nb13  1  0.338299  0.175040  0.874658  1
  Nb  Nb14  1  0.161787  0.675341  0.125417  1
  Nb  Nb15  1  0.661240  0.825285  0.373954  1
  Nb  Nb16  1  0.160141  0.677706  0.372833  1
  Nb  Nb17  1  0.660886  0.824598  0.125446  1
  Nb  Nb18  1  0.838215  0.324709  0.874626  1
  Nb  Nb19  1  0.340852  0.171457  0.626865  1
  Si  Si20  1  0.797472  0.627239  0.750208  1
  Si  Si21  1  0.296409  0.871637  0.750613  1
  Si  Si22  1  0.202922  0.372782  0.249709  1
  Si  Si23  1  0.703076  0.127283  0.249545  1
  Si  Si24  1  0.542406  0.376396  0.750392  1
  Si  Si25  1  0.042436  0.123918  0.750079  1
  Si  Si26  1  0.457210  0.623813  0.249870  1
  Si  Si27  1  0.956543  0.876742  0.249073  1
  Si  Si28  1  0.663946  0.037104  0.540459  1
  Si  Si29  1  0.163133  0.463294  0.959252  1
  Si  Si30  1  0.336452  0.963511  0.040911  1
  Si  Si31  1  0.832831  0.537488  0.458339  1
  Si  Si32  1  0.336210  0.962871  0.459212  1
  Si  Si33  1  0.836853  0.536704  0.041057  1
  Si  Si34  1  0.663245  0.036630  0.959156  1
  Ge  Ge35  1  0.169252  0.463554  0.540405  1
