# generated using pymatgen
data_Tb2Tc3Ir
_symmetry_space_group_name_H-M   'P 1'
_cell_length_a   5.24447600
_cell_length_b   5.24447598
_cell_length_c   9.32380000
_cell_angle_alpha   90.00000000
_cell_angle_beta   90.00000000
_cell_angle_gamma   119.99998751
_symmetry_Int_Tables_number   1
_chemical_formula_structural   Tb2Tc3Ir
_chemical_formula_sum   'Tb4 Tc6 Ir2'
_cell_volume   222.08940392
_cell_formula_units_Z   2
loop_
 _symmetry_equiv_pos_site_id
 _symmetry_equiv_pos_as_xyz
  1  'x, y, z'
loop_
 _atom_site_type_symbol
 _atom_site_label
 _atom_site_symmetry_multiplicity
 _atom_site_fract_x
 _atom_site_fract_y
 _atom_site_fract_z
 _atom_site_occupancy
  Tb  Tb0  1  0.333333  0.666667  0.436226  1
  Tb  Tb1  1  0.666667  0.333333  0.563774  1
  Tb  Tb2  1  0.666667  0.333333  0.936226  1
  Tb  Tb3  1  0.333333  0.666667  0.063774  1
  Tc  Tc4  1  0.829887  0.170113  0.250000  1
  Tc  Tc5  1  0.829887  0.659774  0.250000  1
  Tc  Tc6  1  0.340226  0.170113  0.250000  1
  Tc  Tc7  1  0.170113  0.829887  0.750000  1
  Tc  Tc8  1  0.170113  0.340226  0.750000  1
  Tc  Tc9  1  0.659774  0.829887  0.750000  1
  Ir  Ir10  1  0.000000  0.000000  0.500000  1
  Ir  Ir11  1  0.000000  0.000000  0.000000  1
