# generated using pymatgen
data_K4Sb3AsPt4
_symmetry_space_group_name_H-M   'P 1'
_cell_length_a   7.06406034
_cell_length_b   7.06406038
_cell_length_c   7.06406044
_cell_angle_alpha   90.34047131
_cell_angle_beta   90.34047551
_cell_angle_gamma   90.34047483
_symmetry_Int_Tables_number   1
_chemical_formula_structural   K4Sb3AsPt4
_chemical_formula_sum   'K4 Sb3 As1 Pt4'
_cell_volume   352.48457240
_cell_formula_units_Z   1
loop_
 _symmetry_equiv_pos_site_id
 _symmetry_equiv_pos_as_xyz
  1  'x, y, z'
loop_
 _atom_site_type_symbol
 _atom_site_label
 _atom_site_symmetry_multiplicity
 _atom_site_fract_x
 _atom_site_fract_y
 _atom_site_fract_z
 _atom_site_occupancy
  K  K0  1  0.610291  0.383579  0.877045  1
  K  K1  1  0.383579  0.877045  0.610291  1
  K  K2  1  0.120307  0.120307  0.120307  1
  K  K3  1  0.877045  0.610291  0.383579  1
  Sb  Sb4  1  0.588317  0.909842  0.094810  1
  Sb  Sb5  1  0.094810  0.588317  0.909842  1
  Sb  Sb6  1  0.909842  0.094810  0.588317  1
  As  As7  1  0.409695  0.409695  0.409695  1
  Pt  Pt8  1  0.165679  0.353485  0.637702  1
  Pt  Pt9  1  0.637702  0.165679  0.353485  1
  Pt  Pt10  1  0.849252  0.849252  0.849252  1
  Pt  Pt11  1  0.353485  0.637702  0.165679  1
