# generated using pymatgen
data_Tb4MnMoRu6
_symmetry_space_group_name_H-M   'P 1'
_cell_length_a   5.19850394
_cell_length_b   5.19850395
_cell_length_c   9.05209300
_cell_angle_alpha   90.00000000
_cell_angle_beta   90.00000000
_cell_angle_gamma   115.98953996
_symmetry_Int_Tables_number   1
_chemical_formula_structural   Tb4MnMoRu6
_chemical_formula_sum   'Tb4 Mn1 Mo1 Ru6'
_cell_volume   219.88956012
_cell_formula_units_Z   1
loop_
 _symmetry_equiv_pos_site_id
 _symmetry_equiv_pos_as_xyz
  1  'x, y, z'
loop_
 _atom_site_type_symbol
 _atom_site_label
 _atom_site_symmetry_multiplicity
 _atom_site_fract_x
 _atom_site_fract_y
 _atom_site_fract_z
 _atom_site_occupancy
  Tb  Tb0  1  0.327232  0.672768  0.436035  1
  Tb  Tb1  1  0.667045  0.332955  0.567462  1
  Tb  Tb2  1  0.667045  0.332955  0.932538  1
  Tb  Tb3  1  0.327232  0.672768  0.063965  1
  Mn  Mn4  1  0.166024  0.833976  0.750000  1
  Mo  Mo5  1  0.846031  0.153969  0.250000  1
  Ru  Ru6  1  0.993222  0.006778  0.503661  1
  Ru  Ru7  1  0.993222  0.006778  0.996339  1
  Ru  Ru8  1  0.828478  0.644703  0.250000  1
  Ru  Ru9  1  0.355297  0.171522  0.250000  1
  Ru  Ru10  1  0.175129  0.345956  0.750000  1
  Ru  Ru11  1  0.654044  0.824871  0.750000  1
