# generated using pymatgen
data_Pr5ZnRuO12
_symmetry_space_group_name_H-M   'P 1'
_cell_length_a   7.09070052
_cell_length_b   7.09070103
_cell_length_c   7.64529202
_cell_angle_alpha   74.47425264
_cell_angle_beta   74.47425032
_cell_angle_gamma   51.68044054
_symmetry_Int_Tables_number   1
_chemical_formula_structural   Pr5ZnRuO12
_chemical_formula_sum   'Pr5 Zn1 Ru1 O12'
_cell_volume   287.93272005
_cell_formula_units_Z   1
loop_
 _symmetry_equiv_pos_site_id
 _symmetry_equiv_pos_as_xyz
  1  'x, y, z'
loop_
 _atom_site_type_symbol
 _atom_site_label
 _atom_site_symmetry_multiplicity
 _atom_site_fract_x
 _atom_site_fract_y
 _atom_site_fract_z
 _atom_site_occupancy
  Pr  Pr0  1  0.313703  0.299317  0.356300  1
  Pr  Pr1  1  0.700683  0.686297  0.643700  1
  Pr  Pr2  1  0.693390  0.693142  0.164640  1
  Pr  Pr3  1  0.306858  0.306610  0.835360  1
  Pr  Pr4  1  0.006158  0.993842  0.500000  1
  Zn  Zn5  1  0.752107  0.247893  0.000000  1
  Ru  Ru6  1  0.237321  0.762679  0.000000  1
  O  O7  1  0.098107  0.594722  0.576136  1
  O  O8  1  0.023605  0.974205  0.176236  1
  O  O9  1  0.405278  0.901893  0.423864  1
  O  O10  1  0.469012  0.533027  0.176520  1
  O  O11  1  0.101235  0.581834  0.079222  1
  O  O12  1  0.907778  0.400236  0.421459  1
  O  O13  1  0.025795  0.976395  0.823764  1
  O  O14  1  0.599764  0.092221  0.578541  1
  O  O15  1  0.466973  0.530988  0.823480  1
  O  O16  1  0.576911  0.102843  0.078174  1
  O  O17  1  0.418166  0.898765  0.920778  1
  O  O18  1  0.897157  0.423089  0.921826  1
