# generated using pymatgen
data_La3In3Cu2Pt
_symmetry_space_group_name_H-M   'P 1'
_cell_length_a   7.84078700
_cell_length_b   7.84078749
_cell_length_c   4.09693900
_cell_angle_alpha   90.00000000
_cell_angle_beta   90.00000000
_cell_angle_gamma   120.00000217
_symmetry_Int_Tables_number   1
_chemical_formula_structural   La3In3Cu2Pt
_chemical_formula_sum   'La3 In3 Cu2 Pt1'
_cell_volume   218.12701644
_cell_formula_units_Z   1
loop_
 _symmetry_equiv_pos_site_id
 _symmetry_equiv_pos_as_xyz
  1  'x, y, z'
loop_
 _atom_site_type_symbol
 _atom_site_label
 _atom_site_symmetry_multiplicity
 _atom_site_fract_x
 _atom_site_fract_y
 _atom_site_fract_z
 _atom_site_occupancy
  La  La0  1  0.412794  0.420433  0.500000  1
  La  La1  1  0.007639  0.587206  0.500000  1
  La  La2  1  0.579567  0.992361  0.500000  1
  In  In3  1  0.760293  0.755109  0.000000  1
  In  In4  1  0.244891  0.005184  0.000000  1
  In  In5  1  0.994816  0.239707  0.000000  1
  Cu  Cu6  1  0.666667  0.333333  0.000000  1
  Cu  Cu7  1  0.000000  0.000000  0.500000  1
  Pt  Pt8  1  0.333333  0.666667  0.000000  1
