# generated using pymatgen
data_Er4Al18ReNi4Pd
_symmetry_space_group_name_H-M   'P 1'
_cell_length_a   7.45753502
_cell_length_b   7.45753674
_cell_length_c   9.31971510
_cell_angle_alpha   89.75584855
_cell_angle_beta   89.75584602
_cell_angle_gamma   118.73528767
_symmetry_Int_Tables_number   1
_chemical_formula_structural   Er4Al18ReNi4Pd
_chemical_formula_sum   'Er4 Al18 Re1 Ni4 Pd1'
_cell_volume   454.46827673
_cell_formula_units_Z   1
loop_
 _symmetry_equiv_pos_site_id
 _symmetry_equiv_pos_as_xyz
  1  'x, y, z'
loop_
 _atom_site_type_symbol
 _atom_site_label
 _atom_site_symmetry_multiplicity
 _atom_site_fract_x
 _atom_site_fract_y
 _atom_site_fract_z
 _atom_site_occupancy
  Er  Er0  1  0.995417  0.680457  0.247542  1
  Er  Er1  1  0.004583  0.319543  0.752458  1
  Er  Er2  1  0.680457  0.995417  0.247542  1
  Er  Er3  1  0.319543  0.004583  0.752458  1
  Al  Al4  1  0.140677  0.140677  0.247727  1
  Al  Al5  1  0.859323  0.859323  0.752273  1
  Al  Al6  1  0.997925  0.338905  0.073540  1
  Al  Al7  1  0.002075  0.661095  0.926460  1
  Al  Al8  1  0.000960  0.655745  0.576611  1
  Al  Al9  1  0.344255  0.999040  0.423389  1
  Al  Al10  1  0.999040  0.344255  0.423389  1
  Al  Al11  1  0.655745  0.000960  0.576611  1
  Al  Al12  1  0.661095  0.002075  0.926460  1
  Al  Al13  1  0.338905  0.997925  0.073540  1
  Al  Al14  1  0.338646  0.338646  0.551079  1
  Al  Al15  1  0.661354  0.661354  0.448921  1
  Al  Al16  1  0.664623  0.664623  0.047082  1
  Al  Al17  1  0.335377  0.335377  0.952918  1
  Al  Al18  1  0.342728  0.560082  0.249125  1
  Al  Al19  1  0.657272  0.439918  0.750875  1
  Al  Al20  1  0.560082  0.342728  0.249125  1
  Al  Al21  1  0.439918  0.657272  0.750875  1
  Re  Re22  1  0.000000  0.000000  0.000000  1
  Ni  Ni23  1  0.671445  0.328555  0.000000  1
  Ni  Ni24  1  0.328555  0.671445  0.000000  1
  Ni  Ni25  1  0.328339  0.671661  0.500000  1
  Ni  Ni26  1  0.671661  0.328339  0.500000  1
  Pd  Pd27  1  0.000000  0.000000  0.500000  1
