# generated using pymatgen
data_Ca2Sm2Sb6Rh7
_symmetry_space_group_name_H-M   'P 1'
_cell_length_a   7.66175751
_cell_length_b   7.67289435
_cell_length_c   7.67289410
_cell_angle_alpha   109.50627528
_cell_angle_beta   109.48312327
_cell_angle_gamma   109.48311953
_symmetry_Int_Tables_number   1
_chemical_formula_structural   Ca2Sm2Sb6Rh7
_chemical_formula_sum   'Ca2 Sm2 Sb6 Rh7'
_cell_volume   346.98368841
_cell_formula_units_Z   1
loop_
 _symmetry_equiv_pos_site_id
 _symmetry_equiv_pos_as_xyz
  1  'x, y, z'
loop_
 _atom_site_type_symbol
 _atom_site_label
 _atom_site_symmetry_multiplicity
 _atom_site_fract_x
 _atom_site_fract_y
 _atom_site_fract_z
 _atom_site_occupancy
  Ca  Ca0  1  0.500000  0.000000  0.000000  1
  Ca  Ca1  1  0.500000  0.500000  0.500000  1
  Sm  Sm2  1  0.000000  0.500000  0.000000  1
  Sm  Sm3  1  0.000000  0.000000  0.500000  1
  Sb  Sb4  1  0.000000  0.320429  0.320429  1
  Sb  Sb5  1  0.675903  0.995898  0.680005  1
  Sb  Sb6  1  0.675903  0.680005  0.995898  1
  Sb  Sb7  1  0.000000  0.679571  0.679571  1
  Sb  Sb8  1  0.324097  0.004102  0.319995  1
  Sb  Sb9  1  0.324097  0.319995  0.004102  1
  Rh  Rh10  1  0.000000  0.000000  0.000000  1
  Rh  Rh11  1  0.500000  0.750000  0.250000  1
  Rh  Rh12  1  0.753582  0.503812  0.249770  1
  Rh  Rh13  1  0.246418  0.750230  0.496188  1
  Rh  Rh14  1  0.246418  0.496188  0.750230  1
  Rh  Rh15  1  0.500000  0.250000  0.750000  1
  Rh  Rh16  1  0.753582  0.249770  0.503812  1
