# generated using pymatgen
data_PaNb2ZnPd12
_symmetry_space_group_name_H-M   'P 1'
_cell_length_a   5.64807700
_cell_length_b   5.64807797
_cell_length_c   9.18547500
_cell_angle_alpha   90.00000000
_cell_angle_beta   90.00000000
_cell_angle_gamma   120.00000015
_symmetry_Int_Tables_number   1
_chemical_formula_structural   PaNb2ZnPd12
_chemical_formula_sum   'Pa1 Nb2 Zn1 Pd12'
_cell_volume   253.76606359
_cell_formula_units_Z   1
loop_
 _symmetry_equiv_pos_site_id
 _symmetry_equiv_pos_as_xyz
  1  'x, y, z'
loop_
 _atom_site_type_symbol
 _atom_site_label
 _atom_site_symmetry_multiplicity
 _atom_site_fract_x
 _atom_site_fract_y
 _atom_site_fract_z
 _atom_site_occupancy
  Pa  Pa0  1  0.666667  0.333333  0.750000  1
  Nb  Nb1  1  0.000000  0.000000  0.493922  1
  Nb  Nb2  1  0.000000  0.000000  0.006078  1
  Zn  Zn3  1  0.333333  0.666667  0.250000  1
  Pd  Pd4  1  0.498939  0.501061  0.494465  1
  Pd  Pd5  1  0.498939  0.997877  0.494465  1
  Pd  Pd6  1  0.002123  0.501061  0.494465  1
  Pd  Pd7  1  0.498939  0.501061  0.005535  1
  Pd  Pd8  1  0.498939  0.997877  0.005535  1
  Pd  Pd9  1  0.002123  0.501061  0.005535  1
  Pd  Pd10  1  0.833191  0.666384  0.250000  1
  Pd  Pd11  1  0.333616  0.166809  0.250000  1
  Pd  Pd12  1  0.833191  0.166809  0.250000  1
  Pd  Pd13  1  0.165250  0.330498  0.750000  1
  Pd  Pd14  1  0.669502  0.834750  0.750000  1
  Pd  Pd15  1  0.165250  0.834750  0.750000  1
