# generated using pymatgen
data_YEr15(CoAg)4
_symmetry_space_group_name_H-M   'P 1'
_cell_length_a   9.32051607
_cell_length_b   9.32051571
_cell_length_c   9.31885300
_cell_angle_alpha   60.00590454
_cell_angle_beta   60.00590584
_cell_angle_gamma   60.00959994
_symmetry_Int_Tables_number   1
_chemical_formula_structural   YEr15(CoAg)4
_chemical_formula_sum   'Y1 Er15 Co4 Ag4'
_cell_volume   572.52918244
_cell_formula_units_Z   1
loop_
 _symmetry_equiv_pos_site_id
 _symmetry_equiv_pos_as_xyz
  1  'x, y, z'
loop_
 _atom_site_type_symbol
 _atom_site_label
 _atom_site_symmetry_multiplicity
 _atom_site_fract_x
 _atom_site_fract_y
 _atom_site_fract_z
 _atom_site_occupancy
  Y  Y0  1  0.937138  0.937138  0.562862  1
  Er  Er1  1  0.348018  0.348018  0.348000  1
  Er  Er2  1  0.348018  0.348018  0.955964  1
  Er  Er3  1  0.348484  0.956035  0.347741  1
  Er  Er4  1  0.956035  0.348484  0.347741  1
  Er  Er5  1  0.811151  0.189066  0.188228  1
  Er  Er6  1  0.189066  0.811151  0.811555  1
  Er  Er7  1  0.189066  0.811151  0.188228  1
  Er  Er8  1  0.811151  0.189066  0.811555  1
  Er  Er9  1  0.188700  0.188700  0.811300  1
  Er  Er10  1  0.811348  0.811348  0.188652  1
  Er  Er11  1  0.937385  0.562264  0.562630  1
  Er  Er12  1  0.562264  0.937385  0.937721  1
  Er  Er13  1  0.562264  0.937385  0.562630  1
  Er  Er14  1  0.937385  0.562264  0.937721  1
  Er  Er15  1  0.562630  0.562630  0.937370  1
  Co  Co16  1  0.141313  0.141313  0.141060  1
  Co  Co17  1  0.141313  0.141313  0.576313  1
  Co  Co18  1  0.141146  0.576358  0.141248  1
  Co  Co19  1  0.576358  0.141146  0.141248  1
  Ag  Ag20  1  0.581022  0.581022  0.581089  1
  Ag  Ag21  1  0.581022  0.581022  0.256867  1
  Ag  Ag22  1  0.580408  0.257316  0.581138  1
  Ag  Ag23  1  0.257316  0.580408  0.581138  1
