# generated using pymatgen
data_Ho3Lu3Co16(P6W)2
_symmetry_space_group_name_H-M   'P 1'
_cell_length_a   3.69841000
_cell_length_b   10.50650821
_cell_length_c   12.18529924
_cell_angle_alpha   90.02286784
_cell_angle_beta   90.00000000
_cell_angle_gamma   90.00000000
_symmetry_Int_Tables_number   1
_chemical_formula_structural   Ho3Lu3Co16(P6W)2
_chemical_formula_sum   'Ho3 Lu3 Co16 P12 W2'
_cell_volume   473.48870477
_cell_formula_units_Z   1
loop_
 _symmetry_equiv_pos_site_id
 _symmetry_equiv_pos_as_xyz
  1  'x, y, z'
loop_
 _atom_site_type_symbol
 _atom_site_label
 _atom_site_symmetry_multiplicity
 _atom_site_fract_x
 _atom_site_fract_y
 _atom_site_fract_z
 _atom_site_occupancy
  Ho  Ho0  1  0.000000  0.500129  0.525022  1
  Ho  Ho1  1  0.500000  0.000114  0.474612  1
  Ho  Ho2  1  0.000000  0.319899  0.795164  1
  Lu  Lu3  1  0.500000  0.819939  0.205077  1
  Lu  Lu4  1  0.500000  0.179893  0.204296  1
  Lu  Lu5  1  0.000000  0.680338  0.795322  1
  Co  Co6  1  0.000000  0.500818  0.987400  1
  Co  Co7  1  0.500000  0.999351  0.013620  1
  Co  Co8  1  0.500000  0.295736  0.430375  1
  Co  Co9  1  0.500000  0.704434  0.431244  1
  Co  Co10  1  0.000000  0.204116  0.567523  1
  Co  Co11  1  0.000000  0.796026  0.568658  1
  Co  Co12  1  0.500000  0.876881  0.707722  1
  Co  Co13  1  0.500000  0.121745  0.706734  1
  Co  Co14  1  0.000000  0.622872  0.292759  1
  Co  Co15  1  0.000000  0.377064  0.292074  1
  Co  Co16  1  0.500000  0.332954  0.990938  1
  Co  Co17  1  0.500000  0.667793  0.990401  1
  Co  Co18  1  0.000000  0.166822  0.010696  1
  Co  Co19  1  0.000000  0.832230  0.010541  1
  Co  Co20  1  0.500000  0.501074  0.701627  1
  Co  Co21  1  0.000000  0.999764  0.297784  1
  P  P22  1  0.500000  0.311886  0.615595  1
  P  P23  1  0.500000  0.688348  0.617001  1
  P  P24  1  0.000000  0.187747  0.382045  1
  P  P25  1  0.000000  0.812189  0.382921  1
  P  P26  1  0.500000  0.501180  0.880186  1
  P  P27  1  0.000000  0.999574  0.120656  1
  P  P28  1  0.500000  0.842913  0.891808  1
  P  P29  1  0.500000  0.155935  0.892595  1
  P  P30  1  0.000000  0.657127  0.108972  1
  P  P31  1  0.000000  0.343088  0.108163  1
  P  P32  1  0.500000  0.500038  0.351221  1
  P  P33  1  0.000000  0.000181  0.648865  1
  W  W34  1  0.500000  0.500384  0.157088  1
  W  W35  1  0.000000  0.999416  0.843298  1
