# generated using pymatgen
data_Hf2Ti4Ge2P
_symmetry_space_group_name_H-M   'P 1'
_cell_length_a   6.92806102
_cell_length_b   6.92885163
_cell_length_c   3.64109600
_cell_angle_alpha   90.00000000
_cell_angle_beta   90.00000000
_cell_angle_gamma   120.00376339
_symmetry_Int_Tables_number   1
_chemical_formula_structural   Hf2Ti4Ge2P
_chemical_formula_sum   'Hf2 Ti4 Ge2 P1'
_cell_volume   151.36283591
_cell_formula_units_Z   1
loop_
 _symmetry_equiv_pos_site_id
 _symmetry_equiv_pos_as_xyz
  1  'x, y, z'
loop_
 _atom_site_type_symbol
 _atom_site_label
 _atom_site_symmetry_multiplicity
 _atom_site_fract_x
 _atom_site_fract_y
 _atom_site_fract_z
 _atom_site_occupancy
  Hf  Hf0  1  0.601308  0.999644  0.000000  1
  Hf  Hf1  1  0.398692  0.398335  0.000000  1
  Ti  Ti2  1  0.000000  0.245317  0.500000  1
  Ti  Ti3  1  0.242128  0.996474  0.500000  1
  Ti  Ti4  1  0.757872  0.754346  0.500000  1
  Ti  Ti5  1  0.000000  0.604283  0.000000  1
  Ge  Ge6  1  0.673342  0.338468  0.500000  1
  Ge  Ge7  1  0.326658  0.665127  0.500000  1
  P  P8  1  0.000000  0.998006  0.000000  1
