# generated using pymatgen
data_Y16Ho4Ir11Ru
_symmetry_space_group_name_H-M   'P 1'
_cell_length_a   10.90890900
_cell_length_b   10.90890900
_cell_length_c   6.40959700
_cell_angle_alpha   90.00000000
_cell_angle_beta   90.00000000
_cell_angle_gamma   90.00000000
_symmetry_Int_Tables_number   1
_chemical_formula_structural   Y16Ho4Ir11Ru
_chemical_formula_sum   'Y16 Ho4 Ir11 Ru1'
_cell_volume   762.76957587
_cell_formula_units_Z   1
loop_
 _symmetry_equiv_pos_site_id
 _symmetry_equiv_pos_as_xyz
  1  'x, y, z'
loop_
 _atom_site_type_symbol
 _atom_site_label
 _atom_site_symmetry_multiplicity
 _atom_site_fract_x
 _atom_site_fract_y
 _atom_site_fract_z
 _atom_site_occupancy
  Y  Y0  1  0.292092  0.087104  0.376794  1
  Y  Y1  1  0.292434  0.912838  0.879508  1
  Y  Y2  1  0.707566  0.087162  0.879508  1
  Y  Y3  1  0.707908  0.912896  0.376794  1
  Y  Y4  1  0.587162  0.792434  0.879508  1
  Y  Y5  1  0.587104  0.207908  0.376794  1
  Y  Y6  1  0.412896  0.792092  0.376794  1
  Y  Y7  1  0.412838  0.207566  0.879508  1
  Y  Y8  1  0.209297  0.411819  0.622076  1
  Y  Y9  1  0.209287  0.588043  0.121771  1
  Y  Y10  1  0.790713  0.411957  0.121771  1
  Y  Y11  1  0.790703  0.588181  0.622076  1
  Y  Y12  1  0.911957  0.709287  0.121771  1
  Y  Y13  1  0.911819  0.290703  0.622076  1
  Y  Y14  1  0.088181  0.709297  0.622076  1
  Y  Y15  1  0.088043  0.290713  0.121771  1
  Ho  Ho16  1  0.000000  0.000000  0.499297  1
  Ho  Ho17  1  0.000000  0.000000  0.999263  1
  Ho  Ho18  1  0.500000  0.500000  0.999263  1
  Ho  Ho19  1  0.500000  0.500000  0.499297  1
  Ir  Ir20  1  0.848272  0.152531  0.249941  1
  Ir  Ir21  1  0.848300  0.847880  0.749712  1
  Ir  Ir22  1  0.151700  0.152120  0.749712  1
  Ir  Ir23  1  0.151728  0.847469  0.249941  1
  Ir  Ir24  1  0.652120  0.348300  0.749712  1
  Ir  Ir25  1  0.652531  0.651728  0.249941  1
  Ir  Ir26  1  0.347469  0.348272  0.249941  1
  Ir  Ir27  1  0.347880  0.651700  0.749712  1
  Ir  Ir28  1  0.500000  0.000000  0.623594  1
  Ir  Ir29  1  0.000000  0.500000  0.877790  1
  Ir  Ir30  1  0.000000  0.500000  0.377953  1
  Ru  Ru31  1  0.500000  0.000000  0.124343  1
