# generated using pymatgen
data_Dy4Sc15Si16W
_symmetry_space_group_name_H-M   'P 1'
_cell_length_a   6.94494294
_cell_length_b   7.26893358
_cell_length_c   13.74985175
_cell_angle_alpha   89.97505601
_cell_angle_beta   89.93146758
_cell_angle_gamma   89.70765572
_symmetry_Int_Tables_number   1
_chemical_formula_structural   Dy4Sc15Si16W
_chemical_formula_sum   'Dy4 Sc15 Si16 W1'
_cell_volume   694.11494362
_cell_formula_units_Z   1
loop_
 _symmetry_equiv_pos_site_id
 _symmetry_equiv_pos_as_xyz
  1  'x, y, z'
loop_
 _atom_site_type_symbol
 _atom_site_label
 _atom_site_symmetry_multiplicity
 _atom_site_fract_x
 _atom_site_fract_y
 _atom_site_fract_z
 _atom_site_occupancy
  Dy  Dy0  1  0.995102  0.679748  0.600412  1
  Dy  Dy1  1  0.011438  0.323568  0.406355  1
  Dy  Dy2  1  0.508374  0.174545  0.408865  1
  Dy  Dy3  1  0.011622  0.323461  0.089792  1
  Sc  Sc4  1  0.839217  0.005069  0.247383  1
  Sc  Sc5  1  0.339350  0.496251  0.248307  1
  Sc  Sc6  1  0.658934  0.509496  0.752088  1
  Sc  Sc7  1  0.485605  0.823256  0.602090  1
  Sc  Sc8  1  0.993349  0.686897  0.897279  1
  Sc  Sc9  1  0.486948  0.823710  0.901897  1
  Sc  Sc10  1  0.513060  0.179777  0.093965  1
  Sc  Sc11  1  0.330501  0.321474  0.631019  1
  Sc  Sc12  1  0.668631  0.678384  0.374684  1
  Sc  Sc13  1  0.171958  0.827162  0.376397  1
  Sc  Sc14  1  0.669179  0.677424  0.123682  1
  Sc  Sc15  1  0.827267  0.168453  0.629972  1
  Sc  Sc16  1  0.330695  0.319112  0.873344  1
  Sc  Sc17  1  0.824511  0.168820  0.872072  1
  Sc  Sc18  1  0.171854  0.826923  0.119374  1
  Si  Si19  1  0.031178  0.381521  0.752494  1
  Si  Si20  1  0.968876  0.615981  0.248479  1
  Si  Si21  1  0.466967  0.889350  0.247501  1
  Si  Si22  1  0.519025  0.091873  0.751487  1
  Si  Si23  1  0.286984  0.646486  0.753623  1
  Si  Si24  1  0.713158  0.368937  0.247064  1
  Si  Si25  1  0.216745  0.130542  0.246540  1
  Si  Si26  1  0.791402  0.866489  0.752683  1
  Si  Si27  1  0.164385  0.031431  0.549511  1
  Si  Si28  1  0.843468  0.963237  0.464786  1
  Si  Si29  1  0.344617  0.541060  0.466688  1
  Si  Si30  1  0.836004  0.962728  0.034324  1
  Si  Si31  1  0.657056  0.469681  0.541879  1
  Si  Si32  1  0.157595  0.024337  0.948512  1
  Si  Si33  1  0.663343  0.469372  0.959008  1
  Si  Si34  1  0.348239  0.535433  0.034870  1
  W  W35  1  0.153364  0.998010  0.751576  1
