# generated using pymatgen
data_Sc6Zn20Pd3S
_symmetry_space_group_name_H-M   'P 1'
_cell_length_a   8.79684689
_cell_length_b   8.78917523
_cell_length_c   8.76155000
_cell_angle_alpha   59.89384936
_cell_angle_beta   60.11046786
_cell_angle_gamma   60.02994316
_symmetry_Int_Tables_number   1
_chemical_formula_structural   Sc6Zn20Pd3S
_chemical_formula_sum   'Sc6 Zn20 Pd3 S1'
_cell_volume   479.12668433
_cell_formula_units_Z   1
loop_
 _symmetry_equiv_pos_site_id
 _symmetry_equiv_pos_as_xyz
  1  'x, y, z'
loop_
 _atom_site_type_symbol
 _atom_site_label
 _atom_site_symmetry_multiplicity
 _atom_site_fract_x
 _atom_site_fract_y
 _atom_site_fract_z
 _atom_site_occupancy
  Sc  Sc0  1  0.707835  0.292189  0.292133  1
  Sc  Sc1  1  0.292167  0.707807  0.707866  1
  Sc  Sc2  1  0.291911  0.707032  0.294022  1
  Sc  Sc3  1  0.708096  0.292963  0.705981  1
  Sc  Sc4  1  0.292160  0.292133  0.707881  1
  Sc  Sc5  1  0.707840  0.707867  0.292121  1
  Zn  Zn6  1  0.119345  0.120120  0.124019  1
  Zn  Zn7  1  0.880656  0.879884  0.875976  1
  Zn  Zn8  1  0.119222  0.122743  0.635286  1
  Zn  Zn9  1  0.119360  0.636511  0.124011  1
  Zn  Zn10  1  0.880773  0.877256  0.364722  1
  Zn  Zn11  1  0.880643  0.363485  0.875987  1
  Zn  Zn12  1  0.637565  0.120483  0.121488  1
  Zn  Zn13  1  0.362430  0.879521  0.878509  1
  Zn  Zn14  1  0.499999  0.000000  0.000001  1
  Zn  Zn15  1  0.999998  0.500000  0.000002  1
  Zn  Zn16  1  0.500000  0.000000  0.500000  1
  Zn  Zn17  1  0.499999  0.499999  0.000001  1
  Zn  Zn18  1  0.335140  0.332324  0.330887  1
  Zn  Zn19  1  0.664857  0.667675  0.669115  1
  Zn  Zn20  1  0.333721  0.332433  0.001403  1
  Zn  Zn21  1  0.335143  0.001660  0.330874  1
  Zn  Zn22  1  0.666280  0.667571  0.998588  1
  Zn  Zn23  1  0.664853  0.998346  0.669125  1
  Zn  Zn24  1  0.002135  0.334157  0.329554  1
  Zn  Zn25  1  0.997865  0.665841  0.670449  1
  Pd  Pd26  1  0.999999  0.500003  0.500001  1
  Pd  Pd27  1  0.000002  0.000002  0.499997  1
  Pd  Pd28  1  0.999998  0.000001  0.000003  1
  S  S29  1  0.500006  0.499994  0.500001  1
