# generated using pymatgen
data_La3ErAl18(Pd2Ru)2
_symmetry_space_group_name_H-M   'P 1'
_cell_length_a   7.69452818
_cell_length_b   7.71208172
_cell_length_c   9.62302400
_cell_angle_alpha   90.00000000
_cell_angle_beta   90.00000000
_cell_angle_gamma   119.42120622
_symmetry_Int_Tables_number   1
_chemical_formula_structural   La3ErAl18(Pd2Ru)2
_chemical_formula_sum   'La3 Er1 Al18 Pd4 Ru2'
_cell_volume   497.39260754
_cell_formula_units_Z   1
loop_
 _symmetry_equiv_pos_site_id
 _symmetry_equiv_pos_as_xyz
  1  'x, y, z'
loop_
 _atom_site_type_symbol
 _atom_site_label
 _atom_site_symmetry_multiplicity
 _atom_site_fract_x
 _atom_site_fract_y
 _atom_site_fract_z
 _atom_site_occupancy
  La  La0  1  0.995384  0.668238  0.250000  1
  La  La1  1  0.004339  0.331115  0.750000  1
  La  La2  1  0.668827  0.994706  0.250000  1
  Er  Er3  1  0.329610  0.005119  0.750000  1
  Al  Al4  1  0.129631  0.127602  0.250000  1
  Al  Al5  1  0.876308  0.874220  0.750000  1
  Al  Al6  1  0.004738  0.328719  0.074502  1
  Al  Al7  1  0.000752  0.675132  0.920921  1
  Al  Al8  1  0.000752  0.675132  0.579079  1
  Al  Al9  1  0.328847  0.003477  0.430270  1
  Al  Al10  1  0.004738  0.328719  0.425498  1
  Al  Al11  1  0.666491  0.996263  0.578825  1
  Al  Al12  1  0.666491  0.996263  0.921175  1
  Al  Al13  1  0.328847  0.003477  0.069730  1
  Al  Al14  1  0.330413  0.327253  0.552821  1
  Al  Al15  1  0.669997  0.669888  0.455592  1
  Al  Al16  1  0.669997  0.669888  0.044408  1
  Al  Al17  1  0.330413  0.327253  0.947179  1
  Al  Al18  1  0.342959  0.542123  0.250000  1
  Al  Al19  1  0.652841  0.452488  0.750000  1
  Al  Al20  1  0.541143  0.340442  0.250000  1
  Al  Al21  1  0.456067  0.661423  0.750000  1
  Pd  Pd22  1  0.670883  0.328184  0.998862  1
  Pd  Pd23  1  0.328446  0.671821  0.998955  1
  Pd  Pd24  1  0.328446  0.671821  0.501045  1
  Pd  Pd25  1  0.670883  0.328184  0.501138  1
  Ru  Ru26  1  0.000880  0.000527  0.998105  1
  Ru  Ru27  1  0.000880  0.000527  0.501895  1
