# generated using pymatgen
data_Y12In2Si3Ni
_symmetry_space_group_name_H-M   'P 1'
_cell_length_a   8.48674299
_cell_length_b   8.48674375
_cell_length_c   8.48674500
_cell_angle_alpha   112.93478524
_cell_angle_beta   111.05667204
_cell_angle_gamma   104.53821376
_symmetry_Int_Tables_number   1
_chemical_formula_structural   Y12In2Si3Ni
_chemical_formula_sum   'Y12 In2 Si3 Ni1'
_cell_volume   467.82108206
_cell_formula_units_Z   1
loop_
 _symmetry_equiv_pos_site_id
 _symmetry_equiv_pos_as_xyz
  1  'x, y, z'
loop_
 _atom_site_type_symbol
 _atom_site_label
 _atom_site_symmetry_multiplicity
 _atom_site_fract_x
 _atom_site_fract_y
 _atom_site_fract_z
 _atom_site_occupancy
  Y  Y0  1  0.312777  0.619840  0.307062  1
  Y  Y1  1  0.678927  0.382093  0.703165  1
  Y  Y2  1  0.312773  0.005704  0.692932  1
  Y  Y3  1  0.678931  0.975768  0.296836  1
  Y  Y4  1  0.185649  0.288090  0.469035  1
  Y  Y5  1  0.819063  0.716621  0.530973  1
  Y  Y6  1  0.185649  0.716621  0.897559  1
  Y  Y7  1  0.819054  0.288090  0.102440  1
  Y  Y8  1  0.444650  0.241606  0.203049  1
  Y  Y9  1  0.558978  0.762382  0.796593  1
  Y  Y10  1  0.038556  0.241606  0.796953  1
  Y  Y11  1  0.965788  0.762382  0.203405  1
  In  In12  1  0.500702  0.500704  0.000002  1
  In  In13  1  0.000782  0.000784  0.000001  1
  Si  Si14  1  0.880808  0.380806  0.499999  1
  Si  Si15  1  0.363213  0.002267  0.360939  1
  Si  Si16  1  0.641326  0.002267  0.639054  1
  Ni  Ni17  1  0.112371  0.612374  0.500003  1
