# generated using pymatgen
data_Er2Al9PdRh2
_symmetry_space_group_name_H-M   'P 1'
_cell_length_a   7.57020944
_cell_length_b   7.57020918
_cell_length_c   9.43610115
_cell_angle_alpha   89.96125177
_cell_angle_beta   89.96125148
_cell_angle_gamma   119.55862176
_symmetry_Int_Tables_number   1
_chemical_formula_structural   Er2Al9PdRh2
_chemical_formula_sum   'Er4 Al18 Pd2 Rh4'
_cell_volume   470.38454859
_cell_formula_units_Z   2
loop_
 _symmetry_equiv_pos_site_id
 _symmetry_equiv_pos_as_xyz
  1  'x, y, z'
loop_
 _atom_site_type_symbol
 _atom_site_label
 _atom_site_symmetry_multiplicity
 _atom_site_fract_x
 _atom_site_fract_y
 _atom_site_fract_z
 _atom_site_occupancy
  Er  Er0  1  0.995152  0.670223  0.750821  1
  Er  Er1  1  0.004848  0.329777  0.249179  1
  Er  Er2  1  0.670223  0.995152  0.750821  1
  Er  Er3  1  0.329777  0.004848  0.249179  1
  Al  Al4  1  0.126106  0.126106  0.751021  1
  Al  Al5  1  0.873894  0.873894  0.248979  1
  Al  Al6  1  0.000712  0.331317  0.578121  1
  Al  Al7  1  0.999288  0.668683  0.421879  1
  Al  Al8  1  0.000749  0.665251  0.074923  1
  Al  Al9  1  0.334749  0.999251  0.925077  1
  Al  Al10  1  0.999251  0.334749  0.925077  1
  Al  Al11  1  0.665251  0.000749  0.074923  1
  Al  Al12  1  0.668683  0.999288  0.421879  1
  Al  Al13  1  0.331317  0.000712  0.578121  1
  Al  Al14  1  0.331955  0.331955  0.050941  1
  Al  Al15  1  0.668045  0.668045  0.949059  1
  Al  Al16  1  0.669557  0.669557  0.557256  1
  Al  Al17  1  0.330443  0.330443  0.442744  1
  Al  Al18  1  0.340132  0.548037  0.753794  1
  Al  Al19  1  0.659868  0.451963  0.246206  1
  Al  Al20  1  0.548037  0.340132  0.753794  1
  Al  Al21  1  0.451963  0.659868  0.246206  1
  Pd  Pd22  1  0.672371  0.327629  0.500000  1
  Pd  Pd23  1  0.327629  0.672371  0.500000  1
  Rh  Rh24  1  0.327529  0.672471  0.000000  1
  Rh  Rh25  1  0.672471  0.327529  0.000000  1
  Rh  Rh26  1  0.000000  0.000000  0.500000  1
  Rh  Rh27  1  0.000000  0.000000  0.000000  1
