# generated using pymatgen
data_Ac5Ho(SnPd)6
_symmetry_space_group_name_H-M   'P 1'
_cell_length_a   7.86694600
_cell_length_b   7.82099597
_cell_length_c   8.52387400
_cell_angle_alpha   90.00000000
_cell_angle_beta   90.00000000
_cell_angle_gamma   119.83634757
_symmetry_Int_Tables_number   1
_chemical_formula_structural   Ac5Ho(SnPd)6
_chemical_formula_sum   'Ac5 Ho1 Sn6 Pd6'
_cell_volume   454.93537365
_cell_formula_units_Z   1
loop_
 _symmetry_equiv_pos_site_id
 _symmetry_equiv_pos_as_xyz
  1  'x, y, z'
loop_
 _atom_site_type_symbol
 _atom_site_label
 _atom_site_symmetry_multiplicity
 _atom_site_fract_x
 _atom_site_fract_y
 _atom_site_fract_z
 _atom_site_occupancy
  Ac  Ac0  1  0.416617  0.999099  0.250000  1
  Ac  Ac1  1  0.583002  0.582778  0.250000  1
  Ac  Ac2  1  0.414885  0.999690  0.750000  1
  Ac  Ac3  1  0.585144  0.585458  0.750000  1
  Ac  Ac4  1  0.999887  0.419082  0.750000  1
  Ho  Ho5  1  0.999256  0.405817  0.250000  1
  Sn  Sn6  1  0.761019  0.006433  0.002233  1
  Sn  Sn7  1  0.239779  0.245635  0.497756  1
  Sn  Sn8  1  0.999934  0.752921  0.490390  1
  Sn  Sn9  1  0.999934  0.752921  0.009610  1
  Sn  Sn10  1  0.239779  0.245635  0.002244  1
  Sn  Sn11  1  0.761019  0.006433  0.497767  1
  Pd  Pd12  1  0.320769  0.657764  0.008961  1
  Pd  Pd13  1  0.320769  0.657764  0.491039  1
  Pd  Pd14  1  0.678753  0.336809  0.008811  1
  Pd  Pd15  1  0.678753  0.336809  0.491189  1
  Pd  Pd16  1  0.000224  0.009979  0.250000  1
  Pd  Pd17  1  0.000478  0.998977  0.750000  1
