# generated using pymatgen
data_Er13Lu7(Ir2Os)4
_symmetry_space_group_name_H-M   'P 1'
_cell_length_a   10.71706043
_cell_length_b   10.72150420
_cell_length_c   6.33682330
_cell_angle_alpha   89.98160008
_cell_angle_beta   89.96999022
_cell_angle_gamma   90.01210962
_symmetry_Int_Tables_number   1
_chemical_formula_structural   Er13Lu7(Ir2Os)4
_chemical_formula_sum   'Er13 Lu7 Ir8 Os4'
_cell_volume   728.11990682
_cell_formula_units_Z   1
loop_
 _symmetry_equiv_pos_site_id
 _symmetry_equiv_pos_as_xyz
  1  'x, y, z'
loop_
 _atom_site_type_symbol
 _atom_site_label
 _atom_site_symmetry_multiplicity
 _atom_site_fract_x
 _atom_site_fract_y
 _atom_site_fract_z
 _atom_site_occupancy
  Er  Er0  1  0.707031  0.914531  0.375756  1
  Er  Er1  1  0.585730  0.793483  0.875549  1
  Er  Er2  1  0.585687  0.206751  0.375559  1
  Er  Er3  1  0.413489  0.793482  0.375656  1
  Er  Er4  1  0.413729  0.206486  0.875485  1
  Er  Er5  1  0.207285  0.413811  0.624132  1
  Er  Er6  1  0.207324  0.586117  0.124192  1
  Er  Er7  1  0.792724  0.413890  0.124175  1
  Er  Er8  1  0.792674  0.586094  0.624303  1
  Er  Er9  1  0.913948  0.707209  0.124463  1
  Er  Er10  1  0.913571  0.292423  0.624696  1
  Er  Er11  1  0.086517  0.707658  0.624485  1
  Er  Er12  1  0.086525  0.292490  0.124776  1
  Lu  Lu13  1  0.293661  0.085339  0.376591  1
  Lu  Lu14  1  0.293633  0.914619  0.876722  1
  Lu  Lu15  1  0.706134  0.085598  0.876785  1
  Lu  Lu16  1  0.000509  0.000231  0.499643  1
  Lu  Lu17  1  0.000124  0.000070  0.999344  1
  Lu  Lu18  1  0.499917  0.499874  0.999833  1
  Lu  Lu19  1  0.499864  0.499974  0.499737  1
  Ir  Ir20  1  0.848602  0.150778  0.248335  1
  Ir  Ir21  1  0.848638  0.849429  0.750331  1
  Ir  Ir22  1  0.151953  0.150281  0.748610  1
  Ir  Ir23  1  0.151865  0.849858  0.248729  1
  Ir  Ir24  1  0.651202  0.348016  0.750502  1
  Ir  Ir25  1  0.651116  0.651134  0.250003  1
  Ir  Ir26  1  0.348861  0.347956  0.250572  1
  Ir  Ir27  1  0.348811  0.651994  0.750565  1
  Os  Os28  1  0.499454  0.000264  0.122581  1
  Os  Os29  1  0.499367  0.000267  0.624139  1
  Os  Os30  1  0.000031  0.499986  0.876655  1
  Os  Os31  1  0.000023  0.499906  0.377098  1
