# generated using pymatgen
data_Ho2Al8GeIr3
_symmetry_space_group_name_H-M   'P 1'
_cell_length_a   7.55056509
_cell_length_b   7.55056554
_cell_length_c   9.42076900
_cell_angle_alpha   90.00000000
_cell_angle_beta   90.00000000
_cell_angle_gamma   119.73483101
_symmetry_Int_Tables_number   1
_chemical_formula_structural   Ho2Al8GeIr3
_chemical_formula_sum   'Ho4 Al16 Ge2 Ir6'
_cell_volume   466.36953875
_cell_formula_units_Z   2
loop_
 _symmetry_equiv_pos_site_id
 _symmetry_equiv_pos_as_xyz
  1  'x, y, z'
loop_
 _atom_site_type_symbol
 _atom_site_label
 _atom_site_symmetry_multiplicity
 _atom_site_fract_x
 _atom_site_fract_y
 _atom_site_fract_z
 _atom_site_occupancy
  Ho  Ho0  1  0.995058  0.675230  0.250000  1
  Ho  Ho1  1  0.004942  0.324770  0.750000  1
  Ho  Ho2  1  0.675230  0.995058  0.250000  1
  Ho  Ho3  1  0.324770  0.004942  0.750000  1
  Al  Al4  1  0.000183  0.337351  0.074683  1
  Al  Al5  1  0.999817  0.662649  0.925317  1
  Al  Al6  1  0.999817  0.662649  0.574683  1
  Al  Al7  1  0.337351  0.000183  0.425317  1
  Al  Al8  1  0.000183  0.337351  0.425317  1
  Al  Al9  1  0.662649  0.999817  0.574683  1
  Al  Al10  1  0.662649  0.999817  0.925317  1
  Al  Al11  1  0.337351  0.000183  0.074683  1
  Al  Al12  1  0.335439  0.335439  0.558813  1
  Al  Al13  1  0.664561  0.664561  0.441187  1
  Al  Al14  1  0.664561  0.664561  0.058813  1
  Al  Al15  1  0.335439  0.335439  0.941187  1
  Al  Al16  1  0.336099  0.552680  0.250000  1
  Al  Al17  1  0.663901  0.447320  0.750000  1
  Al  Al18  1  0.552680  0.336099  0.250000  1
  Al  Al19  1  0.447320  0.663901  0.750000  1
  Ge  Ge20  1  0.133547  0.133547  0.250000  1
  Ge  Ge21  1  0.866453  0.866453  0.750000  1
  Ir  Ir22  1  0.671149  0.328851  0.000000  1
  Ir  Ir23  1  0.328851  0.671149  0.000000  1
  Ir  Ir24  1  0.328851  0.671149  0.500000  1
  Ir  Ir25  1  0.671149  0.328851  0.500000  1
  Ir  Ir26  1  0.000000  0.000000  0.000000  1
  Ir  Ir27  1  0.000000  0.000000  0.500000  1
