# generated using pymatgen
data_Ti3Al5Fe8
_symmetry_space_group_name_H-M   'P 1'
_cell_length_a   5.81599900
_cell_length_b   5.81599900
_cell_length_c   5.81599900
_cell_angle_alpha   90.00000000
_cell_angle_beta   90.00000000
_cell_angle_gamma   90.00000000
_symmetry_Int_Tables_number   1
_chemical_formula_structural   Ti3Al5Fe8
_chemical_formula_sum   'Ti3 Al5 Fe8'
_cell_volume   196.73107702
_cell_formula_units_Z   1
loop_
 _symmetry_equiv_pos_site_id
 _symmetry_equiv_pos_as_xyz
  1  'x, y, z'
loop_
 _atom_site_type_symbol
 _atom_site_label
 _atom_site_symmetry_multiplicity
 _atom_site_fract_x
 _atom_site_fract_y
 _atom_site_fract_z
 _atom_site_occupancy
  Ti  Ti0  1  0.500000  0.000000  0.000000  1
  Ti  Ti1  1  0.000000  0.000000  0.500000  1
  Ti  Ti2  1  0.000000  0.500000  0.000000  1
  Al  Al3  1  0.500000  0.500000  0.500000  1
  Al  Al4  1  0.000000  0.500000  0.500000  1
  Al  Al5  1  0.500000  0.000000  0.500000  1
  Al  Al6  1  0.500000  0.500000  0.000000  1
  Al  Al7  1  0.000000  0.000000  0.000000  1
  Fe  Fe8  1  0.252973  0.747027  0.747027  1
  Fe  Fe9  1  0.747027  0.252973  0.747027  1
  Fe  Fe10  1  0.747027  0.747027  0.747027  1
  Fe  Fe11  1  0.747027  0.747027  0.252973  1
  Fe  Fe12  1  0.747027  0.252973  0.252973  1
  Fe  Fe13  1  0.252973  0.252973  0.747027  1
  Fe  Fe14  1  0.252973  0.747027  0.252973  1
  Fe  Fe15  1  0.252973  0.252973  0.252973  1
