# generated using pymatgen
data_Dy11Th5(MgFe)4
_symmetry_space_group_name_H-M   'P 1'
_cell_length_a   9.58249041
_cell_length_b   9.67380482
_cell_length_c   9.67380399
_cell_angle_alpha   59.78296106
_cell_angle_beta   60.31176165
_cell_angle_gamma   60.31176410
_symmetry_Int_Tables_number   1
_chemical_formula_structural   Dy11Th5(MgFe)4
_chemical_formula_sum   'Dy11 Th5 Mg4 Fe4'
_cell_volume   636.01081579
_cell_formula_units_Z   1
loop_
 _symmetry_equiv_pos_site_id
 _symmetry_equiv_pos_as_xyz
  1  'x, y, z'
loop_
 _atom_site_type_symbol
 _atom_site_label
 _atom_site_symmetry_multiplicity
 _atom_site_fract_x
 _atom_site_fract_y
 _atom_site_fract_z
 _atom_site_occupancy
  Dy  Dy0  1  0.186094  0.813906  0.813906  1
  Dy  Dy1  1  0.190684  0.809950  0.184901  1
  Dy  Dy2  1  0.814467  0.184901  0.809950  1
  Dy  Dy3  1  0.190684  0.184901  0.809950  1
  Dy  Dy4  1  0.814467  0.809950  0.184901  1
  Dy  Dy5  1  0.933866  0.566134  0.566134  1
  Dy  Dy6  1  0.564384  0.935616  0.935616  1
  Dy  Dy7  1  0.562315  0.938711  0.560692  1
  Dy  Dy8  1  0.938282  0.560692  0.938711  1
  Dy  Dy9  1  0.562315  0.560692  0.938711  1
  Dy  Dy10  1  0.938282  0.938711  0.560692  1
  Th  Th11  1  0.337814  0.345791  0.345791  1
  Th  Th12  1  0.342443  0.344404  0.970711  1
  Th  Th13  1  0.342443  0.970711  0.344404  1
  Th  Th14  1  0.970605  0.345791  0.345791  1
  Th  Th15  1  0.817574  0.182426  0.182426  1
  Mg  Mg16  1  0.580783  0.579238  0.579238  1
  Mg  Mg17  1  0.579253  0.581590  0.259902  1
  Mg  Mg18  1  0.579253  0.259902  0.581590  1
  Mg  Mg19  1  0.260739  0.579238  0.579238  1
  Fe  Fe20  1  0.119781  0.150790  0.150790  1
  Fe  Fe21  1  0.147419  0.141867  0.563295  1
  Fe  Fe22  1  0.147419  0.563295  0.141867  1
  Fe  Fe23  1  0.578639  0.150790  0.150790  1
