# generated using pymatgen
data_Tb20Ru11Se
_symmetry_space_group_name_H-M   'P 1'
_cell_length_a   10.90494061
_cell_length_b   10.90494085
_cell_length_c   6.42694603
_cell_angle_alpha   89.99007432
_cell_angle_beta   89.99007450
_cell_angle_gamma   89.58530442
_symmetry_Int_Tables_number   1
_chemical_formula_structural   Tb20Ru11Se
_chemical_formula_sum   'Tb20 Ru11 Se1'
_cell_volume   764.25780674
_cell_formula_units_Z   1
loop_
 _symmetry_equiv_pos_site_id
 _symmetry_equiv_pos_as_xyz
  1  'x, y, z'
loop_
 _atom_site_type_symbol
 _atom_site_label
 _atom_site_symmetry_multiplicity
 _atom_site_fract_x
 _atom_site_fract_y
 _atom_site_fract_z
 _atom_site_occupancy
  Tb  Tb0  1  0.292240  0.089200  0.379389  1
  Tb  Tb1  1  0.292509  0.921954  0.876788  1
  Tb  Tb2  1  0.709394  0.088880  0.878803  1
  Tb  Tb3  1  0.709107  0.912558  0.380545  1
  Tb  Tb4  1  0.595661  0.796568  0.880144  1
  Tb  Tb5  1  0.588495  0.205322  0.376407  1
  Tb  Tb6  1  0.415883  0.799806  0.370031  1
  Tb  Tb7  1  0.413657  0.209964  0.877477  1
  Tb  Tb8  1  0.203432  0.404339  0.619856  1
  Tb  Tb9  1  0.200194  0.584117  0.129969  1
  Tb  Tb10  1  0.794678  0.411505  0.123593  1
  Tb  Tb11  1  0.790036  0.586343  0.622523  1
  Tb  Tb12  1  0.910800  0.707760  0.120611  1
  Tb  Tb13  1  0.911120  0.290606  0.621197  1
  Tb  Tb14  1  0.078046  0.707491  0.623212  1
  Tb  Tb15  1  0.087442  0.290893  0.119455  1
  Tb  Tb16  1  0.001078  0.000367  0.498808  1
  Tb  Tb17  1  0.999633  0.998922  0.001192  1
  Tb  Tb18  1  0.503726  0.496889  0.002597  1
  Tb  Tb19  1  0.503111  0.496274  0.497403  1
  Ru  Ru20  1  0.846542  0.153458  0.250000  1
  Ru  Ru21  1  0.847763  0.846529  0.750712  1
  Ru  Ru22  1  0.153471  0.152237  0.749288  1
  Ru  Ru23  1  0.154260  0.845740  0.250000  1
  Ru  Ru24  1  0.653244  0.346756  0.750000  1
  Ru  Ru25  1  0.646365  0.649607  0.253272  1
  Ru  Ru26  1  0.350393  0.353635  0.246728  1
  Ru  Ru27  1  0.501153  0.998053  0.120869  1
  Ru  Ru28  1  0.500735  0.999871  0.624556  1
  Ru  Ru29  1  0.000129  0.499265  0.875444  1
  Ru  Ru30  1  0.001947  0.498847  0.379131  1
  Se  Se31  1  0.343758  0.656242  0.750000  1
