# generated using pymatgen
data_Zr14TaNbCo5Ir3N4
_symmetry_space_group_name_H-M   'P 1'
_cell_length_a   8.63251613
_cell_length_b   8.66516571
_cell_length_c   8.73228300
_cell_angle_alpha   59.74343985
_cell_angle_beta   59.61694819
_cell_angle_gamma   59.47427268
_symmetry_Int_Tables_number   1
_chemical_formula_structural   Zr14TaNbCo5Ir3N4
_chemical_formula_sum   'Zr14 Ta1 Nb1 Co5 Ir3 N4'
_cell_volume   457.79506779
_cell_formula_units_Z   1
loop_
 _symmetry_equiv_pos_site_id
 _symmetry_equiv_pos_as_xyz
  1  'x, y, z'
loop_
 _atom_site_type_symbol
 _atom_site_label
 _atom_site_symmetry_multiplicity
 _atom_site_fract_x
 _atom_site_fract_y
 _atom_site_fract_z
 _atom_site_occupancy
  Zr  Zr0  1  0.179525  0.606371  0.606916  1
  Zr  Zr1  1  0.607906  0.165835  0.612989  1
  Zr  Zr2  1  0.810201  0.810954  0.189519  1
  Zr  Zr3  1  0.183157  0.182202  0.817290  1
  Zr  Zr4  1  0.812334  0.184868  0.817001  1
  Zr  Zr5  1  0.185577  0.813753  0.183900  1
  Zr  Zr6  1  0.185432  0.813795  0.816864  1
  Zr  Zr7  1  0.812351  0.184799  0.186030  1
  Zr  Zr8  1  0.436501  0.436763  0.063744  1
  Zr  Zr9  1  0.061882  0.062488  0.437752  1
  Zr  Zr10  1  0.436381  0.060972  0.438202  1
  Zr  Zr11  1  0.059509  0.437273  0.063732  1
  Zr  Zr12  1  0.059281  0.437546  0.439531  1
  Zr  Zr13  1  0.436325  0.060837  0.064427  1
  Ta  Ta14  1  0.611241  0.616292  0.150256  1
  Nb  Nb15  1  0.610130  0.615607  0.621794  1
  Co  Co16  1  0.771026  0.428018  0.399525  1
  Co  Co17  1  0.426569  0.783504  0.393936  1
  Co  Co18  1  0.409405  0.403361  0.801991  1
  Co  Co19  1  0.410142  0.404189  0.384775  1
  Co  Co20  1  0.509198  0.826917  0.832993  1
  Ir  Ir21  1  0.829422  0.506742  0.832725  1
  Ir  Ir22  1  0.830435  0.830118  0.506449  1
  Ir  Ir23  1  0.829924  0.829945  0.834234  1
  N  N24  1  0.627051  0.122138  0.125424  1
  N  N25  1  0.121925  0.626530  0.125773  1
  N  N26  1  0.123575  0.124106  0.625876  1
  N  N27  1  0.123594  0.124077  0.126354  1
