# generated using pymatgen
data_PuU2Ni3Sb4
_symmetry_space_group_name_H-M   'P 1'
_cell_length_a   8.17730637
_cell_length_b   8.17730664
_cell_length_c   8.17730614
_cell_angle_alpha   109.21657776
_cell_angle_beta   109.98171263
_cell_angle_gamma   109.21657890
_symmetry_Int_Tables_number   1
_chemical_formula_structural   PuU2Ni3Sb4
_chemical_formula_sum   'Pu2 U4 Ni6 Sb8'
_cell_volume   420.90399188
_cell_formula_units_Z   2
loop_
 _symmetry_equiv_pos_site_id
 _symmetry_equiv_pos_as_xyz
  1  'x, y, z'
loop_
 _atom_site_type_symbol
 _atom_site_label
 _atom_site_symmetry_multiplicity
 _atom_site_fract_x
 _atom_site_fract_y
 _atom_site_fract_z
 _atom_site_occupancy
  Pu  Pu0  1  0.875000  0.250000  0.125000  1
  Pu  Pu1  1  0.625000  0.750000  0.375000  1
  U  U2  1  0.250000  0.125246  0.875246  1
  U  U3  1  0.750000  0.374754  0.624754  1
  U  U4  1  0.124754  0.874754  0.250000  1
  U  U5  1  0.375246  0.625246  0.750000  1
  Ni  Ni6  1  0.375000  0.250000  0.625000  1
  Ni  Ni7  1  0.125000  0.750000  0.875000  1
  Ni  Ni8  1  0.250000  0.627896  0.377896  1
  Ni  Ni9  1  0.750000  0.872104  0.122104  1
  Ni  Ni10  1  0.622104  0.372104  0.250000  1
  Ni  Ni11  1  0.877896  0.127896  0.750000  1
  Sb  Sb12  1  0.663682  0.501297  0.000945  1
  Sb  Sb13  1  0.499649  0.998703  0.662385  1
  Sb  Sb14  1  0.000351  0.662737  0.499055  1
  Sb  Sb15  1  0.836318  0.837263  0.837615  1
  Sb  Sb16  1  0.500945  0.001297  0.163682  1
  Sb  Sb17  1  0.162385  0.498703  0.999649  1
  Sb  Sb18  1  0.999055  0.162737  0.500351  1
  Sb  Sb19  1  0.337615  0.337263  0.336318  1
