# generated using pymatgen
data_Ac10InBi5Se2
_symmetry_space_group_name_H-M   'P 1'
_cell_length_a   10.15605900
_cell_length_b   10.10669267
_cell_length_c   7.24937500
_cell_angle_alpha   90.00000000
_cell_angle_beta   90.00000000
_cell_angle_gamma   120.16171382
_symmetry_Int_Tables_number   1
_chemical_formula_structural   Ac10InBi5Se2
_chemical_formula_sum   'Ac10 In1 Bi5 Se2'
_cell_volume   643.36208781
_cell_formula_units_Z   1
loop_
 _symmetry_equiv_pos_site_id
 _symmetry_equiv_pos_as_xyz
  1  'x, y, z'
loop_
 _atom_site_type_symbol
 _atom_site_label
 _atom_site_symmetry_multiplicity
 _atom_site_fract_x
 _atom_site_fract_y
 _atom_site_fract_z
 _atom_site_occupancy
  Ac  Ac0  1  0.255464  0.000000  0.750000  1
  Ac  Ac1  1  0.746601  0.000000  0.250000  1
  Ac  Ac2  1  0.996043  0.251873  0.750000  1
  Ac  Ac3  1  0.998841  0.744842  0.250000  1
  Ac  Ac4  1  0.744169  0.748127  0.750000  1
  Ac  Ac5  1  0.254000  0.255158  0.250000  1
  Ac  Ac6  1  0.335530  0.669482  0.499357  1
  Ac  Ac7  1  0.666048  0.330518  0.499357  1
  Ac  Ac8  1  0.666048  0.330518  0.000643  1
  Ac  Ac9  1  0.335530  0.669482  0.000643  1
  In  In10  1  0.606198  0.000000  0.750000  1
  Bi  Bi11  1  0.392600  0.000000  0.250000  1
  Bi  Bi12  1  0.998759  0.608125  0.750000  1
  Bi  Bi13  1  0.000374  0.391022  0.250000  1
  Bi  Bi14  1  0.390633  0.391875  0.750000  1
  Bi  Bi15  1  0.609353  0.608978  0.250000  1
  Se  Se16  1  0.001903  0.000000  0.499723  1
  Se  Se17  1  0.001903  0.000000  0.000277  1
