# generated using pymatgen
data_Hf3GaSn2Rh3
_symmetry_space_group_name_H-M   'P 1'
_cell_length_a   7.45780184
_cell_length_b   7.45780154
_cell_length_c   3.46257200
_cell_angle_alpha   90.00000000
_cell_angle_beta   90.00000000
_cell_angle_gamma   120.92473829
_symmetry_Int_Tables_number   1
_chemical_formula_structural   Hf3GaSn2Rh3
_chemical_formula_sum   'Hf3 Ga1 Sn2 Rh3'
_cell_volume   165.20695828
_cell_formula_units_Z   1
loop_
 _symmetry_equiv_pos_site_id
 _symmetry_equiv_pos_as_xyz
  1  'x, y, z'
loop_
 _atom_site_type_symbol
 _atom_site_label
 _atom_site_symmetry_multiplicity
 _atom_site_fract_x
 _atom_site_fract_y
 _atom_site_fract_z
 _atom_site_occupancy
  Hf  Hf0  1  0.396141  0.020805  0.500000  1
  Hf  Hf1  1  0.020805  0.396141  0.500000  1
  Hf  Hf2  1  0.588482  0.588482  0.500000  1
  Ga  Ga3  1  0.272625  0.272625  0.000000  1
  Sn  Sn4  1  0.728035  0.997769  0.000000  1
  Sn  Sn5  1  0.997769  0.728035  0.000000  1
  Rh  Rh6  1  0.327730  0.655882  0.000000  1
  Rh  Rh7  1  0.655882  0.327730  0.000000  1
  Rh  Rh8  1  0.012531  0.012531  0.500000  1
