# generated using pymatgen
data_Tb5LuU4O20
_symmetry_space_group_name_H-M   'P 1'
_cell_length_a   6.65614346
_cell_length_b   7.49946719
_cell_length_c   8.40853776
_cell_angle_alpha   100.95148303
_cell_angle_beta   97.57544084
_cell_angle_gamma   107.19778754
_symmetry_Int_Tables_number   1
_chemical_formula_structural   Tb5LuU4O20
_chemical_formula_sum   'Tb5 Lu1 U4 O20'
_cell_volume   385.67479798
_cell_formula_units_Z   1
loop_
 _symmetry_equiv_pos_site_id
 _symmetry_equiv_pos_as_xyz
  1  'x, y, z'
loop_
 _atom_site_type_symbol
 _atom_site_label
 _atom_site_symmetry_multiplicity
 _atom_site_fract_x
 _atom_site_fract_y
 _atom_site_fract_z
 _atom_site_occupancy
  Tb  Tb0  1  0.614705  0.702168  0.698972  1
  Tb  Tb1  1  0.385295  0.297832  0.301028  1
  Tb  Tb2  1  0.197446  0.895343  0.890553  1
  Tb  Tb3  1  0.802554  0.104657  0.109447  1
  Tb  Tb4  1  0.000000  0.000000  0.500000  1
  Lu  Lu5  1  0.000000  0.500000  0.500000  1
  U  U6  1  0.400487  0.803590  0.302243  1
  U  U7  1  0.198804  0.399796  0.898276  1
  U  U8  1  0.801196  0.600204  0.101724  1
  U  U9  1  0.599513  0.196410  0.697757  1
  O  O10  1  0.440576  0.532785  0.138032  1
  O  O11  1  0.555774  0.988057  0.841041  1
  O  O12  1  0.266869  0.143970  0.744382  1
  O  O13  1  0.357188  0.594969  0.444351  1
  O  O14  1  0.054022  0.726410  0.334540  1
  O  O15  1  0.444226  0.011943  0.158959  1
  O  O16  1  0.149901  0.184157  0.032202  1
  O  O17  1  0.559424  0.467215  0.861968  1
  O  O18  1  0.853995  0.336879  0.950061  1
  O  O19  1  0.255497  0.604543  0.756170  1
  O  O20  1  0.954088  0.766118  0.649056  1
  O  O21  1  0.352908  0.062190  0.452999  1
  O  O22  1  0.647092  0.937810  0.547001  1
  O  O23  1  0.045912  0.233882  0.350944  1
  O  O24  1  0.744503  0.395457  0.243830  1
  O  O25  1  0.146005  0.663121  0.049939  1
  O  O26  1  0.850099  0.815843  0.967798  1
  O  O27  1  0.945978  0.273590  0.665460  1
  O  O28  1  0.642812  0.405031  0.555649  1
  O  O29  1  0.733131  0.856030  0.255618  1
