# generated using pymatgen
data_CaNdIr4
_symmetry_space_group_name_H-M   'P 1'
_cell_length_a   5.40994542
_cell_length_b   5.40994488
_cell_length_c   5.40994500
_cell_angle_alpha   59.99999315
_cell_angle_beta   59.99999646
_cell_angle_gamma   59.99999080
_symmetry_Int_Tables_number   1
_chemical_formula_structural   CaNdIr4
_chemical_formula_sum   'Ca1 Nd1 Ir4'
_cell_volume   111.96016029
_cell_formula_units_Z   1
loop_
 _symmetry_equiv_pos_site_id
 _symmetry_equiv_pos_as_xyz
  1  'x, y, z'
loop_
 _atom_site_type_symbol
 _atom_site_label
 _atom_site_symmetry_multiplicity
 _atom_site_fract_x
 _atom_site_fract_y
 _atom_site_fract_z
 _atom_site_occupancy
  Ca  Ca0  1  0.000000  0.000000  0.000000  1
  Nd  Nd1  1  0.250000  0.250000  0.250000  1
  Ir  Ir2  1  0.625110  0.625110  0.625110  1
  Ir  Ir3  1  0.124670  0.625110  0.625110  1
  Ir  Ir4  1  0.625110  0.124670  0.625110  1
  Ir  Ir5  1  0.625110  0.625110  0.124670  1
