# generated using pymatgen
data_Er3Tm13In4Ir3Pt
_symmetry_space_group_name_H-M   'P 1'
_cell_length_a   9.53693702
_cell_length_b   9.53789112
_cell_length_c   9.53693823
_cell_angle_alpha   60.38693045
_cell_angle_beta   60.39533269
_cell_angle_gamma   60.38692741
_symmetry_Int_Tables_number   1
_chemical_formula_structural   Er3Tm13In4Ir3Pt
_chemical_formula_sum   'Er3 Tm13 In4 Ir3 Pt1'
_cell_volume   618.82296080
_cell_formula_units_Z   1
loop_
 _symmetry_equiv_pos_site_id
 _symmetry_equiv_pos_as_xyz
  1  'x, y, z'
loop_
 _atom_site_type_symbol
 _atom_site_label
 _atom_site_symmetry_multiplicity
 _atom_site_fract_x
 _atom_site_fract_y
 _atom_site_fract_z
 _atom_site_occupancy
  Er  Er0  1  0.061185  0.437453  0.438252  1
  Er  Er1  1  0.438252  0.437453  0.061185  1
  Er  Er2  1  0.059138  0.436779  0.059138  1
  Tm  Tm3  1  0.059409  0.058953  0.436841  1
  Tm  Tm4  1  0.647108  0.052273  0.647108  1
  Tm  Tm5  1  0.190928  0.808454  0.190928  1
  Tm  Tm6  1  0.438286  0.060478  0.438286  1
  Tm  Tm7  1  0.191160  0.190965  0.808068  1
  Tm  Tm8  1  0.653699  0.653695  0.653699  1
  Tm  Tm9  1  0.052531  0.647153  0.646652  1
  Tm  Tm10  1  0.436841  0.058953  0.059409  1
  Tm  Tm11  1  0.646652  0.647153  0.052531  1
  Tm  Tm12  1  0.195925  0.808771  0.807889  1
  Tm  Tm13  1  0.808400  0.195808  0.808400  1
  Tm  Tm14  1  0.808068  0.190965  0.191160  1
  Tm  Tm15  1  0.807889  0.808771  0.195925  1
  In  In16  1  0.749000  0.417016  0.417714  1
  In  In17  1  0.417714  0.417016  0.749000  1
  In  In18  1  0.416393  0.750760  0.416393  1
  In  In19  1  0.416942  0.415737  0.416942  1
  Ir  Ir20  1  0.424448  0.861134  0.860882  1
  Ir  Ir21  1  0.860882  0.861134  0.424448  1
  Ir  Ir22  1  0.860993  0.424470  0.860993  1
  Pt  Pt23  1  0.858161  0.858660  0.858161  1
