# generated using pymatgen
data_Cs6CeInBr12
_symmetry_space_group_name_H-M   'P 1'
_cell_length_a   10.05264136
_cell_length_b   10.02511631
_cell_length_c   8.32076500
_cell_angle_alpha   90.00000000
_cell_angle_beta   90.00000000
_cell_angle_gamma   90.29530643
_symmetry_Int_Tables_number   1
_chemical_formula_structural   Cs6CeInBr12
_chemical_formula_sum   'Cs6 Ce1 In1 Br12'
_cell_volume   838.54639640
_cell_formula_units_Z   1
loop_
 _symmetry_equiv_pos_site_id
 _symmetry_equiv_pos_as_xyz
  1  'x, y, z'
loop_
 _atom_site_type_symbol
 _atom_site_label
 _atom_site_symmetry_multiplicity
 _atom_site_fract_x
 _atom_site_fract_y
 _atom_site_fract_z
 _atom_site_occupancy
  Cs  Cs0  1  0.000000  0.000000  0.500000  1
  Cs  Cs1  1  0.000000  0.000000  0.000000  1
  Cs  Cs2  1  0.236358  0.586646  0.500000  1
  Cs  Cs3  1  0.763642  0.413354  0.500000  1
  Cs  Cs4  1  0.415693  0.231652  0.000000  1
  Cs  Cs5  1  0.584307  0.768348  0.000000  1
  Ce  Ce6  1  0.000000  0.500000  0.000000  1
  In  In7  1  0.500000  0.000000  0.500000  1
  Br  Br8  1  0.686302  0.057612  0.733898  1
  Br  Br9  1  0.313698  0.942388  0.733898  1
  Br  Br10  1  0.939709  0.698528  0.248286  1
  Br  Br11  1  0.060291  0.301472  0.248286  1
  Br  Br12  1  0.313698  0.942388  0.266102  1
  Br  Br13  1  0.686302  0.057612  0.266102  1
  Br  Br14  1  0.060291  0.301472  0.751714  1
  Br  Br15  1  0.939709  0.698528  0.751714  1
  Br  Br16  1  0.566813  0.737879  0.500000  1
  Br  Br17  1  0.433187  0.262121  0.500000  1
  Br  Br18  1  0.280316  0.571196  0.000000  1
  Br  Br19  1  0.719684  0.428804  0.000000  1
