# generated using pymatgen
data_Al3IrAu
_symmetry_space_group_name_H-M   'P 1'
_cell_length_a   4.28043100
_cell_length_b   4.28043213
_cell_length_c   5.27856100
_cell_angle_alpha   90.00000000
_cell_angle_beta   90.00000000
_cell_angle_gamma   119.99999900
_symmetry_Int_Tables_number   1
_chemical_formula_structural   Al3IrAu
_chemical_formula_sum   'Al3 Ir1 Au1'
_cell_volume   83.75703533
_cell_formula_units_Z   1
loop_
 _symmetry_equiv_pos_site_id
 _symmetry_equiv_pos_as_xyz
  1  'x, y, z'
loop_
 _atom_site_type_symbol
 _atom_site_label
 _atom_site_symmetry_multiplicity
 _atom_site_fract_x
 _atom_site_fract_y
 _atom_site_fract_z
 _atom_site_occupancy
  Al  Al0  1  0.000000  0.000000  0.930493  1
  Al  Al1  1  0.333333  0.666667  0.370908  1
  Al  Al2  1  0.666667  0.333333  0.664467  1
  Ir  Ir3  1  0.333333  0.666667  0.850243  1
  Au  Au4  1  0.666667  0.333333  0.183889  1
