# generated using pymatgen
data_La2Pr4IrI10
_symmetry_space_group_name_H-M   'P 1'
_cell_length_a   8.10812000
_cell_length_b   10.17982585
_cell_length_c   10.05515512
_cell_angle_alpha   106.92223319
_cell_angle_beta   96.20542362
_cell_angle_gamma   105.19834983
_symmetry_Int_Tables_number   1
_chemical_formula_structural   La2Pr4IrI10
_chemical_formula_sum   'La2 Pr4 Ir1 I10'
_cell_volume   750.79823530
_cell_formula_units_Z   1
loop_
 _symmetry_equiv_pos_site_id
 _symmetry_equiv_pos_as_xyz
  1  'x, y, z'
loop_
 _atom_site_type_symbol
 _atom_site_label
 _atom_site_symmetry_multiplicity
 _atom_site_fract_x
 _atom_site_fract_y
 _atom_site_fract_z
 _atom_site_occupancy
  La  La0  1  0.115862  0.042930  0.765164  1
  La  La1  1  0.884138  0.957070  0.234836  1
  Pr  Pr2  1  0.967867  0.291857  0.088418  1
  Pr  Pr3  1  0.032133  0.708143  0.911582  1
  Pr  Pr4  1  0.354285  0.127902  0.169660  1
  Pr  Pr5  1  0.645715  0.872098  0.830340  1
  Ir  Ir6  1  0.000000  0.000000  0.000000  1
  I  I7  1  0.349063  0.449512  0.271004  1
  I  I8  1  0.650937  0.550488  0.728996  1
  I  I9  1  0.257551  0.086028  0.459388  1
  I  I10  1  0.742449  0.913972  0.540612  1
  I  I11  1  0.085331  0.370905  0.819869  1
  I  I12  1  0.914669  0.629095  0.180131  1
  I  I13  1  0.452429  0.817776  0.091387  1
  I  I14  1  0.547571  0.182224  0.908613  1
  I  I15  1  0.778317  0.256172  0.345598  1
  I  I16  1  0.221683  0.743828  0.654402  1
