# generated using pymatgen
data_Tb8ZnGaI12
_symmetry_space_group_name_H-M   'P 1'
_cell_length_a   4.20777100
_cell_length_b   14.18486712
_cell_length_c   14.93545912
_cell_angle_alpha   90.01455843
_cell_angle_beta   90.00000000
_cell_angle_gamma   90.00000000
_symmetry_Int_Tables_number   1
_chemical_formula_structural   Tb8ZnGaI12
_chemical_formula_sum   'Tb8 Zn1 Ga1 I12'
_cell_volume   891.44782814
_cell_formula_units_Z   1
loop_
 _symmetry_equiv_pos_site_id
 _symmetry_equiv_pos_as_xyz
  1  'x, y, z'
loop_
 _atom_site_type_symbol
 _atom_site_label
 _atom_site_symmetry_multiplicity
 _atom_site_fract_x
 _atom_site_fract_y
 _atom_site_fract_z
 _atom_site_occupancy
  Tb  Tb0  1  0.500000  0.114883  0.345773  1
  Tb  Tb1  1  0.500000  0.885117  0.654227  1
  Tb  Tb2  1  0.500000  0.614434  0.153398  1
  Tb  Tb3  1  0.500000  0.385566  0.846602  1
  Tb  Tb4  1  0.000000  0.114602  0.577068  1
  Tb  Tb5  1  0.000000  0.885398  0.422932  1
  Tb  Tb6  1  0.000000  0.614726  0.922888  1
  Tb  Tb7  1  0.000000  0.385274  0.077112  1
  Zn  Zn8  1  0.500000  0.500000  0.000000  1
  Ga  Ga9  1  0.500000  0.000000  0.500000  1
  I  I10  1  0.500000  0.245509  0.163289  1
  I  I11  1  0.500000  0.754491  0.836711  1
  I  I12  1  0.500000  0.745233  0.336640  1
  I  I13  1  0.500000  0.254767  0.663360  1
  I  I14  1  0.000000  0.258910  0.414170  1
  I  I15  1  0.000000  0.741090  0.585830  1
  I  I16  1  0.000000  0.759798  0.086184  1
  I  I17  1  0.000000  0.240202  0.913816  1
  I  I18  1  0.000000  0.998802  0.239597  1
  I  I19  1  0.000000  0.001198  0.760403  1
  I  I20  1  0.000000  0.498854  0.261328  1
  I  I21  1  0.000000  0.501146  0.738672  1
