# generated using pymatgen
data_PrEuB4Ir5
_symmetry_space_group_name_H-M   'P 1'
_cell_length_a   7.59054957
_cell_length_b   6.33853437
_cell_length_c   5.73447542
_cell_angle_alpha   77.73368093
_cell_angle_beta   54.68560696
_cell_angle_gamma   47.58073882
_symmetry_Int_Tables_number   1
_chemical_formula_structural   PrEuB4Ir5
_chemical_formula_sum   'Pr1 Eu1 B4 Ir5'
_cell_volume   158.82370824
_cell_formula_units_Z   1
loop_
 _symmetry_equiv_pos_site_id
 _symmetry_equiv_pos_as_xyz
  1  'x, y, z'
loop_
 _atom_site_type_symbol
 _atom_site_label
 _atom_site_symmetry_multiplicity
 _atom_site_fract_x
 _atom_site_fract_y
 _atom_site_fract_z
 _atom_site_occupancy
  Pr  Pr0  1  0.139987  0.139987  0.860013  1
  Eu  Eu1  1  0.857566  0.857566  0.142433  1
  B  B2  1  0.471346  0.790765  0.209235  1
  B  B3  1  0.209987  0.529684  0.470316  1
  B  B4  1  0.790764  0.471346  0.528654  1
  B  B5  1  0.529684  0.209988  0.790012  1
  Ir  Ir6  1  0.499678  0.499677  0.000323  1
  Ir  Ir7  1  0.250384  0.250383  0.249617  1
  Ir  Ir8  1  0.999677  0.999677  0.500323  1
  Ir  Ir9  1  0.500545  0.500546  0.499454  1
  Ir  Ir10  1  0.750383  0.750383  0.749617  1
