# generated using pymatgen
data_Ti6AlGa5Pt6
_symmetry_space_group_name_H-M   'P 1'
_cell_length_a   7.01145800
_cell_length_b   7.03564156
_cell_length_c   6.77760068
_cell_angle_alpha   89.77945905
_cell_angle_beta   90.00000000
_cell_angle_gamma   119.88636025
_symmetry_Int_Tables_number   1
_chemical_formula_structural   Ti6AlGa5Pt6
_chemical_formula_sum   'Ti6 Al1 Ga5 Pt6'
_cell_volume   289.87485808
_cell_formula_units_Z   1
loop_
 _symmetry_equiv_pos_site_id
 _symmetry_equiv_pos_as_xyz
  1  'x, y, z'
loop_
 _atom_site_type_symbol
 _atom_site_label
 _atom_site_symmetry_multiplicity
 _atom_site_fract_x
 _atom_site_fract_y
 _atom_site_fract_z
 _atom_site_occupancy
  Ti  Ti0  1  0.383254  0.410145  0.749103  1
  Ti  Ti1  1  0.027727  0.616025  0.749632  1
  Ti  Ti2  1  0.591471  0.972992  0.749745  1
  Ti  Ti3  1  0.618479  0.027008  0.250255  1
  Ti  Ti4  1  0.973109  0.589855  0.250897  1
  Ti  Ti5  1  0.411702  0.383975  0.250368  1
  Al  Al6  1  0.266975  0.000000  0.000000  1
  Ga  Ga7  1  0.727303  0.725086  0.000318  1
  Ga  Ga8  1  0.002217  0.274914  0.999682  1
  Ga  Ga9  1  0.723764  0.722886  0.500416  1
  Ga  Ga10  1  0.277632  0.000000  0.500000  1
  Ga  Ga11  1  0.000878  0.277114  0.499584  1
  Pt  Pt12  1  0.659621  0.326932  0.964607  1
  Pt  Pt13  1  0.001329  0.999749  0.746577  1
  Pt  Pt14  1  0.666912  0.333553  0.537590  1
  Pt  Pt15  1  0.333358  0.666447  0.462410  1
  Pt  Pt16  1  0.332688  0.673068  0.035393  1
  Pt  Pt17  1  0.001580  0.000251  0.253423  1
