# generated using pymatgen
data_KNbTeO6
_symmetry_space_group_name_H-M   'P 1'
_cell_length_a   7.37702052
_cell_length_b   7.37702077
_cell_length_c   7.37702049
_cell_angle_alpha   120.63089176
_cell_angle_beta   119.45136274
_cell_angle_gamma   89.93181851
_symmetry_Int_Tables_number   1
_chemical_formula_structural   KNbTeO6
_chemical_formula_sum   'K2 Nb2 Te2 O12'
_cell_volume   283.66123736
_cell_formula_units_Z   2
loop_
 _symmetry_equiv_pos_site_id
 _symmetry_equiv_pos_as_xyz
  1  'x, y, z'
loop_
 _atom_site_type_symbol
 _atom_site_label
 _atom_site_symmetry_multiplicity
 _atom_site_fract_x
 _atom_site_fract_y
 _atom_site_fract_z
 _atom_site_occupancy
  K  K0  1  0.624661  0.874661  0.750000  1
  K  K1  1  0.375339  0.125339  0.250000  1
  Nb  Nb2  1  0.500000  0.500000  0.000000  1
  Nb  Nb3  1  0.000000  0.500000  0.500000  1
  Te  Te4  1  0.000000  0.500000  0.000000  1
  Te  Te5  1  0.000000  0.000000  0.500000  1
  O  O6  1  0.072553  0.822553  0.250000  1
  O  O7  1  0.685862  0.435862  0.250000  1
  O  O8  1  0.065318  0.824479  0.633988  1
  O  O9  1  0.690491  0.431330  0.866012  1
  O  O10  1  0.690491  0.824479  0.259162  1
  O  O11  1  0.065318  0.431330  0.240838  1
  O  O12  1  0.927447  0.177447  0.750000  1
  O  O13  1  0.314138  0.564138  0.750000  1
  O  O14  1  0.934682  0.175521  0.366012  1
  O  O15  1  0.309509  0.568670  0.133988  1
  O  O16  1  0.309509  0.175521  0.740838  1
  O  O17  1  0.934682  0.568670  0.759162  1
