# generated using pymatgen
data_Tb13Er3In4PdRh3
_symmetry_space_group_name_H-M   'P 1'
_cell_length_a   9.69016603
_cell_length_b   9.67477007
_cell_length_c   9.68632067
_cell_angle_alpha   60.30642353
_cell_angle_beta   60.36215812
_cell_angle_gamma   60.27867108
_symmetry_Int_Tables_number   1
_chemical_formula_structural   Tb13Er3In4PdRh3
_chemical_formula_sum   'Tb13 Er3 In4 Pd1 Rh3'
_cell_volume   646.70618556
_cell_formula_units_Z   1
loop_
 _symmetry_equiv_pos_site_id
 _symmetry_equiv_pos_as_xyz
  1  'x, y, z'
loop_
 _atom_site_type_symbol
 _atom_site_label
 _atom_site_symmetry_multiplicity
 _atom_site_fract_x
 _atom_site_fract_y
 _atom_site_fract_z
 _atom_site_occupancy
  Tb  Tb0  1  0.649224  0.047707  0.650686  1
  Tb  Tb1  1  0.059133  0.062707  0.438332  1
  Tb  Tb2  1  0.435832  0.438801  0.060881  1
  Tb  Tb3  1  0.650337  0.654524  0.648706  1
  Tb  Tb4  1  0.810129  0.184884  0.193558  1
  Tb  Tb5  1  0.189215  0.812639  0.809937  1
  Tb  Tb6  1  0.054040  0.650989  0.646073  1
  Tb  Tb7  1  0.437844  0.062729  0.059755  1
  Tb  Tb8  1  0.435716  0.063735  0.435768  1
  Tb  Tb9  1  0.060993  0.439259  0.061470  1
  Tb  Tb10  1  0.646402  0.652104  0.053658  1
  Tb  Tb11  1  0.188838  0.811353  0.188923  1
  Tb  Tb12  1  0.061095  0.438246  0.435372  1
  Er  Er13  1  0.808474  0.812130  0.190206  1
  Er  Er14  1  0.810447  0.185726  0.810900  1
  Er  Er15  1  0.194681  0.185721  0.809135  1
  In  In16  1  0.418017  0.416237  0.417791  1
  In  In17  1  0.419748  0.417519  0.746407  1
  In  In18  1  0.417657  0.748352  0.417783  1
  In  In19  1  0.746395  0.417429  0.419699  1
  Pd  Pd20  1  0.861869  0.426200  0.857659  1
  Rh  Rh21  1  0.857843  0.856312  0.860263  1
  Rh  Rh22  1  0.859585  0.856004  0.427319  1
  Rh  Rh23  1  0.426485  0.858689  0.859721  1
