# generated using pymatgen
data_Tb2Er3Co19(As3P)3
_symmetry_space_group_name_H-M   'P 1'
_cell_length_a   12.33202800
_cell_length_b   12.33202804
_cell_length_c   3.77185800
_cell_angle_alpha   90.00000000
_cell_angle_beta   90.00000000
_cell_angle_gamma   120.00000525
_symmetry_Int_Tables_number   1
_chemical_formula_structural   Tb2Er3Co19(As3P)3
_chemical_formula_sum   'Tb2 Er3 Co19 As9 P3'
_cell_volume   496.76952873
_cell_formula_units_Z   1
loop_
 _symmetry_equiv_pos_site_id
 _symmetry_equiv_pos_as_xyz
  1  'x, y, z'
loop_
 _atom_site_type_symbol
 _atom_site_label
 _atom_site_symmetry_multiplicity
 _atom_site_fract_x
 _atom_site_fract_y
 _atom_site_fract_z
 _atom_site_occupancy
  Tb  Tb0  1  0.333333  0.666667  0.000000  1
  Tb  Tb1  1  0.666667  0.333333  0.000000  1
  Er  Er2  1  0.000000  0.180536  0.500000  1
  Er  Er3  1  0.819464  0.819464  0.500000  1
  Er  Er4  1  0.180536  0.000000  0.500000  1
  Co  Co5  1  0.631540  0.829051  0.000000  1
  Co  Co6  1  0.170949  0.802488  0.000000  1
  Co  Co7  1  0.197512  0.368460  0.000000  1
  Co  Co8  1  0.368460  0.197512  0.000000  1
  Co  Co9  1  0.829051  0.631540  0.000000  1
  Co  Co10  1  0.802488  0.170949  0.000000  1
  Co  Co11  1  0.000000  0.555076  0.000000  1
  Co  Co12  1  0.444924  0.444924  0.000000  1
  Co  Co13  1  0.555076  0.000000  0.000000  1
  Co  Co14  1  0.521298  0.646209  0.500000  1
  Co  Co15  1  0.353791  0.875089  0.500000  1
  Co  Co16  1  0.124911  0.478702  0.500000  1
  Co  Co17  1  0.478702  0.124911  0.500000  1
  Co  Co18  1  0.646209  0.521298  0.500000  1
  Co  Co19  1  0.875089  0.353791  0.500000  1
  Co  Co20  1  0.000000  0.726226  0.500000  1
  Co  Co21  1  0.273774  0.273774  0.500000  1
  Co  Co22  1  0.726226  0.000000  0.500000  1
  Co  Co23  1  0.000000  0.000000  0.000000  1
  As  As24  1  0.000000  0.363072  0.000000  1
  As  As25  1  0.636928  0.636928  0.000000  1
  As  As26  1  0.363072  0.000000  0.000000  1
  As  As27  1  0.521147  0.838570  0.500000  1
  As  As28  1  0.161430  0.682577  0.500000  1
  As  As29  1  0.317423  0.478853  0.500000  1
  As  As30  1  0.478853  0.317423  0.500000  1
  As  As31  1  0.838570  0.521147  0.500000  1
  As  As32  1  0.682577  0.161430  0.500000  1
  P  P33  1  0.000000  0.823168  0.000000  1
  P  P34  1  0.176832  0.176832  0.000000  1
  P  P35  1  0.823168  0.000000  0.000000  1
