# generated using pymatgen
data_Tm4(Ga8Pt3)3
_symmetry_space_group_name_H-M   'P 1'
_cell_length_a   7.48645194
_cell_length_b   7.56801490
_cell_length_c   13.33382615
_cell_angle_alpha   84.78077158
_cell_angle_beta   79.59100539
_cell_angle_gamma   60.27325372
_symmetry_Int_Tables_number   1
_chemical_formula_structural   Tm4(Ga8Pt3)3
_chemical_formula_sum   'Tm4 Ga24 Pt9'
_cell_volume   645.24631014
_cell_formula_units_Z   1
loop_
 _symmetry_equiv_pos_site_id
 _symmetry_equiv_pos_as_xyz
  1  'x, y, z'
loop_
 _atom_site_type_symbol
 _atom_site_label
 _atom_site_symmetry_multiplicity
 _atom_site_fract_x
 _atom_site_fract_y
 _atom_site_fract_z
 _atom_site_occupancy
  Tm  Tm0  1  0.393622  0.169067  0.811077  1
  Tm  Tm1  1  0.606378  0.830933  0.188923  1
  Tm  Tm2  1  0.732910  0.496962  0.811405  1
  Tm  Tm3  1  0.267090  0.503038  0.188595  1
  Ga  Ga4  1  0.684648  0.833756  0.937658  1
  Ga  Ga5  1  0.315352  0.166244  0.062342  1
  Ga  Ga6  1  0.145192  0.833248  0.559226  1
  Ga  Ga7  1  0.854808  0.166752  0.440774  1
  Ga  Ga8  1  0.477761  0.166986  0.556143  1
  Ga  Ga9  1  0.522239  0.833014  0.443857  1
  Ga  Ga10  1  0.221732  0.165696  0.321943  1
  Ga  Ga11  1  0.778268  0.834304  0.678057  1
  Ga  Ga12  1  0.437365  0.503128  0.677249  1
  Ga  Ga13  1  0.562635  0.496872  0.322751  1
  Ga  Ga14  1  0.106229  0.163859  0.676761  1
  Ga  Ga15  1  0.893771  0.836141  0.323239  1
  Ga  Ga16  1  0.358931  0.497194  0.937816  1
  Ga  Ga17  1  0.641069  0.502806  0.062184  1
  Ga  Ga18  1  0.020714  0.170268  0.941972  1
  Ga  Ga19  1  0.979286  0.829732  0.058028  1
  Ga  Ga20  1  0.187441  0.499133  0.443130  1
  Ga  Ga21  1  0.812559  0.500867  0.556870  1
  Ga  Ga22  1  0.733449  0.163756  0.181757  1
  Ga  Ga23  1  0.266551  0.836244  0.818243  1
  Ga  Ga24  1  0.060801  0.630654  0.817459  1
  Ga  Ga25  1  0.939199  0.369346  0.182541  1
  Ga  Ga26  1  0.855636  0.040340  0.817263  1
  Ga  Ga27  1  0.144364  0.959660  0.182737  1
  Pt  Pt28  1  0.117094  0.495150  0.639676  1
  Pt  Pt29  1  0.882906  0.504850  0.360324  1
  Pt  Pt30  1  0.660300  0.169889  0.999012  1
  Pt  Pt31  1  0.339700  0.830111  0.000988  1
  Pt  Pt32  1  0.540749  0.166773  0.359709  1
  Pt  Pt33  1  0.459251  0.833227  0.640291  1
  Pt  Pt34  1  0.778482  0.172576  0.637833  1
  Pt  Pt35  1  0.221518  0.827424  0.362167  1
  Pt  Pt36  1  0.000000  0.500000  0.000000  1
