# generated using pymatgen
data_Yb6Zr2SiPd24
_symmetry_space_group_name_H-M   'P 1'
_cell_length_a   8.27599615
_cell_length_b   8.27599629
_cell_length_c   8.27599600
_cell_angle_alpha   89.95873123
_cell_angle_beta   90.04126877
_cell_angle_gamma   90.04127079
_symmetry_Int_Tables_number   1
_chemical_formula_structural   Yb6Zr2SiPd24
_chemical_formula_sum   'Yb6 Zr2 Si1 Pd24'
_cell_volume   566.84001572
_cell_formula_units_Z   1
loop_
 _symmetry_equiv_pos_site_id
 _symmetry_equiv_pos_as_xyz
  1  'x, y, z'
loop_
 _atom_site_type_symbol
 _atom_site_label
 _atom_site_symmetry_multiplicity
 _atom_site_fract_x
 _atom_site_fract_y
 _atom_site_fract_z
 _atom_site_occupancy
  Yb  Yb0  1  0.251676  0.251989  0.251989  1
  Yb  Yb1  1  0.748324  0.748011  0.748011  1
  Yb  Yb2  1  0.748011  0.748324  0.251989  1
  Yb  Yb3  1  0.748011  0.251989  0.748324  1
  Yb  Yb4  1  0.251989  0.251676  0.748011  1
  Yb  Yb5  1  0.251989  0.748011  0.251676  1
  Zr  Zr6  1  0.255258  0.744742  0.744742  1
  Zr  Zr7  1  0.744742  0.255258  0.255258  1
  Si  Si8  1  0.000000  0.000000  0.000000  1
  Pd  Pd9  1  0.256837  0.502661  0.996089  1
  Pd  Pd10  1  0.743163  0.497339  0.003911  1
  Pd  Pd11  1  0.996089  0.256837  0.497339  1
  Pd  Pd12  1  0.502661  0.256837  0.003911  1
  Pd  Pd13  1  0.003911  0.743163  0.502661  1
  Pd  Pd14  1  0.497339  0.743163  0.996089  1
  Pd  Pd15  1  0.502661  0.003911  0.256837  1
  Pd  Pd16  1  0.256837  0.996089  0.502661  1
  Pd  Pd17  1  0.497339  0.996089  0.743163  1
  Pd  Pd18  1  0.743163  0.003911  0.497339  1
  Pd  Pd19  1  0.996089  0.497339  0.256837  1
  Pd  Pd20  1  0.003911  0.502661  0.743163  1
  Pd  Pd21  1  0.251629  0.502676  0.502676  1
  Pd  Pd22  1  0.748371  0.497324  0.497324  1
  Pd  Pd23  1  0.502676  0.251629  0.497324  1
  Pd  Pd24  1  0.497324  0.748371  0.502676  1
  Pd  Pd25  1  0.502676  0.497324  0.251629  1
  Pd  Pd26  1  0.497324  0.502676  0.748371  1
  Pd  Pd27  1  0.279857  0.997415  0.997415  1
  Pd  Pd28  1  0.720143  0.002585  0.002585  1
  Pd  Pd29  1  0.997415  0.279857  0.002585  1
  Pd  Pd30  1  0.002585  0.720143  0.997415  1
  Pd  Pd31  1  0.997415  0.002585  0.279857  1
  Pd  Pd32  1  0.002585  0.997415  0.720143  1
