# generated using pymatgen
data_Tb8Ta9Ti2Si16Au
_symmetry_space_group_name_H-M   'P 1'
_cell_length_a   7.07844666
_cell_length_b   7.07664648
_cell_length_c   12.96856939
_cell_angle_alpha   90.21869575
_cell_angle_beta   89.77457388
_cell_angle_gamma   89.64429608
_symmetry_Int_Tables_number   1
_chemical_formula_structural   Tb8Ta9Ti2Si16Au
_chemical_formula_sum   'Tb8 Ta9 Ti2 Si16 Au1'
_cell_volume   649.59488873
_cell_formula_units_Z   1
loop_
 _symmetry_equiv_pos_site_id
 _symmetry_equiv_pos_as_xyz
  1  'x, y, z'
loop_
 _atom_site_type_symbol
 _atom_site_label
 _atom_site_symmetry_multiplicity
 _atom_site_fract_x
 _atom_site_fract_y
 _atom_site_fract_z
 _atom_site_occupancy
  Tb  Tb0  1  0.342054  0.001826  0.467274  1
  Tb  Tb1  1  0.496491  0.841806  0.717665  1
  Tb  Tb2  1  0.502344  0.157716  0.215672  1
  Tb  Tb3  1  0.841473  0.495578  0.282665  1
  Tb  Tb4  1  0.158454  0.502030  0.784740  1
  Tb  Tb5  1  0.654392  0.003570  0.968034  1
  Tb  Tb6  1  0.002504  0.340605  0.532263  1
  Tb  Tb7  1  0.001435  0.657584  0.031679  1
  Ta  Ta8  1  0.171820  0.826050  0.249717  1
  Ta  Ta9  1  0.825914  0.173365  0.750448  1
  Ta  Ta10  1  0.670556  0.670490  0.499502  1
  Ta  Ta11  1  0.149439  0.009602  0.876285  1
  Ta  Ta12  1  0.498533  0.651169  0.121227  1
  Ta  Ta13  1  0.504003  0.348777  0.622867  1
  Ta  Ta14  1  0.651935  0.497085  0.878350  1
  Ta  Ta15  1  0.349640  0.505066  0.376892  1
  Ta  Ta16  1  0.848034  0.989753  0.374236  1
  Ti  Ti17  1  0.009972  0.149928  0.123295  1
  Ti  Ti18  1  0.990335  0.848072  0.626174  1
  Si  Si19  1  0.201148  0.132816  0.683125  1
  Si  Si20  1  0.372166  0.721690  0.928494  1
  Si  Si21  1  0.634325  0.292190  0.431434  1
  Si  Si22  1  0.723618  0.370110  0.071809  1
  Si  Si23  1  0.293304  0.635680  0.568868  1
  Si  Si24  1  0.798005  0.867976  0.181841  1
  Si  Si25  1  0.134511  0.200751  0.315704  1
  Si  Si26  1  0.866687  0.798463  0.817791  1
  Si  Si27  1  0.286294  0.939373  0.065397  1
  Si  Si28  1  0.544842  0.791282  0.311880  1
  Si  Si29  1  0.454844  0.209024  0.809778  1
  Si  Si30  1  0.792492  0.546158  0.686741  1
  Si  Si31  1  0.207105  0.455546  0.189705  1
  Si  Si32  1  0.707718  0.044859  0.564489  1
  Si  Si33  1  0.940603  0.288974  0.935849  1
  Si  Si34  1  0.045747  0.705786  0.436912  1
  Au  Au35  1  0.327265  0.329249  0.001198  1
