# generated using pymatgen
data_Ho2Er10In2GaFe2
_symmetry_space_group_name_H-M   'P 1'
_cell_length_a   8.33541206
_cell_length_b   8.33364199
_cell_length_c   8.33127557
_cell_angle_alpha   109.78092461
_cell_angle_beta   109.79027979
_cell_angle_gamma   108.86672433
_symmetry_Int_Tables_number   1
_chemical_formula_structural   Ho2Er10In2GaFe2
_chemical_formula_sum   'Ho2 Er10 In2 Ga1 Fe2'
_cell_volume   445.34187592
_cell_formula_units_Z   1
loop_
 _symmetry_equiv_pos_site_id
 _symmetry_equiv_pos_as_xyz
  1  'x, y, z'
loop_
 _atom_site_type_symbol
 _atom_site_label
 _atom_site_symmetry_multiplicity
 _atom_site_fract_x
 _atom_site_fract_y
 _atom_site_fract_z
 _atom_site_occupancy
  Ho  Ho0  1  0.305663  0.694294  0.000008  1
  Ho  Ho1  1  0.694337  0.305706  0.999992  1
  Er  Er2  1  0.445744  0.202139  0.244270  1
  Er  Er3  1  0.554256  0.797861  0.755730  1
  Er  Er4  1  0.957981  0.201658  0.755869  1
  Er  Er5  1  0.201582  0.957961  0.755761  1
  Er  Er6  1  0.042019  0.798342  0.244131  1
  Er  Er7  1  0.798418  0.042039  0.244239  1
  Er  Er8  1  0.202071  0.445648  0.244142  1
  Er  Er9  1  0.797929  0.554352  0.755858  1
  Er  Er10  1  0.306184  0.306195  0.612359  1
  Er  Er11  1  0.693816  0.693805  0.387641  1
  In  In12  1  0.500000  0.000000  0.500000  1
  In  In13  1  0.000000  0.500000  0.500000  1
  Ga  Ga14  1  0.000000  0.000000  0.000000  1
  Fe  Fe15  1  0.387101  0.387772  0.000495  1
  Fe  Fe16  1  0.612899  0.612228  0.999505  1
