# generated using pymatgen
data_Si12P12Ir3Ru
_symmetry_space_group_name_H-M   'P 1'
_cell_length_a   5.89822505
_cell_length_b   6.12142536
_cell_length_c   13.08009188
_cell_angle_alpha   89.91448060
_cell_angle_beta   90.08154769
_cell_angle_gamma   90.57716724
_symmetry_Int_Tables_number   1
_chemical_formula_structural   Si12P12Ir3Ru
_chemical_formula_sum   'Si12 P12 Ir3 Ru1'
_cell_volume   472.23888206
_cell_formula_units_Z   1
loop_
 _symmetry_equiv_pos_site_id
 _symmetry_equiv_pos_as_xyz
  1  'x, y, z'
loop_
 _atom_site_type_symbol
 _atom_site_label
 _atom_site_symmetry_multiplicity
 _atom_site_fract_x
 _atom_site_fract_y
 _atom_site_fract_z
 _atom_site_occupancy
  Si  Si0  1  0.977029  0.158612  0.315742  1
  Si  Si1  1  0.467215  0.839854  0.681314  1
  Si  Si2  1  0.930577  0.624656  0.216018  1
  Si  Si3  1  0.431294  0.369891  0.786500  1
  Si  Si4  1  0.341450  0.914399  0.950744  1
  Si  Si5  1  0.841740  0.084990  0.048272  1
  Si  Si6  1  0.918458  0.527721  0.673080  1
  Si  Si7  1  0.409254  0.474239  0.327612  1
  Si  Si8  1  0.000082  0.064382  0.569004  1
  Si  Si9  1  0.496693  0.939777  0.429480  1
  Si  Si10  1  0.907937  0.623220  0.927432  1
  Si  Si11  1  0.404999  0.376479  0.073571  1
  P  P12  1  0.579401  0.027464  0.825528  1
  P  P13  1  0.078251  0.968267  0.172998  1
  P  P14  1  0.516759  0.559429  0.930195  1
  P  P15  1  0.015292  0.440202  0.070610  1
  P  P16  1  0.611878  0.114701  0.573430  1
  P  P17  1  0.109347  0.882000  0.425114  1
  P  P18  1  0.543651  0.645980  0.181040  1
  P  P19  1  0.044446  0.355159  0.819199  1
  P  P20  1  0.581520  0.136156  0.289134  1
  P  P21  1  0.079688  0.868366  0.709524  1
  P  P22  1  0.155571  0.406823  0.552737  1
  P  P23  1  0.653583  0.600860  0.448463  1
  Ir  Ir24  1  0.966103  0.986120  0.878623  1
  Ir  Ir25  1  0.466476  0.013620  0.121822  1
  Ir  Ir26  1  0.537702  0.484296  0.620096  1
  Ru  Ru27  1  0.027404  0.512339  0.382716  1
