# generated using pymatgen
data_Y3In3RuRhAu
_symmetry_space_group_name_H-M   'P 1'
_cell_length_a   7.75987100
_cell_length_b   7.75987089
_cell_length_c   3.84358400
_cell_angle_alpha   90.00000000
_cell_angle_beta   90.00000000
_cell_angle_gamma   120.00000473
_symmetry_Int_Tables_number   1
_chemical_formula_structural   Y3In3RuRhAu
_chemical_formula_sum   'Y3 In3 Ru1 Rh1 Au1'
_cell_volume   200.43611894
_cell_formula_units_Z   1
loop_
 _symmetry_equiv_pos_site_id
 _symmetry_equiv_pos_as_xyz
  1  'x, y, z'
loop_
 _atom_site_type_symbol
 _atom_site_label
 _atom_site_symmetry_multiplicity
 _atom_site_fract_x
 _atom_site_fract_y
 _atom_site_fract_z
 _atom_site_occupancy
  Y  Y0  1  0.976466  0.584805  0.500000  1
  Y  Y1  1  0.415195  0.391661  0.500000  1
  Y  Y2  1  0.608339  0.023534  0.500000  1
  In  In3  1  0.994235  0.253927  0.000000  1
  In  In4  1  0.259693  0.005765  0.000000  1
  In  In5  1  0.746073  0.740307  0.000000  1
  Ru  Ru6  1  0.666667  0.333333  0.000000  1
  Rh  Rh7  1  0.000000  0.000000  0.500000  1
  Au  Au8  1  0.333333  0.666667  0.000000  1
