# generated using pymatgen
data_Na4LuUTe6
_symmetry_space_group_name_H-M   'P 1'
_cell_length_a   7.71997511
_cell_length_b   7.71997539
_cell_length_c   7.97542852
_cell_angle_alpha   80.53680368
_cell_angle_beta   80.53679920
_cell_angle_gamma   120.05703603
_symmetry_Int_Tables_number   1
_chemical_formula_structural   Na4LuUTe6
_chemical_formula_sum   'Na4 Lu1 U1 Te6'
_cell_volume   388.48333995
_cell_formula_units_Z   1
loop_
 _symmetry_equiv_pos_site_id
 _symmetry_equiv_pos_as_xyz
  1  'x, y, z'
loop_
 _atom_site_type_symbol
 _atom_site_label
 _atom_site_symmetry_multiplicity
 _atom_site_fract_x
 _atom_site_fract_y
 _atom_site_fract_z
 _atom_site_occupancy
  Na  Na0  1  0.343650  0.656350  0.500000  1
  Na  Na1  1  0.657066  0.342934  0.500000  1
  Na  Na2  1  0.999429  0.000571  0.500000  1
  Na  Na3  1  0.499897  0.500103  0.000000  1
  Lu  Lu4  1  0.167741  0.832259  0.000000  1
  U  U5  1  0.832252  0.167748  0.000000  1
  Te  Te6  1  0.777299  0.779446  0.230120  1
  Te  Te7  1  0.423355  0.065169  0.231391  1
  Te  Te8  1  0.062395  0.418470  0.230417  1
  Te  Te9  1  0.581530  0.937605  0.769583  1
  Te  Te10  1  0.934831  0.576645  0.768609  1
  Te  Te11  1  0.220554  0.222701  0.769880  1
