# generated using pymatgen
data_PrYTh2(Zn5Sn)2
_symmetry_space_group_name_H-M   'P 1'
_cell_length_a   8.53595704
_cell_length_b   8.53595718
_cell_length_c   9.06820660
_cell_angle_alpha   90.89783656
_cell_angle_beta   89.10216302
_cell_angle_gamma   149.61832301
_symmetry_Int_Tables_number   1
_chemical_formula_structural   PrYTh2(Zn5Sn)2
_chemical_formula_sum   'Pr1 Y1 Th2 Zn10 Sn2'
_cell_volume   334.12677727
_cell_formula_units_Z   1
loop_
 _symmetry_equiv_pos_site_id
 _symmetry_equiv_pos_as_xyz
  1  'x, y, z'
loop_
 _atom_site_type_symbol
 _atom_site_label
 _atom_site_symmetry_multiplicity
 _atom_site_fract_x
 _atom_site_fract_y
 _atom_site_fract_z
 _atom_site_occupancy
  Pr  Pr0  1  0.000000  0.000000  0.000000  1
  Y  Y1  1  0.000000  0.000000  0.500000  1
  Th  Th2  1  0.204227  0.795773  0.250569  1
  Th  Th3  1  0.795773  0.204227  0.749431  1
  Zn  Zn4  1  0.816424  0.183576  0.391279  1
  Zn  Zn5  1  0.183576  0.816424  0.608721  1
  Zn  Zn6  1  0.814047  0.185953  0.107972  1
  Zn  Zn7  1  0.185953  0.814047  0.892028  1
  Zn  Zn8  1  0.656474  0.343526  0.483990  1
  Zn  Zn9  1  0.343526  0.656474  0.516010  1
  Zn  Zn10  1  0.657322  0.342678  0.018079  1
  Zn  Zn11  1  0.342678  0.657322  0.981921  1
  Zn  Zn12  1  0.394409  0.605591  0.248360  1
  Zn  Zn13  1  0.605591  0.394409  0.751640  1
  Sn  Sn14  1  0.553979  0.446021  0.254780  1
  Sn  Sn15  1  0.446021  0.553979  0.745220  1
