# generated using pymatgen
data_Mg2SiPRu2
_symmetry_space_group_name_H-M   'P 1'
_cell_length_a   3.95367900
_cell_length_b   6.60250000
_cell_length_c   7.00855200
_cell_angle_alpha   90.00000000
_cell_angle_beta   90.00000000
_cell_angle_gamma   90.00000000
_symmetry_Int_Tables_number   1
_chemical_formula_structural   Mg2SiPRu2
_chemical_formula_sum   'Mg4 Si2 P2 Ru4'
_cell_volume   182.95240201
_cell_formula_units_Z   2
loop_
 _symmetry_equiv_pos_site_id
 _symmetry_equiv_pos_as_xyz
  1  'x, y, z'
loop_
 _atom_site_type_symbol
 _atom_site_label
 _atom_site_symmetry_multiplicity
 _atom_site_fract_x
 _atom_site_fract_y
 _atom_site_fract_z
 _atom_site_occupancy
  Mg  Mg0  1  0.250000  0.014866  0.333411  1
  Mg  Mg1  1  0.250000  0.514866  0.166589  1
  Mg  Mg2  1  0.750000  0.985575  0.666395  1
  Mg  Mg3  1  0.750000  0.485575  0.833605  1
  Si  Si4  1  0.750000  0.706366  0.370137  1
  Si  Si5  1  0.750000  0.206366  0.129863  1
  P  P6  1  0.250000  0.297281  0.630051  1
  P  P7  1  0.250000  0.797281  0.869949  1
  Ru  Ru8  1  0.250000  0.150726  0.942111  1
  Ru  Ru9  1  0.250000  0.650726  0.557889  1
  Ru  Ru10  1  0.750000  0.845186  0.045113  1
  Ru  Ru11  1  0.750000  0.345186  0.454887  1
