# generated using pymatgen
data_TaCd2Fe3O8
_symmetry_space_group_name_H-M   'P 1'
_cell_length_a   6.35405741
_cell_length_b   6.35209779
_cell_length_c   11.08206248
_cell_angle_alpha   72.51855134
_cell_angle_beta   90.79753595
_cell_angle_gamma   119.92881852
_symmetry_Int_Tables_number   1
_chemical_formula_structural   TaCd2Fe3O8
_chemical_formula_sum   'Ta2 Cd4 Fe6 O16'
_cell_volume   364.70306498
_cell_formula_units_Z   2
loop_
 _symmetry_equiv_pos_site_id
 _symmetry_equiv_pos_as_xyz
  1  'x, y, z'
loop_
 _atom_site_type_symbol
 _atom_site_label
 _atom_site_symmetry_multiplicity
 _atom_site_fract_x
 _atom_site_fract_y
 _atom_site_fract_z
 _atom_site_occupancy
  Ta  Ta0  1  0.747210  0.496715  0.749957  1
  Ta  Ta1  1  0.252809  0.503219  0.250071  1
  Cd  Cd2  1  0.938458  0.873394  0.200348  1
  Cd  Cd3  1  0.426807  0.861018  0.700297  1
  Cd  Cd4  1  0.573221  0.138951  0.299676  1
  Cd  Cd5  1  0.061547  0.126619  0.799633  1
  Fe  Fe6  1  0.499966  0.500096  0.999970  1
  Fe  Fe7  1  0.499956  0.000025  0.000012  1
  Fe  Fe8  1  0.500025  0.499989  0.500001  1
  Fe  Fe9  1  0.000012  0.500012  0.499989  1
  Fe  Fe10  1  0.000012  0.999977  0.500006  1
  Fe  Fe11  1  0.999971  0.500007  0.000011  1
  O  O12  1  0.860363  0.732740  0.410194  1
  O  O13  1  0.357165  0.729175  0.910202  1
  O  O14  1  0.642756  0.270906  0.089782  1
  O  O15  1  0.139719  0.267255  0.589798  1
  O  O16  1  0.080164  0.744740  0.625158  1
  O  O17  1  0.573562  0.709006  0.139249  1
  O  O18  1  0.652801  0.286994  0.638798  1
  O  O19  1  0.130138  0.295014  0.125081  1
  O  O20  1  0.667388  0.748646  0.629509  1
  O  O21  1  0.121539  0.703505  0.129444  1
  O  O22  1  0.878421  0.296440  0.870595  1
  O  O23  1  0.332654  0.251329  0.370490  1
  O  O24  1  0.869845  0.705004  0.874915  1
  O  O25  1  0.347236  0.712972  0.361215  1
  O  O26  1  0.426422  0.291062  0.860741  1
  O  O27  1  0.919831  0.255188  0.374859  1
