# generated using pymatgen
data_Y8Ir5Os11
_symmetry_space_group_name_H-M   'P 1'
_cell_length_a   5.40525199
_cell_length_b   5.43042885
_cell_length_c   17.24025936
_cell_angle_alpha   90.00000143
_cell_angle_beta   90.79691674
_cell_angle_gamma   120.15420421
_symmetry_Int_Tables_number   1
_chemical_formula_structural   Y8Ir5Os11
_chemical_formula_sum   'Y8 Ir5 Os11'
_cell_volume   437.51341728
_cell_formula_units_Z   1
loop_
 _symmetry_equiv_pos_site_id
 _symmetry_equiv_pos_as_xyz
  1  'x, y, z'
loop_
 _atom_site_type_symbol
 _atom_site_label
 _atom_site_symmetry_multiplicity
 _atom_site_fract_x
 _atom_site_fract_y
 _atom_site_fract_z
 _atom_site_occupancy
  Y  Y0  1  0.990361  0.995180  0.090755  1
  Y  Y1  1  0.658561  0.329280  0.154871  1
  Y  Y2  1  0.664518  0.332258  0.345995  1
  Y  Y3  1  0.998502  0.999251  0.409378  1
  Y  Y4  1  0.001498  0.000749  0.590622  1
  Y  Y5  1  0.335482  0.667741  0.654006  1
  Y  Y6  1  0.341439  0.670719  0.845129  1
  Y  Y7  1  0.009639  0.004820  0.909245  1
  Ir  Ir8  1  0.500001  0.000000  0.000000  1
  Ir  Ir9  1  0.500001  0.500000  0.000000  1
  Ir  Ir10  1  0.500001  0.000000  0.500000  1
  Ir  Ir11  1  0.000000  0.500000  0.500000  1
  Ir  Ir12  1  0.500001  0.500000  0.500000  1
  Os  Os13  1  0.000000  0.500000  0.000000  1
  Os  Os14  1  0.313811  0.656905  0.126781  1
  Os  Os15  1  0.157526  0.318841  0.250529  1
  Os  Os16  1  0.157526  0.838686  0.250529  1
  Os  Os17  1  0.677521  0.838761  0.249484  1
  Os  Os18  1  0.329901  0.664950  0.372429  1
  Os  Os19  1  0.670099  0.335049  0.627571  1
  Os  Os20  1  0.322478  0.161238  0.750516  1
  Os  Os21  1  0.842474  0.161313  0.749471  1
  Os  Os22  1  0.842475  0.681160  0.749471  1
  Os  Os23  1  0.686189  0.343094  0.873219  1
