# generated using pymatgen
data_EuCrH5
_symmetry_space_group_name_H-M   'P 1'
_cell_length_a   4.48881500
_cell_length_b   4.78946900
_cell_length_c   11.98424000
_cell_angle_alpha   90.00000000
_cell_angle_beta   90.00000000
_cell_angle_gamma   90.00000000
_symmetry_Int_Tables_number   1
_chemical_formula_structural   EuCrH5
_chemical_formula_sum   'Eu4 Cr4 H20'
_cell_volume   257.64965860
_cell_formula_units_Z   4
loop_
 _symmetry_equiv_pos_site_id
 _symmetry_equiv_pos_as_xyz
  1  'x, y, z'
loop_
 _atom_site_type_symbol
 _atom_site_label
 _atom_site_symmetry_multiplicity
 _atom_site_fract_x
 _atom_site_fract_y
 _atom_site_fract_z
 _atom_site_occupancy
  Eu  Eu0  1  0.271793  0.250519  0.651350  1
  Eu  Eu1  1  0.771793  0.249481  0.348650  1
  Eu  Eu2  1  0.228207  0.749481  0.151350  1
  Eu  Eu3  1  0.728207  0.750519  0.848650  1
  Cr  Cr4  1  0.274697  0.250735  0.924784  1
  Cr  Cr5  1  0.774697  0.249265  0.075216  1
  Cr  Cr6  1  0.225303  0.749265  0.424784  1
  Cr  Cr7  1  0.725303  0.750735  0.575216  1
  H  H8  1  0.493925  0.526048  0.494621  1
  H  H9  1  0.993925  0.973952  0.505379  1
  H  H10  1  0.006075  0.473952  0.994621  1
  H  H11  1  0.506075  0.026048  0.005379  1
  H  H12  1  0.194375  0.998974  0.827693  1
  H  H13  1  0.694375  0.501026  0.172307  1
  H  H14  1  0.305625  0.001026  0.327693  1
  H  H15  1  0.805625  0.498974  0.672307  1
  H  H16  1  0.194746  0.502599  0.827894  1
  H  H17  1  0.694746  0.997401  0.172106  1
  H  H18  1  0.305254  0.497401  0.327894  1
  H  H19  1  0.805254  0.002599  0.672106  1
  H  H20  1  0.567023  0.250607  0.835531  1
  H  H21  1  0.067023  0.249393  0.164469  1
  H  H22  1  0.932977  0.749393  0.335531  1
  H  H23  1  0.432977  0.750607  0.664469  1
  H  H24  1  0.006472  0.025978  0.994476  1
  H  H25  1  0.506472  0.474022  0.005524  1
  H  H26  1  0.493528  0.974022  0.494476  1
  H  H27  1  0.993528  0.525978  0.505524  1
