# generated using pymatgen
data_Nd3Tc(P3Rh4)2
_symmetry_space_group_name_H-M   'P 1'
_cell_length_a   3.98290900
_cell_length_b   11.24090400
_cell_length_c   12.93662800
_cell_angle_alpha   90.00000000
_cell_angle_beta   90.00000000
_cell_angle_gamma   90.00000000
_symmetry_Int_Tables_number   1
_chemical_formula_structural   Nd3Tc(P3Rh4)2
_chemical_formula_sum   'Nd6 Tc2 P12 Rh16'
_cell_volume   579.19221087
_cell_formula_units_Z   2
loop_
 _symmetry_equiv_pos_site_id
 _symmetry_equiv_pos_as_xyz
  1  'x, y, z'
loop_
 _atom_site_type_symbol
 _atom_site_label
 _atom_site_symmetry_multiplicity
 _atom_site_fract_x
 _atom_site_fract_y
 _atom_site_fract_z
 _atom_site_occupancy
  Nd  Nd0  1  0.000000  0.500000  0.519641  1
  Nd  Nd1  1  0.500000  0.000000  0.480359  1
  Nd  Nd2  1  0.500000  0.815963  0.204980  1
  Nd  Nd3  1  0.500000  0.184037  0.204980  1
  Nd  Nd4  1  0.000000  0.684037  0.795020  1
  Nd  Nd5  1  0.000000  0.315963  0.795020  1
  Tc  Tc6  1  0.500000  0.500000  0.159185  1
  Tc  Tc7  1  0.000000  0.000000  0.840815  1
  P  P8  1  0.500000  0.500000  0.881050  1
  P  P9  1  0.000000  0.000000  0.118950  1
  P  P10  1  0.500000  0.500000  0.342660  1
  P  P11  1  0.000000  0.000000  0.657340  1
  P  P12  1  0.500000  0.313217  0.617360  1
  P  P13  1  0.500000  0.686783  0.617360  1
  P  P14  1  0.000000  0.186783  0.382640  1
  P  P15  1  0.000000  0.813217  0.382640  1
  P  P16  1  0.500000  0.849075  0.890567  1
  P  P17  1  0.500000  0.150925  0.890567  1
  P  P18  1  0.000000  0.650925  0.109433  1
  P  P19  1  0.000000  0.349075  0.109433  1
  Rh  Rh20  1  0.500000  0.500000  0.702955  1
  Rh  Rh21  1  0.000000  0.000000  0.297045  1
  Rh  Rh22  1  0.000000  0.500000  0.989494  1
  Rh  Rh23  1  0.500000  0.000000  0.010506  1
  Rh  Rh24  1  0.500000  0.331846  0.987906  1
  Rh  Rh25  1  0.500000  0.668154  0.987906  1
  Rh  Rh26  1  0.000000  0.168154  0.012094  1
  Rh  Rh27  1  0.000000  0.831846  0.012094  1
  Rh  Rh28  1  0.500000  0.294376  0.431096  1
  Rh  Rh29  1  0.500000  0.705624  0.431096  1
  Rh  Rh30  1  0.000000  0.205624  0.568904  1
  Rh  Rh31  1  0.000000  0.794376  0.568904  1
  Rh  Rh32  1  0.500000  0.877146  0.710610  1
  Rh  Rh33  1  0.500000  0.122854  0.710610  1
  Rh  Rh34  1  0.000000  0.622854  0.289390  1
  Rh  Rh35  1  0.000000  0.377146  0.289390  1
