# generated using pymatgen
data_Hf18Cr2FeCoRe6
_symmetry_space_group_name_H-M   'P 1'
_cell_length_a   8.56813000
_cell_length_b   8.56812929
_cell_length_c   8.37150100
_cell_angle_alpha   90.00000000
_cell_angle_beta   90.00000000
_cell_angle_gamma   119.99999502
_symmetry_Int_Tables_number   1
_chemical_formula_structural   Hf18Cr2FeCoRe6
_chemical_formula_sum   'Hf18 Cr2 Fe1 Co1 Re6'
_cell_volume   532.23820449
_cell_formula_units_Z   1
loop_
 _symmetry_equiv_pos_site_id
 _symmetry_equiv_pos_as_xyz
  1  'x, y, z'
loop_
 _atom_site_type_symbol
 _atom_site_label
 _atom_site_symmetry_multiplicity
 _atom_site_fract_x
 _atom_site_fract_y
 _atom_site_fract_z
 _atom_site_occupancy
  Hf  Hf0  1  0.199019  0.800981  0.441663  1
  Hf  Hf1  1  0.199019  0.398039  0.441663  1
  Hf  Hf2  1  0.601961  0.800981  0.441663  1
  Hf  Hf3  1  0.801524  0.198476  0.558261  1
  Hf  Hf4  1  0.801524  0.603047  0.558261  1
  Hf  Hf5  1  0.396953  0.198476  0.558261  1
  Hf  Hf6  1  0.801524  0.198476  0.941739  1
  Hf  Hf7  1  0.801524  0.603047  0.941739  1
  Hf  Hf8  1  0.396953  0.198476  0.941739  1
  Hf  Hf9  1  0.199019  0.800981  0.058337  1
  Hf  Hf10  1  0.199019  0.398039  0.058337  1
  Hf  Hf11  1  0.601961  0.800981  0.058337  1
  Hf  Hf12  1  0.541070  0.458930  0.250000  1
  Hf  Hf13  1  0.541070  0.082141  0.250000  1
  Hf  Hf14  1  0.917859  0.458930  0.250000  1
  Hf  Hf15  1  0.458597  0.541403  0.750000  1
  Hf  Hf16  1  0.458597  0.917193  0.750000  1
  Hf  Hf17  1  0.082807  0.541403  0.750000  1
  Cr  Cr18  1  0.000000  0.000000  0.499567  1
  Cr  Cr19  1  0.000000  0.000000  0.000433  1
  Fe  Fe20  1  0.333333  0.666667  0.250000  1
  Co  Co21  1  0.666667  0.333333  0.750000  1
  Re  Re22  1  0.891091  0.108909  0.250000  1
  Re  Re23  1  0.891091  0.782183  0.250000  1
  Re  Re24  1  0.217817  0.108909  0.250000  1
  Re  Re25  1  0.108915  0.891085  0.750000  1
  Re  Re26  1  0.108915  0.217830  0.750000  1
  Re  Re27  1  0.782170  0.891085  0.750000  1
