# generated using pymatgen
data_Ac2LaHo(ZnSn)4
_symmetry_space_group_name_H-M   'P 1'
_cell_length_a   4.63901400
_cell_length_b   4.63901216
_cell_length_c   17.33166900
_cell_angle_alpha   90.00000000
_cell_angle_beta   90.00000000
_cell_angle_gamma   119.99998461
_symmetry_Int_Tables_number   1
_chemical_formula_structural   Ac2LaHo(ZnSn)4
_chemical_formula_sum   'Ac2 La1 Ho1 Zn4 Sn4'
_cell_volume   323.01469421
_cell_formula_units_Z   1
loop_
 _symmetry_equiv_pos_site_id
 _symmetry_equiv_pos_as_xyz
  1  'x, y, z'
loop_
 _atom_site_type_symbol
 _atom_site_label
 _atom_site_symmetry_multiplicity
 _atom_site_fract_x
 _atom_site_fract_y
 _atom_site_fract_z
 _atom_site_occupancy
  Ac  Ac0  1  0.000000  0.000000  0.504187  1
  Ac  Ac1  1  0.000000  0.000000  0.995813  1
  La  La2  1  0.000000  0.000000  0.250000  1
  Ho  Ho3  1  0.000000  0.000000  0.750000  1
  Zn  Zn4  1  0.666667  0.333333  0.829665  1
  Zn  Zn5  1  0.666667  0.333333  0.670335  1
  Zn  Zn6  1  0.333333  0.666667  0.160262  1
  Zn  Zn7  1  0.333333  0.666667  0.339738  1
  Sn  Sn8  1  0.666667  0.333333  0.120386  1
  Sn  Sn9  1  0.666667  0.333333  0.379614  1
  Sn  Sn10  1  0.333333  0.666667  0.873800  1
  Sn  Sn11  1  0.333333  0.666667  0.626200  1
