# generated using pymatgen
data_La9Yb3(PrSn2)8
_symmetry_space_group_name_H-M   'P 1'
_cell_length_a   8.27706815
_cell_length_b   8.55864484
_cell_length_c   16.29049314
_cell_angle_alpha   90.01376377
_cell_angle_beta   90.00574497
_cell_angle_gamma   89.89366627
_symmetry_Int_Tables_number   1
_chemical_formula_structural   La9Yb3(PrSn2)8
_chemical_formula_sum   'La9 Yb3 Pr8 Sn16'
_cell_volume   1154.02443384
_cell_formula_units_Z   1
loop_
 _symmetry_equiv_pos_site_id
 _symmetry_equiv_pos_as_xyz
  1  'x, y, z'
loop_
 _atom_site_type_symbol
 _atom_site_label
 _atom_site_symmetry_multiplicity
 _atom_site_fract_x
 _atom_site_fract_y
 _atom_site_fract_z
 _atom_site_occupancy
  La  La0  1  0.148720  0.330934  0.622016  1
  La  La1  1  0.493975  0.684598  0.597427  1
  La  La2  1  0.999134  0.818171  0.903761  1
  La  La3  1  0.504207  0.316586  0.097017  1
  La  La4  1  0.001557  0.185309  0.403634  1
  La  La5  1  0.504225  0.316621  0.402932  1
  La  La6  1  0.001601  0.185362  0.096298  1
  La  La7  1  0.493881  0.684525  0.902618  1
  La  La8  1  0.998972  0.818245  0.596268  1
  Yb  Yb9  1  0.319326  0.000576  0.750043  1
  Yb  Yb10  1  0.182447  0.496923  0.249992  1
  Yb  Yb11  1  0.679984  0.001265  0.249998  1
  Pr  Pr12  1  0.648252  0.167625  0.622620  1
  Pr  Pr13  1  0.149037  0.330925  0.878053  1
  Pr  Pr14  1  0.351554  0.830148  0.123908  1
  Pr  Pr15  1  0.852319  0.665961  0.377833  1
  Pr  Pr16  1  0.351639  0.830171  0.376025  1
  Pr  Pr17  1  0.852150  0.666112  0.122183  1
  Pr  Pr18  1  0.648223  0.167811  0.877333  1
  Pr  Pr19  1  0.819295  0.502152  0.749975  1
  Sn  Sn20  1  0.688175  0.962152  0.459625  1
  Sn  Sn21  1  0.193566  0.536227  0.040433  1
  Sn  Sn22  1  0.311427  0.037361  0.961546  1
  Sn  Sn23  1  0.807356  0.464880  0.541409  1
  Sn  Sn24  1  0.312007  0.036822  0.538314  1
  Sn  Sn25  1  0.808082  0.464675  0.958551  1
  Sn  Sn26  1  0.688148  0.962175  0.040391  1
  Sn  Sn27  1  0.193658  0.536599  0.459204  1
  Sn  Sn28  1  0.447779  0.390374  0.750263  1
  Sn  Sn29  1  0.951770  0.106002  0.750109  1
  Sn  Sn30  1  0.550669  0.604525  0.250018  1
  Sn  Sn31  1  0.047654  0.896533  0.249980  1
  Sn  Sn32  1  0.695548  0.860596  0.750048  1
  Sn  Sn33  1  0.195034  0.643094  0.750155  1
  Sn  Sn34  1  0.303652  0.139476  0.250015  1
  Sn  Sn35  1  0.804978  0.358485  0.250008  1
