# generated using pymatgen
data_Tb5Ho15GaBi11
_symmetry_space_group_name_H-M   'P 1'
_cell_length_a   8.22667725
_cell_length_b   9.47960919
_cell_length_c   12.02436118
_cell_angle_alpha   89.99517780
_cell_angle_beta   90.24127050
_cell_angle_gamma   90.01883593
_symmetry_Int_Tables_number   1
_chemical_formula_structural   Tb5Ho15GaBi11
_chemical_formula_sum   'Tb5 Ho15 Ga1 Bi11'
_cell_volume   937.71967863
_cell_formula_units_Z   1
loop_
 _symmetry_equiv_pos_site_id
 _symmetry_equiv_pos_as_xyz
  1  'x, y, z'
loop_
 _atom_site_type_symbol
 _atom_site_label
 _atom_site_symmetry_multiplicity
 _atom_site_fract_x
 _atom_site_fract_y
 _atom_site_fract_z
 _atom_site_occupancy
  Tb  Tb0  1  0.193428  0.563142  0.439959  1
  Tb  Tb1  1  0.313805  0.250013  0.219709  1
  Tb  Tb2  1  0.812381  0.250057  0.280781  1
  Tb  Tb3  1  0.675163  0.750074  0.787445  1
  Tb  Tb4  1  0.190232  0.750253  0.722549  1
  Ho  Ho5  1  0.355185  0.750286  0.206239  1
  Ho  Ho6  1  0.852035  0.750282  0.284382  1
  Ho  Ho7  1  0.648523  0.250222  0.784305  1
  Ho  Ho8  1  0.149225  0.250286  0.716312  1
  Ho  Ho9  1  0.684652  0.570274  0.055461  1
  Ho  Ho10  1  0.193748  0.935523  0.439806  1
  Ho  Ho11  1  0.309072  0.050582  0.941126  1
  Ho  Ho12  1  0.806915  0.436048  0.559161  1
  Ho  Ho13  1  0.309255  0.449429  0.941147  1
  Ho  Ho14  1  0.806022  0.063754  0.559462  1
  Ho  Ho15  1  0.684697  0.929740  0.055433  1
  Ho  Ho16  1  0.475101  0.250104  0.488322  1
  Ho  Ho17  1  0.977692  0.250156  0.010934  1
  Ho  Ho18  1  0.525900  0.750040  0.512147  1
  Ho  Ho19  1  0.036251  0.750077  0.988843  1
  Ga  Ga20  1  0.408116  0.750012  0.960691  1
  Bi  Bi21  1  0.908129  0.750436  0.543652  1
  Bi  Bi22  1  0.592865  0.249995  0.041490  1
  Bi  Bi23  1  0.092198  0.248213  0.458692  1
  Bi  Bi24  1  0.564440  0.994628  0.325975  1
  Bi  Bi25  1  0.063405  0.504557  0.174588  1
  Bi  Bi26  1  0.435893  0.495084  0.674924  1
  Bi  Bi27  1  0.935751  0.003989  0.825525  1
  Bi  Bi28  1  0.435870  0.005186  0.674794  1
  Bi  Bi29  1  0.935564  0.496293  0.825557  1
  Bi  Bi30  1  0.564956  0.505588  0.325815  1
  Bi  Bi31  1  0.063530  0.995677  0.174774  1
