# generated using pymatgen
data_Y7Lu3(InSb)4
_symmetry_space_group_name_H-M   'P 1'
_cell_length_a   8.75288468
_cell_length_b   8.81165006
_cell_length_c   8.06414260
_cell_angle_alpha   90.05901617
_cell_angle_beta   90.05348862
_cell_angle_gamma   125.26093381
_symmetry_Int_Tables_number   1
_chemical_formula_structural   Y7Lu3(InSb)4
_chemical_formula_sum   'Y7 Lu3 In4 Sb4'
_cell_volume   507.85361498
_cell_formula_units_Z   1
loop_
 _symmetry_equiv_pos_site_id
 _symmetry_equiv_pos_as_xyz
  1  'x, y, z'
loop_
 _atom_site_type_symbol
 _atom_site_label
 _atom_site_symmetry_multiplicity
 _atom_site_fract_x
 _atom_site_fract_y
 _atom_site_fract_z
 _atom_site_occupancy
  Y  Y0  1  0.968236  0.695763  0.666384  1
  Y  Y1  1  0.469013  0.194765  0.833782  1
  Y  Y2  1  0.810522  0.534462  0.168010  1
  Y  Y3  1  0.531309  0.806084  0.166119  1
  Y  Y4  1  0.190403  0.466864  0.833078  1
  Y  Y5  1  0.690276  0.965733  0.666528  1
  Y  Y6  1  0.309309  0.033641  0.333340  1
  Lu  Lu7  1  0.031734  0.302128  0.335287  1
  Lu  Lu8  1  0.000188  0.000921  0.000036  1
  Lu  Lu9  1  0.499662  0.499384  0.499061  1
  In  In10  1  0.368765  0.369897  0.130106  1
  In  In11  1  0.628929  0.629434  0.871053  1
  In  In12  1  0.130358  0.131889  0.628827  1
  In  In13  1  0.870302  0.870945  0.370210  1
  Sb  Sb14  1  0.798189  0.202122  0.004378  1
  Sb  Sb15  1  0.203980  0.800341  0.997611  1
  Sb  Sb16  1  0.706526  0.298613  0.500499  1
  Sb  Sb17  1  0.292299  0.697016  0.495690  1
