# generated using pymatgen
data_PrThHgPt2
_symmetry_space_group_name_H-M   'P 1'
_cell_length_a   7.98927900
_cell_length_b   8.00332900
_cell_length_c   3.81602600
_cell_angle_alpha   90.00000000
_cell_angle_beta   90.00000000
_cell_angle_gamma   90.00000000
_symmetry_Int_Tables_number   1
_chemical_formula_structural   PrThHgPt2
_chemical_formula_sum   'Pr2 Th2 Hg2 Pt4'
_cell_volume   243.99986329
_cell_formula_units_Z   2
loop_
 _symmetry_equiv_pos_site_id
 _symmetry_equiv_pos_as_xyz
  1  'x, y, z'
loop_
 _atom_site_type_symbol
 _atom_site_label
 _atom_site_symmetry_multiplicity
 _atom_site_fract_x
 _atom_site_fract_y
 _atom_site_fract_z
 _atom_site_occupancy
  Pr  Pr0  1  0.174502  0.673255  0.500001  1
  Pr  Pr1  1  0.674502  0.826746  0.500001  1
  Th  Th2  1  0.327394  0.170212  0.500001  1
  Th  Th3  1  0.827394  0.329789  0.500001  1
  Hg  Hg4  1  0.996790  0.995633  0.000000  1
  Hg  Hg5  1  0.496790  0.504367  0.000000  1
  Pt  Pt6  1  0.628732  0.139812  0.000000  1
  Pt  Pt7  1  0.128733  0.360188  0.000000  1
  Pt  Pt8  1  0.872582  0.612525  0.000000  1
  Pt  Pt9  1  0.372581  0.887475  0.000000  1
