# generated using pymatgen
data_Cr9P4Ru3
_symmetry_space_group_name_H-M   'P 1'
_cell_length_a   4.53873992
_cell_length_b   6.92820037
_cell_length_c   6.89510053
_cell_angle_alpha   84.29636953
_cell_angle_beta   70.61137677
_cell_angle_gamma   70.91426429
_symmetry_Int_Tables_number   1
_chemical_formula_structural   Cr9P4Ru3
_chemical_formula_sum   'Cr9 P4 Ru3'
_cell_volume   193.26967395
_cell_formula_units_Z   1
loop_
 _symmetry_equiv_pos_site_id
 _symmetry_equiv_pos_as_xyz
  1  'x, y, z'
loop_
 _atom_site_type_symbol
 _atom_site_label
 _atom_site_symmetry_multiplicity
 _atom_site_fract_x
 _atom_site_fract_y
 _atom_site_fract_z
 _atom_site_occupancy
  Cr  Cr0  1  0.663407  0.031179  0.191217  1
  Cr  Cr1  1  0.637423  0.389270  0.329232  1
  Cr  Cr2  1  0.357931  0.611363  0.670313  1
  Cr  Cr3  1  0.038409  0.325854  0.609901  1
  Cr  Cr4  1  0.972646  0.670564  0.389285  1
  Cr  Cr5  1  0.588396  0.394312  0.943866  1
  Cr  Cr6  1  0.925222  0.610429  0.056722  1
  Cr  Cr7  1  0.467023  0.940979  0.608511  1
  Cr  Cr8  1  0.013848  0.054697  0.386427  1
  P  P9  1  0.208089  0.339444  0.249693  1
  P  P10  1  0.798725  0.657082  0.750759  1
  P  P11  1  0.546232  0.248622  0.659387  1
  P  P12  1  0.454220  0.752985  0.339443  1
  Ru  Ru13  1  0.145557  0.196951  0.973959  1
  Ru  Ru14  1  0.310438  0.805968  0.031634  1
  Ru  Ru15  1  0.872434  0.970301  0.809652  1
