# generated using pymatgen
data_Tb18MgCdIr12
_symmetry_space_group_name_H-M   'P 1'
_cell_length_a   10.86061300
_cell_length_b   10.86061300
_cell_length_c   6.33941200
_cell_angle_alpha   90.00000000
_cell_angle_beta   90.00000000
_cell_angle_gamma   90.00000000
_symmetry_Int_Tables_number   1
_chemical_formula_structural   Tb18MgCdIr12
_chemical_formula_sum   'Tb18 Mg1 Cd1 Ir12'
_cell_volume   747.75212311
_cell_formula_units_Z   1
loop_
 _symmetry_equiv_pos_site_id
 _symmetry_equiv_pos_as_xyz
  1  'x, y, z'
loop_
 _atom_site_type_symbol
 _atom_site_label
 _atom_site_symmetry_multiplicity
 _atom_site_fract_x
 _atom_site_fract_y
 _atom_site_fract_z
 _atom_site_occupancy
  Tb  Tb0  1  0.283055  0.084524  0.378789  1
  Tb  Tb1  1  0.292771  0.910298  0.880312  1
  Tb  Tb2  1  0.707229  0.089702  0.880312  1
  Tb  Tb3  1  0.716945  0.915476  0.378789  1
  Tb  Tb4  1  0.589350  0.791441  0.881934  1
  Tb  Tb5  1  0.584773  0.214369  0.377870  1
  Tb  Tb6  1  0.415227  0.785631  0.377870  1
  Tb  Tb7  1  0.410650  0.208559  0.881934  1
  Tb  Tb8  1  0.214369  0.415227  0.622130  1
  Tb  Tb9  1  0.208559  0.589350  0.118066  1
  Tb  Tb10  1  0.791441  0.410650  0.118066  1
  Tb  Tb11  1  0.785631  0.584773  0.622130  1
  Tb  Tb12  1  0.910298  0.707229  0.119688  1
  Tb  Tb13  1  0.915476  0.283055  0.621211  1
  Tb  Tb14  1  0.084524  0.716945  0.621211  1
  Tb  Tb15  1  0.089702  0.292771  0.119688  1
  Tb  Tb16  1  0.000000  0.000000  0.000000  1
  Tb  Tb17  1  0.500000  0.500000  0.000000  1
  Mg  Mg18  1  0.500000  0.500000  0.500000  1
  Cd  Cd19  1  0.000000  0.000000  0.500000  1
  Ir  Ir20  1  0.844153  0.158095  0.242931  1
  Ir  Ir21  1  0.841905  0.844153  0.757069  1
  Ir  Ir22  1  0.158095  0.155847  0.757069  1
  Ir  Ir23  1  0.155847  0.841905  0.242931  1
  Ir  Ir24  1  0.653863  0.346436  0.748282  1
  Ir  Ir25  1  0.653564  0.653863  0.251718  1
  Ir  Ir26  1  0.346436  0.346137  0.251718  1
  Ir  Ir27  1  0.346137  0.653564  0.748282  1
  Ir  Ir28  1  0.500000  0.000000  0.128155  1
  Ir  Ir29  1  0.500000  0.000000  0.617364  1
  Ir  Ir30  1  0.000000  0.500000  0.871845  1
  Ir  Ir31  1  0.000000  0.500000  0.382636  1
