# generated using pymatgen
data_Yb2As7Rh12
_symmetry_space_group_name_H-M   'P 1'
_cell_length_a   9.97231200
_cell_length_b   9.97231241
_cell_length_c   3.92229600
_cell_angle_alpha   90.00000000
_cell_angle_beta   90.00000000
_cell_angle_gamma   119.99999864
_symmetry_Int_Tables_number   1
_chemical_formula_structural   Yb2As7Rh12
_chemical_formula_sum   'Yb2 As7 Rh12'
_cell_volume   337.80240393
_cell_formula_units_Z   1
loop_
 _symmetry_equiv_pos_site_id
 _symmetry_equiv_pos_as_xyz
  1  'x, y, z'
loop_
 _atom_site_type_symbol
 _atom_site_label
 _atom_site_symmetry_multiplicity
 _atom_site_fract_x
 _atom_site_fract_y
 _atom_site_fract_z
 _atom_site_occupancy
  Yb  Yb0  1  0.333333  0.666667  0.251070  1
  Yb  Yb1  1  0.666667  0.333333  0.748930  1
  As  As2  1  0.000000  0.000000  0.500000  1
  As  As3  1  0.405870  0.118005  0.248001  1
  As  As4  1  0.712136  0.594130  0.248001  1
  As  As5  1  0.881995  0.287864  0.248001  1
  As  As6  1  0.594130  0.881995  0.751999  1
  As  As7  1  0.287864  0.405870  0.751999  1
  As  As8  1  0.118005  0.712136  0.751999  1
  Rh  Rh9  1  0.444965  0.382726  0.249239  1
  Rh  Rh10  1  0.937761  0.555035  0.249239  1
  Rh  Rh11  1  0.617274  0.062239  0.249239  1
  Rh  Rh12  1  0.555035  0.617274  0.750761  1
  Rh  Rh13  1  0.062239  0.444965  0.750761  1
  Rh  Rh14  1  0.382726  0.937761  0.750761  1
  Rh  Rh15  1  0.148888  0.885829  0.248714  1
  Rh  Rh16  1  0.736941  0.851112  0.248714  1
  Rh  Rh17  1  0.114171  0.263059  0.248714  1
  Rh  Rh18  1  0.851112  0.114171  0.751286  1
  Rh  Rh19  1  0.263059  0.148888  0.751286  1
  Rh  Rh20  1  0.885829  0.736941  0.751286  1
