# generated using pymatgen
data_Sc20GaSi9Sb2
_symmetry_space_group_name_H-M   'P 1'
_cell_length_a   5.85634900
_cell_length_b   7.98154371
_cell_length_c   13.90838114
_cell_angle_alpha   90.04573945
_cell_angle_beta   90.00000000
_cell_angle_gamma   90.00000000
_symmetry_Int_Tables_number   1
_chemical_formula_structural   Sc20GaSi9Sb2
_chemical_formula_sum   'Sc20 Ga1 Si9 Sb2'
_cell_volume   650.11515727
_cell_formula_units_Z   1
loop_
 _symmetry_equiv_pos_site_id
 _symmetry_equiv_pos_as_xyz
  1  'x, y, z'
loop_
 _atom_site_type_symbol
 _atom_site_label
 _atom_site_symmetry_multiplicity
 _atom_site_fract_x
 _atom_site_fract_y
 _atom_site_fract_z
 _atom_site_occupancy
  Sc  Sc0  1  0.745689  0.007215  0.337979  1
  Sc  Sc1  1  0.745900  0.503602  0.826044  1
  Sc  Sc2  1  0.741786  0.491706  0.171845  1
  Sc  Sc3  1  0.749351  0.001372  0.667237  1
  Sc  Sc4  1  0.258214  0.491706  0.171845  1
  Sc  Sc5  1  0.250649  0.001372  0.667237  1
  Sc  Sc6  1  0.254311  0.007215  0.337979  1
  Sc  Sc7  1  0.254100  0.503602  0.826044  1
  Sc  Sc8  1  0.000000  0.260110  0.501456  1
  Sc  Sc9  1  0.000000  0.767640  0.991825  1
  Sc  Sc10  1  0.000000  0.614673  0.384881  1
  Sc  Sc11  1  0.000000  0.113302  0.872404  1
  Sc  Sc12  1  0.000000  0.125962  0.125273  1
  Sc  Sc13  1  0.000000  0.619446  0.621018  1
  Sc  Sc14  1  0.500000  0.741627  0.500027  1
  Sc  Sc15  1  0.500000  0.238733  0.999482  1
  Sc  Sc16  1  0.500000  0.877785  0.120028  1
  Sc  Sc17  1  0.500000  0.378774  0.620657  1
  Sc  Sc18  1  0.500000  0.378244  0.380211  1
  Sc  Sc19  1  0.500000  0.878141  0.877429  1
  Ga  Ga20  1  0.000000  0.895910  0.501051  1
  Si  Si21  1  0.000000  0.302621  0.697560  1
  Si  Si22  1  0.000000  0.302441  0.303695  1
  Si  Si23  1  0.000000  0.802519  0.800046  1
  Si  Si24  1  0.500000  0.605841  0.999556  1
  Si  Si25  1  0.500000  0.107275  0.501875  1
  Si  Si26  1  0.500000  0.696091  0.304555  1
  Si  Si27  1  0.500000  0.196867  0.803871  1
  Si  Si28  1  0.500000  0.192210  0.196543  1
  Si  Si29  1  0.500000  0.698345  0.695700  1
  Sb  Sb30  1  0.000000  0.396226  0.997706  1
  Sb  Sb31  1  0.000000  0.801354  0.196928  1
