# generated using pymatgen
data_Er5Zn2Sb
_symmetry_space_group_name_H-M   'P 1'
_cell_length_a   8.51054089
_cell_length_b   8.51054001
_cell_length_c   8.51054093
_cell_angle_alpha   123.74055084
_cell_angle_beta   123.74054735
_cell_angle_gamma   83.63475313
_symmetry_Int_Tables_number   1
_chemical_formula_structural   Er5Zn2Sb
_chemical_formula_sum   'Er10 Zn4 Sb2'
_cell_volume   408.46462974
_cell_formula_units_Z   2
loop_
 _symmetry_equiv_pos_site_id
 _symmetry_equiv_pos_as_xyz
  1  'x, y, z'
loop_
 _atom_site_type_symbol
 _atom_site_label
 _atom_site_symmetry_multiplicity
 _atom_site_fract_x
 _atom_site_fract_y
 _atom_site_fract_z
 _atom_site_occupancy
  Er  Er0  1  0.000000  0.000000  0.000000  1
  Er  Er1  1  0.500000  0.500000  0.000000  1
  Er  Er2  1  0.011045  0.511045  0.809977  1
  Er  Er3  1  0.701068  0.201068  0.190023  1
  Er  Er4  1  0.511045  0.701068  0.500000  1
  Er  Er5  1  0.201068  0.011045  0.500000  1
  Er  Er6  1  0.988955  0.488955  0.190023  1
  Er  Er7  1  0.298932  0.798932  0.809977  1
  Er  Er8  1  0.488955  0.298932  0.500000  1
  Er  Er9  1  0.798932  0.988955  0.500000  1
  Zn  Zn10  1  0.635821  0.135821  0.771641  1
  Zn  Zn11  1  0.364179  0.864179  0.228359  1
  Zn  Zn12  1  0.135821  0.364179  0.500000  1
  Zn  Zn13  1  0.864179  0.635821  0.500000  1
  Sb  Sb14  1  0.750000  0.750000  0.000000  1
  Sb  Sb15  1  0.250000  0.250000  0.000000  1
