# generated using pymatgen
data_Pa2Mn16GeC3
_symmetry_space_group_name_H-M   'P 1'
_cell_length_a   6.47517627
_cell_length_b   6.42816867
_cell_length_c   6.42816925
_cell_angle_alpha   83.38714917
_cell_angle_beta   83.08515320
_cell_angle_gamma   83.08514770
_symmetry_Int_Tables_number   1
_chemical_formula_structural   Pa2Mn16GeC3
_chemical_formula_sum   'Pa2 Mn16 Ge1 C3'
_cell_volume   262.30558737
_cell_formula_units_Z   1
loop_
 _symmetry_equiv_pos_site_id
 _symmetry_equiv_pos_as_xyz
  1  'x, y, z'
loop_
 _atom_site_type_symbol
 _atom_site_label
 _atom_site_symmetry_multiplicity
 _atom_site_fract_x
 _atom_site_fract_y
 _atom_site_fract_z
 _atom_site_occupancy
  Pa  Pa0  1  0.653777  0.654390  0.654390  1
  Pa  Pa1  1  0.346223  0.345610  0.345610  1
  Mn  Mn2  1  0.000000  0.000000  0.500000  1
  Mn  Mn3  1  0.000000  0.500000  0.000000  1
  Mn  Mn4  1  0.729725  0.277413  0.001516  1
  Mn  Mn5  1  0.000000  0.725467  0.274533  1
  Mn  Mn6  1  0.270275  0.998484  0.722587  1
  Mn  Mn7  1  0.000000  0.274533  0.725467  1
  Mn  Mn8  1  0.729725  0.001516  0.277413  1
  Mn  Mn9  1  0.270275  0.722587  0.998484  1
  Mn  Mn10  1  0.344272  0.351904  0.849737  1
  Mn  Mn11  1  0.852539  0.350812  0.350812  1
  Mn  Mn12  1  0.344272  0.849737  0.351904  1
  Mn  Mn13  1  0.655728  0.648096  0.150263  1
  Mn  Mn14  1  0.147461  0.649188  0.649188  1
  Mn  Mn15  1  0.655728  0.150263  0.648096  1
  Mn  Mn16  1  0.908998  0.899664  0.899664  1
  Mn  Mn17  1  0.091002  0.100336  0.100336  1
  Ge  Ge18  1  0.500000  0.000000  0.000000  1
  C  C19  1  0.500000  0.500000  0.000000  1
  C  C20  1  0.000000  0.500000  0.500000  1
  C  C21  1  0.500000  0.000000  0.500000  1
