# generated using pymatgen
data_Cs3TbBi2
_symmetry_space_group_name_H-M   'P 1'
_cell_length_a   10.72134608
_cell_length_b   10.72134662
_cell_length_c   10.72134740
_cell_angle_alpha   127.11883736
_cell_angle_beta   70.98706847
_cell_angle_gamma   136.24564703
_symmetry_Int_Tables_number   1
_chemical_formula_structural   Cs3TbBi2
_chemical_formula_sum   'Cs6 Tb2 Bi4'
_cell_volume   665.91061370
_cell_formula_units_Z   2
loop_
 _symmetry_equiv_pos_site_id
 _symmetry_equiv_pos_as_xyz
  1  'x, y, z'
loop_
 _atom_site_type_symbol
 _atom_site_label
 _atom_site_symmetry_multiplicity
 _atom_site_fract_x
 _atom_site_fract_y
 _atom_site_fract_z
 _atom_site_occupancy
  Cs  Cs0  1  0.250000  0.250000  0.000000  1
  Cs  Cs1  1  0.750000  0.750000  0.000000  1
  Cs  Cs2  1  0.315065  0.803019  0.118082  1
  Cs  Cs3  1  0.184935  0.303018  0.487954  1
  Cs  Cs4  1  0.815065  0.696982  0.512047  1
  Cs  Cs5  1  0.684935  0.196981  0.881917  1
  Tb  Tb6  1  0.750000  0.250000  0.500000  1
  Tb  Tb7  1  0.250000  0.749999  0.499999  1
  Bi  Bi8  1  0.905685  0.311979  0.217664  1
  Bi  Bi9  1  0.594315  0.811979  0.406295  1
  Bi  Bi10  1  0.405685  0.188021  0.593705  1
  Bi  Bi11  1  0.094315  0.688021  0.782335  1
