# generated using pymatgen
data_Pr2Lu3In3Pb
_symmetry_space_group_name_H-M   'P 1'
_cell_length_a   8.01238500
_cell_length_b   8.44192800
_cell_length_c   15.98495600
_cell_angle_alpha   90.00000000
_cell_angle_beta   90.00000000
_cell_angle_gamma   90.00000000
_symmetry_Int_Tables_number   1
_chemical_formula_structural   Pr2Lu3In3Pb
_chemical_formula_sum   'Pr8 Lu12 In12 Pb4'
_cell_volume   1081.22206063
_cell_formula_units_Z   4
loop_
 _symmetry_equiv_pos_site_id
 _symmetry_equiv_pos_as_xyz
  1  'x, y, z'
loop_
 _atom_site_type_symbol
 _atom_site_label
 _atom_site_symmetry_multiplicity
 _atom_site_fract_x
 _atom_site_fract_y
 _atom_site_fract_z
 _atom_site_occupancy
  Pr  Pr0  1  0.503770  0.683096  0.595268  1
  Pr  Pr1  1  0.003770  0.816904  0.904732  1
  Pr  Pr2  1  0.496230  0.316904  0.095268  1
  Pr  Pr3  1  0.996230  0.183096  0.404732  1
  Pr  Pr4  1  0.503531  0.318625  0.403954  1
  Pr  Pr5  1  0.003531  0.181375  0.096046  1
  Pr  Pr6  1  0.496469  0.681375  0.903954  1
  Pr  Pr7  1  0.996469  0.818625  0.596046  1
  Lu  Lu8  1  0.663921  0.167213  0.625362  1
  Lu  Lu9  1  0.163921  0.332787  0.874638  1
  Lu  Lu10  1  0.336079  0.832787  0.125362  1
  Lu  Lu11  1  0.836079  0.667213  0.374638  1
  Lu  Lu12  1  0.343675  0.830390  0.373844  1
  Lu  Lu13  1  0.843675  0.669610  0.126156  1
  Lu  Lu14  1  0.656325  0.169610  0.873844  1
  Lu  Lu15  1  0.156325  0.330390  0.626156  1
  Lu  Lu16  1  0.824912  0.500365  0.748918  1
  Lu  Lu17  1  0.324912  0.999635  0.751082  1
  Lu  Lu18  1  0.175088  0.499635  0.248918  1
  Lu  Lu19  1  0.675088  0.000365  0.251082  1
  In  In20  1  0.678417  0.961221  0.459176  1
  In  In21  1  0.178417  0.538779  0.040824  1
  In  In22  1  0.321583  0.038779  0.959176  1
  In  In23  1  0.821583  0.461221  0.540824  1
  In  In24  1  0.461196  0.383875  0.746899  1
  In  In25  1  0.961196  0.116125  0.753101  1
  In  In26  1  0.538804  0.616125  0.246899  1
  In  In27  1  0.038804  0.883875  0.253101  1
  In  In28  1  0.698471  0.866759  0.750730  1
  In  In29  1  0.198471  0.633241  0.749270  1
  In  In30  1  0.301529  0.133241  0.250730  1
  In  In31  1  0.801529  0.366759  0.249270  1
  Pb  Pb32  1  0.322786  0.038080  0.539151  1
  Pb  Pb33  1  0.822786  0.461920  0.960849  1
  Pb  Pb34  1  0.677214  0.961920  0.039151  1
  Pb  Pb35  1  0.177214  0.538080  0.460849  1
