# generated using pymatgen
data_YbTm3Ni14
_symmetry_space_group_name_H-M   'P 1'
_cell_length_a   4.87679370
_cell_length_b   4.87679285
_cell_length_c   12.29119789
_cell_angle_alpha   78.54393165
_cell_angle_beta   78.54393643
_cell_angle_gamma   59.95444071
_symmetry_Int_Tables_number   1
_chemical_formula_structural   YbTm3Ni14
_chemical_formula_sum   'Yb1 Tm3 Ni14'
_cell_volume   246.30127090
_cell_formula_units_Z   1
loop_
 _symmetry_equiv_pos_site_id
 _symmetry_equiv_pos_as_xyz
  1  'x, y, z'
loop_
 _atom_site_type_symbol
 _atom_site_label
 _atom_site_symmetry_multiplicity
 _atom_site_fract_x
 _atom_site_fract_y
 _atom_site_fract_z
 _atom_site_occupancy
  Yb  Yb0  1  0.147073  0.147073  0.558936  1
  Tm  Tm1  1  0.949183  0.949183  0.152586  1
  Tm  Tm2  1  0.051356  0.051356  0.845762  1
  Tm  Tm3  1  0.851196  0.851196  0.446291  1
  Ni  Ni4  1  0.499931  0.499931  0.500298  1
  Ni  Ni5  1  0.722129  0.722129  0.833459  1
  Ni  Ni6  1  0.278154  0.278154  0.165953  1
  Ni  Ni7  1  0.611688  0.611688  0.165159  1
  Ni  Ni8  1  0.388484  0.388484  0.834236  1
  Ni  Ni9  1  0.999957  0.500146  0.999673  1
  Ni  Ni10  1  0.500146  0.999957  0.999673  1
  Ni  Ni11  1  0.500172  0.500172  0.999658  1
  Ni  Ni12  1  0.389314  0.389314  0.330402  1
  Ni  Ni13  1  0.890937  0.389248  0.330351  1
  Ni  Ni14  1  0.389248  0.890937  0.330351  1
  Ni  Ni15  1  0.610909  0.610909  0.669054  1
  Ni  Ni16  1  0.109179  0.610942  0.669080  1
  Ni  Ni17  1  0.610942  0.109179  0.669080  1
