# generated using pymatgen
data_Hf2InCoAg
_symmetry_space_group_name_H-M   'P 1'
_cell_length_a   7.51098367
_cell_length_b   7.51098414
_cell_length_c   3.32928600
_cell_angle_alpha   90.00000000
_cell_angle_beta   90.00000000
_cell_angle_gamma   88.12654932
_symmetry_Int_Tables_number   1
_chemical_formula_structural   Hf2InCoAg
_chemical_formula_sum   'Hf4 In2 Co2 Ag2'
_cell_volume   187.72087172
_cell_formula_units_Z   2
loop_
 _symmetry_equiv_pos_site_id
 _symmetry_equiv_pos_as_xyz
  1  'x, y, z'
loop_
 _atom_site_type_symbol
 _atom_site_label
 _atom_site_symmetry_multiplicity
 _atom_site_fract_x
 _atom_site_fract_y
 _atom_site_fract_z
 _atom_site_occupancy
  Hf  Hf0  1  0.197316  0.302684  0.000000  1
  Hf  Hf1  1  0.802684  0.697316  0.000000  1
  Hf  Hf2  1  0.646850  0.146850  0.000000  1
  Hf  Hf3  1  0.353150  0.853150  0.000000  1
  In  In4  1  0.000000  0.000000  0.500000  1
  In  In5  1  0.500000  0.500000  0.500000  1
  Co  Co6  1  0.374939  0.125061  0.500000  1
  Co  Co7  1  0.625061  0.874939  0.500000  1
  Ag  Ag8  1  0.871834  0.371834  0.500000  1
  Ag  Ag9  1  0.128166  0.628166  0.500000  1
