# generated using pymatgen
data_TbHo9(In3Se)2
_symmetry_space_group_name_H-M   'P 1'
_cell_length_a   9.16578900
_cell_length_b   9.16578919
_cell_length_c   6.74398700
_cell_angle_alpha   90.00000000
_cell_angle_beta   90.00000000
_cell_angle_gamma   120.01379044
_symmetry_Int_Tables_number   1
_chemical_formula_structural   TbHo9(In3Se)2
_chemical_formula_sum   'Tb1 Ho9 In6 Se2'
_cell_volume   490.59905654
_cell_formula_units_Z   1
loop_
 _symmetry_equiv_pos_site_id
 _symmetry_equiv_pos_as_xyz
  1  'x, y, z'
loop_
 _atom_site_type_symbol
 _atom_site_label
 _atom_site_symmetry_multiplicity
 _atom_site_fract_x
 _atom_site_fract_y
 _atom_site_fract_z
 _atom_site_occupancy
  Tb  Tb0  1  0.748008  0.748008  0.250000  1
  Ho  Ho1  1  0.000165  0.749005  0.750000  1
  Ho  Ho2  1  0.749005  0.000165  0.750000  1
  Ho  Ho3  1  0.332820  0.666515  0.500193  1
  Ho  Ho4  1  0.251937  0.251937  0.750000  1
  Ho  Ho5  1  0.999799  0.250866  0.250000  1
  Ho  Ho6  1  0.666515  0.332820  0.500193  1
  Ho  Ho7  1  0.250866  0.999799  0.250000  1
  Ho  Ho8  1  0.332820  0.666515  0.999807  1
  Ho  Ho9  1  0.666515  0.332820  0.999807  1
  In  In10  1  0.400020  0.000021  0.750000  1
  In  In11  1  0.000304  0.599658  0.250000  1
  In  In12  1  0.599658  0.000304  0.250000  1
  In  In13  1  0.000021  0.400020  0.750000  1
  In  In14  1  0.399832  0.399832  0.250000  1
  In  In15  1  0.599706  0.599706  0.750000  1
  Se  Se16  1  0.001004  0.001004  0.500806  1
  Se  Se17  1  0.001004  0.001004  0.999194  1
