# generated using pymatgen
data_Ho6Er2Si12Ir3Pd
_symmetry_space_group_name_H-M   'P 1'
_cell_length_a   8.16201700
_cell_length_b   8.15796988
_cell_length_c   7.85413900
_cell_angle_alpha   90.00070842
_cell_angle_beta   90.00023578
_cell_angle_gamma   120.01625713
_symmetry_Int_Tables_number   1
_chemical_formula_structural   Ho6Er2Si12Ir3Pd
_chemical_formula_sum   'Ho6 Er2 Si12 Ir3 Pd1'
_cell_volume   452.83255198
_cell_formula_units_Z   1
loop_
 _symmetry_equiv_pos_site_id
 _symmetry_equiv_pos_as_xyz
  1  'x, y, z'
loop_
 _atom_site_type_symbol
 _atom_site_label
 _atom_site_symmetry_multiplicity
 _atom_site_fract_x
 _atom_site_fract_y
 _atom_site_fract_z
 _atom_site_occupancy
  Ho  Ho0  1  0.974606  0.487278  0.247049  1
  Ho  Ho1  1  0.019152  0.509649  0.752145  1
  Ho  Ho2  1  0.512675  0.487278  0.247051  1
  Ho  Ho3  1  0.490498  0.509649  0.752146  1
  Ho  Ho4  1  0.000024  0.000045  0.251795  1
  Ho  Ho5  1  0.000003  0.000001  0.750743  1
  Er  Er6  1  0.512612  0.025226  0.246881  1
  Er  Er7  1  0.490579  0.981160  0.752280  1
  Si  Si8  1  0.166706  0.333410  0.004010  1
  Si  Si9  1  0.833693  0.667386  0.996948  1
  Si  Si10  1  0.666656  0.833572  0.003860  1
  Si  Si11  1  0.832584  0.665170  0.501093  1
  Si  Si12  1  0.332619  0.166121  0.997143  1
  Si  Si13  1  0.164739  0.329478  0.500691  1
  Si  Si14  1  0.166913  0.833571  0.003860  1
  Si  Si15  1  0.334820  0.167205  0.500876  1
  Si  Si16  1  0.833502  0.166116  0.997138  1
  Si  Si17  1  0.670405  0.835401  0.500845  1
  Si  Si18  1  0.832385  0.167203  0.500875  1
  Si  Si19  1  0.164994  0.835401  0.500843  1
  Ir  Ir20  1  0.333582  0.667163  0.031500  1
  Ir  Ir21  1  0.666422  0.332843  0.962743  1
  Ir  Ir22  1  0.666419  0.332839  0.540582  1
  Pd  Pd23  1  0.333414  0.666835  0.456901  1
