# generated using pymatgen
data_SrAc6(PO5)4
_symmetry_space_group_name_H-M   'P 1'
_cell_length_a   7.37644239
_cell_length_b   7.86309297
_cell_length_c   9.41810661
_cell_angle_alpha   105.72695724
_cell_angle_beta   95.27311624
_cell_angle_gamma   111.49454135
_symmetry_Int_Tables_number   1
_chemical_formula_structural   SrAc6(PO5)4
_chemical_formula_sum   'Sr1 Ac6 P4 O20'
_cell_volume   477.96550387
_cell_formula_units_Z   1
loop_
 _symmetry_equiv_pos_site_id
 _symmetry_equiv_pos_as_xyz
  1  'x, y, z'
loop_
 _atom_site_type_symbol
 _atom_site_label
 _atom_site_symmetry_multiplicity
 _atom_site_fract_x
 _atom_site_fract_y
 _atom_site_fract_z
 _atom_site_occupancy
  Sr  Sr0  1  0.000000  0.500000  0.000000  1
  Ac  Ac1  1  0.175530  0.208141  0.675800  1
  Ac  Ac2  1  0.567844  0.720743  0.908874  1
  Ac  Ac3  1  0.322980  0.631065  0.480028  1
  Ac  Ac4  1  0.824470  0.791859  0.324200  1
  Ac  Ac5  1  0.432156  0.279257  0.091126  1
  Ac  Ac6  1  0.677020  0.368935  0.519972  1
  P  P7  1  0.065535  0.776674  0.747706  1
  P  P8  1  0.645915  0.092330  0.744053  1
  P  P9  1  0.934465  0.223326  0.252294  1
  P  P10  1  0.354085  0.907670  0.255947  1
  O  O11  1  0.353859  0.850602  0.085739  1
  O  O12  1  0.440464  0.468314  0.639561  1
  O  O13  1  0.843534  0.239101  0.720277  1
  O  O14  1  0.220466  0.686021  0.748232  1
  O  O15  1  0.635443  0.884130  0.685114  1
  O  O16  1  0.881063  0.654607  0.799059  1
  O  O17  1  0.847408  0.006997  0.156250  1
  O  O18  1  0.292664  0.418832  0.920375  1
  O  O19  1  0.118937  0.345393  0.200941  1
  O  O20  1  0.529611  0.894100  0.351191  1
  O  O21  1  0.364557  0.115870  0.314886  1
  O  O22  1  0.707336  0.581168  0.079625  1
  O  O23  1  0.998843  0.754354  0.575813  1
  O  O24  1  0.152592  0.993003  0.843750  1
  O  O25  1  0.156466  0.760899  0.279723  1
  O  O26  1  0.559536  0.531686  0.360439  1
  O  O27  1  0.646141  0.149398  0.914261  1
  O  O28  1  0.779534  0.313979  0.251768  1
  O  O29  1  0.470389  0.105900  0.648809  1
  O  O30  1  0.001157  0.245646  0.424187  1
