# generated using pymatgen
data_Tb2Fe10Mo2P7
_symmetry_space_group_name_H-M   'P 1'
_cell_length_a   9.03918180
_cell_length_b   9.11279290
_cell_length_c   3.68122500
_cell_angle_alpha   90.00000000
_cell_angle_beta   90.00000000
_cell_angle_gamma   119.63024194
_symmetry_Int_Tables_number   1
_chemical_formula_structural   Tb2Fe10Mo2P7
_chemical_formula_sum   'Tb2 Fe10 Mo2 P7'
_cell_volume   263.57835146
_cell_formula_units_Z   1
loop_
 _symmetry_equiv_pos_site_id
 _symmetry_equiv_pos_as_xyz
  1  'x, y, z'
loop_
 _atom_site_type_symbol
 _atom_site_label
 _atom_site_symmetry_multiplicity
 _atom_site_fract_x
 _atom_site_fract_y
 _atom_site_fract_z
 _atom_site_occupancy
  Tb  Tb0  1  0.673854  0.338809  0.000000  1
  Tb  Tb1  1  0.328731  0.661932  0.500000  1
  Fe  Fe2  1  0.054699  0.632199  0.000000  1
  Fe  Fe3  1  0.567259  0.948166  0.000000  1
  Fe  Fe4  1  0.377158  0.427253  0.000000  1
  Fe  Fe5  1  0.279385  0.116408  0.000000  1
  Fe  Fe6  1  0.845770  0.724862  0.000000  1
  Fe  Fe7  1  0.880983  0.155885  0.000000  1
  Fe  Fe8  1  0.433221  0.042720  0.500000  1
  Fe  Fe9  1  0.614161  0.564348  0.500000  1
  Fe  Fe10  1  0.950263  0.389691  0.500000  1
  Fe  Fe11  1  0.092751  0.878549  0.500000  1
  Mo  Mo12  1  0.779950  0.897165  0.500000  1
  Mo  Mo13  1  0.119842  0.219529  0.500000  1
  P  P14  1  0.287852  0.880105  0.000000  1
  P  P15  1  0.585960  0.696959  0.000000  1
  P  P16  1  0.105597  0.413760  0.000000  1
  P  P17  1  0.411878  0.288087  0.500000  1
  P  P18  1  0.889223  0.601634  0.500000  1
  P  P19  1  0.717710  0.125531  0.500000  1
  P  P20  1  0.003750  0.996409  0.000000  1
