# generated using pymatgen
data_Zr6Si3Ge
_symmetry_space_group_name_H-M   'P 1'
_cell_length_a   7.16254387
_cell_length_b   7.16254387
_cell_length_c   3.70540400
_cell_angle_alpha   90.00000000
_cell_angle_beta   90.00000000
_cell_angle_gamma   89.88082549
_symmetry_Int_Tables_number   1
_chemical_formula_structural   Zr6Si3Ge
_chemical_formula_sum   'Zr6 Si3 Ge1'
_cell_volume   190.09435352
_cell_formula_units_Z   1
loop_
 _symmetry_equiv_pos_site_id
 _symmetry_equiv_pos_as_xyz
  1  'x, y, z'
loop_
 _atom_site_type_symbol
 _atom_site_label
 _atom_site_symmetry_multiplicity
 _atom_site_fract_x
 _atom_site_fract_y
 _atom_site_fract_z
 _atom_site_occupancy
  Zr  Zr0  1  0.673674  0.173674  0.500000  1
  Zr  Zr1  1  0.329243  0.829243  0.500000  1
  Zr  Zr2  1  0.173929  0.322239  0.500000  1
  Zr  Zr3  1  0.822239  0.673929  0.500000  1
  Zr  Zr4  1  0.999388  0.002091  0.000000  1
  Zr  Zr5  1  0.502091  0.499388  0.000000  1
  Si  Si6  1  0.874954  0.374954  0.000000  1
  Si  Si7  1  0.622485  0.877712  0.000000  1
  Si  Si8  1  0.377712  0.122485  0.000000  1
  Ge  Ge9  1  0.124286  0.624286  0.000000  1
