# generated using pymatgen
data_Yb4Cu13Pt
_symmetry_space_group_name_H-M   'P 1'
_cell_length_a   5.01778990
_cell_length_b   5.01778964
_cell_length_c   12.93811009
_cell_angle_alpha   78.81863937
_cell_angle_beta   78.81864233
_cell_angle_gamma   59.99999958
_symmetry_Int_Tables_number   1
_chemical_formula_structural   Yb4Cu13Pt
_chemical_formula_sum   'Yb4 Cu13 Pt1'
_cell_volume   274.95193059
_cell_formula_units_Z   1
loop_
 _symmetry_equiv_pos_site_id
 _symmetry_equiv_pos_as_xyz
  1  'x, y, z'
loop_
 _atom_site_type_symbol
 _atom_site_label
 _atom_site_symmetry_multiplicity
 _atom_site_fract_x
 _atom_site_fract_y
 _atom_site_fract_z
 _atom_site_occupancy
  Yb  Yb0  1  0.948849  0.948849  0.153452  1
  Yb  Yb1  1  0.051151  0.051151  0.846548  1
  Yb  Yb2  1  0.851221  0.851221  0.446337  1
  Yb  Yb3  1  0.148779  0.148779  0.553663  1
  Cu  Cu4  1  0.720997  0.720997  0.837008  1
  Cu  Cu5  1  0.279003  0.279003  0.162992  1
  Cu  Cu6  1  0.612937  0.612937  0.161189  1
  Cu  Cu7  1  0.387063  0.387063  0.838811  1
  Cu  Cu8  1  0.000000  0.500000  0.000000  1
  Cu  Cu9  1  0.500000  0.000000  0.000000  1
  Cu  Cu10  1  0.500000  0.500000  0.000000  1
  Cu  Cu11  1  0.390758  0.390758  0.324667  1
  Cu  Cu12  1  0.893816  0.390758  0.324667  1
  Cu  Cu13  1  0.390758  0.893816  0.324667  1
  Cu  Cu14  1  0.609242  0.609242  0.675333  1
  Cu  Cu15  1  0.106184  0.609242  0.675333  1
  Cu  Cu16  1  0.609242  0.106184  0.675333  1
  Pt  Pt17  1  0.500000  0.500000  0.500000  1
