# generated using pymatgen
data_Ta21Ti3P8
_symmetry_space_group_name_H-M   'P 1'
_cell_length_a   10.24384041
_cell_length_b   10.16407500
_cell_length_c   5.03674570
_cell_angle_alpha   90.00000000
_cell_angle_beta   89.93966566
_cell_angle_gamma   90.00000000
_symmetry_Int_Tables_number   1
_chemical_formula_structural   Ta21Ti3P8
_chemical_formula_sum   'Ta21 Ti3 P8'
_cell_volume   524.42145213
_cell_formula_units_Z   1
loop_
 _symmetry_equiv_pos_site_id
 _symmetry_equiv_pos_as_xyz
  1  'x, y, z'
loop_
 _atom_site_type_symbol
 _atom_site_label
 _atom_site_symmetry_multiplicity
 _atom_site_fract_x
 _atom_site_fract_y
 _atom_site_fract_z
 _atom_site_occupancy
  Ta  Ta0  1  0.250000  0.893822  0.000000  1
  Ta  Ta1  1  0.450261  0.049285  0.250497  1
  Ta  Ta2  1  0.156186  0.157499  0.249087  1
  Ta  Ta3  1  0.342690  0.343716  0.246501  1
  Ta  Ta4  1  0.051620  0.451862  0.249128  1
  Ta  Ta5  1  0.552021  0.547553  0.250477  1
  Ta  Ta6  1  0.842321  0.655995  0.247682  1
  Ta  Ta7  1  0.657671  0.843391  0.247428  1
  Ta  Ta8  1  0.948433  0.951067  0.248521  1
  Ta  Ta9  1  0.603449  0.250600  0.501163  1
  Ta  Ta10  1  0.896551  0.250600  0.498835  1
  Ta  Ta11  1  0.103487  0.750334  0.499647  1
  Ta  Ta12  1  0.396513  0.750334  0.500351  1
  Ta  Ta13  1  0.049739  0.049285  0.749504  1
  Ta  Ta14  1  0.343814  0.157499  0.750914  1
  Ta  Ta15  1  0.157310  0.343716  0.753500  1
  Ta  Ta16  1  0.448380  0.451862  0.750873  1
  Ta  Ta17  1  0.947978  0.547553  0.749524  1
  Ta  Ta18  1  0.657679  0.655995  0.752319  1
  Ta  Ta19  1  0.842329  0.843391  0.752573  1
  Ta  Ta20  1  0.551566  0.951067  0.751480  1
  Ti  Ti21  1  0.750000  0.107007  0.000000  1
  Ti  Ti22  1  0.750000  0.392991  0.000000  1
  Ti  Ti23  1  0.250000  0.605670  0.000000  1
  P  P24  1  0.545242  0.250558  0.000139  1
  P  P25  1  0.954757  0.250558  0.999861  1
  P  P26  1  0.043015  0.747564  0.999906  1
  P  P27  1  0.456985  0.747564  0.000094  1
  P  P28  1  0.750000  0.044546  0.499999  1
  P  P29  1  0.750000  0.455499  0.499999  1
  P  P30  1  0.250000  0.543657  0.499999  1
  P  P31  1  0.250000  0.957954  0.499999  1
