# generated using pymatgen
data_Dy4FeRe2Ru5
_symmetry_space_group_name_H-M   'P 1'
_cell_length_a   5.37833348
_cell_length_b   5.13343165
_cell_length_c   8.99674600
_cell_angle_alpha   90.00000000
_cell_angle_beta   90.00000000
_cell_angle_gamma   119.78663028
_symmetry_Int_Tables_number   1
_chemical_formula_structural   Dy4FeRe2Ru5
_chemical_formula_sum   'Dy4 Fe1 Re2 Ru5'
_cell_volume   215.57646654
_cell_formula_units_Z   1
loop_
 _symmetry_equiv_pos_site_id
 _symmetry_equiv_pos_as_xyz
  1  'x, y, z'
loop_
 _atom_site_type_symbol
 _atom_site_label
 _atom_site_symmetry_multiplicity
 _atom_site_fract_x
 _atom_site_fract_y
 _atom_site_fract_z
 _atom_site_occupancy
  Dy  Dy0  1  0.669394  0.336884  0.567953  1
  Dy  Dy1  1  0.327867  0.661786  0.438044  1
  Dy  Dy2  1  0.327867  0.661786  0.061956  1
  Dy  Dy3  1  0.669394  0.336884  0.932047  1
  Fe  Fe4  1  0.163993  0.326517  0.750000  1
  Re  Re5  1  0.841793  0.672154  0.250000  1
  Re  Re6  1  0.836233  0.175034  0.250000  1
  Ru  Ru7  1  0.988486  0.996759  0.503183  1
  Ru  Ru8  1  0.988486  0.996759  0.996817  1
  Ru  Ru9  1  0.175956  0.827221  0.750000  1
  Ru  Ru10  1  0.655567  0.829961  0.750000  1
  Ru  Ru11  1  0.354962  0.178257  0.250000  1
