# generated using pymatgen
data_DyEr2Mg3Pb2Au
_symmetry_space_group_name_H-M   'P 1'
_cell_length_a   7.55551000
_cell_length_b   7.55860054
_cell_length_c   4.49252100
_cell_angle_alpha   90.00000000
_cell_angle_beta   90.00000000
_cell_angle_gamma   119.98647538
_symmetry_Int_Tables_number   1
_chemical_formula_structural   DyEr2Mg3Pb2Au
_chemical_formula_sum   'Dy1 Er2 Mg3 Pb2 Au1'
_cell_volume   222.22099975
_cell_formula_units_Z   1
loop_
 _symmetry_equiv_pos_site_id
 _symmetry_equiv_pos_as_xyz
  1  'x, y, z'
loop_
 _atom_site_type_symbol
 _atom_site_label
 _atom_site_symmetry_multiplicity
 _atom_site_fract_x
 _atom_site_fract_y
 _atom_site_fract_z
 _atom_site_occupancy
  Dy  Dy0  1  0.596498  0.000000  0.000000  1
  Er  Er1  1  0.999904  0.596976  0.000000  1
  Er  Er2  1  0.402928  0.403024  0.000000  1
  Mg  Mg3  1  0.233253  0.000000  0.500000  1
  Mg  Mg4  1  0.000185  0.233437  0.500000  1
  Mg  Mg5  1  0.766748  0.766563  0.500000  1
  Pb  Pb6  1  0.332980  0.666060  0.500000  1
  Pb  Pb7  1  0.666921  0.333940  0.500000  1
  Au  Au8  1  0.000582  0.000000  0.000000  1
