# generated using pymatgen
data_V4ReSi3H
_symmetry_space_group_name_H-M   'P 1'
_cell_length_a   4.81077500
_cell_length_b   7.14442420
_cell_length_c   7.13071800
_cell_angle_alpha   119.93363246
_cell_angle_beta   90.00043521
_cell_angle_gamma   89.99677054
_symmetry_Int_Tables_number   1
_chemical_formula_structural   V4ReSi3H
_chemical_formula_sum   'V8 Re2 Si6 H2'
_cell_volume   212.39105526
_cell_formula_units_Z   2
loop_
 _symmetry_equiv_pos_site_id
 _symmetry_equiv_pos_as_xyz
  1  'x, y, z'
loop_
 _atom_site_type_symbol
 _atom_site_label
 _atom_site_symmetry_multiplicity
 _atom_site_fract_x
 _atom_site_fract_y
 _atom_site_fract_z
 _atom_site_occupancy
  V  V0  1  0.497179  0.332082  0.663765  1
  V  V1  1  0.497183  0.667826  0.331585  1
  V  V2  1  0.002819  0.667824  0.331581  1
  V  V3  1  0.002829  0.332096  0.663757  1
  V  V4  1  0.750005  0.000059  0.241869  1
  V  V5  1  0.249971  0.760611  0.001980  1
  V  V6  1  0.250019  0.239405  0.241461  1
  V  V7  1  0.249971  0.999974  0.757753  1
  Re  Re8  1  0.749993  0.245948  0.000261  1
  Re  Re9  1  0.749999  0.754007  0.754269  1
  Si  Si10  1  0.750076  0.602220  0.999480  1
  Si  Si11  1  0.750071  0.397836  0.397223  1
  Si  Si12  1  0.750103  0.000017  0.599125  1
  Si  Si13  1  0.249930  0.400504  0.998609  1
  Si  Si14  1  0.249943  0.599375  0.597939  1
  Si  Si15  1  0.249918  0.000013  0.399448  1
  H  H16  1  0.484791  0.000103  0.009948  1
  H  H17  1  0.015203  0.000100  0.009948  1
