# generated using pymatgen
data_Yb4Si12(Pd3Pt)5
_symmetry_space_group_name_H-M   'P 1'
_cell_length_a   4.04692600
_cell_length_b   19.64585913
_cell_length_c   7.28972705
_cell_angle_alpha   89.98687915
_cell_angle_beta   90.00000000
_cell_angle_gamma   90.00000000
_symmetry_Int_Tables_number   1
_chemical_formula_structural   Yb4Si12(Pd3Pt)5
_chemical_formula_sum   'Yb4 Si12 Pd15 Pt5'
_cell_volume   579.57219840
_cell_formula_units_Z   1
loop_
 _symmetry_equiv_pos_site_id
 _symmetry_equiv_pos_as_xyz
  1  'x, y, z'
loop_
 _atom_site_type_symbol
 _atom_site_label
 _atom_site_symmetry_multiplicity
 _atom_site_fract_x
 _atom_site_fract_y
 _atom_site_fract_z
 _atom_site_occupancy
  Yb  Yb0  1  0.750000  0.643830  0.121242  1
  Yb  Yb1  1  0.250000  0.356404  0.878910  1
  Yb  Yb2  1  0.250000  0.856746  0.620859  1
  Yb  Yb3  1  0.750000  0.143285  0.379364  1
  Si  Si4  1  0.750000  0.740529  0.631168  1
  Si  Si5  1  0.250000  0.259785  0.369598  1
  Si  Si6  1  0.250000  0.759941  0.130665  1
  Si  Si7  1  0.750000  0.240063  0.869434  1
  Si  Si8  1  0.750000  0.921929  0.351839  1
  Si  Si9  1  0.250000  0.077065  0.649006  1
  Si  Si10  1  0.250000  0.577971  0.850359  1
  Si  Si11  1  0.750000  0.422116  0.149957  1
  Si  Si12  1  0.750000  0.917105  0.900507  1
  Si  Si13  1  0.250000  0.083425  0.094817  1
  Si  Si14  1  0.250000  0.583053  0.404115  1
  Si  Si15  1  0.750000  0.416890  0.595494  1
  Pd  Pd16  1  0.250000  0.007641  0.372376  1
  Pd  Pd17  1  0.250000  0.506481  0.124809  1
  Pd  Pd18  1  0.750000  0.493460  0.875122  1
  Pd  Pd19  1  0.750000  0.512160  0.375873  1
  Pd  Pd20  1  0.250000  0.488011  0.624232  1
  Pd  Pd21  1  0.250000  0.987720  0.877580  1
  Pd  Pd22  1  0.750000  0.011410  0.123839  1
  Pd  Pd23  1  0.750000  0.797938  0.931380  1
  Pd  Pd24  1  0.250000  0.202708  0.068291  1
  Pd  Pd25  1  0.250000  0.702413  0.431599  1
  Pd  Pd26  1  0.750000  0.297352  0.568518  1
  Pd  Pd27  1  0.750000  0.616823  0.641065  1
  Pd  Pd28  1  0.250000  0.383271  0.359699  1
  Pd  Pd29  1  0.250000  0.883596  0.143470  1
  Pd  Pd30  1  0.750000  0.116747  0.861305  1
  Pt  Pt31  1  0.750000  0.799723  0.332142  1
  Pt  Pt32  1  0.250000  0.199672  0.667550  1
  Pt  Pt33  1  0.250000  0.700203  0.832015  1
  Pt  Pt34  1  0.750000  0.299845  0.168176  1
  Pt  Pt35  1  0.750000  0.992687  0.623625  1
