# generated using pymatgen
data_LaSiSnRh3
_symmetry_space_group_name_H-M   'P 1'
_cell_length_a   5.82745007
_cell_length_b   6.97981430
_cell_length_c   6.97981462
_cell_angle_alpha   66.48553932
_cell_angle_beta   65.32421719
_cell_angle_gamma   65.32422073
_symmetry_Int_Tables_number   1
_chemical_formula_structural   LaSiSnRh3
_chemical_formula_sum   'La2 Si2 Sn2 Rh6'
_cell_volume   225.57304615
_cell_formula_units_Z   2
loop_
 _symmetry_equiv_pos_site_id
 _symmetry_equiv_pos_as_xyz
  1  'x, y, z'
loop_
 _atom_site_type_symbol
 _atom_site_label
 _atom_site_symmetry_multiplicity
 _atom_site_fract_x
 _atom_site_fract_y
 _atom_site_fract_z
 _atom_site_occupancy
  La  La0  1  0.481872  0.770391  0.770391  1
  La  La1  1  0.518128  0.229609  0.229609  1
  Si  Si2  1  0.144418  0.103789  0.103789  1
  Si  Si3  1  0.855582  0.896211  0.896211  1
  Sn  Sn4  1  0.185559  0.566254  0.566254  1
  Sn  Sn5  1  0.814441  0.433746  0.433746  1
  Rh  Rh6  1  0.500000  0.205755  0.794245  1
  Rh  Rh7  1  0.000000  0.792132  0.207868  1
  Rh  Rh8  1  0.500000  0.794245  0.205755  1
  Rh  Rh9  1  0.000000  0.207868  0.792132  1
  Rh  Rh10  1  0.000000  0.500000  0.000000  1
  Rh  Rh11  1  0.000000  0.000000  0.500000  1
