# generated using pymatgen
data_Ca4ZnSnPd4
_symmetry_space_group_name_H-M   'P 1'
_cell_length_a   5.80264447
_cell_length_b   5.80264475
_cell_length_c   8.09519744
_cell_angle_alpha   77.99606374
_cell_angle_beta   77.99606177
_cell_angle_gamma   59.16010645
_symmetry_Int_Tables_number   1
_chemical_formula_structural   Ca4ZnSnPd4
_chemical_formula_sum   'Ca4 Zn1 Sn1 Pd4'
_cell_volume   227.23937264
_cell_formula_units_Z   1
loop_
 _symmetry_equiv_pos_site_id
 _symmetry_equiv_pos_as_xyz
  1  'x, y, z'
loop_
 _atom_site_type_symbol
 _atom_site_label
 _atom_site_symmetry_multiplicity
 _atom_site_fract_x
 _atom_site_fract_y
 _atom_site_fract_z
 _atom_site_occupancy
  Ca  Ca0  1  0.788267  0.512260  0.348897  1
  Ca  Ca1  1  0.487740  0.211733  0.151103  1
  Ca  Ca2  1  0.209944  0.490243  0.649519  1
  Ca  Ca3  1  0.509757  0.790056  0.850481  1
  Zn  Zn4  1  0.864023  0.135977  0.750000  1
  Sn  Sn5  1  0.150347  0.849653  0.250000  1
  Pd  Pd6  1  0.998738  0.735882  0.992098  1
  Pd  Pd7  1  0.264118  0.001262  0.507902  1
  Pd  Pd8  1  0.992546  0.265477  0.989626  1
  Pd  Pd9  1  0.734523  0.007454  0.510374  1
