# generated using pymatgen
data_Lu4B12OsRu
_symmetry_space_group_name_H-M   'P 1'
_cell_length_a   3.59336400
_cell_length_b   9.02769164
_cell_length_c   11.39395907
_cell_angle_alpha   89.93092731
_cell_angle_beta   90.00000000
_cell_angle_gamma   90.00000000
_symmetry_Int_Tables_number   1
_chemical_formula_structural   Lu4B12OsRu
_chemical_formula_sum   'Lu8 B24 Os2 Ru2'
_cell_volume   369.61728138
_cell_formula_units_Z   2
loop_
 _symmetry_equiv_pos_site_id
 _symmetry_equiv_pos_as_xyz
  1  'x, y, z'
loop_
 _atom_site_type_symbol
 _atom_site_label
 _atom_site_symmetry_multiplicity
 _atom_site_fract_x
 _atom_site_fract_y
 _atom_site_fract_z
 _atom_site_occupancy
  Lu  Lu0  1  0.000000  0.321226  0.414264  1
  Lu  Lu1  1  0.000000  0.678774  0.585736  1
  Lu  Lu2  1  0.000000  0.821102  0.086106  1
  Lu  Lu3  1  0.000000  0.178898  0.913894  1
  Lu  Lu4  1  0.000000  0.944288  0.372958  1
  Lu  Lu5  1  0.000000  0.055712  0.627042  1
  Lu  Lu6  1  0.000000  0.443596  0.126811  1
  Lu  Lu7  1  0.000000  0.556404  0.873189  1
  B  B8  1  0.500000  0.553489  0.433912  1
  B  B9  1  0.500000  0.446511  0.566088  1
  B  B10  1  0.500000  0.053660  0.066044  1
  B  B11  1  0.500000  0.946340  0.933956  1
  B  B12  1  0.500000  0.749271  0.420566  1
  B  B13  1  0.500000  0.250729  0.579434  1
  B  B14  1  0.500000  0.248863  0.079259  1
  B  B15  1  0.500000  0.751137  0.920741  1
  B  B16  1  0.500000  0.792434  0.265556  1
  B  B17  1  0.500000  0.207566  0.734444  1
  B  B18  1  0.500000  0.292082  0.234288  1
  B  B19  1  0.500000  0.707918  0.765712  1
  B  B20  1  0.500000  0.631277  0.184347  1
  B  B21  1  0.500000  0.368723  0.815653  1
  B  B22  1  0.500000  0.131470  0.315742  1
  B  B23  1  0.500000  0.868530  0.684258  1
  B  B24  1  0.500000  0.981916  0.212971  1
  B  B25  1  0.500000  0.018084  0.787029  1
  B  B26  1  0.500000  0.481514  0.286888  1
  B  B27  1  0.500000  0.518486  0.713112  1
  B  B28  1  0.500000  0.606002  0.029316  1
  B  B29  1  0.500000  0.393998  0.970684  1
  B  B30  1  0.500000  0.105849  0.470710  1
  B  B31  1  0.500000  0.894151  0.529290  1
  Os  Os32  1  0.000000  0.637510  0.321249  1
  Os  Os33  1  0.000000  0.362490  0.678751  1
  Ru  Ru34  1  0.000000  0.137725  0.179062  1
  Ru  Ru35  1  0.000000  0.862275  0.820938  1
