# generated using pymatgen
data_Ta3NbCu4Si4W
_symmetry_space_group_name_H-M   'P 1'
_cell_length_a   7.36887261
_cell_length_b   7.36887228
_cell_length_c   7.36458273
_cell_angle_alpha   93.42208914
_cell_angle_beta   93.50648122
_cell_angle_gamma   151.54812575
_symmetry_Int_Tables_number   1
_chemical_formula_structural   Ta3NbCu4Si4W
_chemical_formula_sum   'Ta3 Nb1 Cu4 Si4 W1'
_cell_volume   184.67059947
_cell_formula_units_Z   1
loop_
 _symmetry_equiv_pos_site_id
 _symmetry_equiv_pos_as_xyz
  1  'x, y, z'
loop_
 _atom_site_type_symbol
 _atom_site_label
 _atom_site_symmetry_multiplicity
 _atom_site_fract_x
 _atom_site_fract_y
 _atom_site_fract_z
 _atom_site_occupancy
  Ta  Ta0  1  0.126177  0.805642  0.931819  1
  Ta  Ta1  1  0.194902  0.126933  0.321835  1
  Ta  Ta2  1  0.805552  0.872790  0.678343  1
  Nb  Nb3  1  0.872642  0.195031  0.067672  1
  Cu  Cu4  1  0.395669  0.917650  0.313319  1
  Cu  Cu5  1  0.604267  0.082821  0.687088  1
  Cu  Cu6  1  0.917048  0.604595  0.521643  1
  Cu  Cu7  1  0.083430  0.395563  0.478993  1
  Si  Si8  1  0.249507  0.560079  0.809586  1
  Si  Si9  1  0.440060  0.248843  0.688904  1
  Si  Si10  1  0.559499  0.750462  0.309960  1
  Si  Si11  1  0.751017  0.440360  0.191377  1
  W  W12  1  0.500229  0.499232  0.999461  1
