# generated using pymatgen
data_Pu3MgO10
_symmetry_space_group_name_H-M   'P 1'
_cell_length_a   5.43871603
_cell_length_b   5.47089176
_cell_length_c   7.38068800
_cell_angle_alpha   69.95173696
_cell_angle_beta   71.40973798
_cell_angle_gamma   72.92775500
_symmetry_Int_Tables_number   1
_chemical_formula_structural   Pu3MgO10
_chemical_formula_sum   'Pu3 Mg1 O10'
_cell_volume   191.30368511
_cell_formula_units_Z   1
loop_
 _symmetry_equiv_pos_site_id
 _symmetry_equiv_pos_as_xyz
  1  'x, y, z'
loop_
 _atom_site_type_symbol
 _atom_site_label
 _atom_site_symmetry_multiplicity
 _atom_site_fract_x
 _atom_site_fract_y
 _atom_site_fract_z
 _atom_site_occupancy
  Pu  Pu0  1  0.954083  0.025292  0.269929  1
  Pu  Pu1  1  0.500000  0.500000  0.000000  1
  Pu  Pu2  1  0.045917  0.974708  0.730071  1
  Mg  Mg3  1  0.500000  0.500000  0.500000  1
  O  O4  1  0.413765  0.581235  0.756215  1
  O  O5  1  0.269719  0.207583  0.624501  1
  O  O6  1  0.730281  0.792417  0.375499  1
  O  O7  1  0.182272  0.260765  0.149387  1
  O  O8  1  0.586235  0.418765  0.243785  1
  O  O9  1  0.817728  0.739235  0.850613  1
  O  O10  1  0.208560  0.818026  0.031324  1
  O  O11  1  0.812578  0.197247  0.529877  1
  O  O12  1  0.791440  0.181974  0.968676  1
  O  O13  1  0.187422  0.802753  0.470123  1
