# generated using pymatgen
data_Dy5As3P9Ru6Rh13
_symmetry_space_group_name_H-M   'P 1'
_cell_length_a   12.74724247
_cell_length_b   12.75770475
_cell_length_c   3.94617500
_cell_angle_alpha   90.00000000
_cell_angle_beta   90.00000000
_cell_angle_gamma   119.97683826
_symmetry_Int_Tables_number   1
_chemical_formula_structural   Dy5As3P9Ru6Rh13
_chemical_formula_sum   'Dy5 As3 P9 Ru6 Rh13'
_cell_volume   555.90052016
_cell_formula_units_Z   1
loop_
 _symmetry_equiv_pos_site_id
 _symmetry_equiv_pos_as_xyz
  1  'x, y, z'
loop_
 _atom_site_type_symbol
 _atom_site_label
 _atom_site_symmetry_multiplicity
 _atom_site_fract_x
 _atom_site_fract_y
 _atom_site_fract_z
 _atom_site_occupancy
  Dy  Dy0  1  0.668737  0.332339  0.000000  1
  Dy  Dy1  1  0.332973  0.667188  0.000000  1
  Dy  Dy2  1  0.818146  0.001195  0.500000  1
  Dy  Dy3  1  0.180995  0.183332  0.500000  1
  Dy  Dy4  1  0.999471  0.817503  0.500000  1
  As  As5  1  0.638436  0.000038  0.000000  1
  As  As6  1  0.363412  0.363699  0.000000  1
  As  As7  1  0.000304  0.635985  0.000000  1
  P  P8  1  0.687779  0.519046  0.500000  1
  P  P9  1  0.832892  0.310313  0.500000  1
  P  P10  1  0.316174  0.834221  0.500000  1
  P  P11  1  0.518576  0.690268  0.500000  1
  P  P12  1  0.180892  0.999781  0.000000  1
  P  P13  1  0.818225  0.817760  0.000000  1
  P  P14  1  0.996562  0.179421  0.000000  1
  P  P15  1  0.478670  0.167006  0.500000  1
  P  P16  1  0.163905  0.479662  0.500000  1
  Ru  Ru17  1  0.509566  0.869531  0.500000  1
  Ru  Ru18  1  0.715529  0.715133  0.500000  1
  Ru  Ru19  1  0.000645  0.284707  0.500000  1
  Ru  Ru20  1  0.004449  0.448664  0.000000  1
  Ru  Ru21  1  0.822591  0.201206  0.000000  1
  Ru  Ru22  1  0.282124  0.999390  0.500000  1
  Rh  Rh23  1  0.622532  0.799179  0.000000  1
  Rh  Rh24  1  0.177184  0.374847  0.000000  1
  Rh  Rh25  1  0.376056  0.177188  0.000000  1
  Rh  Rh26  1  0.200892  0.822428  0.000000  1
  Rh  Rh27  1  0.798499  0.620019  0.000000  1
  Rh  Rh28  1  0.868703  0.505909  0.500000  1
  Rh  Rh29  1  0.494406  0.358547  0.500000  1
  Rh  Rh30  1  0.638215  0.133513  0.500000  1
  Rh  Rh31  1  0.133481  0.641639  0.500000  1
  Rh  Rh32  1  0.357203  0.496086  0.500000  1
  Rh  Rh33  1  0.999409  0.998761  0.000000  1
  Rh  Rh34  1  0.450522  0.002302  0.000000  1
  Rh  Rh35  1  0.551844  0.552193  0.000000  1
