# generated using pymatgen
data_Sr2Cd9SnAu6
_symmetry_space_group_name_H-M   'P 1'
_cell_length_a   4.54187200
_cell_length_b   13.04855265
_cell_length_c   14.32814800
_cell_angle_alpha   90.64572058
_cell_angle_beta   90.00000000
_cell_angle_gamma   90.00000000
_symmetry_Int_Tables_number   1
_chemical_formula_structural   Sr2Cd9SnAu6
_chemical_formula_sum   'Sr4 Cd18 Sn2 Au12'
_cell_volume   849.10170135
_cell_formula_units_Z   2
loop_
 _symmetry_equiv_pos_site_id
 _symmetry_equiv_pos_as_xyz
  1  'x, y, z'
loop_
 _atom_site_type_symbol
 _atom_site_label
 _atom_site_symmetry_multiplicity
 _atom_site_fract_x
 _atom_site_fract_y
 _atom_site_fract_z
 _atom_site_occupancy
  Sr  Sr0  1  0.250000  0.899849  0.296223  1
  Sr  Sr1  1  0.750000  0.100151  0.703777  1
  Sr  Sr2  1  0.750000  0.397237  0.204304  1
  Sr  Sr3  1  0.250000  0.602763  0.795696  1
  Cd  Cd4  1  0.250000  0.414056  0.005791  1
  Cd  Cd5  1  0.750000  0.585944  0.994209  1
  Cd  Cd6  1  0.750000  0.911103  0.500124  1
  Cd  Cd7  1  0.250000  0.088897  0.499876  1
  Cd  Cd8  1  0.250000  0.603664  0.325472  1
  Cd  Cd9  1  0.750000  0.396336  0.674528  1
  Cd  Cd10  1  0.750000  0.107027  0.178308  1
  Cd  Cd11  1  0.250000  0.892973  0.821692  1
  Cd  Cd12  1  0.250000  0.011275  0.069083  1
  Cd  Cd13  1  0.750000  0.988725  0.930917  1
  Cd  Cd14  1  0.750000  0.512031  0.430927  1
  Cd  Cd15  1  0.250000  0.487969  0.569073  1
  Cd  Cd16  1  0.250000  0.779604  0.019243  1
  Cd  Cd17  1  0.750000  0.220396  0.980757  1
  Cd  Cd18  1  0.750000  0.275568  0.477368  1
  Cd  Cd19  1  0.250000  0.724432  0.522632  1
  Cd  Cd20  1  0.250000  0.188268  0.304928  1
  Cd  Cd21  1  0.750000  0.811732  0.695072  1
  Sn  Sn22  1  0.750000  0.694291  0.195533  1
  Sn  Sn23  1  0.250000  0.305709  0.804467  1
  Au  Au24  1  0.250000  0.587998  0.125690  1
  Au  Au25  1  0.750000  0.412002  0.874310  1
  Au  Au26  1  0.750000  0.080488  0.376268  1
  Au  Au27  1  0.250000  0.919512  0.623732  1
  Au  Au28  1  0.250000  0.228416  0.109302  1
  Au  Au29  1  0.750000  0.771584  0.890698  1
  Au  Au30  1  0.750000  0.730461  0.390130  1
  Au  Au31  1  0.250000  0.269539  0.609870  1
  Au  Au32  1  0.250000  0.386090  0.383899  1
  Au  Au33  1  0.750000  0.613910  0.616101  1
  Au  Au34  1  0.750000  0.885354  0.115038  1
  Au  Au35  1  0.250000  0.114646  0.884962  1
