# generated using pymatgen
data_Ac3ZnIn3Au2
_symmetry_space_group_name_H-M   'P 1'
_cell_length_a   8.22269700
_cell_length_b   8.22269583
_cell_length_c   4.19228800
_cell_angle_alpha   90.00000000
_cell_angle_beta   90.00000000
_cell_angle_gamma   119.99999265
_symmetry_Int_Tables_number   1
_chemical_formula_structural   Ac3ZnIn3Au2
_chemical_formula_sum   'Ac3 Zn1 In3 Au2'
_cell_volume   245.47670552
_cell_formula_units_Z   1
loop_
 _symmetry_equiv_pos_site_id
 _symmetry_equiv_pos_as_xyz
  1  'x, y, z'
loop_
 _atom_site_type_symbol
 _atom_site_label
 _atom_site_symmetry_multiplicity
 _atom_site_fract_x
 _atom_site_fract_y
 _atom_site_fract_z
 _atom_site_occupancy
  Ac  Ac0  1  0.000000  0.589956  0.500000  1
  Ac  Ac1  1  0.589956  0.000000  0.500000  1
  Ac  Ac2  1  0.410044  0.410044  0.500000  1
  Zn  Zn3  1  0.000000  0.000000  0.500000  1
  In  In4  1  0.000000  0.238782  0.000000  1
  In  In5  1  0.238782  0.000000  0.000000  1
  In  In6  1  0.761218  0.761218  0.000000  1
  Au  Au7  1  0.666667  0.333333  0.000000  1
  Au  Au8  1  0.333333  0.666667  0.000000  1
