# generated using pymatgen
data_Tb9Tm11Pt16
_symmetry_space_group_name_H-M   'P 1'
_cell_length_a   7.42216509
_cell_length_b   7.52474213
_cell_length_c   14.73330208
_cell_angle_alpha   90.01205389
_cell_angle_beta   89.99789954
_cell_angle_gamma   90.01731851
_symmetry_Int_Tables_number   1
_chemical_formula_structural   Tb9Tm11Pt16
_chemical_formula_sum   'Tb9 Tm11 Pt16'
_cell_volume   822.85307200
_cell_formula_units_Z   1
loop_
 _symmetry_equiv_pos_site_id
 _symmetry_equiv_pos_as_xyz
  1  'x, y, z'
loop_
 _atom_site_type_symbol
 _atom_site_label
 _atom_site_symmetry_multiplicity
 _atom_site_fract_x
 _atom_site_fract_y
 _atom_site_fract_z
 _atom_site_occupancy
  Tb  Tb0  1  0.130050  0.331650  0.619184  1
  Tb  Tb1  1  0.473571  0.673422  0.597938  1
  Tb  Tb2  1  0.972859  0.828457  0.902264  1
  Tb  Tb3  1  0.527108  0.328361  0.098297  1
  Tb  Tb4  1  0.027469  0.170477  0.400448  1
  Tb  Tb5  1  0.527201  0.327880  0.401667  1
  Tb  Tb6  1  0.027040  0.171668  0.098330  1
  Tb  Tb7  1  0.472715  0.671307  0.902138  1
  Tb  Tb8  1  0.972167  0.828290  0.598363  1
  Tm  Tm9  1  0.630096  0.167773  0.620544  1
  Tm  Tm10  1  0.130369  0.332027  0.879871  1
  Tm  Tm11  1  0.369904  0.831981  0.120152  1
  Tm  Tm12  1  0.869661  0.668294  0.379635  1
  Tm  Tm13  1  0.370658  0.832207  0.379145  1
  Tm  Tm14  1  0.869502  0.668265  0.120220  1
  Tm  Tm15  1  0.630415  0.167920  0.880183  1
  Tm  Tm16  1  0.793279  0.508320  0.750549  1
  Tm  Tm17  1  0.294109  0.991653  0.750751  1
  Tm  Tm18  1  0.206157  0.492258  0.249807  1
  Tm  Tm19  1  0.706219  0.007833  0.249934  1
  Pt  Pt20  1  0.702126  0.975155  0.456391  1
  Pt  Pt21  1  0.201836  0.524982  0.043937  1
  Pt  Pt22  1  0.298258  0.024987  0.956134  1
  Pt  Pt23  1  0.794517  0.476419  0.543589  1
  Pt  Pt24  1  0.299929  0.021583  0.543385  1
  Pt  Pt25  1  0.798171  0.475140  0.956130  1
  Pt  Pt26  1  0.701718  0.975304  0.044064  1
  Pt  Pt27  1  0.202807  0.526753  0.454231  1
  Pt  Pt28  1  0.426566  0.377111  0.750732  1
  Pt  Pt29  1  0.924758  0.121908  0.751029  1
  Pt  Pt30  1  0.574756  0.623412  0.250063  1
  Pt  Pt31  1  0.074461  0.876517  0.249804  1
  Pt  Pt32  1  0.657393  0.861051  0.750138  1
  Pt  Pt33  1  0.158314  0.639440  0.750658  1
  Pt  Pt34  1  0.342080  0.138668  0.250184  1
  Pt  Pt35  1  0.841760  0.361529  0.250108  1
