# generated using pymatgen
data_Gd2Dy3Zr3(Ni4P3)4
_symmetry_space_group_name_H-M   'P 1'
_cell_length_a   12.36446000
_cell_length_b   12.36446146
_cell_length_c   3.80900500
_cell_angle_alpha   90.00000000
_cell_angle_beta   90.00000000
_cell_angle_gamma   120.00000678
_symmetry_Int_Tables_number   1
_chemical_formula_structural   Gd2Dy3Zr3(Ni4P3)4
_chemical_formula_sum   'Gd2 Dy3 Zr3 Ni16 P12'
_cell_volume   504.30410585
_cell_formula_units_Z   1
loop_
 _symmetry_equiv_pos_site_id
 _symmetry_equiv_pos_as_xyz
  1  'x, y, z'
loop_
 _atom_site_type_symbol
 _atom_site_label
 _atom_site_symmetry_multiplicity
 _atom_site_fract_x
 _atom_site_fract_y
 _atom_site_fract_z
 _atom_site_occupancy
  Gd  Gd0  1  0.333333  0.666667  0.000000  1
  Gd  Gd1  1  0.666667  0.333333  0.000000  1
  Dy  Dy2  1  0.184144  0.184144  0.500000  1
  Dy  Dy3  1  0.815856  0.000000  0.500000  1
  Dy  Dy4  1  0.000000  0.815856  0.500000  1
  Zr  Zr5  1  0.561489  0.561489  0.000000  1
  Zr  Zr6  1  0.438511  0.000000  0.000000  1
  Zr  Zr7  1  0.000000  0.438511  0.000000  1
  Ni  Ni8  1  0.726919  0.726919  0.500000  1
  Ni  Ni9  1  0.273081  0.000000  0.500000  1
  Ni  Ni10  1  0.000000  0.273081  0.500000  1
  Ni  Ni11  1  0.184742  0.375493  0.000000  1
  Ni  Ni12  1  0.624507  0.809248  0.000000  1
  Ni  Ni13  1  0.190752  0.815258  0.000000  1
  Ni  Ni14  1  0.809248  0.624507  0.000000  1
  Ni  Ni15  1  0.815258  0.190752  0.000000  1
  Ni  Ni16  1  0.375493  0.184742  0.000000  1
  Ni  Ni17  1  0.359895  0.483018  0.500000  1
  Ni  Ni18  1  0.516982  0.876877  0.500000  1
  Ni  Ni19  1  0.123123  0.640105  0.500000  1
  Ni  Ni20  1  0.876877  0.516982  0.500000  1
  Ni  Ni21  1  0.640105  0.123123  0.500000  1
  Ni  Ni22  1  0.483018  0.359895  0.500000  1
  Ni  Ni23  1  0.000000  0.000000  0.000000  1
  P  P24  1  0.822386  0.822386  0.000000  1
  P  P25  1  0.177614  0.000000  0.000000  1
  P  P26  1  0.000000  0.177614  0.000000  1
  P  P27  1  0.170417  0.475388  0.500000  1
  P  P28  1  0.524612  0.695028  0.500000  1
  P  P29  1  0.304972  0.829583  0.500000  1
  P  P30  1  0.695028  0.524612  0.500000  1
  P  P31  1  0.829583  0.304972  0.500000  1
  P  P32  1  0.475388  0.170417  0.500000  1
  P  P33  1  0.355906  0.355906  0.000000  1
  P  P34  1  0.644094  0.000000  0.000000  1
  P  P35  1  0.000000  0.644094  0.000000  1
