# generated using pymatgen
data_TmLuAl9OsRh2
_symmetry_space_group_name_H-M   'P 1'
_cell_length_a   7.47994627
_cell_length_b   7.48226284
_cell_length_c   9.43999900
_cell_angle_alpha   90.00000000
_cell_angle_beta   90.00000000
_cell_angle_gamma   118.36533028
_symmetry_Int_Tables_number   1
_chemical_formula_structural   TmLuAl9OsRh2
_chemical_formula_sum   'Tm2 Lu2 Al18 Os2 Rh4'
_cell_volume   464.89468174
_cell_formula_units_Z   2
loop_
 _symmetry_equiv_pos_site_id
 _symmetry_equiv_pos_as_xyz
  1  'x, y, z'
loop_
 _atom_site_type_symbol
 _atom_site_label
 _atom_site_symmetry_multiplicity
 _atom_site_fract_x
 _atom_site_fract_y
 _atom_site_fract_z
 _atom_site_occupancy
  Tm  Tm0  1  0.992932  0.681379  0.250000  1
  Tm  Tm1  1  0.007068  0.318621  0.750000  1
  Lu  Lu2  1  0.681733  0.992928  0.250000  1
  Lu  Lu3  1  0.318267  0.007072  0.750000  1
  Al  Al4  1  0.134433  0.134557  0.250000  1
  Al  Al5  1  0.865567  0.865443  0.750000  1
  Al  Al6  1  0.002704  0.338585  0.076101  1
  Al  Al7  1  0.997296  0.661415  0.923899  1
  Al  Al8  1  0.997296  0.661415  0.576101  1
  Al  Al9  1  0.339059  0.002928  0.424127  1
  Al  Al10  1  0.002704  0.338585  0.423899  1
  Al  Al11  1  0.660941  0.997072  0.575873  1
  Al  Al12  1  0.660941  0.997072  0.924127  1
  Al  Al13  1  0.339059  0.002928  0.075873  1
  Al  Al14  1  0.331652  0.331399  0.548206  1
  Al  Al15  1  0.668348  0.668601  0.451794  1
  Al  Al16  1  0.668348  0.668601  0.048206  1
  Al  Al17  1  0.331652  0.331399  0.951794  1
  Al  Al18  1  0.342099  0.556257  0.250000  1
  Al  Al19  1  0.657901  0.443743  0.750000  1
  Al  Al20  1  0.555919  0.341520  0.250000  1
  Al  Al21  1  0.444081  0.658480  0.750000  1
  Os  Os22  1  0.000000  0.000000  0.000000  1
  Os  Os23  1  0.000000  0.000000  0.500000  1
  Rh  Rh24  1  0.672234  0.327547  0.000041  1
  Rh  Rh25  1  0.327766  0.672453  0.999959  1
  Rh  Rh26  1  0.327766  0.672453  0.500041  1
  Rh  Rh27  1  0.672234  0.327547  0.499959  1
