# generated using pymatgen
data_DyTh2(InPt)3
_symmetry_space_group_name_H-M   'P 1'
_cell_length_a   7.66998777
_cell_length_b   7.66095059
_cell_length_c   4.09853900
_cell_angle_alpha   90.00000000
_cell_angle_beta   90.00000000
_cell_angle_gamma   119.96102579
_symmetry_Int_Tables_number   1
_chemical_formula_structural   DyTh2(InPt)3
_chemical_formula_sum   'Dy1 Th2 In3 Pt3'
_cell_volume   208.64475097
_cell_formula_units_Z   1
loop_
 _symmetry_equiv_pos_site_id
 _symmetry_equiv_pos_as_xyz
  1  'x, y, z'
loop_
 _atom_site_type_symbol
 _atom_site_label
 _atom_site_symmetry_multiplicity
 _atom_site_fract_x
 _atom_site_fract_y
 _atom_site_fract_z
 _atom_site_occupancy
  Dy  Dy0  1  0.000000  0.590690  0.500000  1
  Th  Th1  1  0.587639  0.999843  0.500000  1
  Th  Th2  1  0.412361  0.412204  0.500000  1
  In  In3  1  0.757437  0.747034  0.000000  1
  In  In4  1  0.000000  0.260594  0.000000  1
  In  In5  1  0.242563  0.989597  0.000000  1
  Pt  Pt6  1  0.341331  0.667413  0.000000  1
  Pt  Pt7  1  0.658669  0.326081  0.000000  1
  Pt  Pt8  1  0.000000  0.006543  0.500000  1
