# generated using pymatgen
data_Zr6In4Ga2Pt5Rh
_symmetry_space_group_name_H-M   'P 1'
_cell_length_a   7.43631958
_cell_length_b   7.43330980
_cell_length_c   7.15653943
_cell_angle_alpha   89.98116326
_cell_angle_beta   90.03808225
_cell_angle_gamma   119.78170801
_symmetry_Int_Tables_number   1
_chemical_formula_structural   Zr6In4Ga2Pt5Rh
_chemical_formula_sum   'Zr6 In4 Ga2 Pt5 Rh1'
_cell_volume   343.34045973
_cell_formula_units_Z   1
loop_
 _symmetry_equiv_pos_site_id
 _symmetry_equiv_pos_as_xyz
  1  'x, y, z'
loop_
 _atom_site_type_symbol
 _atom_site_label
 _atom_site_symmetry_multiplicity
 _atom_site_fract_x
 _atom_site_fract_y
 _atom_site_fract_z
 _atom_site_occupancy
  Zr  Zr0  1  0.385252  0.406410  0.747818  1
  Zr  Zr1  1  0.023929  0.609843  0.743264  1
  Zr  Zr2  1  0.586376  0.980454  0.748024  1
  Zr  Zr3  1  0.613062  0.023773  0.256157  1
  Zr  Zr4  1  0.982543  0.590984  0.251622  1
  Zr  Zr5  1  0.399884  0.380408  0.254178  1
  In  In6  1  0.256164  0.996633  0.003149  1
  In  In7  1  0.747313  0.747585  0.003080  1
  In  In8  1  0.997124  0.256251  0.001808  1
  In  In9  1  0.720023  0.720305  0.497218  1
  Ga  Ga10  1  0.279216  0.997078  0.496743  1
  Ga  Ga11  1  0.997918  0.279550  0.497531  1
  Pt  Pt12  1  0.664732  0.333498  0.965004  1
  Pt  Pt13  1  0.013015  0.012193  0.715926  1
  Pt  Pt14  1  0.663221  0.323461  0.530533  1
  Pt  Pt15  1  0.323703  0.663547  0.467936  1
  Pt  Pt16  1  0.333708  0.664489  0.036426  1
  Rh  Rh17  1  0.012818  0.013540  0.283583  1
