# generated using pymatgen
data_TbNd(Si2Ni9)2
_symmetry_space_group_name_H-M   'P 1'
_cell_length_a   7.59306374
_cell_length_b   7.59306419
_cell_length_c   7.59306367
_cell_angle_alpha   99.62553537
_cell_angle_beta   99.62553096
_cell_angle_gamma   131.72712613
_symmetry_Int_Tables_number   1
_chemical_formula_structural   TbNd(Si2Ni9)2
_chemical_formula_sum   'Tb1 Nd1 Si4 Ni18'
_cell_volume   298.15789131
_cell_formula_units_Z   1
loop_
 _symmetry_equiv_pos_site_id
 _symmetry_equiv_pos_as_xyz
  1  'x, y, z'
loop_
 _atom_site_type_symbol
 _atom_site_label
 _atom_site_symmetry_multiplicity
 _atom_site_fract_x
 _atom_site_fract_y
 _atom_site_fract_z
 _atom_site_occupancy
  Tb  Tb0  1  0.500000  0.500000  0.000000  1
  Nd  Nd1  1  0.750000  0.250000  0.500000  1
  Si  Si2  1  0.625030  0.874808  0.750222  1
  Si  Si3  1  0.125192  0.374970  0.249778  1
  Si  Si4  1  0.125192  0.875414  0.750222  1
  Si  Si5  1  0.124586  0.874808  0.249778  1
  Ni  Ni6  1  0.250000  0.750000  0.500000  1
  Ni  Ni7  1  0.000000  0.000000  0.000000  1
  Ni  Ni8  1  0.687804  0.014638  0.079035  1
  Ni  Ni9  1  0.687804  0.608769  0.673167  1
  Ni  Ni10  1  0.266342  0.437735  0.579960  1
  Ni  Ni11  1  0.266342  0.686382  0.828607  1
  Ni  Ni12  1  0.935603  0.014638  0.326833  1
  Ni  Ni13  1  0.935603  0.608769  0.920965  1
  Ni  Ni14  1  0.857774  0.437735  0.171393  1
  Ni  Ni15  1  0.857774  0.686382  0.420040  1
  Ni  Ni16  1  0.562265  0.733658  0.420040  1
  Ni  Ni17  1  0.562265  0.142226  0.828607  1
  Ni  Ni18  1  0.985362  0.312196  0.920965  1
  Ni  Ni19  1  0.985362  0.064397  0.673167  1
  Ni  Ni20  1  0.313618  0.733658  0.171393  1
  Ni  Ni21  1  0.313618  0.142226  0.579960  1
  Ni  Ni22  1  0.391231  0.312196  0.326833  1
  Ni  Ni23  1  0.391231  0.064397  0.079035  1
