# generated using pymatgen
data_CePa2(Al3Os)4
_symmetry_space_group_name_H-M   'P 1'
_cell_length_a   8.88077784
_cell_length_b   8.88077905
_cell_length_c   9.44335600
_cell_angle_alpha   90.00000000
_cell_angle_beta   90.00000000
_cell_angle_gamma   119.84791972
_symmetry_Int_Tables_number   1
_chemical_formula_structural   CePa2(Al3Os)4
_chemical_formula_sum   'Ce2 Pa4 Al24 Os8'
_cell_volume   645.98519828
_cell_formula_units_Z   2
loop_
 _symmetry_equiv_pos_site_id
 _symmetry_equiv_pos_as_xyz
  1  'x, y, z'
loop_
 _atom_site_type_symbol
 _atom_site_label
 _atom_site_symmetry_multiplicity
 _atom_site_fract_x
 _atom_site_fract_y
 _atom_site_fract_z
 _atom_site_occupancy
  Ce  Ce0  1  0.194861  0.805139  0.250000  1
  Ce  Ce1  1  0.805139  0.194861  0.750000  1
  Pa  Pa2  1  0.197818  0.393999  0.250000  1
  Pa  Pa3  1  0.802182  0.606001  0.750000  1
  Pa  Pa4  1  0.606001  0.802182  0.250000  1
  Pa  Pa5  1  0.393999  0.197818  0.750000  1
  Al  Al6  1  0.332447  0.667553  0.018612  1
  Al  Al7  1  0.667553  0.332447  0.981388  1
  Al  Al8  1  0.667553  0.332447  0.518612  1
  Al  Al9  1  0.332447  0.667553  0.481388  1
  Al  Al10  1  0.162071  0.324540  0.577970  1
  Al  Al11  1  0.837929  0.675460  0.422030  1
  Al  Al12  1  0.675460  0.837929  0.577970  1
  Al  Al13  1  0.837929  0.675460  0.077970  1
  Al  Al14  1  0.324540  0.162071  0.422030  1
  Al  Al15  1  0.162071  0.324540  0.922030  1
  Al  Al16  1  0.162055  0.837945  0.579220  1
  Al  Al17  1  0.324540  0.162071  0.077970  1
  Al  Al18  1  0.837945  0.162055  0.420780  1
  Al  Al19  1  0.675460  0.837929  0.922030  1
  Al  Al20  1  0.837945  0.162055  0.079220  1
  Al  Al21  1  0.162055  0.837945  0.920780  1
  Al  Al22  1  0.561712  0.123961  0.250000  1
  Al  Al23  1  0.438288  0.876039  0.750000  1
  Al  Al24  1  0.876039  0.438288  0.250000  1
  Al  Al25  1  0.123961  0.561712  0.750000  1
  Al  Al26  1  0.563560  0.436440  0.250000  1
  Al  Al27  1  0.436440  0.563560  0.750000  1
  Al  Al28  1  0.999069  0.000931  0.250000  1
  Al  Al29  1  0.000931  0.999069  0.750000  1
  Os  Os30  1  0.500000  0.000000  0.000000  1
  Os  Os31  1  0.000000  0.500000  0.000000  1
  Os  Os32  1  0.500000  0.000000  0.500000  1
  Os  Os33  1  0.500000  0.500000  0.000000  1
  Os  Os34  1  0.000000  0.500000  0.500000  1
  Os  Os35  1  0.500000  0.500000  0.500000  1
  Os  Os36  1  0.000000  0.000000  0.000000  1
  Os  Os37  1  0.000000  0.000000  0.500000  1
