# generated using pymatgen
data_Ca3Cd3PdO8
_symmetry_space_group_name_H-M   'P 1'
_cell_length_a   6.72487316
_cell_length_b   6.72995516
_cell_length_c   6.70934895
_cell_angle_alpha   60.05118836
_cell_angle_beta   59.76360952
_cell_angle_gamma   59.82240167
_symmetry_Int_Tables_number   1
_chemical_formula_structural   Ca3Cd3PdO8
_chemical_formula_sum   'Ca3 Cd3 Pd1 O8'
_cell_volume   214.12244485
_cell_formula_units_Z   1
loop_
 _symmetry_equiv_pos_site_id
 _symmetry_equiv_pos_as_xyz
  1  'x, y, z'
loop_
 _atom_site_type_symbol
 _atom_site_label
 _atom_site_symmetry_multiplicity
 _atom_site_fract_x
 _atom_site_fract_y
 _atom_site_fract_z
 _atom_site_occupancy
  Ca  Ca0  1  0.500000  0.000000  0.500000  1
  Ca  Ca1  1  0.000000  0.000000  0.500000  1
  Ca  Ca2  1  0.500000  0.500000  0.000000  1
  Cd  Cd3  1  0.500000  0.000000  0.000000  1
  Cd  Cd4  1  0.000000  0.500000  0.000000  1
  Cd  Cd5  1  0.000000  0.500000  0.500000  1
  Pd  Pd6  1  0.000000  0.000000  0.000000  1
  O  O7  1  0.779059  0.218857  0.220941  1
  O  O8  1  0.252392  0.247608  0.252392  1
  O  O9  1  0.218330  0.781670  0.218330  1
  O  O10  1  0.216418  0.217889  0.783582  1
  O  O11  1  0.781670  0.218330  0.781670  1
  O  O12  1  0.783582  0.782111  0.216418  1
  O  O13  1  0.747608  0.752392  0.747608  1
  O  O14  1  0.220941  0.781143  0.779059  1
