# generated using pymatgen
data_LiLa2WN4
_symmetry_space_group_name_H-M   'P 1'
_cell_length_a   5.87185400
_cell_length_b   6.19439108
_cell_length_c   6.86812500
_cell_angle_alpha   73.24764321
_cell_angle_beta   90.00000000
_cell_angle_gamma   90.00000000
_symmetry_Int_Tables_number   1
_chemical_formula_structural   LiLa2WN4
_chemical_formula_sum   'Li2 La4 W2 N8'
_cell_volume   239.20917449
_cell_formula_units_Z   2
loop_
 _symmetry_equiv_pos_site_id
 _symmetry_equiv_pos_as_xyz
  1  'x, y, z'
loop_
 _atom_site_type_symbol
 _atom_site_label
 _atom_site_symmetry_multiplicity
 _atom_site_fract_x
 _atom_site_fract_y
 _atom_site_fract_z
 _atom_site_occupancy
  Li  Li0  1  0.750000  0.301551  0.310644  1
  Li  Li1  1  0.250000  0.698449  0.689356  1
  La  La2  1  0.250000  0.257057  0.059126  1
  La  La3  1  0.750000  0.742943  0.940874  1
  La  La4  1  0.750000  0.783945  0.430409  1
  La  La5  1  0.250000  0.216055  0.569591  1
  W  W6  1  0.250000  0.725251  0.198665  1
  W  W7  1  0.750000  0.274749  0.801335  1
  N  N8  1  0.501692  0.472968  0.751178  1
  N  N9  1  0.001692  0.527032  0.248822  1
  N  N10  1  0.498308  0.527032  0.248822  1
  N  N11  1  0.998308  0.472968  0.751178  1
  N  N12  1  0.750000  0.087060  0.620043  1
  N  N13  1  0.250000  0.912940  0.379957  1
  N  N14  1  0.750000  0.097790  0.080641  1
  N  N15  1  0.250000  0.902210  0.919359  1
