# generated using pymatgen
data_LaPr2InHg2Pt3
_symmetry_space_group_name_H-M   'P 1'
_cell_length_a   7.95256327
_cell_length_b   7.94836077
_cell_length_c   3.98530100
_cell_angle_alpha   90.00000000
_cell_angle_beta   90.00000000
_cell_angle_gamma   120.89297419
_symmetry_Int_Tables_number   1
_chemical_formula_structural   LaPr2InHg2Pt3
_chemical_formula_sum   'La1 Pr2 In1 Hg2 Pt3'
_cell_volume   216.17120332
_cell_formula_units_Z   1
loop_
 _symmetry_equiv_pos_site_id
 _symmetry_equiv_pos_as_xyz
  1  'x, y, z'
loop_
 _atom_site_type_symbol
 _atom_site_label
 _atom_site_symmetry_multiplicity
 _atom_site_fract_x
 _atom_site_fract_y
 _atom_site_fract_z
 _atom_site_occupancy
  La  La0  1  0.595140  0.005413  0.000000  1
  Pr  Pr1  1  0.005379  0.595613  0.000000  1
  Pr  Pr2  1  0.395827  0.395876  0.000000  1
  In  In3  1  0.744891  0.741363  0.500000  1
  Hg  Hg4  1  0.256111  0.997737  0.500000  1
  Hg  Hg5  1  0.000790  0.261219  0.500000  1
  Pt  Pt6  1  0.349661  0.672681  0.500000  1
  Pt  Pt7  1  0.669152  0.344714  0.500000  1
  Pt  Pt8  1  0.983048  0.985384  0.000000  1
