# generated using pymatgen
data_Ba2CrCu3P4
_symmetry_space_group_name_H-M   'P 1'
_cell_length_a   5.58739701
_cell_length_b   6.89128947
_cell_length_c   5.59647875
_cell_angle_alpha   66.11504287
_cell_angle_beta   90.00017789
_cell_angle_gamma   90.00396868
_symmetry_Int_Tables_number   1
_chemical_formula_structural   Ba2CrCu3P4
_chemical_formula_sum   'Ba2 Cr1 Cu3 P4'
_cell_volume   197.03448343
_cell_formula_units_Z   1
loop_
 _symmetry_equiv_pos_site_id
 _symmetry_equiv_pos_as_xyz
  1  'x, y, z'
loop_
 _atom_site_type_symbol
 _atom_site_label
 _atom_site_symmetry_multiplicity
 _atom_site_fract_x
 _atom_site_fract_y
 _atom_site_fract_z
 _atom_site_occupancy
  Ba  Ba0  1  0.995332  0.999983  0.999986  1
  Ba  Ba1  1  0.505210  0.999961  0.500026  1
  Cr  Cr2  1  0.249942  0.500022  0.500013  1
  Cu  Cu3  1  0.249861  0.500064  0.999952  1
  Cu  Cu4  1  0.750022  0.500082  0.999967  1
  Cu  Cu5  1  0.750124  0.499880  0.500065  1
  P  P6  1  0.488064  0.700428  0.160991  1
  P  P7  1  0.011695  0.700726  0.639459  1
  P  P8  1  0.011795  0.299306  0.360527  1
  P  P9  1  0.487956  0.299549  0.839014  1
