# generated using pymatgen
data_Th2(Ga3Rh)3
_symmetry_space_group_name_H-M   'P 1'
_cell_length_a   7.71328571
_cell_length_b   7.71328646
_cell_length_c   9.56864600
_cell_angle_alpha   90.00000000
_cell_angle_beta   90.00000000
_cell_angle_gamma   119.74367658
_symmetry_Int_Tables_number   1
_chemical_formula_structural   Th2(Ga3Rh)3
_chemical_formula_sum   'Th4 Ga18 Rh6'
_cell_volume   494.28330996
_cell_formula_units_Z   2
loop_
 _symmetry_equiv_pos_site_id
 _symmetry_equiv_pos_as_xyz
  1  'x, y, z'
loop_
 _atom_site_type_symbol
 _atom_site_label
 _atom_site_symmetry_multiplicity
 _atom_site_fract_x
 _atom_site_fract_y
 _atom_site_fract_z
 _atom_site_occupancy
  Th  Th0  1  0.997058  0.668697  0.250000  1
  Th  Th1  1  0.002942  0.331303  0.750000  1
  Th  Th2  1  0.668697  0.997058  0.250000  1
  Th  Th3  1  0.331303  0.002942  0.750000  1
  Ga  Ga4  1  0.130463  0.130463  0.250000  1
  Ga  Ga5  1  0.869537  0.869537  0.750000  1
  Ga  Ga6  1  0.003687  0.334378  0.077014  1
  Ga  Ga7  1  0.996313  0.665622  0.922986  1
  Ga  Ga8  1  0.996313  0.665622  0.577014  1
  Ga  Ga9  1  0.334378  0.003687  0.422986  1
  Ga  Ga10  1  0.003687  0.334378  0.422986  1
  Ga  Ga11  1  0.665622  0.996313  0.577014  1
  Ga  Ga12  1  0.665622  0.996313  0.922986  1
  Ga  Ga13  1  0.334378  0.003687  0.077014  1
  Ga  Ga14  1  0.336171  0.336171  0.560448  1
  Ga  Ga15  1  0.663829  0.663829  0.439552  1
  Ga  Ga16  1  0.663829  0.663829  0.060448  1
  Ga  Ga17  1  0.336171  0.336171  0.939552  1
  Ga  Ga18  1  0.338381  0.542848  0.250000  1
  Ga  Ga19  1  0.661619  0.457152  0.750000  1
  Ga  Ga20  1  0.542848  0.338381  0.250000  1
  Ga  Ga21  1  0.457152  0.661619  0.750000  1
  Rh  Rh22  1  0.671584  0.328416  0.000000  1
  Rh  Rh23  1  0.328416  0.671584  0.000000  1
  Rh  Rh24  1  0.328416  0.671584  0.500000  1
  Rh  Rh25  1  0.671584  0.328416  0.500000  1
  Rh  Rh26  1  0.000000  0.000000  0.000000  1
  Rh  Rh27  1  0.000000  0.000000  0.500000  1
