# generated using pymatgen
data_K3Fe(SO4)3
_symmetry_space_group_name_H-M   'P 1'
_cell_length_a   9.10369103
_cell_length_b   9.10369077
_cell_length_c   9.10369125
_cell_angle_alpha   109.04111150
_cell_angle_beta   109.04111425
_cell_angle_gamma   109.04112616
_symmetry_Int_Tables_number   1
_chemical_formula_structural   K3Fe(SO4)3
_chemical_formula_sum   'K6 Fe2 S6 O24'
_cell_volume   589.87292126
_cell_formula_units_Z   2
loop_
 _symmetry_equiv_pos_site_id
 _symmetry_equiv_pos_as_xyz
  1  'x, y, z'
loop_
 _atom_site_type_symbol
 _atom_site_label
 _atom_site_symmetry_multiplicity
 _atom_site_fract_x
 _atom_site_fract_y
 _atom_site_fract_z
 _atom_site_occupancy
  K  K0  1  0.631447  0.147722  0.781948  1
  K  K1  1  0.781948  0.631447  0.147722  1
  K  K2  1  0.147722  0.781948  0.631447  1
  K  K3  1  0.368553  0.852278  0.218052  1
  K  K4  1  0.218052  0.368553  0.852278  1
  K  K5  1  0.852278  0.218052  0.368553  1
  Fe  Fe6  1  0.000000  0.000000  0.000000  1
  Fe  Fe7  1  0.500000  0.500000  0.500000  1
  S  S8  1  0.891495  0.566194  0.766481  1
  S  S9  1  0.766481  0.891495  0.566194  1
  S  S10  1  0.566194  0.766481  0.891495  1
  S  S11  1  0.108505  0.433806  0.233519  1
  S  S12  1  0.233519  0.108505  0.433806  1
  S  S13  1  0.433806  0.233519  0.108505  1
  O  O14  1  0.745815  0.524749  0.595275  1
  O  O15  1  0.595275  0.745815  0.524749  1
  O  O16  1  0.524749  0.595275  0.745815  1
  O  O17  1  0.254185  0.475251  0.404725  1
  O  O18  1  0.404725  0.254185  0.475251  1
  O  O19  1  0.475251  0.404725  0.254185  1
  O  O20  1  0.820477  0.485416  0.859781  1
  O  O21  1  0.859781  0.820477  0.485416  1
  O  O22  1  0.485416  0.859781  0.820477  1
  O  O23  1  0.179523  0.514584  0.140219  1
  O  O24  1  0.140219  0.179523  0.514584  1
  O  O25  1  0.514584  0.140219  0.179523  1
  O  O26  1  0.011107  0.507177  0.720634  1
  O  O27  1  0.720634  0.011107  0.507177  1
  O  O28  1  0.507177  0.720634  0.011107  1
  O  O29  1  0.988893  0.492823  0.279366  1
  O  O30  1  0.279366  0.988893  0.492823  1
  O  O31  1  0.492823  0.279366  0.988893  1
  O  O32  1  0.998856  0.767120  0.881313  1
  O  O33  1  0.881313  0.998856  0.767120  1
  O  O34  1  0.767120  0.881313  0.998856  1
  O  O35  1  0.001144  0.232880  0.118687  1
  O  O36  1  0.118687  0.001144  0.232880  1
  O  O37  1  0.232880  0.118687  0.001144  1
