# generated using pymatgen
data_Sc3BeNi3P2
_symmetry_space_group_name_H-M   'P 1'
_cell_length_a   6.28161200
_cell_length_b   6.28161251
_cell_length_c   3.64970500
_cell_angle_alpha   90.00000000
_cell_angle_beta   90.00000000
_cell_angle_gamma   120.00001839
_symmetry_Int_Tables_number   1
_chemical_formula_structural   Sc3BeNi3P2
_chemical_formula_sum   'Sc3 Be1 Ni3 P2'
_cell_volume   124.71840955
_cell_formula_units_Z   1
loop_
 _symmetry_equiv_pos_site_id
 _symmetry_equiv_pos_as_xyz
  1  'x, y, z'
loop_
 _atom_site_type_symbol
 _atom_site_label
 _atom_site_symmetry_multiplicity
 _atom_site_fract_x
 _atom_site_fract_y
 _atom_site_fract_z
 _atom_site_occupancy
  Sc  Sc0  1  0.000000  0.409097  0.500000  1
  Sc  Sc1  1  0.590903  0.590903  0.500000  1
  Sc  Sc2  1  0.409097  0.000000  0.500000  1
  Be  Be3  1  0.000000  0.000000  0.500000  1
  Ni  Ni4  1  0.000000  0.759443  0.000000  1
  Ni  Ni5  1  0.240557  0.240557  0.000000  1
  Ni  Ni6  1  0.759443  0.000000  0.000000  1
  P  P7  1  0.666667  0.333333  0.000000  1
  P  P8  1  0.333333  0.666667  0.000000  1
