# generated using pymatgen
data_Dy4Ga3ReOs4
_symmetry_space_group_name_H-M   'P 1'
_cell_length_a   5.32221637
_cell_length_b   5.32221740
_cell_length_c   8.90449800
_cell_angle_alpha   90.00000000
_cell_angle_beta   90.00000000
_cell_angle_gamma   118.65154046
_symmetry_Int_Tables_number   1
_chemical_formula_structural   Dy4Ga3ReOs4
_chemical_formula_sum   'Dy4 Ga3 Re1 Os4'
_cell_volume   221.34384207
_cell_formula_units_Z   1
loop_
 _symmetry_equiv_pos_site_id
 _symmetry_equiv_pos_as_xyz
  1  'x, y, z'
loop_
 _atom_site_type_symbol
 _atom_site_label
 _atom_site_symmetry_multiplicity
 _atom_site_fract_x
 _atom_site_fract_y
 _atom_site_fract_z
 _atom_site_occupancy
  Dy  Dy0  1  0.331385  0.668615  0.436765  1
  Dy  Dy1  1  0.665836  0.334164  0.558078  1
  Dy  Dy2  1  0.665836  0.334164  0.941922  1
  Dy  Dy3  1  0.331385  0.668615  0.063235  1
  Ga  Ga4  1  0.166422  0.833578  0.750000  1
  Ga  Ga5  1  0.167260  0.330081  0.750000  1
  Ga  Ga6  1  0.669919  0.832740  0.750000  1
  Re  Re7  1  0.835678  0.164322  0.250000  1
  Os  Os8  1  0.994199  0.005801  0.497798  1
  Os  Os9  1  0.994199  0.005801  0.002202  1
  Os  Os10  1  0.829448  0.651565  0.250000  1
  Os  Os11  1  0.348435  0.170552  0.250000  1
