# generated using pymatgen
data_Tc3RuO12
_symmetry_space_group_name_H-M   'P 1'
_cell_length_a   10.45443434
_cell_length_b   10.45443358
_cell_length_c   10.45443326
_cell_angle_alpha   49.11777638
_cell_angle_beta   49.11777912
_cell_angle_gamma   49.11777728
_symmetry_Int_Tables_number   1
_chemical_formula_structural   Tc3RuO12
_chemical_formula_sum   'Tc6 Ru2 O24'
_cell_volume   599.86686088
_cell_formula_units_Z   2
loop_
 _symmetry_equiv_pos_site_id
 _symmetry_equiv_pos_as_xyz
  1  'x, y, z'
loop_
 _atom_site_type_symbol
 _atom_site_label
 _atom_site_symmetry_multiplicity
 _atom_site_fract_x
 _atom_site_fract_y
 _atom_site_fract_z
 _atom_site_occupancy
  Tc  Tc0  1  0.596909  0.903091  0.250000  1
  Tc  Tc1  1  0.250000  0.596909  0.903091  1
  Tc  Tc2  1  0.903091  0.250000  0.596909  1
  Tc  Tc3  1  0.750000  0.403091  0.096909  1
  Tc  Tc4  1  0.096909  0.750000  0.403091  1
  Tc  Tc5  1  0.403091  0.096909  0.750000  1
  Ru  Ru6  1  0.500000  0.500000  0.500000  1
  Ru  Ru7  1  0.000000  0.000000  0.000000  1
  O  O8  1  0.819193  0.884940  0.170057  1
  O  O9  1  0.170057  0.819193  0.884940  1
  O  O10  1  0.884940  0.170057  0.819193  1
  O  O11  1  0.670057  0.384940  0.319193  1
  O  O12  1  0.319193  0.670057  0.384940  1
  O  O13  1  0.384940  0.319193  0.670057  1
  O  O14  1  0.180807  0.115060  0.829943  1
  O  O15  1  0.829943  0.180807  0.115060  1
  O  O16  1  0.115060  0.829943  0.180807  1
  O  O17  1  0.329943  0.615060  0.680807  1
  O  O18  1  0.680807  0.329943  0.615060  1
  O  O19  1  0.615060  0.680807  0.329943  1
  O  O20  1  0.442428  0.977309  0.425566  1
  O  O21  1  0.425566  0.442428  0.977309  1
  O  O22  1  0.977309  0.425566  0.442428  1
  O  O23  1  0.925566  0.477309  0.942428  1
  O  O24  1  0.942428  0.925566  0.477309  1
  O  O25  1  0.477309  0.942428  0.925566  1
  O  O26  1  0.557572  0.022691  0.574434  1
  O  O27  1  0.574434  0.557572  0.022691  1
  O  O28  1  0.022691  0.574434  0.557572  1
  O  O29  1  0.074434  0.522691  0.057572  1
  O  O30  1  0.057572  0.074434  0.522691  1
  O  O31  1  0.522691  0.057572  0.074434  1
