# generated using pymatgen
data_HoEr3Be2(Co2B)6
_symmetry_space_group_name_H-M   'P 1'
_cell_length_a   4.99166400
_cell_length_b   4.99166415
_cell_length_c   12.32644500
_cell_angle_alpha   90.00000000
_cell_angle_beta   90.00000000
_cell_angle_gamma   119.99999903
_symmetry_Int_Tables_number   1
_chemical_formula_structural   HoEr3Be2(Co2B)6
_chemical_formula_sum   'Ho1 Er3 Be2 Co12 B6'
_cell_volume   265.98624568
_cell_formula_units_Z   1
loop_
 _symmetry_equiv_pos_site_id
 _symmetry_equiv_pos_as_xyz
  1  'x, y, z'
loop_
 _atom_site_type_symbol
 _atom_site_label
 _atom_site_symmetry_multiplicity
 _atom_site_fract_x
 _atom_site_fract_y
 _atom_site_fract_z
 _atom_site_occupancy
  Ho  Ho0  1  0.000000  0.000000  0.000000  1
  Er  Er1  1  0.000000  0.000000  0.500000  1
  Er  Er2  1  0.000000  0.000000  0.744788  1
  Er  Er3  1  0.000000  0.000000  0.255212  1
  Be  Be4  1  0.666667  0.333333  0.000000  1
  Be  Be5  1  0.333333  0.666667  0.000000  1
  Co  Co6  1  0.500000  0.500000  0.857032  1
  Co  Co7  1  0.500000  0.000000  0.857032  1
  Co  Co8  1  0.000000  0.500000  0.857032  1
  Co  Co9  1  0.500000  0.500000  0.142968  1
  Co  Co10  1  0.500000  0.000000  0.142968  1
  Co  Co11  1  0.000000  0.500000  0.142968  1
  Co  Co12  1  0.500000  0.500000  0.619732  1
  Co  Co13  1  0.500000  0.000000  0.619732  1
  Co  Co14  1  0.000000  0.500000  0.619732  1
  Co  Co15  1  0.500000  0.500000  0.380268  1
  Co  Co16  1  0.500000  0.000000  0.380268  1
  Co  Co17  1  0.000000  0.500000  0.380268  1
  B  B18  1  0.666667  0.333333  0.500000  1
  B  B19  1  0.333333  0.666667  0.500000  1
  B  B20  1  0.666667  0.333333  0.741344  1
  B  B21  1  0.333333  0.666667  0.741344  1
  B  B22  1  0.333333  0.666667  0.258656  1
  B  B23  1  0.666667  0.333333  0.258656  1
