# generated using pymatgen
data_Sr2As3IO6
_symmetry_space_group_name_H-M   'P 1'
_cell_length_a   5.49103100
_cell_length_b   8.44817907
_cell_length_c   11.09330187
_cell_angle_alpha   73.20517549
_cell_angle_beta   90.00000000
_cell_angle_gamma   90.00000000
_symmetry_Int_Tables_number   1
_chemical_formula_structural   Sr2As3IO6
_chemical_formula_sum   'Sr4 As6 I2 O12'
_cell_volume   492.65918478
_cell_formula_units_Z   2
loop_
 _symmetry_equiv_pos_site_id
 _symmetry_equiv_pos_as_xyz
  1  'x, y, z'
loop_
 _atom_site_type_symbol
 _atom_site_label
 _atom_site_symmetry_multiplicity
 _atom_site_fract_x
 _atom_site_fract_y
 _atom_site_fract_z
 _atom_site_occupancy
  Sr  Sr0  1  0.250000  0.150300  0.394166  1
  Sr  Sr1  1  0.750000  0.849700  0.605834  1
  Sr  Sr2  1  0.250000  0.075460  0.769058  1
  Sr  Sr3  1  0.750000  0.924540  0.230942  1
  As  As4  1  0.250000  0.721868  0.427386  1
  As  As5  1  0.750000  0.278132  0.572614  1
  As  As6  1  0.250000  0.582899  0.174210  1
  As  As7  1  0.750000  0.417101  0.825790  1
  As  As8  1  0.250000  0.619150  0.812051  1
  As  As9  1  0.750000  0.380850  0.187949  1
  I  I10  1  0.750000  0.822325  0.948785  1
  I  I11  1  0.250000  0.177675  0.051215  1
  O  O12  1  0.990963  0.545709  0.728676  1
  O  O13  1  0.490963  0.454291  0.271324  1
  O  O14  1  0.009037  0.454291  0.271324  1
  O  O15  1  0.509037  0.545709  0.728676  1
  O  O16  1  0.010756  0.864903  0.417696  1
  O  O17  1  0.510756  0.135097  0.582304  1
  O  O18  1  0.989244  0.135097  0.582304  1
  O  O19  1  0.489244  0.864903  0.417696  1
  O  O20  1  0.750000  0.250719  0.753935  1
  O  O21  1  0.250000  0.749281  0.246065  1
  O  O22  1  0.250000  0.818558  0.710486  1
  O  O23  1  0.750000  0.181442  0.289514  1
