# generated using pymatgen
data_Y4TlRh
_symmetry_space_group_name_H-M   'P 1'
_cell_length_a   9.70051489
_cell_length_b   9.70051484
_cell_length_c   9.70051400
_cell_angle_alpha   59.99999606
_cell_angle_beta   59.99999620
_cell_angle_gamma   59.99999929
_symmetry_Int_Tables_number   1
_chemical_formula_structural   Y4TlRh
_chemical_formula_sum   'Y16 Tl4 Rh4'
_cell_volume   645.45993846
_cell_formula_units_Z   4
loop_
 _symmetry_equiv_pos_site_id
 _symmetry_equiv_pos_as_xyz
  1  'x, y, z'
loop_
 _atom_site_type_symbol
 _atom_site_label
 _atom_site_symmetry_multiplicity
 _atom_site_fract_x
 _atom_site_fract_y
 _atom_site_fract_z
 _atom_site_occupancy
  Y  Y0  1  0.688632  0.311368  0.311368  1
  Y  Y1  1  0.688632  0.688632  0.311368  1
  Y  Y2  1  0.311368  0.688632  0.311368  1
  Y  Y3  1  0.938894  0.938894  0.561106  1
  Y  Y4  1  0.149836  0.149836  0.550491  1
  Y  Y5  1  0.561106  0.938894  0.561106  1
  Y  Y6  1  0.149836  0.149836  0.149836  1
  Y  Y7  1  0.311368  0.311368  0.688632  1
  Y  Y8  1  0.938894  0.561106  0.561106  1
  Y  Y9  1  0.561106  0.561106  0.938894  1
  Y  Y10  1  0.561106  0.938894  0.938894  1
  Y  Y11  1  0.938894  0.561106  0.938894  1
  Y  Y12  1  0.149836  0.550491  0.149836  1
  Y  Y13  1  0.311368  0.688632  0.688632  1
  Y  Y14  1  0.688632  0.311368  0.688632  1
  Y  Y15  1  0.550491  0.149836  0.149836  1
  Tl  Tl16  1  0.914183  0.914183  0.257450  1
  Tl  Tl17  1  0.257450  0.914183  0.914183  1
  Tl  Tl18  1  0.914183  0.257450  0.914183  1
  Tl  Tl19  1  0.914183  0.914183  0.914183  1
  Rh  Rh20  1  0.357533  0.357533  0.357533  1
  Rh  Rh21  1  0.927402  0.357533  0.357533  1
  Rh  Rh22  1  0.357533  0.357533  0.927402  1
  Rh  Rh23  1  0.357533  0.927402  0.357533  1
