# generated using pymatgen
data_Be3SiIr4
_symmetry_space_group_name_H-M   'P 1'
_cell_length_a   6.98373019
_cell_length_b   6.98373009
_cell_length_c   6.98373071
_cell_angle_alpha   33.50564902
_cell_angle_beta   33.50564935
_cell_angle_gamma   33.50565751
_symmetry_Int_Tables_number   1
_chemical_formula_structural   Be3SiIr4
_chemical_formula_sum   'Be3 Si1 Ir4'
_cell_volume   92.44360632
_cell_formula_units_Z   1
loop_
 _symmetry_equiv_pos_site_id
 _symmetry_equiv_pos_as_xyz
  1  'x, y, z'
loop_
 _atom_site_type_symbol
 _atom_site_label
 _atom_site_symmetry_multiplicity
 _atom_site_fract_x
 _atom_site_fract_y
 _atom_site_fract_z
 _atom_site_occupancy
  Be  Be0  1  0.254395  0.254395  0.254395  1
  Be  Be1  1  0.745605  0.745605  0.745605  1
  Be  Be2  1  0.000000  0.000000  0.000000  1
  Si  Si3  1  0.500000  0.500000  0.500000  1
  Ir  Ir4  1  0.875092  0.875092  0.875092  1
  Ir  Ir5  1  0.374796  0.374796  0.374796  1
  Ir  Ir6  1  0.124908  0.124908  0.124908  1
  Ir  Ir7  1  0.625204  0.625204  0.625204  1
