# generated using pymatgen
data_Nd3In3GeIr2
_symmetry_space_group_name_H-M   'P 1'
_cell_length_a   7.62248200
_cell_length_b   7.62248246
_cell_length_c   4.18968100
_cell_angle_alpha   90.00000000
_cell_angle_beta   90.00000000
_cell_angle_gamma   120.00000670
_symmetry_Int_Tables_number   1
_chemical_formula_structural   Nd3In3GeIr2
_chemical_formula_sum   'Nd3 In3 Ge1 Ir2'
_cell_volume   210.81640373
_cell_formula_units_Z   1
loop_
 _symmetry_equiv_pos_site_id
 _symmetry_equiv_pos_as_xyz
  1  'x, y, z'
loop_
 _atom_site_type_symbol
 _atom_site_label
 _atom_site_symmetry_multiplicity
 _atom_site_fract_x
 _atom_site_fract_y
 _atom_site_fract_z
 _atom_site_occupancy
  Nd  Nd0  1  0.594945  0.010484  0.500000  1
  Nd  Nd1  1  0.415539  0.405055  0.500000  1
  Nd  Nd2  1  0.989516  0.584461  0.500000  1
  In  In3  1  0.253453  0.011402  0.000000  1
  In  In4  1  0.757949  0.746547  0.000000  1
  In  In5  1  0.988598  0.242051  0.000000  1
  Ge  Ge6  1  0.333333  0.666667  0.000000  1
  Ir  Ir7  1  0.000000  0.000000  0.500000  1
  Ir  Ir8  1  0.666667  0.333333  0.000000  1
