# generated using pymatgen
data_DyErPaGa5
_symmetry_space_group_name_H-M   'P 1'
_cell_length_a   6.05895100
_cell_length_b   9.54796300
_cell_length_c   11.66759900
_cell_angle_alpha   90.00000000
_cell_angle_beta   90.00000000
_cell_angle_gamma   90.00000000
_symmetry_Int_Tables_number   1
_chemical_formula_structural   DyErPaGa5
_chemical_formula_sum   'Dy4 Er4 Pa4 Ga20'
_cell_volume   674.97806903
_cell_formula_units_Z   4
loop_
 _symmetry_equiv_pos_site_id
 _symmetry_equiv_pos_as_xyz
  1  'x, y, z'
loop_
 _atom_site_type_symbol
 _atom_site_label
 _atom_site_symmetry_multiplicity
 _atom_site_fract_x
 _atom_site_fract_y
 _atom_site_fract_z
 _atom_site_occupancy
  Dy  Dy0  1  0.882267  0.502895  0.350782  1
  Dy  Dy1  1  0.617733  0.997105  0.850782  1
  Dy  Dy2  1  0.117733  0.002895  0.649218  1
  Dy  Dy3  1  0.382267  0.497105  0.149218  1
  Er  Er4  1  0.857165  0.752402  0.072615  1
  Er  Er5  1  0.642835  0.747598  0.572615  1
  Er  Er6  1  0.142835  0.252402  0.927385  1
  Er  Er7  1  0.357165  0.247598  0.427385  1
  Pa  Pa8  1  0.120251  0.496982  0.648615  1
  Pa  Pa9  1  0.379749  0.003018  0.148615  1
  Pa  Pa10  1  0.879749  0.996982  0.351385  1
  Pa  Pa11  1  0.620251  0.503018  0.851385  1
  Ga  Ga12  1  0.871303  0.053983  0.091549  1
  Ga  Ga13  1  0.628697  0.446017  0.591549  1
  Ga  Ga14  1  0.128697  0.553983  0.908451  1
  Ga  Ga15  1  0.371303  0.946017  0.408451  1
  Ga  Ga16  1  0.132298  0.947884  0.908963  1
  Ga  Ga17  1  0.367702  0.552116  0.408963  1
  Ga  Ga18  1  0.867702  0.447884  0.091037  1
  Ga  Ga19  1  0.632298  0.052116  0.591037  1
  Ga  Ga20  1  0.157453  0.750722  0.261926  1
  Ga  Ga21  1  0.342547  0.749278  0.761926  1
  Ga  Ga22  1  0.842547  0.250722  0.738074  1
  Ga  Ga23  1  0.657453  0.249278  0.238074  1
  Ga  Ga24  1  0.389866  0.751154  0.996704  1
  Ga  Ga25  1  0.110134  0.748846  0.496704  1
  Ga  Ga26  1  0.610134  0.251154  0.003296  1
  Ga  Ga27  1  0.889866  0.248846  0.503296  1
  Ga  Ga28  1  0.598808  0.751534  0.294583  1
  Ga  Ga29  1  0.901192  0.748466  0.794583  1
  Ga  Ga30  1  0.401192  0.251534  0.705417  1
  Ga  Ga31  1  0.098808  0.248466  0.205417  1
