# generated using pymatgen
data_Li8Dy5Y3(Sn3Bi)2
_symmetry_space_group_name_H-M   'P 1'
_cell_length_a   9.42420981
_cell_length_b   9.42256307
_cell_length_c   7.28303901
_cell_angle_alpha   89.99997298
_cell_angle_beta   90.11044180
_cell_angle_gamma   119.99430642
_symmetry_Int_Tables_number   1
_chemical_formula_structural   Li8Dy5Y3(Sn3Bi)2
_chemical_formula_sum   'Li8 Dy5 Y3 Sn6 Bi2'
_cell_volume   560.12003289
_cell_formula_units_Z   1
loop_
 _symmetry_equiv_pos_site_id
 _symmetry_equiv_pos_as_xyz
  1  'x, y, z'
loop_
 _atom_site_type_symbol
 _atom_site_label
 _atom_site_symmetry_multiplicity
 _atom_site_fract_x
 _atom_site_fract_y
 _atom_site_fract_z
 _atom_site_occupancy
  Li  Li0  1  0.167890  0.334153  0.282730  1
  Li  Li1  1  0.167889  0.833736  0.282730  1
  Li  Li2  1  0.664764  0.832382  0.286309  1
  Li  Li3  1  0.828996  0.664421  0.787278  1
  Li  Li4  1  0.828996  0.164576  0.787279  1
  Li  Li5  1  0.337898  0.168950  0.791770  1
  Li  Li6  1  0.337937  0.668968  0.669291  1
  Li  Li7  1  0.665486  0.332742  0.173632  1
  Dy  Dy8  1  0.493116  0.978381  0.996945  1
  Dy  Dy9  1  0.493116  0.514737  0.996944  1
  Dy  Dy10  1  0.017469  0.508734  0.999440  1
  Dy  Dy11  1  0.994792  0.997396  0.494774  1
  Dy  Dy12  1  0.995342  0.997671  0.004939  1
  Y  Y13  1  0.516926  0.026818  0.491200  1
  Y  Y14  1  0.516927  0.490108  0.491200  1
  Y  Y15  1  0.971786  0.485893  0.489254  1
  Sn  Sn16  1  0.667267  0.833633  0.732868  1
  Sn  Sn17  1  0.833986  0.667055  0.231757  1
  Sn  Sn18  1  0.833986  0.166931  0.231758  1
  Sn  Sn19  1  0.332965  0.166483  0.231165  1
  Sn  Sn20  1  0.332603  0.666302  0.259007  1
  Sn  Sn21  1  0.667632  0.333816  0.761677  1
  Bi  Bi22  1  0.166114  0.333298  0.734024  1
  Bi  Bi23  1  0.166114  0.832816  0.734024  1
