# generated using pymatgen
data_Li5Sn4Hg
_symmetry_space_group_name_H-M   'P 1'
_cell_length_a   3.52835000
_cell_length_b   3.52835000
_cell_length_c   16.26489200
_cell_angle_alpha   90.00000000
_cell_angle_beta   90.00000000
_cell_angle_gamma   90.00000000
_symmetry_Int_Tables_number   1
_chemical_formula_structural   Li5Sn4Hg
_chemical_formula_sum   'Li5 Sn4 Hg1'
_cell_volume   202.48576728
_cell_formula_units_Z   1
loop_
 _symmetry_equiv_pos_site_id
 _symmetry_equiv_pos_as_xyz
  1  'x, y, z'
loop_
 _atom_site_type_symbol
 _atom_site_label
 _atom_site_symmetry_multiplicity
 _atom_site_fract_x
 _atom_site_fract_y
 _atom_site_fract_z
 _atom_site_occupancy
  Li  Li0  1  0.500000  0.500000  0.096068  1
  Li  Li1  1  0.500000  0.500000  0.302043  1
  Li  Li2  1  0.500000  0.500000  0.500000  1
  Li  Li3  1  0.500000  0.500000  0.697957  1
  Li  Li4  1  0.500000  0.500000  0.903932  1
  Sn  Sn5  1  0.000000  0.000000  0.199961  1
  Sn  Sn6  1  0.000000  0.000000  0.399966  1
  Sn  Sn7  1  0.000000  0.000000  0.600034  1
  Sn  Sn8  1  0.000000  0.000000  0.800039  1
  Hg  Hg9  1  0.000000  0.000000  0.000000  1
