# generated using pymatgen
data_Er17Zr2InIr12
_symmetry_space_group_name_H-M   'P 1'
_cell_length_a   10.77752000
_cell_length_b   10.77752000
_cell_length_c   6.24469900
_cell_angle_alpha   90.00000000
_cell_angle_beta   90.00000000
_cell_angle_gamma   90.00000000
_symmetry_Int_Tables_number   1
_chemical_formula_structural   Er17Zr2InIr12
_chemical_formula_sum   'Er17 Zr2 In1 Ir12'
_cell_volume   725.35262112
_cell_formula_units_Z   1
loop_
 _symmetry_equiv_pos_site_id
 _symmetry_equiv_pos_as_xyz
  1  'x, y, z'
loop_
 _atom_site_type_symbol
 _atom_site_label
 _atom_site_symmetry_multiplicity
 _atom_site_fract_x
 _atom_site_fract_y
 _atom_site_fract_z
 _atom_site_occupancy
  Er  Er0  1  0.285947  0.084257  0.378069  1
  Er  Er1  1  0.292349  0.911255  0.878361  1
  Er  Er2  1  0.707651  0.088745  0.878361  1
  Er  Er3  1  0.714053  0.915743  0.378069  1
  Er  Er4  1  0.587747  0.789644  0.877336  1
  Er  Er5  1  0.586675  0.210004  0.374678  1
  Er  Er6  1  0.413325  0.789996  0.374678  1
  Er  Er7  1  0.412253  0.210356  0.877336  1
  Er  Er8  1  0.210004  0.413325  0.625322  1
  Er  Er9  1  0.210356  0.587747  0.122664  1
  Er  Er10  1  0.789644  0.412253  0.122664  1
  Er  Er11  1  0.789996  0.586675  0.625322  1
  Er  Er12  1  0.911255  0.707651  0.121639  1
  Er  Er13  1  0.915743  0.285947  0.621931  1
  Er  Er14  1  0.084257  0.714053  0.621931  1
  Er  Er15  1  0.088745  0.292349  0.121639  1
  Er  Er16  1  0.000000  0.000000  0.000000  1
  Zr  Zr17  1  0.500000  0.500000  0.000000  1
  Zr  Zr18  1  0.500000  0.500000  0.500000  1
  In  In19  1  0.000000  0.000000  0.500000  1
  Ir  Ir20  1  0.844503  0.157849  0.244816  1
  Ir  Ir21  1  0.842151  0.844503  0.755184  1
  Ir  Ir22  1  0.157849  0.155497  0.755184  1
  Ir  Ir23  1  0.155497  0.842151  0.244816  1
  Ir  Ir24  1  0.646004  0.355023  0.747521  1
  Ir  Ir25  1  0.644977  0.646004  0.252479  1
  Ir  Ir26  1  0.355023  0.353996  0.252479  1
  Ir  Ir27  1  0.353996  0.644977  0.747521  1
  Ir  Ir28  1  0.500000  0.000000  0.125598  1
  Ir  Ir29  1  0.500000  0.000000  0.622042  1
  Ir  Ir30  1  0.000000  0.500000  0.874402  1
  Ir  Ir31  1  0.000000  0.500000  0.377958  1
