# generated using pymatgen
data_ZnIn2Ni(BiO3)8
_symmetry_space_group_name_H-M   'P 1'
_cell_length_a   4.99154278
_cell_length_b   9.97909343
_cell_length_c   10.12853800
_cell_angle_alpha   90.00001148
_cell_angle_beta   90.00000000
_cell_angle_gamma   90.06261064
_symmetry_Int_Tables_number   1
_chemical_formula_structural   ZnIn2Ni(BiO3)8
_chemical_formula_sum   'Zn1 In2 Ni1 Bi8 O24'
_cell_volume   504.51303148
_cell_formula_units_Z   1
loop_
 _symmetry_equiv_pos_site_id
 _symmetry_equiv_pos_as_xyz
  1  'x, y, z'
loop_
 _atom_site_type_symbol
 _atom_site_label
 _atom_site_symmetry_multiplicity
 _atom_site_fract_x
 _atom_site_fract_y
 _atom_site_fract_z
 _atom_site_occupancy
  Zn  Zn0  1  0.003685  0.999742  0.999999  1
  In  In1  1  0.995284  0.501012  0.000000  1
  In  In2  1  0.495451  0.749018  0.500000  1
  Ni  Ni3  1  0.502216  0.249824  0.500000  1
  Bi  Bi4  1  0.999625  0.006287  0.332857  1
  Bi  Bi5  1  0.000104  0.493395  0.334361  1
  Bi  Bi6  1  0.999625  0.006287  0.667143  1
  Bi  Bi7  1  0.000104  0.493395  0.665639  1
  Bi  Bi8  1  0.499691  0.244672  0.168243  1
  Bi  Bi9  1  0.500230  0.755687  0.166295  1
  Bi  Bi10  1  0.499691  0.244672  0.831757  1
  Bi  Bi11  1  0.500230  0.755686  0.833705  1
  O  O12  1  0.206358  0.401245  0.500000  1
  O  O13  1  0.185119  0.903020  0.500000  1
  O  O14  1  0.300911  0.151042  0.000000  1
  O  O15  1  0.310092  0.653250  0.000000  1
  O  O16  1  0.685845  0.347307  0.000000  1
  O  O17  1  0.704552  0.848120  0.000000  1
  O  O18  1  0.798566  0.099813  0.500000  1
  O  O19  1  0.811298  0.596378  0.500000  1
  O  O20  1  0.192516  0.400150  0.166571  1
  O  O21  1  0.191116  0.907426  0.166367  1
  O  O22  1  0.192516  0.400150  0.833429  1
  O  O23  1  0.191116  0.907426  0.833633  1
  O  O24  1  0.312346  0.155010  0.339094  1
  O  O25  1  0.304834  0.652380  0.330472  1
  O  O26  1  0.312346  0.155010  0.660906  1
  O  O27  1  0.304834  0.652380  0.669529  1
  O  O28  1  0.689930  0.342255  0.336153  1
  O  O29  1  0.693289  0.849931  0.333933  1
  O  O30  1  0.689930  0.342255  0.663847  1
  O  O31  1  0.693290  0.849931  0.666067  1
  O  O32  1  0.811181  0.095814  0.163111  1
  O  O33  1  0.805445  0.597109  0.170230  1
  O  O34  1  0.811181  0.095813  0.836889  1
  O  O35  1  0.805446  0.597110  0.829770  1
