# generated using pymatgen
data_Dy14Y6Cd6IrRu
_symmetry_space_group_name_H-M   'P 1'
_cell_length_a   9.63053500
_cell_length_b   9.63053528
_cell_length_c   9.86803300
_cell_angle_alpha   90.00000000
_cell_angle_beta   90.00000000
_cell_angle_gamma   120.00000246
_symmetry_Int_Tables_number   1
_chemical_formula_structural   Dy14Y6Cd6IrRu
_chemical_formula_sum   'Dy14 Y6 Cd6 Ir1 Ru1'
_cell_volume   792.61457606
_cell_formula_units_Z   1
loop_
 _symmetry_equiv_pos_site_id
 _symmetry_equiv_pos_as_xyz
  1  'x, y, z'
loop_
 _atom_site_type_symbol
 _atom_site_label
 _atom_site_symmetry_multiplicity
 _atom_site_fract_x
 _atom_site_fract_y
 _atom_site_fract_z
 _atom_site_occupancy
  Dy  Dy0  1  0.000000  0.000000  0.499832  1
  Dy  Dy1  1  0.000000  0.000000  0.000168  1
  Dy  Dy2  1  0.209645  0.790355  0.440328  1
  Dy  Dy3  1  0.209645  0.419292  0.440328  1
  Dy  Dy4  1  0.580708  0.790355  0.440328  1
  Dy  Dy5  1  0.790183  0.209817  0.560232  1
  Dy  Dy6  1  0.790183  0.580366  0.560232  1
  Dy  Dy7  1  0.419634  0.209817  0.560232  1
  Dy  Dy8  1  0.790183  0.209817  0.939768  1
  Dy  Dy9  1  0.790183  0.580366  0.939768  1
  Dy  Dy10  1  0.419634  0.209817  0.939768  1
  Dy  Dy11  1  0.209645  0.790355  0.059672  1
  Dy  Dy12  1  0.209645  0.419292  0.059672  1
  Dy  Dy13  1  0.580708  0.790355  0.059672  1
  Y  Y14  1  0.541316  0.458684  0.250000  1
  Y  Y15  1  0.541316  0.082632  0.250000  1
  Y  Y16  1  0.917368  0.458684  0.250000  1
  Y  Y17  1  0.458751  0.541249  0.750000  1
  Y  Y18  1  0.458751  0.917501  0.750000  1
  Y  Y19  1  0.082499  0.541249  0.750000  1
  Cd  Cd20  1  0.885477  0.114523  0.250000  1
  Cd  Cd21  1  0.885477  0.770956  0.250000  1
  Cd  Cd22  1  0.229044  0.114523  0.250000  1
  Cd  Cd23  1  0.114579  0.885421  0.750000  1
  Cd  Cd24  1  0.114579  0.229156  0.750000  1
  Cd  Cd25  1  0.770844  0.885421  0.750000  1
  Ir  Ir26  1  0.333333  0.666667  0.250000  1
  Ru  Ru27  1  0.666667  0.333333  0.750000  1
