# generated using pymatgen
data_Ta2Nb4Re5Si6W
_symmetry_space_group_name_H-M   'P 1'
_cell_length_a   7.58641588
_cell_length_b   7.60012258
_cell_length_c   7.60012267
_cell_angle_alpha   126.95068049
_cell_angle_beta   125.40938965
_cell_angle_gamma   79.64064290
_symmetry_Int_Tables_number   1
_chemical_formula_structural   Ta2Nb4Re5Si6W
_chemical_formula_sum   'Ta2 Nb4 Re5 Si6 W1'
_cell_volume   275.70512921
_cell_formula_units_Z   1
loop_
 _symmetry_equiv_pos_site_id
 _symmetry_equiv_pos_as_xyz
  1  'x, y, z'
loop_
 _atom_site_type_symbol
 _atom_site_label
 _atom_site_symmetry_multiplicity
 _atom_site_fract_x
 _atom_site_fract_y
 _atom_site_fract_z
 _atom_site_occupancy
  Ta  Ta0  1  0.556277  0.096868  0.039723  1
  Ta  Ta1  1  0.443723  0.483448  0.540592  1
  Nb  Nb2  1  0.958303  0.495954  0.034366  1
  Nb  Nb3  1  0.041697  0.076062  0.537650  1
  Nb  Nb4  1  0.752537  0.912610  0.658041  1
  Nb  Nb5  1  0.247463  0.905505  0.160073  1
  Re  Re6  1  0.000000  0.245942  0.245942  1
  Re  Re7  1  0.160288  0.750152  0.655247  1
  Re  Re8  1  0.839712  0.494959  0.589866  1
  Re  Re9  1  0.593482  0.751782  0.089173  1
  Re  Re10  1  0.406518  0.495690  0.158300  1
  Si  Si11  1  0.775100  0.534550  0.260896  1
  Si  Si12  1  0.224900  0.485796  0.759449  1
  Si  Si13  1  0.335351  0.821752  0.495291  1
  Si  Si14  1  0.664649  0.159939  0.486400  1
  Si  Si15  1  0.827951  0.824726  0.989066  1
  Si  Si16  1  0.172049  0.161115  0.996775  1
  W  W17  1  0.500000  0.245350  0.745350  1
