# generated using pymatgen
data_BaZn(In4Ir)2
_symmetry_space_group_name_H-M   'P 1'
_cell_length_a   9.02772500
_cell_length_b   8.92933320
_cell_length_c   4.26210100
_cell_angle_alpha   90.00000000
_cell_angle_beta   90.00000000
_cell_angle_gamma   120.36517427
_symmetry_Int_Tables_number   1
_chemical_formula_structural   BaZn(In4Ir)2
_chemical_formula_sum   'Ba1 Zn1 In8 Ir2'
_cell_volume   296.44343652
_cell_formula_units_Z   1
loop_
 _symmetry_equiv_pos_site_id
 _symmetry_equiv_pos_as_xyz
  1  'x, y, z'
loop_
 _atom_site_type_symbol
 _atom_site_label
 _atom_site_symmetry_multiplicity
 _atom_site_fract_x
 _atom_site_fract_y
 _atom_site_fract_z
 _atom_site_occupancy
  Ba  Ba0  1  0.000000  0.000000  0.000000  1
  Zn  Zn1  1  0.500000  0.000000  0.000000  1
  In  In2  1  0.585249  0.802740  0.500000  1
  In  In3  1  0.217492  0.802740  0.500000  1
  In  In4  1  0.205352  0.410702  0.500000  1
  In  In5  1  0.794648  0.589298  0.500000  1
  In  In6  1  0.782508  0.197260  0.500000  1
  In  In7  1  0.414751  0.197260  0.500000  1
  In  In8  1  0.000000  0.500000  0.000000  1
  In  In9  1  0.500000  0.500000  0.000000  1
  Ir  Ir10  1  0.337569  0.675140  0.000000  1
  Ir  Ir11  1  0.662431  0.324860  0.000000  1
