# generated using pymatgen
data_TiZn6Ru12W5
_symmetry_space_group_name_H-M   'P 1'
_cell_length_a   4.33265000
_cell_length_b   6.15176600
_cell_length_c   12.98583300
_cell_angle_alpha   90.00000000
_cell_angle_beta   90.00026019
_cell_angle_gamma   90.00000000
_symmetry_Int_Tables_number   1
_chemical_formula_structural   TiZn6Ru12W5
_chemical_formula_sum   'Ti1 Zn6 Ru12 W5'
_cell_volume   346.11723707
_cell_formula_units_Z   1
loop_
 _symmetry_equiv_pos_site_id
 _symmetry_equiv_pos_as_xyz
  1  'x, y, z'
loop_
 _atom_site_type_symbol
 _atom_site_label
 _atom_site_symmetry_multiplicity
 _atom_site_fract_x
 _atom_site_fract_y
 _atom_site_fract_z
 _atom_site_occupancy
  Ti  Ti0  1  0.000000  0.500000  0.000000  1
  Zn  Zn1  1  0.000000  0.000000  0.000000  1
  Zn  Zn2  1  0.499676  0.500000  0.165274  1
  Zn  Zn3  1  0.999667  0.000000  0.333342  1
  Zn  Zn4  1  0.500001  0.500000  0.500000  1
  Zn  Zn5  1  0.000332  0.000000  0.666658  1
  Zn  Zn6  1  0.500324  0.500000  0.834726  1
  Ru  Ru7  1  0.500001  0.247900  0.000000  1
  Ru  Ru8  1  0.500001  0.752100  0.000000  1
  Ru  Ru9  1  0.999716  0.249003  0.168334  1
  Ru  Ru10  1  0.999716  0.750997  0.168334  1
  Ru  Ru11  1  0.499662  0.250487  0.333910  1
  Ru  Ru12  1  0.499662  0.749513  0.333910  1
  Ru  Ru13  1  0.000000  0.249637  0.500000  1
  Ru  Ru14  1  0.000000  0.750363  0.500000  1
  Ru  Ru15  1  0.500337  0.250487  0.666090  1
  Ru  Ru16  1  0.500337  0.749513  0.666090  1
  Ru  Ru17  1  0.000285  0.249003  0.831666  1
  Ru  Ru18  1  0.000285  0.750997  0.831666  1
  W  W19  1  0.499696  0.000000  0.163589  1
  W  W20  1  0.999717  0.500000  0.331505  1
  W  W21  1  0.500001  0.000000  0.500000  1
  W  W22  1  0.000285  0.500000  0.668495  1
  W  W23  1  0.500303  0.000000  0.836411  1
