# generated using pymatgen
data_Tb2DyHo2CoBi2
_symmetry_space_group_name_H-M   'P 1'
_cell_length_a   8.00246600
_cell_length_b   8.89385800
_cell_length_c   12.41346700
_cell_angle_alpha   90.00000000
_cell_angle_beta   90.00000000
_cell_angle_gamma   90.00000000
_symmetry_Int_Tables_number   1
_chemical_formula_structural   Tb2DyHo2CoBi2
_chemical_formula_sum   'Tb8 Dy4 Ho8 Co4 Bi8'
_cell_volume   883.50115759
_cell_formula_units_Z   4
loop_
 _symmetry_equiv_pos_site_id
 _symmetry_equiv_pos_as_xyz
  1  'x, y, z'
loop_
 _atom_site_type_symbol
 _atom_site_label
 _atom_site_symmetry_multiplicity
 _atom_site_fract_x
 _atom_site_fract_y
 _atom_site_fract_z
 _atom_site_occupancy
  Tb  Tb0  1  0.347860  0.750000  0.699413  1
  Tb  Tb1  1  0.652140  0.250000  0.300587  1
  Tb  Tb2  1  0.847860  0.250000  0.800587  1
  Tb  Tb3  1  0.152140  0.750000  0.199413  1
  Tb  Tb4  1  0.883774  0.750000  0.810630  1
  Tb  Tb5  1  0.116226  0.250000  0.189370  1
  Tb  Tb6  1  0.383774  0.250000  0.689370  1
  Tb  Tb7  1  0.616226  0.750000  0.310630  1
  Dy  Dy8  1  0.051669  0.750000  0.497602  1
  Dy  Dy9  1  0.948331  0.250000  0.502398  1
  Dy  Dy10  1  0.551669  0.250000  0.002398  1
  Dy  Dy11  1  0.448331  0.750000  0.997602  1
  Ho  Ho12  1  0.675347  0.537307  0.562833  1
  Ho  Ho13  1  0.324653  0.462693  0.437167  1
  Ho  Ho14  1  0.175347  0.462693  0.937167  1
  Ho  Ho15  1  0.324653  0.037307  0.437167  1
  Ho  Ho16  1  0.824653  0.537307  0.062833  1
  Ho  Ho17  1  0.675347  0.962693  0.562833  1
  Ho  Ho18  1  0.824653  0.962693  0.062833  1
  Ho  Ho19  1  0.175347  0.037307  0.937167  1
  Co  Co20  1  0.064174  0.750000  0.991891  1
  Co  Co21  1  0.935826  0.250000  0.008109  1
  Co  Co22  1  0.564174  0.250000  0.508109  1
  Co  Co23  1  0.435826  0.750000  0.491891  1
  Bi  Bi24  1  0.571767  0.509024  0.827015  1
  Bi  Bi25  1  0.428233  0.490976  0.172985  1
  Bi  Bi26  1  0.071767  0.490976  0.672985  1
  Bi  Bi27  1  0.428233  0.009024  0.172985  1
  Bi  Bi28  1  0.928233  0.509024  0.327015  1
  Bi  Bi29  1  0.571767  0.990976  0.827015  1
  Bi  Bi30  1  0.928233  0.990976  0.327015  1
  Bi  Bi31  1  0.071767  0.009024  0.672985  1
