# generated using pymatgen
data_Dy15YCd4(NiIr)2
_symmetry_space_group_name_H-M   'P 1'
_cell_length_a   9.58877423
_cell_length_b   9.58877617
_cell_length_c   9.63814700
_cell_angle_alpha   59.82918604
_cell_angle_beta   59.82927941
_cell_angle_gamma   59.61581278
_symmetry_Int_Tables_number   1
_chemical_formula_structural   Dy15YCd4(NiIr)2
_chemical_formula_sum   'Dy15 Y1 Cd4 Ni2 Ir2'
_cell_volume   623.17304064
_cell_formula_units_Z   1
loop_
 _symmetry_equiv_pos_site_id
 _symmetry_equiv_pos_as_xyz
  1  'x, y, z'
loop_
 _atom_site_type_symbol
 _atom_site_label
 _atom_site_symmetry_multiplicity
 _atom_site_fract_x
 _atom_site_fract_y
 _atom_site_fract_z
 _atom_site_occupancy
  Dy  Dy0  1  0.600283  0.600278  0.594807  1
  Dy  Dy1  1  0.600286  0.600282  0.204630  1
  Dy  Dy2  1  0.603002  0.202362  0.597322  1
  Dy  Dy3  1  0.202363  0.603001  0.597322  1
  Dy  Dy4  1  0.059167  0.437672  0.440737  1
  Dy  Dy5  1  0.437674  0.059172  0.062420  1
  Dy  Dy6  1  0.437673  0.059169  0.440735  1
  Dy  Dy7  1  0.059171  0.437672  0.062422  1
  Dy  Dy8  1  0.439352  0.439348  0.060646  1
  Dy  Dy9  1  0.060964  0.060967  0.439036  1
  Dy  Dy10  1  0.187459  0.810857  0.815957  1
  Dy  Dy11  1  0.810859  0.187461  0.185725  1
  Dy  Dy12  1  0.810858  0.187461  0.815955  1
  Dy  Dy13  1  0.187458  0.810859  0.185726  1
  Dy  Dy14  1  0.815711  0.815710  0.184289  1
  Y  Y15  1  0.188878  0.188877  0.811123  1
  Cd  Cd16  1  0.829903  0.829903  0.832677  1
  Cd  Cd17  1  0.829903  0.829902  0.507517  1
  Cd  Cd18  1  0.830098  0.506104  0.831898  1
  Cd  Cd19  1  0.506104  0.830098  0.831898  1
  Ni  Ni20  1  0.391999  0.824842  0.391579  1
  Ni  Ni21  1  0.824843  0.392006  0.391574  1
  Ir  Ir22  1  0.392997  0.392997  0.391120  1
  Ir  Ir23  1  0.392998  0.392997  0.822886  1
