# generated using pymatgen
data_La5TcRh
_symmetry_space_group_name_H-M   'P 1'
_cell_length_a   9.10333263
_cell_length_b   9.10333182
_cell_length_c   7.45984752
_cell_angle_alpha   85.26460174
_cell_angle_beta   85.26460008
_cell_angle_gamma   43.46828333
_symmetry_Int_Tables_number   1
_chemical_formula_structural   La5TcRh
_chemical_formula_sum   'La10 Tc2 Rh2'
_cell_volume   423.61133666
_cell_formula_units_Z   2
loop_
 _symmetry_equiv_pos_site_id
 _symmetry_equiv_pos_as_xyz
  1  'x, y, z'
loop_
 _atom_site_type_symbol
 _atom_site_label
 _atom_site_symmetry_multiplicity
 _atom_site_fract_x
 _atom_site_fract_y
 _atom_site_fract_z
 _atom_site_occupancy
  La  La0  1  0.008518  0.804686  0.911936  1
  La  La1  1  0.195314  0.991482  0.588064  1
  La  La2  1  0.977600  0.206003  0.096686  1
  La  La3  1  0.793997  0.022400  0.403314  1
  La  La4  1  0.362894  0.211110  0.822089  1
  La  La5  1  0.788890  0.637106  0.677911  1
  La  La6  1  0.644245  0.790225  0.182467  1
  La  La7  1  0.209775  0.355755  0.317533  1
  La  La8  1  0.577193  0.422807  0.750000  1
  La  La9  1  0.421010  0.578990  0.250000  1
  Tc  Tc10  1  0.830709  0.388017  0.426615  1
  Tc  Tc11  1  0.611983  0.169291  0.073385  1
  Rh  Rh12  1  0.177688  0.599816  0.580476  1
  Rh  Rh13  1  0.400184  0.822312  0.919524  1
