# generated using pymatgen
data_Tm2ScAuO7
_symmetry_space_group_name_H-M   'P 1'
_cell_length_a   6.30701087
_cell_length_b   6.34985618
_cell_length_c   7.27561300
_cell_angle_alpha   90.00000000
_cell_angle_beta   90.00000000
_cell_angle_gamma   108.79618660
_symmetry_Int_Tables_number   1
_chemical_formula_structural   Tm2ScAuO7
_chemical_formula_sum   'Tm4 Sc2 Au2 O14'
_cell_volume   275.83920800
_cell_formula_units_Z   2
loop_
 _symmetry_equiv_pos_site_id
 _symmetry_equiv_pos_as_xyz
  1  'x, y, z'
loop_
 _atom_site_type_symbol
 _atom_site_label
 _atom_site_symmetry_multiplicity
 _atom_site_fract_x
 _atom_site_fract_y
 _atom_site_fract_z
 _atom_site_occupancy
  Tm  Tm0  1  0.528881  0.998309  0.750752  1
  Tm  Tm1  1  0.471119  0.001691  0.250752  1
  Tm  Tm2  1  0.502001  0.501181  0.500142  1
  Tm  Tm3  1  0.497999  0.498819  0.000142  1
  Sc  Sc4  1  0.000085  0.473850  0.749048  1
  Sc  Sc5  1  0.999915  0.526150  0.249048  1
  Au  Au6  1  0.999817  0.999808  0.499992  1
  Au  Au7  1  0.000183  0.000192  0.999992  1
  O  O8  1  0.651088  0.365776  0.750106  1
  O  O9  1  0.348912  0.634224  0.250106  1
  O  O10  1  0.922649  0.094359  0.750004  1
  O  O11  1  0.077351  0.905641  0.250004  1
  O  O12  1  0.926294  0.662207  0.525506  1
  O  O13  1  0.073706  0.337793  0.025506  1
  O  O14  1  0.338297  0.095990  0.976942  1
  O  O15  1  0.661703  0.904010  0.476942  1
  O  O16  1  0.354391  0.627745  0.749814  1
  O  O17  1  0.645609  0.372255  0.249814  1
  O  O18  1  0.927863  0.663262  0.973365  1
  O  O19  1  0.072137  0.336738  0.473365  1
  O  O20  1  0.337581  0.095236  0.524330  1
  O  O21  1  0.662419  0.904764  0.024330  1
