# generated using pymatgen
data_TaNb5(V3Ga5)2
_symmetry_space_group_name_H-M   'P 1'
_cell_length_a   8.73152824
_cell_length_b   8.72458775
_cell_length_c   5.25339700
_cell_angle_alpha   90.00000000
_cell_angle_beta   90.00000000
_cell_angle_gamma   119.96518693
_symmetry_Int_Tables_number   1
_chemical_formula_structural   TaNb5(V3Ga5)2
_chemical_formula_sum   'Ta1 Nb5 V6 Ga10'
_cell_volume   346.70353916
_cell_formula_units_Z   1
loop_
 _symmetry_equiv_pos_site_id
 _symmetry_equiv_pos_as_xyz
  1  'x, y, z'
loop_
 _atom_site_type_symbol
 _atom_site_label
 _atom_site_symmetry_multiplicity
 _atom_site_fract_x
 _atom_site_fract_y
 _atom_site_fract_z
 _atom_site_occupancy
  Ta  Ta0  1  0.691553  0.845781  0.250000  1
  Nb  Nb1  1  0.845864  0.153338  0.750000  1
  Nb  Nb2  1  0.154007  0.846142  0.250000  1
  Nb  Nb3  1  0.845863  0.692521  0.750000  1
  Nb  Nb4  1  0.307502  0.153755  0.750000  1
  Nb  Nb5  1  0.154011  0.307869  0.250000  1
  V  V6  1  0.500297  0.999712  0.000364  1
  V  V7  1  0.999976  0.499988  0.000038  1
  V  V8  1  0.500297  0.999712  0.499636  1
  V  V9  1  0.500294  0.500581  0.000363  1
  V  V10  1  0.999976  0.499988  0.499962  1
  V  V11  1  0.500294  0.500581  0.499637  1
  Ga  Ga12  1  0.000112  0.000058  0.000119  1
  Ga  Ga13  1  0.786548  0.213470  0.250000  1
  Ga  Ga14  1  0.213551  0.426944  0.750000  1
  Ga  Ga15  1  0.572907  0.786458  0.750000  1
  Ga  Ga16  1  0.786554  0.573071  0.250000  1
  Ga  Ga17  1  0.000112  0.000058  0.499881  1
  Ga  Ga18  1  0.426916  0.213454  0.250000  1
  Ga  Ga19  1  0.213557  0.786615  0.750000  1
  Ga  Ga20  1  0.666596  0.333297  0.750000  1
  Ga  Ga21  1  0.333215  0.666603  0.250000  1
