# generated using pymatgen
data_Zr10ZnSn4GeSb2
_symmetry_space_group_name_H-M   'P 1'
_cell_length_a   8.70543843
_cell_length_b   8.70543768
_cell_length_c   5.88985535
_cell_angle_alpha   90.01985797
_cell_angle_beta   90.01985269
_cell_angle_gamma   120.02876990
_symmetry_Int_Tables_number   1
_chemical_formula_structural   Zr10ZnSn4GeSb2
_chemical_formula_sum   'Zr10 Zn1 Sn4 Ge1 Sb2'
_cell_volume   386.44744380
_cell_formula_units_Z   1
loop_
 _symmetry_equiv_pos_site_id
 _symmetry_equiv_pos_as_xyz
  1  'x, y, z'
loop_
 _atom_site_type_symbol
 _atom_site_label
 _atom_site_symmetry_multiplicity
 _atom_site_fract_x
 _atom_site_fract_y
 _atom_site_fract_z
 _atom_site_occupancy
  Zr  Zr0  1  0.666871  0.332478  0.999091  1
  Zr  Zr1  1  0.332478  0.666871  0.999091  1
  Zr  Zr2  1  0.332501  0.666803  0.500821  1
  Zr  Zr3  1  0.666803  0.332501  0.500821  1
  Zr  Zr4  1  0.734591  0.734591  0.749810  1
  Zr  Zr5  1  0.266127  0.000090  0.750383  1
  Zr  Zr6  1  0.000090  0.266127  0.750383  1
  Zr  Zr7  1  0.263568  0.263568  0.250203  1
  Zr  Zr8  1  0.735774  0.000523  0.250235  1
  Zr  Zr9  1  0.000523  0.735774  0.250235  1
  Zn  Zn10  1  0.999276  0.999276  0.997649  1
  Sn  Sn11  1  0.390064  0.390064  0.751941  1
  Sn  Sn12  1  0.611451  0.999222  0.751759  1
  Sn  Sn13  1  0.999222  0.611451  0.751759  1
  Sn  Sn14  1  0.609792  0.609792  0.248260  1
  Ge  Ge15  1  0.999680  0.999680  0.502142  1
  Sb  Sb16  1  0.391130  0.000060  0.247709  1
  Sb  Sb17  1  0.000060  0.391130  0.247709  1
