# generated using pymatgen
data_AlH4F7
_symmetry_space_group_name_H-M   'P 1'
_cell_length_a   3.65140240
_cell_length_b   3.64584375
_cell_length_c   10.28214685
_cell_angle_alpha   70.46965905
_cell_angle_beta   89.74166867
_cell_angle_gamma   89.68281550
_symmetry_Int_Tables_number   1
_chemical_formula_structural   AlH4F7
_chemical_formula_sum   'Al1 H4 F7'
_cell_volume   129.00252551
_cell_formula_units_Z   1
loop_
 _symmetry_equiv_pos_site_id
 _symmetry_equiv_pos_as_xyz
  1  'x, y, z'
loop_
 _atom_site_type_symbol
 _atom_site_label
 _atom_site_symmetry_multiplicity
 _atom_site_fract_x
 _atom_site_fract_y
 _atom_site_fract_z
 _atom_site_occupancy
  Al  Al0  1  0.189894  0.033509  0.967203  1
  H  H1  1  0.707460  0.792473  0.390009  1
  H  H2  1  0.021981  0.951037  0.233023  1
  H  H3  1  0.044212  0.126781  0.694828  1
  H  H4  1  0.725473  0.303500  0.539592  1
  F  F5  1  0.899125  0.047352  0.612350  1
  F  F6  1  0.689627  0.032954  0.968115  1
  F  F7  1  0.200751  0.216281  0.779396  1
  F  F8  1  0.187169  0.532804  0.968173  1
  F  F9  1  0.194180  0.851604  0.156124  1
  F  F10  1  0.856990  0.045817  0.310941  1
  F  F11  1  0.547004  0.543839  0.469289  1
