# generated using pymatgen
data_Nd6Ho10Cd4IrOs3
_symmetry_space_group_name_H-M   'P 1'
_cell_length_a   9.68901197
_cell_length_b   9.75719660
_cell_length_c   9.75719700
_cell_angle_alpha   59.99999526
_cell_angle_beta   59.76692839
_cell_angle_gamma   59.76692795
_symmetry_Int_Tables_number   1
_chemical_formula_structural   Nd6Ho10Cd4IrOs3
_chemical_formula_sum   'Nd6 Ho10 Cd4 Ir1 Os3'
_cell_volume   649.94352943
_cell_formula_units_Z   1
loop_
 _symmetry_equiv_pos_site_id
 _symmetry_equiv_pos_as_xyz
  1  'x, y, z'
loop_
 _atom_site_type_symbol
 _atom_site_label
 _atom_site_symmetry_multiplicity
 _atom_site_fract_x
 _atom_site_fract_y
 _atom_site_fract_z
 _atom_site_occupancy
  Nd  Nd0  1  0.940084  0.558636  0.558636  1
  Nd  Nd1  1  0.556850  0.941172  0.941172  1
  Nd  Nd2  1  0.556850  0.941172  0.560806  1
  Nd  Nd3  1  0.940084  0.558636  0.942643  1
  Nd  Nd4  1  0.556850  0.560806  0.941172  1
  Nd  Nd5  1  0.940084  0.942643  0.558636  1
  Ho  Ho6  1  0.344337  0.344522  0.344522  1
  Ho  Ho7  1  0.344337  0.344522  0.966618  1
  Ho  Ho8  1  0.344337  0.966618  0.344522  1
  Ho  Ho9  1  0.971506  0.342832  0.342832  1
  Ho  Ho10  1  0.813063  0.187698  0.187698  1
  Ho  Ho11  1  0.186365  0.813047  0.813047  1
  Ho  Ho12  1  0.186365  0.813047  0.187540  1
  Ho  Ho13  1  0.813063  0.187698  0.811542  1
  Ho  Ho14  1  0.186365  0.187540  0.813047  1
  Ho  Ho15  1  0.813063  0.811542  0.187698  1
  Cd  Cd16  1  0.578708  0.578894  0.578894  1
  Cd  Cd17  1  0.578708  0.578894  0.263502  1
  Cd  Cd18  1  0.578708  0.263502  0.578894  1
  Cd  Cd19  1  0.261072  0.579642  0.579642  1
  Ir  Ir20  1  0.582373  0.139209  0.139209  1
  Os  Os21  1  0.142273  0.137762  0.137762  1
  Os  Os22  1  0.142273  0.137762  0.582202  1
  Os  Os23  1  0.142273  0.582202  0.137762  1
