# generated using pymatgen
data_Tb2Er5(LuBi2)3
_symmetry_space_group_name_H-M   'P 1'
_cell_length_a   8.19198200
_cell_length_b   9.44595100
_cell_length_c   11.95186800
_cell_angle_alpha   90.00075479
_cell_angle_beta   90.00000000
_cell_angle_gamma   90.00000000
_symmetry_Int_Tables_number   1
_chemical_formula_structural   Tb2Er5(LuBi2)3
_chemical_formula_sum   'Tb4 Er10 Lu6 Bi12'
_cell_volume   924.84822153
_cell_formula_units_Z   2
loop_
 _symmetry_equiv_pos_site_id
 _symmetry_equiv_pos_as_xyz
  1  'x, y, z'
loop_
 _atom_site_type_symbol
 _atom_site_label
 _atom_site_symmetry_multiplicity
 _atom_site_fract_x
 _atom_site_fract_y
 _atom_site_fract_z
 _atom_site_occupancy
  Tb  Tb0  1  0.313455  0.249975  0.218263  1
  Tb  Tb1  1  0.813455  0.250025  0.281737  1
  Tb  Tb2  1  0.686455  0.750174  0.781851  1
  Tb  Tb3  1  0.186455  0.749826  0.718149  1
  Er  Er4  1  0.352659  0.749841  0.217527  1
  Er  Er5  1  0.852659  0.750159  0.282473  1
  Er  Er6  1  0.647112  0.250108  0.782509  1
  Er  Er7  1  0.147112  0.249892  0.717491  1
  Er  Er8  1  0.692438  0.565604  0.059538  1
  Er  Er9  1  0.192438  0.934396  0.440462  1
  Er  Er10  1  0.307489  0.065340  0.940427  1
  Er  Er11  1  0.807489  0.434660  0.559573  1
  Er  Er12  1  0.307749  0.434625  0.940567  1
  Er  Er13  1  0.807749  0.065375  0.559433  1
  Lu  Lu14  1  0.692672  0.933390  0.059631  1
  Lu  Lu15  1  0.192672  0.566610  0.440369  1
  Lu  Lu16  1  0.476274  0.250138  0.488734  1
  Lu  Lu17  1  0.976274  0.249862  0.011266  1
  Lu  Lu18  1  0.523014  0.749737  0.511080  1
  Lu  Lu19  1  0.023014  0.750263  0.988920  1
  Bi  Bi20  1  0.404209  0.750340  0.959350  1
  Bi  Bi21  1  0.904209  0.749660  0.540650  1
  Bi  Bi22  1  0.596297  0.248801  0.040980  1
  Bi  Bi23  1  0.096297  0.251199  0.459020  1
  Bi  Bi24  1  0.565701  0.994624  0.326778  1
  Bi  Bi25  1  0.065701  0.505376  0.173222  1
  Bi  Bi26  1  0.434511  0.494563  0.673100  1
  Bi  Bi27  1  0.934511  0.005437  0.826900  1
  Bi  Bi28  1  0.434429  0.005286  0.673212  1
  Bi  Bi29  1  0.934429  0.494714  0.826788  1
  Bi  Bi30  1  0.565537  0.505358  0.326828  1
  Bi  Bi31  1  0.065537  0.994642  0.173172  1
