# generated using pymatgen
data_Tb8Ga(CuPd11)2
_symmetry_space_group_name_H-M   'P 1'
_cell_length_a   8.39060400
_cell_length_b   8.29743301
_cell_length_c   8.35195101
_cell_angle_alpha   90.00655910
_cell_angle_beta   90.00000000
_cell_angle_gamma   90.00000000
_symmetry_Int_Tables_number   1
_chemical_formula_structural   Tb8Ga(CuPd11)2
_chemical_formula_sum   'Tb8 Ga1 Cu2 Pd22'
_cell_volume   581.46678988
_cell_formula_units_Z   1
loop_
 _symmetry_equiv_pos_site_id
 _symmetry_equiv_pos_as_xyz
  1  'x, y, z'
loop_
 _atom_site_type_symbol
 _atom_site_label
 _atom_site_symmetry_multiplicity
 _atom_site_fract_x
 _atom_site_fract_y
 _atom_site_fract_z
 _atom_site_occupancy
  Tb  Tb0  1  0.253319  0.249810  0.744560  1
  Tb  Tb1  1  0.251619  0.747671  0.251106  1
  Tb  Tb2  1  0.751396  0.252283  0.255739  1
  Tb  Tb3  1  0.743779  0.750250  0.749163  1
  Tb  Tb4  1  0.748381  0.747671  0.251106  1
  Tb  Tb5  1  0.746681  0.249810  0.744560  1
  Tb  Tb6  1  0.256221  0.750250  0.749163  1
  Tb  Tb7  1  0.248604  0.252283  0.255739  1
  Ga  Ga8  1  0.000000  0.996846  0.003051  1
  Cu  Cu9  1  0.000000  0.500190  0.733745  1
  Cu  Cu10  1  0.500000  0.263730  0.001095  1
  Pd  Pd11  1  0.500000  0.496015  0.749196  1
  Pd  Pd12  1  0.500000  0.253666  0.499088  1
  Pd  Pd13  1  0.252657  0.500830  0.503929  1
  Pd  Pd14  1  0.500000  0.495807  0.250916  1
  Pd  Pd15  1  0.500000  0.745757  0.499139  1
  Pd  Pd16  1  0.747343  0.500830  0.503929  1
  Pd  Pd17  1  0.000000  0.999017  0.710789  1
  Pd  Pd18  1  0.000000  0.294715  0.989330  1
  Pd  Pd19  1  0.293600  0.010545  0.000915  1
  Pd  Pd20  1  0.000000  0.998973  0.295056  1
  Pd  Pd21  1  0.000000  0.699530  0.988668  1
  Pd  Pd22  1  0.706400  0.010545  0.000915  1
  Pd  Pd23  1  0.260790  0.998697  0.500030  1
  Pd  Pd24  1  0.000000  0.263952  0.506122  1
  Pd  Pd25  1  0.500000  0.002632  0.740768  1
  Pd  Pd26  1  0.265781  0.493870  0.998173  1
  Pd  Pd27  1  0.000000  0.500283  0.258062  1
  Pd  Pd28  1  0.500000  0.742891  0.001412  1
  Pd  Pd29  1  0.000000  0.735489  0.506399  1
  Pd  Pd30  1  0.500000  0.002594  0.259936  1
  Pd  Pd31  1  0.739210  0.998697  0.500030  1
  Pd  Pd32  1  0.734219  0.493870  0.998173  1
