# generated using pymatgen
data_Ti12AlTc6Ir5
_symmetry_space_group_name_H-M   'P 1'
_cell_length_a   4.38895600
_cell_length_b   6.21861400
_cell_length_c   13.19401000
_cell_angle_alpha   90.00000000
_cell_angle_beta   89.99869589
_cell_angle_gamma   90.00000000
_symmetry_Int_Tables_number   1
_chemical_formula_structural   Ti12AlTc6Ir5
_chemical_formula_sum   'Ti12 Al1 Tc6 Ir5'
_cell_volume   360.10706014
_cell_formula_units_Z   1
loop_
 _symmetry_equiv_pos_site_id
 _symmetry_equiv_pos_as_xyz
  1  'x, y, z'
loop_
 _atom_site_type_symbol
 _atom_site_label
 _atom_site_symmetry_multiplicity
 _atom_site_fract_x
 _atom_site_fract_y
 _atom_site_fract_z
 _atom_site_occupancy
  Ti  Ti0  1  0.500000  0.246234  0.000000  1
  Ti  Ti1  1  0.500000  0.753767  0.000000  1
  Ti  Ti2  1  0.000081  0.248245  0.168291  1
  Ti  Ti3  1  0.000081  0.751755  0.168291  1
  Ti  Ti4  1  0.500077  0.249774  0.333723  1
  Ti  Ti5  1  0.500077  0.750227  0.333723  1
  Ti  Ti6  1  0.000000  0.250754  0.500000  1
  Ti  Ti7  1  0.000000  0.749245  0.500000  1
  Ti  Ti8  1  0.499922  0.249774  0.666277  1
  Ti  Ti9  1  0.499922  0.750227  0.666277  1
  Ti  Ti10  1  0.999919  0.248245  0.831708  1
  Ti  Ti11  1  0.999919  0.751755  0.831708  1
  Al  Al12  1  0.000000  0.500000  0.000000  1
  Tc  Tc13  1  0.000000  0.000000  0.000000  1
  Tc  Tc14  1  0.500093  0.500000  0.164241  1
  Tc  Tc15  1  0.000080  0.000000  0.333484  1
  Tc  Tc16  1  0.500000  0.500000  0.500000  1
  Tc  Tc17  1  0.999920  0.000000  0.666515  1
  Tc  Tc18  1  0.499907  0.500000  0.835758  1
  Ir  Ir19  1  0.500069  0.000000  0.167574  1
  Ir  Ir20  1  0.000068  0.500000  0.333499  1
  Ir  Ir21  1  0.500000  0.000000  0.500000  1
  Ir  Ir22  1  0.999931  0.500000  0.666502  1
  Ir  Ir23  1  0.499931  0.000000  0.832426  1
