# generated using pymatgen
data_K2Pa4Se4O19
_symmetry_space_group_name_H-M   'P 1'
_cell_length_a   4.22910538
_cell_length_b   11.17590510
_cell_length_c   12.00299100
_cell_angle_alpha   107.21160804
_cell_angle_beta   90.52919111
_cell_angle_gamma   96.38530428
_symmetry_Int_Tables_number   1
_chemical_formula_structural   K2Pa4Se4O19
_chemical_formula_sum   'K2 Pa4 Se4 O19'
_cell_volume   538.01257630
_cell_formula_units_Z   1
loop_
 _symmetry_equiv_pos_site_id
 _symmetry_equiv_pos_as_xyz
  1  'x, y, z'
loop_
 _atom_site_type_symbol
 _atom_site_label
 _atom_site_symmetry_multiplicity
 _atom_site_fract_x
 _atom_site_fract_y
 _atom_site_fract_z
 _atom_site_occupancy
  K  K0  1  0.794588  0.940967  0.857337  1
  K  K1  1  0.205412  0.059033  0.142663  1
  Pa  Pa2  1  0.391546  0.183786  0.702124  1
  Pa  Pa3  1  0.608454  0.816214  0.297876  1
  Pa  Pa4  1  0.523830  0.557805  0.684578  1
  Pa  Pa5  1  0.476170  0.442195  0.315422  1
  Se  Se6  1  0.337764  0.827312  0.586428  1
  Se  Se7  1  0.662236  0.172688  0.413572  1
  Se  Se8  1  0.299543  0.721837  0.985205  1
  Se  Se9  1  0.700457  0.278163  0.014795  1
  O  O10  1  0.616406  0.872130  0.497004  1
  O  O11  1  0.383594  0.127870  0.502996  1
  O  O12  1  0.311289  0.970488  0.692057  1
  O  O13  1  0.688711  0.029512  0.307943  1
  O  O14  1  0.575100  0.760973  0.663724  1
  O  O15  1  0.424900  0.239027  0.336276  1
  O  O16  1  0.562695  0.657302  0.878520  1
  O  O17  1  0.437305  0.342698  0.121480  1
  O  O18  1  0.578926  0.776395  0.105766  1
  O  O19  1  0.421074  0.223605  0.894234  1
  O  O20  1  0.251556  0.857739  0.958186  1
  O  O21  1  0.748444  0.142261  0.041814  1
  O  O22  1  0.887164  0.175809  0.703906  1
  O  O23  1  0.112836  0.824191  0.296094  1
  O  O24  1  0.462206  0.370766  0.704463  1
  O  O25  1  0.537794  0.629234  0.295537  1
  O  O26  1  0.500000  0.500000  0.500000  1
  O  O27  1  0.029858  0.569772  0.691752  1
  O  O28  1  0.970142  0.430228  0.308248  1
