# generated using pymatgen
data_Nd2HoErIn4
_symmetry_space_group_name_H-M   'P 1'
_cell_length_a   6.66692183
_cell_length_b   6.66692283
_cell_length_c   9.99923200
_cell_angle_alpha   90.00000000
_cell_angle_beta   90.00000000
_cell_angle_gamma   97.18668035
_symmetry_Int_Tables_number   1
_chemical_formula_structural   Nd2HoErIn4
_chemical_formula_sum   'Nd4 Ho2 Er2 In8'
_cell_volume   440.95275822
_cell_formula_units_Z   2
loop_
 _symmetry_equiv_pos_site_id
 _symmetry_equiv_pos_as_xyz
  1  'x, y, z'
loop_
 _atom_site_type_symbol
 _atom_site_label
 _atom_site_symmetry_multiplicity
 _atom_site_fract_x
 _atom_site_fract_y
 _atom_site_fract_z
 _atom_site_occupancy
  Nd  Nd0  1  0.249038  0.750962  0.500000  1
  Nd  Nd1  1  0.249038  0.750962  0.000000  1
  Nd  Nd2  1  0.750962  0.249038  0.500000  1
  Nd  Nd3  1  0.750962  0.249038  0.000000  1
  Ho  Ho4  1  0.973074  0.973073  0.250000  1
  Ho  Ho5  1  0.026927  0.026926  0.750000  1
  Er  Er6  1  0.531459  0.531459  0.250000  1
  Er  Er7  1  0.468541  0.468541  0.750000  1
  In  In8  1  0.251821  0.251821  0.022427  1
  In  In9  1  0.748179  0.748179  0.977573  1
  In  In10  1  0.251821  0.251821  0.477573  1
  In  In11  1  0.748179  0.748179  0.522427  1
  In  In12  1  0.479428  0.024123  0.250000  1
  In  In13  1  0.975877  0.520572  0.750000  1
  In  In14  1  0.520572  0.975877  0.750000  1
  In  In15  1  0.024123  0.479428  0.250000  1
