# generated using pymatgen
data_Lu6MnSi24Ru7
_symmetry_space_group_name_H-M   'P 1'
_cell_length_a   10.07104852
_cell_length_b   10.07104862
_cell_length_c   8.05950857
_cell_angle_alpha   90.01448032
_cell_angle_beta   90.01447455
_cell_angle_gamma   132.84542227
_symmetry_Int_Tables_number   1
_chemical_formula_structural   Lu6MnSi24Ru7
_chemical_formula_sum   'Lu6 Mn1 Si24 Ru7'
_cell_volume   599.34236590
_cell_formula_units_Z   1
loop_
 _symmetry_equiv_pos_site_id
 _symmetry_equiv_pos_as_xyz
  1  'x, y, z'
loop_
 _atom_site_type_symbol
 _atom_site_label
 _atom_site_symmetry_multiplicity
 _atom_site_fract_x
 _atom_site_fract_y
 _atom_site_fract_z
 _atom_site_occupancy
  Lu  Lu0  1  0.498278  0.997659  0.248413  1
  Lu  Lu1  1  0.003127  0.501685  0.751117  1
  Lu  Lu2  1  0.501685  0.003127  0.751117  1
  Lu  Lu3  1  0.997659  0.498278  0.248413  1
  Lu  Lu4  1  0.502005  0.502005  0.500848  1
  Lu  Lu5  1  0.999242  0.999242  0.997600  1
  Mn  Mn6  1  0.625258  0.625258  0.873754  1
  Si  Si7  1  0.387256  0.154248  0.004564  1
  Si  Si8  1  0.654297  0.887469  0.494273  1
  Si  Si9  1  0.112703  0.345449  0.506234  1
  Si  Si10  1  0.842023  0.614657  0.989342  1
  Si  Si11  1  0.614657  0.842023  0.989342  1
  Si  Si12  1  0.345449  0.112703  0.506234  1
  Si  Si13  1  0.887469  0.654297  0.494273  1
  Si  Si14  1  0.154248  0.387256  0.004564  1
  Si  Si15  1  0.612443  0.378137  0.229081  1
  Si  Si16  1  0.876909  0.110403  0.270958  1
  Si  Si17  1  0.888963  0.122567  0.729082  1
  Si  Si18  1  0.624411  0.396232  0.772295  1
  Si  Si19  1  0.396232  0.624411  0.772295  1
  Si  Si20  1  0.122567  0.888963  0.729082  1
  Si  Si21  1  0.704016  0.294963  0.000259  1
  Si  Si22  1  0.795263  0.204840  0.500024  1
  Si  Si23  1  0.294963  0.704016  0.000259  1
  Si  Si24  1  0.204840  0.795263  0.500024  1
  Si  Si25  1  0.167104  0.167104  0.333600  1
  Si  Si26  1  0.668353  0.668353  0.160974  1
  Si  Si27  1  0.338089  0.338089  0.832589  1
  Si  Si28  1  0.825146  0.825146  0.673965  1
  Si  Si29  1  0.378137  0.612443  0.229081  1
  Si  Si30  1  0.110403  0.876909  0.270958  1
  Ru  Ru31  1  0.125727  0.125727  0.629775  1
  Ru  Ru32  1  0.870930  0.870930  0.373448  1
  Ru  Ru33  1  0.373391  0.373391  0.127847  1
  Ru  Ru34  1  0.329652  0.670383  0.502313  1
  Ru  Ru35  1  0.168433  0.828284  0.999846  1
  Ru  Ru36  1  0.670383  0.329652  0.502313  1
  Ru  Ru37  1  0.828284  0.168433  0.999846  1
