# generated using pymatgen
data_Dy8CrOs3C8
_symmetry_space_group_name_H-M   'P 1'
_cell_length_a   5.09662300
_cell_length_b   6.48034687
_cell_length_c   9.77354705
_cell_angle_alpha   90.15511674
_cell_angle_beta   90.00000000
_cell_angle_gamma   90.00000000
_symmetry_Int_Tables_number   1
_chemical_formula_structural   Dy8CrOs3C8
_chemical_formula_sum   'Dy8 Cr1 Os3 C8'
_cell_volume   322.79840432
_cell_formula_units_Z   1
loop_
 _symmetry_equiv_pos_site_id
 _symmetry_equiv_pos_as_xyz
  1  'x, y, z'
loop_
 _atom_site_type_symbol
 _atom_site_label
 _atom_site_symmetry_multiplicity
 _atom_site_fract_x
 _atom_site_fract_y
 _atom_site_fract_z
 _atom_site_occupancy
  Dy  Dy0  1  0.250000  0.684847  0.556513  1
  Dy  Dy1  1  0.750000  0.319013  0.446592  1
  Dy  Dy2  1  0.750000  0.816806  0.052100  1
  Dy  Dy3  1  0.250000  0.179525  0.945879  1
  Dy  Dy4  1  0.250000  0.527991  0.213142  1
  Dy  Dy5  1  0.750000  0.472922  0.782129  1
  Dy  Dy6  1  0.750000  0.975529  0.717174  1
  Dy  Dy7  1  0.250000  0.028006  0.286041  1
  Cr  Cr8  1  0.250000  0.728107  0.862003  1
  Os  Os9  1  0.750000  0.275331  0.135645  1
  Os  Os10  1  0.750000  0.776277  0.364131  1
  Os  Os11  1  0.250000  0.227773  0.638392  1
  C  C12  1  0.250000  0.466992  0.763993  1
  C  C13  1  0.750000  0.540305  0.241655  1
  C  C14  1  0.750000  0.039518  0.257531  1
  C  C15  1  0.250000  0.956443  0.743873  1
  C  C16  1  0.250000  0.813508  0.041945  1
  C  C17  1  0.750000  0.174655  0.949346  1
  C  C18  1  0.750000  0.675438  0.551110  1
  C  C19  1  0.250000  0.321015  0.450805  1
