# generated using pymatgen
data_Ho5GePtO12
_symmetry_space_group_name_H-M   'P 1'
_cell_length_a   6.82165076
_cell_length_b   6.82164972
_cell_length_c   7.21149916
_cell_angle_alpha   74.58680995
_cell_angle_beta   74.58681602
_cell_angle_gamma   50.93248631
_symmetry_Int_Tables_number   1
_chemical_formula_structural   Ho5GePtO12
_chemical_formula_sum   'Ho5 Ge1 Pt1 O12'
_cell_volume   249.00520979
_cell_formula_units_Z   1
loop_
 _symmetry_equiv_pos_site_id
 _symmetry_equiv_pos_as_xyz
  1  'x, y, z'
loop_
 _atom_site_type_symbol
 _atom_site_label
 _atom_site_symmetry_multiplicity
 _atom_site_fract_x
 _atom_site_fract_y
 _atom_site_fract_z
 _atom_site_occupancy
  Ho  Ho0  1  0.306237  0.295692  0.360802  1
  Ho  Ho1  1  0.704308  0.693763  0.639198  1
  Ho  Ho2  1  0.303965  0.308458  0.831744  1
  Ho  Ho3  1  0.691542  0.696035  0.168256  1
  Ho  Ho4  1  0.001119  0.998881  0.500000  1
  Ge  Ge5  1  0.753181  0.246819  0.000000  1
  Pt  Pt6  1  0.244877  0.755123  0.000000  1
  O  O7  1  0.897980  0.423368  0.917935  1
  O  O8  1  0.429376  0.905631  0.915751  1
  O  O9  1  0.094369  0.570624  0.084249  1
  O  O10  1  0.576632  0.102020  0.082065  1
  O  O11  1  0.099856  0.596566  0.573765  1
  O  O12  1  0.599577  0.094601  0.574334  1
  O  O13  1  0.905399  0.400423  0.425666  1
  O  O14  1  0.403434  0.900144  0.426235  1
  O  O15  1  0.987725  0.011960  0.818218  1
  O  O16  1  0.988040  0.012275  0.181782  1
  O  O17  1  0.506072  0.493691  0.815788  1
  O  O18  1  0.506309  0.493928  0.184212  1
