# generated using pymatgen
data_Sm2YHo(B6Os)2
_symmetry_space_group_name_H-M   'P 1'
_cell_length_a   3.68373600
_cell_length_b   9.20645728
_cell_length_c   11.61516222
_cell_angle_alpha   90.02515574
_cell_angle_beta   90.00000000
_cell_angle_gamma   90.00000000
_symmetry_Int_Tables_number   1
_chemical_formula_structural   Sm2YHo(B6Os)2
_chemical_formula_sum   'Sm4 Y2 Ho2 B24 Os4'
_cell_volume   393.91840992
_cell_formula_units_Z   2
loop_
 _symmetry_equiv_pos_site_id
 _symmetry_equiv_pos_as_xyz
  1  'x, y, z'
loop_
 _atom_site_type_symbol
 _atom_site_label
 _atom_site_symmetry_multiplicity
 _atom_site_fract_x
 _atom_site_fract_y
 _atom_site_fract_z
 _atom_site_occupancy
  Sm  Sm0  1  0.000000  0.322856  0.413840  1
  Sm  Sm1  1  0.000000  0.677144  0.586160  1
  Sm  Sm2  1  0.000000  0.822479  0.086008  1
  Sm  Sm3  1  0.000000  0.177521  0.913992  1
  Y  Y4  1  0.000000  0.944136  0.372697  1
  Y  Y5  1  0.000000  0.055864  0.627303  1
  Ho  Ho6  1  0.000000  0.444126  0.127250  1
  Ho  Ho7  1  0.000000  0.555874  0.872750  1
  B  B8  1  0.500000  0.554957  0.431495  1
  B  B9  1  0.500000  0.445043  0.568505  1
  B  B10  1  0.500000  0.055220  0.068303  1
  B  B11  1  0.500000  0.944780  0.931697  1
  B  B12  1  0.500000  0.748110  0.418454  1
  B  B13  1  0.500000  0.251890  0.581546  1
  B  B14  1  0.500000  0.248905  0.081428  1
  B  B15  1  0.500000  0.751095  0.918572  1
  B  B16  1  0.500000  0.790178  0.266710  1
  B  B17  1  0.500000  0.209822  0.733290  1
  B  B18  1  0.500000  0.290902  0.232871  1
  B  B19  1  0.500000  0.709098  0.767129  1
  B  B20  1  0.500000  0.631019  0.185338  1
  B  B21  1  0.500000  0.368981  0.814662  1
  B  B22  1  0.500000  0.131773  0.314207  1
  B  B23  1  0.500000  0.868227  0.685793  1
  B  B24  1  0.500000  0.985033  0.213316  1
  B  B25  1  0.500000  0.014967  0.786684  1
  B  B26  1  0.500000  0.484618  0.286123  1
  B  B27  1  0.500000  0.515382  0.713877  1
  B  B28  1  0.500000  0.604983  0.028960  1
  B  B29  1  0.500000  0.395017  0.971040  1
  B  B30  1  0.500000  0.106375  0.470704  1
  B  B31  1  0.500000  0.893624  0.529296  1
  Os  Os32  1  0.000000  0.637891  0.320228  1
  Os  Os33  1  0.000000  0.362109  0.679772  1
  Os  Os34  1  0.000000  0.138847  0.179259  1
  Os  Os35  1  0.000000  0.861153  0.820741  1
