# generated using pymatgen
data_TmLuFe3Co9P7
_symmetry_space_group_name_H-M   'P 1'
_cell_length_a   3.59538600
_cell_length_b   8.96191657
_cell_length_c   8.96137603
_cell_angle_alpha   119.99655221
_cell_angle_beta   90.00000000
_cell_angle_gamma   90.00000000
_symmetry_Int_Tables_number   1
_chemical_formula_structural   TmLuFe3Co9P7
_chemical_formula_sum   'Tm1 Lu1 Fe3 Co9 P7'
_cell_volume   250.07302074
_cell_formula_units_Z   1
loop_
 _symmetry_equiv_pos_site_id
 _symmetry_equiv_pos_as_xyz
  1  'x, y, z'
loop_
 _atom_site_type_symbol
 _atom_site_label
 _atom_site_symmetry_multiplicity
 _atom_site_fract_x
 _atom_site_fract_y
 _atom_site_fract_z
 _atom_site_occupancy
  Tm  Tm0  1  0.000000  0.666737  0.333346  1
  Lu  Lu1  1  0.500000  0.333276  0.666720  1
  Fe  Fe2  1  0.500000  0.124272  0.906376  1
  Fe  Fe3  1  0.500000  0.093569  0.217728  1
  Fe  Fe4  1  0.500000  0.781979  0.875667  1
  Co  Co5  1  0.000000  0.370659  0.938502  1
  Co  Co6  1  0.000000  0.061493  0.432079  1
  Co  Co7  1  0.000000  0.567910  0.629359  1
  Co  Co8  1  0.000000  0.882916  0.724643  1
  Co  Co9  1  0.000000  0.275532  0.158481  1
  Co  Co10  1  0.000000  0.841475  0.116968  1
  Co  Co11  1  0.500000  0.950455  0.564659  1
  Co  Co12  1  0.500000  0.435378  0.385803  1
  Co  Co13  1  0.500000  0.614194  0.049581  1
  P  P14  1  0.000000  0.114775  0.703158  1
  P  P15  1  0.000000  0.296908  0.411653  1
  P  P16  1  0.000000  0.588331  0.885288  1
  P  P17  1  0.500000  0.710768  0.596807  1
  P  P18  1  0.500000  0.403354  0.114020  1
  P  P19  1  0.500000  0.886074  0.289287  1
  P  P20  1  0.000000  0.999944  0.999880  1
