# generated using pymatgen
data_Y5Si3O
_symmetry_space_group_name_H-M   'P 1'
_cell_length_a   8.42340200
_cell_length_b   8.42340153
_cell_length_c   6.23798600
_cell_angle_alpha   90.00000000
_cell_angle_beta   90.00000000
_cell_angle_gamma   120.00000969
_symmetry_Int_Tables_number   1
_chemical_formula_structural   Y5Si3O
_chemical_formula_sum   'Y10 Si6 O2'
_cell_volume   383.30988209
_cell_formula_units_Z   2
loop_
 _symmetry_equiv_pos_site_id
 _symmetry_equiv_pos_as_xyz
  1  'x, y, z'
loop_
 _atom_site_type_symbol
 _atom_site_label
 _atom_site_symmetry_multiplicity
 _atom_site_fract_x
 _atom_site_fract_y
 _atom_site_fract_z
 _atom_site_occupancy
  Y  Y0  1  0.232009  0.000000  0.750000  1
  Y  Y1  1  0.767991  0.000000  0.250000  1
  Y  Y2  1  0.000000  0.232009  0.750000  1
  Y  Y3  1  0.000000  0.767991  0.250000  1
  Y  Y4  1  0.767991  0.767991  0.750000  1
  Y  Y5  1  0.232009  0.232009  0.250000  1
  Y  Y6  1  0.333333  0.666667  0.500000  1
  Y  Y7  1  0.666667  0.333333  0.500000  1
  Y  Y8  1  0.666667  0.333333  0.000000  1
  Y  Y9  1  0.333333  0.666667  0.000000  1
  Si  Si10  1  0.601332  0.000000  0.750000  1
  Si  Si11  1  0.398668  0.000000  0.250000  1
  Si  Si12  1  0.000000  0.601332  0.750000  1
  Si  Si13  1  0.000000  0.398668  0.250000  1
  Si  Si14  1  0.398668  0.398668  0.750000  1
  Si  Si15  1  0.601332  0.601332  0.250000  1
  O  O16  1  0.000000  0.000000  0.500000  1
  O  O17  1  0.000000  0.000000  0.000000  1
