# generated using pymatgen
data_Dy4ZnAs5Rh7
_symmetry_space_group_name_H-M   'P 1'
_cell_length_a   7.28006912
_cell_length_b   7.28006951
_cell_length_c   7.28006785
_cell_angle_alpha   109.89312910
_cell_angle_beta   108.63065505
_cell_angle_gamma   109.89313057
_symmetry_Int_Tables_number   1
_chemical_formula_structural   Dy4ZnAs5Rh7
_chemical_formula_sum   'Dy4 Zn1 As5 Rh7'
_cell_volume   296.97137880
_cell_formula_units_Z   1
loop_
 _symmetry_equiv_pos_site_id
 _symmetry_equiv_pos_as_xyz
  1  'x, y, z'
loop_
 _atom_site_type_symbol
 _atom_site_label
 _atom_site_symmetry_multiplicity
 _atom_site_fract_x
 _atom_site_fract_y
 _atom_site_fract_z
 _atom_site_occupancy
  Dy  Dy0  1  0.487632  0.489453  0.487632  1
  Dy  Dy1  1  0.998179  0.510547  0.998179  1
  Dy  Dy2  1  0.487632  0.000000  0.998179  1
  Dy  Dy3  1  0.998179  0.000000  0.487632  1
  Zn  Zn4  1  0.697584  0.000000  0.697584  1
  As  As5  1  0.676172  0.684040  0.992132  1
  As  As6  1  0.308092  0.315960  0.992132  1
  As  As7  1  0.992132  0.684040  0.676172  1
  As  As8  1  0.992132  0.315960  0.308092  1
  As  As9  1  0.339495  0.000000  0.339495  1
  Rh  Rh10  1  0.502759  0.747701  0.250462  1
  Rh  Rh11  1  0.755058  0.252299  0.502759  1
  Rh  Rh12  1  0.250462  0.747701  0.502759  1
  Rh  Rh13  1  0.246321  0.500000  0.746321  1
  Rh  Rh14  1  0.019093  0.000000  0.019093  1
  Rh  Rh15  1  0.502759  0.252299  0.755058  1
  Rh  Rh16  1  0.746321  0.500000  0.246321  1
