# generated using pymatgen
data_Nd4Al18OsPd5
_symmetry_space_group_name_H-M   'P 1'
_cell_length_a   7.68427137
_cell_length_b   7.68427238
_cell_length_c   9.61819918
_cell_angle_alpha   90.06128919
_cell_angle_beta   90.06128349
_cell_angle_gamma   119.59130113
_symmetry_Int_Tables_number   1
_chemical_formula_structural   Nd4Al18OsPd5
_chemical_formula_sum   'Nd4 Al18 Os1 Pd5'
_cell_volume   493.85872782
_cell_formula_units_Z   1
loop_
 _symmetry_equiv_pos_site_id
 _symmetry_equiv_pos_as_xyz
  1  'x, y, z'
loop_
 _atom_site_type_symbol
 _atom_site_label
 _atom_site_symmetry_multiplicity
 _atom_site_fract_x
 _atom_site_fract_y
 _atom_site_fract_z
 _atom_site_occupancy
  Nd  Nd0  1  0.995600  0.669739  0.249762  1
  Nd  Nd1  1  0.006994  0.331568  0.750088  1
  Nd  Nd2  1  0.668432  0.993006  0.249912  1
  Nd  Nd3  1  0.330261  0.004400  0.750238  1
  Al  Al4  1  0.131116  0.133026  0.249079  1
  Al  Al5  1  0.866974  0.868884  0.750921  1
  Al  Al6  1  0.996751  0.333685  0.072177  1
  Al  Al7  1  0.993173  0.659742  0.927933  1
  Al  Al8  1  0.996004  0.665692  0.575375  1
  Al  Al9  1  0.334308  0.003996  0.424625  1
  Al  Al10  1  0.003486  0.334359  0.425600  1
  Al  Al11  1  0.665641  0.996514  0.574400  1
  Al  Al12  1  0.666315  0.003249  0.927823  1
  Al  Al13  1  0.340258  0.006827  0.072067  1
  Al  Al14  1  0.336181  0.336238  0.556761  1
  Al  Al15  1  0.663762  0.663819  0.443239  1
  Al  Al16  1  0.666108  0.660933  0.050126  1
  Al  Al17  1  0.339067  0.333892  0.949874  1
  Al  Al18  1  0.336920  0.543613  0.249136  1
  Al  Al19  1  0.660511  0.454565  0.754658  1
  Al  Al20  1  0.545435  0.339489  0.245342  1
  Al  Al21  1  0.456387  0.663080  0.750864  1
  Os  Os22  1  0.671198  0.328802  0.000000  1
  Pd  Pd23  1  0.328972  0.671028  0.000000  1
  Pd  Pd24  1  0.328419  0.671581  0.500000  1
  Pd  Pd25  1  0.671052  0.328948  0.500000  1
  Pd  Pd26  1  0.000632  0.999368  0.000000  1
  Pd  Pd27  1  0.000044  0.999956  0.500000  1
