# generated using pymatgen
data_Mn4Cr16Si(MoC3)2
_symmetry_space_group_name_H-M   'P 1'
_cell_length_a   7.49814471
_cell_length_b   7.49814331
_cell_length_c   7.49814400
_cell_angle_alpha   59.99999696
_cell_angle_beta   60.00000311
_cell_angle_gamma   59.99999592
_symmetry_Int_Tables_number   1
_chemical_formula_structural   Mn4Cr16Si(MoC3)2
_chemical_formula_sum   'Mn4 Cr16 Si1 Mo2 C6'
_cell_volume   298.08925394
_cell_formula_units_Z   1
loop_
 _symmetry_equiv_pos_site_id
 _symmetry_equiv_pos_as_xyz
  1  'x, y, z'
loop_
 _atom_site_type_symbol
 _atom_site_label
 _atom_site_symmetry_multiplicity
 _atom_site_fract_x
 _atom_site_fract_y
 _atom_site_fract_z
 _atom_site_occupancy
  Mn  Mn0  1  0.616908  0.616908  0.149274  1
  Mn  Mn1  1  0.616908  0.149274  0.616908  1
  Mn  Mn2  1  0.149274  0.616908  0.616908  1
  Mn  Mn3  1  0.616908  0.616908  0.616908  1
  Cr  Cr4  1  0.384738  0.384738  0.845788  1
  Cr  Cr5  1  0.384738  0.845788  0.384738  1
  Cr  Cr6  1  0.845788  0.384738  0.384738  1
  Cr  Cr7  1  0.384738  0.384738  0.384738  1
  Cr  Cr8  1  0.998976  0.998976  0.340683  1
  Cr  Cr9  1  0.661366  0.998976  0.340683  1
  Cr  Cr10  1  0.998976  0.661366  0.340683  1
  Cr  Cr11  1  0.661366  0.340683  0.998976  1
  Cr  Cr12  1  0.998976  0.340683  0.998976  1
  Cr  Cr13  1  0.998976  0.340683  0.661366  1
  Cr  Cr14  1  0.340683  0.661366  0.998976  1
  Cr  Cr15  1  0.340683  0.998976  0.661366  1
  Cr  Cr16  1  0.340683  0.998976  0.998976  1
  Cr  Cr17  1  0.998976  0.998976  0.661366  1
  Cr  Cr18  1  0.998976  0.661366  0.998976  1
  Cr  Cr19  1  0.661366  0.998976  0.998976  1
  Si  Si20  1  0.000000  0.000000  0.000000  1
  Mo  Mo21  1  0.750000  0.750000  0.750000  1
  Mo  Mo22  1  0.250000  0.250000  0.250000  1
  C  C23  1  0.720283  0.720283  0.279717  1
  C  C24  1  0.279717  0.720283  0.279717  1
  C  C25  1  0.720283  0.279717  0.279717  1
  C  C26  1  0.279717  0.279717  0.720283  1
  C  C27  1  0.720283  0.279717  0.720283  1
  C  C28  1  0.279717  0.720283  0.720283  1
