# generated using pymatgen
data_Ta4Ti16Si15As
_symmetry_space_group_name_H-M   'P 1'
_cell_length_a   6.72455338
_cell_length_b   6.72007995
_cell_length_c   12.29693859
_cell_angle_alpha   89.93952896
_cell_angle_beta   90.14505031
_cell_angle_gamma   90.00631128
_symmetry_Int_Tables_number   1
_chemical_formula_structural   Ta4Ti16Si15As
_chemical_formula_sum   'Ta4 Ti16 Si15 As1'
_cell_volume   555.69085972
_cell_formula_units_Z   1
loop_
 _symmetry_equiv_pos_site_id
 _symmetry_equiv_pos_as_xyz
  1  'x, y, z'
loop_
 _atom_site_type_symbol
 _atom_site_label
 _atom_site_symmetry_multiplicity
 _atom_site_fract_x
 _atom_site_fract_y
 _atom_site_fract_z
 _atom_site_occupancy
  Ta  Ta0  1  0.170508  0.169548  0.001145  1
  Ta  Ta1  1  0.329746  0.669933  0.250185  1
  Ta  Ta2  1  0.666650  0.329517  0.749773  1
  Ta  Ta3  1  0.830296  0.829774  0.499970  1
  Ti  Ti4  1  0.996187  0.149757  0.621152  1
  Ti  Ti5  1  0.349523  0.494912  0.871049  1
  Ti  Ti6  1  0.650186  0.505039  0.371418  1
  Ti  Ti7  1  0.495027  0.349767  0.128580  1
  Ti  Ti8  1  0.506086  0.651823  0.628698  1
  Ti  Ti9  1  0.005306  0.849525  0.121737  1
  Ti  Ti10  1  0.150042  0.994933  0.378454  1
  Ti  Ti11  1  0.848280  0.002889  0.879468  1
  Ti  Ti12  1  0.004293  0.343955  0.220041  1
  Ti  Ti13  1  0.156261  0.504093  0.470493  1
  Ti  Ti14  1  0.838679  0.499284  0.973483  1
  Ti  Ti15  1  0.506378  0.154533  0.528536  1
  Ti  Ti16  1  0.495556  0.842802  0.030091  1
  Ti  Ti17  1  0.995127  0.660306  0.719950  1
  Ti  Ti18  1  0.346070  0.001490  0.778763  1
  Ti  Ti19  1  0.656775  0.995379  0.280211  1
  Si  Si20  1  0.198160  0.545555  0.062416  1
  Si  Si21  1  0.801395  0.454344  0.562053  1
  Si  Si22  1  0.545055  0.197876  0.938283  1
  Si  Si23  1  0.454342  0.801333  0.437566  1
  Si  Si24  1  0.954586  0.698052  0.312348  1
  Si  Si25  1  0.302204  0.045149  0.188277  1
  Si  Si26  1  0.699256  0.954827  0.687611  1
  Si  Si27  1  0.298485  0.359467  0.665772  1
  Si  Si28  1  0.141165  0.793382  0.922236  1
  Si  Si29  1  0.859885  0.207222  0.421748  1
  Si  Si30  1  0.792544  0.140149  0.078736  1
  Si  Si31  1  0.207693  0.859653  0.577815  1
  Si  Si32  1  0.706979  0.640494  0.172011  1
  Si  Si33  1  0.359326  0.292762  0.328234  1
  Si  Si34  1  0.639462  0.707066  0.828527  1
  As  As35  1  0.042487  0.303407  0.813170  1
