# generated using pymatgen
data_Li3LuAs6Ir7
_symmetry_space_group_name_H-M   'P 1'
_cell_length_a   6.96548750
_cell_length_b   7.07712018
_cell_length_c   7.07711838
_cell_angle_alpha   109.78853158
_cell_angle_beta   109.15200243
_cell_angle_gamma   109.15201501
_symmetry_Int_Tables_number   1
_chemical_formula_structural   Li3LuAs6Ir7
_chemical_formula_sum   'Li3 Lu1 As6 Ir7'
_cell_volume   269.61152210
_cell_formula_units_Z   1
loop_
 _symmetry_equiv_pos_site_id
 _symmetry_equiv_pos_as_xyz
  1  'x, y, z'
loop_
 _atom_site_type_symbol
 _atom_site_label
 _atom_site_symmetry_multiplicity
 _atom_site_fract_x
 _atom_site_fract_y
 _atom_site_fract_z
 _atom_site_occupancy
  Li  Li0  1  0.000000  0.000000  0.500000  1
  Li  Li1  1  0.000000  0.500000  0.000000  1
  Li  Li2  1  0.500000  0.500000  0.500000  1
  Lu  Lu3  1  0.500000  0.000000  0.000000  1
  As  As4  1  0.694244  0.681109  0.000000  1
  As  As5  1  0.305756  0.318891  0.000000  1
  As  As6  1  0.986866  0.681109  0.681109  1
  As  As7  1  0.013134  0.318891  0.318891  1
  As  As8  1  0.694244  0.000000  0.681109  1
  As  As9  1  0.305756  0.000000  0.318891  1
  Ir  Ir10  1  0.000000  0.000000  0.000000  1
  Ir  Ir11  1  0.248643  0.497285  0.748643  1
  Ir  Ir12  1  0.751357  0.251357  0.502715  1
  Ir  Ir13  1  0.500000  0.251357  0.748643  1
  Ir  Ir14  1  0.500000  0.748643  0.251357  1
  Ir  Ir15  1  0.751357  0.502715  0.251357  1
  Ir  Ir16  1  0.248643  0.748643  0.497285  1
