# generated using pymatgen
data_Y6Ho9Er5Sn16
_symmetry_space_group_name_H-M   'P 1'
_cell_length_a   8.01808416
_cell_length_b   8.15778007
_cell_length_c   15.42514200
_cell_angle_alpha   90.01306362
_cell_angle_beta   90.01143331
_cell_angle_gamma   90.02630725
_symmetry_Int_Tables_number   1
_chemical_formula_structural   Y6Ho9Er5Sn16
_chemical_formula_sum   'Y6 Ho9 Er5 Sn16'
_cell_volume   1008.95479416
_cell_formula_units_Z   1
loop_
 _symmetry_equiv_pos_site_id
 _symmetry_equiv_pos_as_xyz
  1  'x, y, z'
loop_
 _atom_site_type_symbol
 _atom_site_label
 _atom_site_symmetry_multiplicity
 _atom_site_fract_x
 _atom_site_fract_y
 _atom_site_fract_z
 _atom_site_occupancy
  Y  Y0  1  0.480658  0.679256  0.403258  1
  Y  Y1  1  0.980518  0.820749  0.096814  1
  Y  Y2  1  0.480578  0.679208  0.096487  1
  Y  Y3  1  0.980462  0.821017  0.403157  1
  Y  Y4  1  0.518965  0.320805  0.596847  1
  Y  Y5  1  0.019046  0.179184  0.903183  1
  Ho  Ho6  1  0.865766  0.662829  0.622944  1
  Ho  Ho7  1  0.633359  0.162751  0.377377  1
  Ho  Ho8  1  0.133614  0.337373  0.122240  1
  Ho  Ho9  1  0.633582  0.162771  0.122447  1
  Ho  Ho10  1  0.133632  0.337146  0.377540  1
  Ho  Ho11  1  0.366475  0.837491  0.622893  1
  Ho  Ho12  1  0.866582  0.662156  0.877393  1
  Ho  Ho13  1  0.520301  0.320739  0.902702  1
  Ho  Ho14  1  0.020408  0.179064  0.597518  1
  Er  Er15  1  0.365794  0.837496  0.876992  1
  Er  Er16  1  0.197796  0.503369  0.750193  1
  Er  Er17  1  0.697680  0.996635  0.749916  1
  Er  Er18  1  0.802340  0.496553  0.250201  1
  Er  Er19  1  0.302239  0.003462  0.249904  1
  Sn  Sn20  1  0.294920  0.037715  0.041337  1
  Sn  Sn21  1  0.794862  0.461926  0.458422  1
  Sn  Sn22  1  0.706559  0.963334  0.541955  1
  Sn  Sn23  1  0.207186  0.537705  0.957976  1
  Sn  Sn24  1  0.704056  0.961729  0.958027  1
  Sn  Sn25  1  0.204308  0.537881  0.541898  1
  Sn  Sn26  1  0.294224  0.038102  0.458509  1
  Sn  Sn27  1  0.794149  0.461601  0.041510  1
  Sn  Sn28  1  0.563414  0.618832  0.750282  1
  Sn  Sn29  1  0.063653  0.881146  0.750255  1
  Sn  Sn30  1  0.436212  0.380728  0.249781  1
  Sn  Sn31  1  0.936236  0.119589  0.249902  1
  Sn  Sn32  1  0.329589  0.148541  0.750418  1
  Sn  Sn33  1  0.829267  0.351208  0.749764  1
  Sn  Sn34  1  0.670717  0.851826  0.249966  1
  Sn  Sn35  1  0.170858  0.648086  0.249992  1
