# generated using pymatgen
data_TbYbEuZn11
_symmetry_space_group_name_H-M   'P 1'
_cell_length_a   8.26948194
_cell_length_b   8.26948096
_cell_length_c   8.26948199
_cell_angle_alpha   148.58492170
_cell_angle_beta   116.55079975
_cell_angle_gamma   72.51808381
_symmetry_Int_Tables_number   1
_chemical_formula_structural   TbYbEuZn11
_chemical_formula_sum   'Tb1 Yb1 Eu1 Zn11'
_cell_volume   259.65814497
_cell_formula_units_Z   1
loop_
 _symmetry_equiv_pos_site_id
 _symmetry_equiv_pos_as_xyz
  1  'x, y, z'
loop_
 _atom_site_type_symbol
 _atom_site_label
 _atom_site_symmetry_multiplicity
 _atom_site_fract_x
 _atom_site_fract_y
 _atom_site_fract_z
 _atom_site_occupancy
  Tb  Tb0  1  0.702077  0.702077  0.000000  1
  Yb  Yb1  1  0.297855  0.297855  0.000000  1
  Eu  Eu2  1  0.999466  0.999466  0.000000  1
  Zn  Zn3  1  0.500226  0.000226  0.500000  1
  Zn  Zn4  1  0.679162  0.499961  0.179201  1
  Zn  Zn5  1  0.320760  0.499961  0.820799  1
  Zn  Zn6  1  0.693422  0.337914  0.355508  1
  Zn  Zn7  1  0.306216  0.662162  0.644053  1
  Zn  Zn8  1  0.982408  0.337914  0.644492  1
  Zn  Zn9  1  0.018108  0.662162  0.355947  1
  Zn  Zn10  1  0.427553  0.139816  0.287738  1
  Zn  Zn11  1  0.573992  0.860334  0.713657  1
  Zn  Zn12  1  0.852078  0.139816  0.712262  1
  Zn  Zn13  1  0.146678  0.860334  0.286343  1
