# generated using pymatgen
data_La2Cr3Tc14C3
_symmetry_space_group_name_H-M   'P 1'
_cell_length_a   6.96259838
_cell_length_b   6.96259789
_cell_length_c   6.96259770
_cell_angle_alpha   82.96071582
_cell_angle_beta   82.96072275
_cell_angle_gamma   82.96072416
_symmetry_Int_Tables_number   1
_chemical_formula_structural   La2Cr3Tc14C3
_chemical_formula_sum   'La2 Cr3 Tc14 C3'
_cell_volume   330.47490902
_cell_formula_units_Z   1
loop_
 _symmetry_equiv_pos_site_id
 _symmetry_equiv_pos_as_xyz
  1  'x, y, z'
loop_
 _atom_site_type_symbol
 _atom_site_label
 _atom_site_symmetry_multiplicity
 _atom_site_fract_x
 _atom_site_fract_y
 _atom_site_fract_z
 _atom_site_occupancy
  La  La0  1  0.647122  0.647122  0.647122  1
  La  La1  1  0.352878  0.352878  0.352878  1
  Cr  Cr2  1  0.000000  0.000000  0.500000  1
  Cr  Cr3  1  0.500000  0.000000  0.000000  1
  Cr  Cr4  1  0.000000  0.500000  0.000000  1
  Tc  Tc5  1  0.722409  0.277591  0.000000  1
  Tc  Tc6  1  0.000000  0.722409  0.277591  1
  Tc  Tc7  1  0.277591  0.000000  0.722409  1
  Tc  Tc8  1  0.000000  0.277591  0.722409  1
  Tc  Tc9  1  0.722409  0.000000  0.277591  1
  Tc  Tc10  1  0.277591  0.722409  0.000000  1
  Tc  Tc11  1  0.342361  0.872139  0.342361  1
  Tc  Tc12  1  0.342361  0.342361  0.872139  1
  Tc  Tc13  1  0.872139  0.342361  0.342361  1
  Tc  Tc14  1  0.657639  0.127861  0.657639  1
  Tc  Tc15  1  0.657639  0.657639  0.127861  1
  Tc  Tc16  1  0.127861  0.657639  0.657639  1
  Tc  Tc17  1  0.902680  0.902680  0.902680  1
  Tc  Tc18  1  0.097320  0.097320  0.097320  1
  C  C19  1  0.500000  0.500000  0.000000  1
  C  C20  1  0.000000  0.500000  0.500000  1
  C  C21  1  0.500000  0.000000  0.500000  1
