# generated using pymatgen
data_SrNdTaFeO6
_symmetry_space_group_name_H-M   'P 1'
_cell_length_a   8.07594923
_cell_length_b   8.07423737
_cell_length_c   9.86525245
_cell_angle_alpha   66.42473654
_cell_angle_beta   66.31163122
_cell_angle_gamma   91.45420927
_symmetry_Int_Tables_number   1
_chemical_formula_structural   SrNdTaFeO6
_chemical_formula_sum   'Sr4 Nd4 Ta4 Fe4 O24'
_cell_volume   526.48248453
_cell_formula_units_Z   4
loop_
 _symmetry_equiv_pos_site_id
 _symmetry_equiv_pos_as_xyz
  1  'x, y, z'
loop_
 _atom_site_type_symbol
 _atom_site_label
 _atom_site_symmetry_multiplicity
 _atom_site_fract_x
 _atom_site_fract_y
 _atom_site_fract_z
 _atom_site_occupancy
  Sr  Sr0  1  0.392016  0.353070  0.248738  1
  Sr  Sr1  1  0.892329  0.852544  0.248992  1
  Sr  Sr2  1  0.102655  0.642385  0.749045  1
  Sr  Sr3  1  0.602670  0.142138  0.748910  1
  Nd  Nd4  1  0.413227  0.854069  0.246232  1
  Nd  Nd5  1  0.913017  0.353694  0.246420  1
  Nd  Nd6  1  0.103800  0.163092  0.746292  1
  Nd  Nd7  1  0.603964  0.662764  0.746769  1
  Ta  Ta8  1  0.747856  0.253270  0.999912  1
  Ta  Ta9  1  0.247784  0.753255  0.999750  1
  Ta  Ta10  1  0.003161  0.997765  0.499869  1
  Ta  Ta11  1  0.503331  0.498027  0.499840  1
  Fe  Fe12  1  0.998627  0.503388  0.499731  1
  Fe  Fe13  1  0.253314  0.248622  0.999615  1
  Fe  Fe14  1  0.498667  0.003778  0.499553  1
  Fe  Fe15  1  0.753429  0.748624  0.999714  1
  O  O16  1  0.348912  0.816484  0.761099  1
  O  O17  1  0.849153  0.317165  0.760700  1
  O  O18  1  0.567509  0.599104  0.260610  1
  O  O19  1  0.066854  0.098819  0.260998  1
  O  O20  1  0.758589  0.988730  0.048152  1
  O  O21  1  0.258730  0.488425  0.048270  1
  O  O22  1  0.238821  0.508562  0.548027  1
  O  O23  1  0.738156  0.007855  0.548331  1
  O  O24  1  0.556882  0.762568  0.460682  1
  O  O25  1  0.056518  0.262165  0.460676  1
  O  O26  1  0.012609  0.306438  0.960534  1
  O  O27  1  0.512310  0.806720  0.960443  1
  O  O28  1  0.481250  0.174209  0.050368  1
  O  O29  1  0.981370  0.673723  0.050803  1
  O  O30  1  0.923843  0.731311  0.550699  1
  O  O31  1  0.423832  0.231176  0.550007  1
  O  O32  1  0.263083  0.968613  0.446895  1
  O  O33  1  0.763336  0.468453  0.446665  1
  O  O34  1  0.718525  0.513385  0.946644  1
  O  O35  1  0.218191  0.013316  0.946749  1
  O  O36  1  0.944989  0.920259  0.738722  1
  O  O37  1  0.445874  0.420421  0.738054  1
  O  O38  1  0.170385  0.695462  0.238562  1
  O  O39  1  0.670429  0.196153  0.237923  1
