# generated using pymatgen
data_ErTm15(InRu)4
_symmetry_space_group_name_H-M   'P 1'
_cell_length_a   9.57503363
_cell_length_b   9.57525309
_cell_length_c   9.57552708
_cell_angle_alpha   59.25539458
_cell_angle_beta   59.25480814
_cell_angle_gamma   59.23029368
_symmetry_Int_Tables_number   1
_chemical_formula_structural   ErTm15(InRu)4
_chemical_formula_sum   'Er1 Tm15 In4 Ru4'
_cell_volume   610.13112210
_cell_formula_units_Z   1
loop_
 _symmetry_equiv_pos_site_id
 _symmetry_equiv_pos_as_xyz
  1  'x, y, z'
loop_
 _atom_site_type_symbol
 _atom_site_label
 _atom_site_symmetry_multiplicity
 _atom_site_fract_x
 _atom_site_fract_y
 _atom_site_fract_z
 _atom_site_occupancy
  Er  Er0  1  0.060369  0.060323  0.441038  1
  Tm  Tm1  1  0.442613  0.059908  0.441994  1
  Tm  Tm2  1  0.060029  0.441465  0.059890  1
  Tm  Tm3  1  0.042750  0.651824  0.652066  1
  Tm  Tm4  1  0.442142  0.442091  0.059806  1
  Tm  Tm5  1  0.651845  0.042763  0.652084  1
  Tm  Tm6  1  0.190505  0.813075  0.190586  1
  Tm  Tm7  1  0.190780  0.190791  0.812893  1
  Tm  Tm8  1  0.809537  0.809555  0.190653  1
  Tm  Tm9  1  0.441448  0.060018  0.059890  1
  Tm  Tm10  1  0.813055  0.190537  0.190597  1
  Tm  Tm11  1  0.059939  0.442560  0.441995  1
  Tm  Tm12  1  0.809679  0.190843  0.809637  1
  Tm  Tm13  1  0.190852  0.809679  0.809620  1
  Tm  Tm14  1  0.651570  0.651577  0.042650  1
  Tm  Tm15  1  0.649868  0.649867  0.650041  1
  In  In16  1  0.416594  0.416723  0.416555  1
  In  In17  1  0.748027  0.417798  0.417649  1
  In  In18  1  0.417837  0.747976  0.417652  1
  In  In19  1  0.417614  0.417594  0.748576  1
  Ru  Ru20  1  0.855607  0.855683  0.421591  1
  Ru  Ru21  1  0.859761  0.859732  0.860459  1
  Ru  Ru22  1  0.421444  0.856171  0.856039  1
  Ru  Ru23  1  0.856136  0.421447  0.856035  1
