# generated using pymatgen
data_Tb5In2(HgPd)2
_symmetry_space_group_name_H-M   'P 1'
_cell_length_a   8.05285200
_cell_length_b   18.48275700
_cell_length_c   3.64268100
_cell_angle_alpha   90.00000000
_cell_angle_beta   90.00000000
_cell_angle_gamma   90.00000000
_symmetry_Int_Tables_number   1
_chemical_formula_structural   Tb5In2(HgPd)2
_chemical_formula_sum   'Tb10 In4 Hg4 Pd4'
_cell_volume   542.17265740
_cell_formula_units_Z   2
loop_
 _symmetry_equiv_pos_site_id
 _symmetry_equiv_pos_as_xyz
  1  'x, y, z'
loop_
 _atom_site_type_symbol
 _atom_site_label
 _atom_site_symmetry_multiplicity
 _atom_site_fract_x
 _atom_site_fract_y
 _atom_site_fract_z
 _atom_site_occupancy
  Tb  Tb0  1  0.500000  0.500000  0.000000  1
  Tb  Tb1  1  0.000000  0.000000  0.000000  1
  Tb  Tb2  1  0.744840  0.282032  0.000000  1
  Tb  Tb3  1  0.255160  0.717968  0.000000  1
  Tb  Tb4  1  0.755160  0.782032  0.000000  1
  Tb  Tb5  1  0.244840  0.217968  0.000000  1
  Tb  Tb6  1  0.610764  0.082911  0.000000  1
  Tb  Tb7  1  0.389236  0.917089  0.000000  1
  Tb  Tb8  1  0.889236  0.582911  0.000000  1
  Tb  Tb9  1  0.110764  0.417089  0.000000  1
  In  In10  1  0.576686  0.649144  0.500000  1
  In  In11  1  0.423314  0.350856  0.500000  1
  In  In12  1  0.923314  0.149144  0.500000  1
  In  In13  1  0.076686  0.850856  0.500000  1
  Hg  Hg14  1  0.713268  0.931320  0.500000  1
  Hg  Hg15  1  0.286732  0.068680  0.500000  1
  Hg  Hg16  1  0.786732  0.431320  0.500000  1
  Hg  Hg17  1  0.213268  0.568680  0.500000  1
  Pd  Pd18  1  0.530262  0.196875  0.500000  1
  Pd  Pd19  1  0.469738  0.803125  0.500000  1
  Pd  Pd20  1  0.969738  0.696875  0.500000  1
  Pd  Pd21  1  0.030262  0.303125  0.500000  1
