# generated using pymatgen
data_Ho3Er17(Bi2Pt)4
_symmetry_space_group_name_H-M   'P 1'
_cell_length_a   8.02290304
_cell_length_b   8.99858201
_cell_length_c   12.33203208
_cell_angle_alpha   89.99417076
_cell_angle_beta   89.98795123
_cell_angle_gamma   90.00082063
_symmetry_Int_Tables_number   1
_chemical_formula_structural   Ho3Er17(Bi2Pt)4
_chemical_formula_sum   'Ho3 Er17 Bi8 Pt4'
_cell_volume   890.30796150
_cell_formula_units_Z   1
loop_
 _symmetry_equiv_pos_site_id
 _symmetry_equiv_pos_as_xyz
  1  'x, y, z'
loop_
 _atom_site_type_symbol
 _atom_site_label
 _atom_site_symmetry_multiplicity
 _atom_site_fract_x
 _atom_site_fract_y
 _atom_site_fract_z
 _atom_site_occupancy
  Ho  Ho0  1  0.873776  0.749958  0.803561  1
  Ho  Ho1  1  0.373405  0.249901  0.696421  1
  Ho  Ho2  1  0.126486  0.249910  0.196610  1
  Er  Er3  1  0.164516  0.750030  0.210158  1
  Er  Er4  1  0.335226  0.750004  0.710154  1
  Er  Er5  1  0.835446  0.249972  0.790008  1
  Er  Er6  1  0.664937  0.249985  0.289653  1
  Er  Er7  1  0.449152  0.749966  0.000448  1
  Er  Er8  1  0.050925  0.749971  0.500357  1
  Er  Er9  1  0.551133  0.249978  0.999851  1
  Er  Er10  1  0.948843  0.250025  0.499767  1
  Er  Er11  1  0.626052  0.750009  0.303874  1
  Er  Er12  1  0.822191  0.547233  0.067121  1
  Er  Er13  1  0.677818  0.953032  0.566947  1
  Er  Er14  1  0.177803  0.047048  0.933074  1
  Er  Er15  1  0.322249  0.453192  0.432903  1
  Er  Er16  1  0.177909  0.452846  0.932998  1
  Er  Er17  1  0.322176  0.046978  0.432873  1
  Er  Er18  1  0.822324  0.952775  0.067055  1
  Er  Er19  1  0.677750  0.546987  0.566894  1
  Bi  Bi20  1  0.932077  0.510605  0.327642  1
  Bi  Bi21  1  0.567487  0.989707  0.827560  1
  Bi  Bi22  1  0.067390  0.010340  0.672460  1
  Bi  Bi23  1  0.432822  0.489970  0.172631  1
  Bi  Bi24  1  0.067407  0.489616  0.672427  1
  Bi  Bi25  1  0.432843  0.009995  0.172588  1
  Bi  Bi26  1  0.932065  0.989386  0.327623  1
  Bi  Bi27  1  0.567504  0.510262  0.827514  1
  Pt  Pt28  1  0.421364  0.750287  0.488707  1
  Pt  Pt29  1  0.079122  0.749687  0.988849  1
  Pt  Pt30  1  0.578244  0.250066  0.510435  1
  Pt  Pt31  1  0.921557  0.250278  0.010838  1
