# generated using pymatgen
data_CePrCo2(P2Rh)2
_symmetry_space_group_name_H-M   'P 1'
_cell_length_a   4.06086700
_cell_length_b   4.06086700
_cell_length_c   9.38135200
_cell_angle_alpha   90.00000000
_cell_angle_beta   90.00000000
_cell_angle_gamma   90.00000000
_symmetry_Int_Tables_number   1
_chemical_formula_structural   CePrCo2(P2Rh)2
_chemical_formula_sum   'Ce1 Pr1 Co2 P4 Rh2'
_cell_volume   154.70450597
_cell_formula_units_Z   1
loop_
 _symmetry_equiv_pos_site_id
 _symmetry_equiv_pos_as_xyz
  1  'x, y, z'
loop_
 _atom_site_type_symbol
 _atom_site_label
 _atom_site_symmetry_multiplicity
 _atom_site_fract_x
 _atom_site_fract_y
 _atom_site_fract_z
 _atom_site_occupancy
  Ce  Ce0  1  0.000000  0.500000  0.263320  1
  Pr  Pr1  1  0.500000  0.000000  0.738112  1
  Co  Co2  1  0.000000  0.500000  0.602760  1
  Co  Co3  1  0.500000  0.000000  0.390326  1
  P  P4  1  0.500000  0.500000  0.497737  1
  P  P5  1  0.500000  0.000000  0.150052  1
  P  P6  1  0.000000  0.000000  0.497737  1
  P  P7  1  0.000000  0.500000  0.849877  1
  Rh  Rh8  1  0.000000  0.000000  0.005039  1
  Rh  Rh9  1  0.500000  0.500000  0.005039  1
