# generated using pymatgen
data_CaYbTm6(B6Ru)4
_symmetry_space_group_name_H-M   'P 1'
_cell_length_a   3.62060900
_cell_length_b   9.08854243
_cell_length_c   11.47742482
_cell_angle_alpha   89.83177924
_cell_angle_beta   90.00000000
_cell_angle_gamma   90.00000000
_symmetry_Int_Tables_number   1
_chemical_formula_structural   CaYbTm6(B6Ru)4
_chemical_formula_sum   'Ca1 Yb1 Tm6 B24 Ru4'
_cell_volume   377.67518481
_cell_formula_units_Z   1
loop_
 _symmetry_equiv_pos_site_id
 _symmetry_equiv_pos_as_xyz
  1  'x, y, z'
loop_
 _atom_site_type_symbol
 _atom_site_label
 _atom_site_symmetry_multiplicity
 _atom_site_fract_x
 _atom_site_fract_y
 _atom_site_fract_z
 _atom_site_occupancy
  Ca  Ca0  1  0.000000  0.676119  0.585048  1
  Yb  Yb1  1  0.000000  0.324622  0.414756  1
  Tm  Tm2  1  0.000000  0.822244  0.086085  1
  Tm  Tm3  1  0.000000  0.177753  0.913925  1
  Tm  Tm4  1  0.000000  0.942152  0.369551  1
  Tm  Tm5  1  0.000000  0.058094  0.630283  1
  Tm  Tm6  1  0.000000  0.442578  0.130436  1
  Tm  Tm7  1  0.000000  0.557254  0.869579  1
  B  B8  1  0.500000  0.553858  0.431673  1
  B  B9  1  0.500000  0.444967  0.567757  1
  B  B10  1  0.500000  0.053689  0.066302  1
  B  B11  1  0.500000  0.946576  0.933959  1
  B  B12  1  0.500000  0.748662  0.417047  1
  B  B13  1  0.500000  0.251172  0.582273  1
  B  B14  1  0.500000  0.248644  0.080650  1
  B  B15  1  0.500000  0.751385  0.919650  1
  B  B16  1  0.500000  0.791830  0.263694  1
  B  B17  1  0.500000  0.208057  0.736110  1
  B  B18  1  0.500000  0.290245  0.234087  1
  B  B19  1  0.500000  0.709932  0.766448  1
  B  B20  1  0.500000  0.631291  0.184219  1
  B  B21  1  0.500000  0.368370  0.815774  1
  B  B22  1  0.500000  0.130436  0.313997  1
  B  B23  1  0.500000  0.870182  0.686445  1
  B  B24  1  0.500000  0.982559  0.211308  1
  B  B25  1  0.500000  0.017733  0.788827  1
  B  B26  1  0.500000  0.483461  0.287444  1
  B  B27  1  0.500000  0.515803  0.712664  1
  B  B28  1  0.500000  0.603061  0.028294  1
  B  B29  1  0.500000  0.396808  0.971749  1
  B  B30  1  0.500000  0.098962  0.472650  1
  B  B31  1  0.500000  0.901819  0.527106  1
  Ru  Ru32  1  0.000000  0.640249  0.317461  1
  Ru  Ru33  1  0.000000  0.359021  0.682191  1
  Ru  Ru34  1  0.000000  0.136877  0.177756  1
  Ru  Ru35  1  0.000000  0.863541  0.822800  1
