# generated using pymatgen
data_Ba2Pd2PtO9
_symmetry_space_group_name_H-M   'P 1'
_cell_length_a   8.30175090
_cell_length_b   8.29041010
_cell_length_c   8.28619700
_cell_angle_alpha   109.54036006
_cell_angle_beta   109.15279622
_cell_angle_gamma   109.71286889
_symmetry_Int_Tables_number   1
_chemical_formula_structural   Ba2Pd2PtO9
_chemical_formula_sum   'Ba4 Pd4 Pt2 O18'
_cell_volume   439.04783824
_cell_formula_units_Z   2
loop_
 _symmetry_equiv_pos_site_id
 _symmetry_equiv_pos_as_xyz
  1  'x, y, z'
loop_
 _atom_site_type_symbol
 _atom_site_label
 _atom_site_symmetry_multiplicity
 _atom_site_fract_x
 _atom_site_fract_y
 _atom_site_fract_z
 _atom_site_occupancy
  Ba  Ba0  1  0.004933  0.005618  0.384026  1
  Ba  Ba1  1  0.998490  0.381554  0.998830  1
  Ba  Ba2  1  0.620653  0.617101  0.622010  1
  Ba  Ba3  1  0.376525  0.996129  0.994611  1
  Pd  Pd4  1  0.343189  0.500183  0.842405  1
  Pd  Pd5  1  0.844698  0.344093  0.500291  1
  Pd  Pd6  1  0.499935  0.157592  0.657167  1
  Pd  Pd7  1  0.155833  0.656025  0.500363  1
  Pt  Pt8  1  0.499931  0.843951  0.343813  1
  Pt  Pt9  1  0.655010  0.499439  0.155730  1
  O  O10  1  0.357932  0.995884  0.357608  1
  O  O11  1  0.360290  0.360435  0.003192  1
  O  O12  1  0.000592  0.641604  0.642735  1
  O  O13  1  0.643364  0.639432  0.000222  1
  O  O14  1  0.000914  0.357264  0.357749  1
  O  O15  1  0.642213  0.999769  0.639039  1
  O  O16  1  0.360957  0.313571  0.625554  1
  O  O17  1  0.046968  0.314584  0.688142  1
  O  O18  1  0.735362  0.375573  0.688015  1
  O  O19  1  0.374324  0.686876  0.731773  1
  O  O20  1  0.264725  0.953780  0.640494  1
  O  O21  1  0.626268  0.357208  0.308667  1
  O  O22  1  0.312875  0.628527  0.356655  1
  O  O23  1  0.686893  0.042650  0.315144  1
  O  O24  1  0.948868  0.641352  0.268724  1
  O  O25  1  0.680250  0.728136  0.370779  1
  O  O26  1  0.641341  0.270881  0.955839  1
  O  O27  1  0.316666  0.690788  0.050426  1
