# generated using pymatgen
data_YTh3(InNi2)2
_symmetry_space_group_name_H-M   'P 1'
_cell_length_a   7.62233357
_cell_length_b   7.62233357
_cell_length_c   3.67994000
_cell_angle_alpha   90.00000000
_cell_angle_beta   90.00000000
_cell_angle_gamma   91.47398562
_symmetry_Int_Tables_number   1
_chemical_formula_structural   YTh3(InNi2)2
_chemical_formula_sum   'Y1 Th3 In2 Ni4'
_cell_volume   213.73365378
_cell_formula_units_Z   1
loop_
 _symmetry_equiv_pos_site_id
 _symmetry_equiv_pos_as_xyz
  1  'x, y, z'
loop_
 _atom_site_type_symbol
 _atom_site_label
 _atom_site_symmetry_multiplicity
 _atom_site_fract_x
 _atom_site_fract_y
 _atom_site_fract_z
 _atom_site_occupancy
  Y  Y0  1  0.826206  0.673794  0.500000  1
  Th  Th1  1  0.675006  0.171410  0.500000  1
  Th  Th2  1  0.328590  0.824994  0.500000  1
  Th  Th3  1  0.170145  0.329855  0.500000  1
  In  In4  1  0.508231  0.502862  0.000000  1
  In  In5  1  0.997138  0.991769  0.000000  1
  Ni  Ni6  1  0.129466  0.621540  0.000000  1
  Ni  Ni7  1  0.878460  0.370534  0.000000  1
  Ni  Ni8  1  0.616025  0.883975  0.000000  1
  Ni  Ni9  1  0.370734  0.129266  0.000000  1
