# generated using pymatgen
data_Dy12InFe2AgOs
_symmetry_space_group_name_H-M   'P 1'
_cell_length_a   8.32440610
_cell_length_b   8.32443803
_cell_length_c   8.32440398
_cell_angle_alpha   107.11574597
_cell_angle_beta   110.39007282
_cell_angle_gamma   110.93353659
_symmetry_Int_Tables_number   1
_chemical_formula_structural   Dy12InFe2AgOs
_chemical_formula_sum   'Dy12 In1 Fe2 Ag1 Os1'
_cell_volume   443.48822651
_cell_formula_units_Z   1
loop_
 _symmetry_equiv_pos_site_id
 _symmetry_equiv_pos_as_xyz
  1  'x, y, z'
loop_
 _atom_site_type_symbol
 _atom_site_label
 _atom_site_symmetry_multiplicity
 _atom_site_fract_x
 _atom_site_fract_y
 _atom_site_fract_z
 _atom_site_occupancy
  Dy  Dy0  1  0.307890  0.309852  0.617741  1
  Dy  Dy1  1  0.692110  0.690148  0.382259  1
  Dy  Dy2  1  0.307889  0.690148  0.998037  1
  Dy  Dy3  1  0.692111  0.309852  0.001963  1
  Dy  Dy4  1  0.442033  0.192796  0.249236  1
  Dy  Dy5  1  0.557967  0.807204  0.750764  1
  Dy  Dy6  1  0.943558  0.192796  0.750763  1
  Dy  Dy7  1  0.191301  0.959039  0.767738  1
  Dy  Dy8  1  0.056442  0.807204  0.249237  1
  Dy  Dy9  1  0.808699  0.040961  0.232262  1
  Dy  Dy10  1  0.191302  0.423565  0.232265  1
  Dy  Dy11  1  0.808698  0.576435  0.767735  1
  In  In12  1  0.000000  0.500000  0.500000  1
  Fe  Fe13  1  0.384881  0.384881  0.000001  1
  Fe  Fe14  1  0.615119  0.615119  0.999999  1
  Ag  Ag15  1  0.500000  0.000000  0.500000  1
  Os  Os16  1  0.000000  0.000000  0.000000  1
