# generated using pymatgen
data_Tb2Ga8CuPd3
_symmetry_space_group_name_H-M   'P 1'
_cell_length_a   7.58885578
_cell_length_b   7.58887772
_cell_length_c   9.48457200
_cell_angle_alpha   90.00000000
_cell_angle_beta   90.00000000
_cell_angle_gamma   118.38702708
_symmetry_Int_Tables_number   1
_chemical_formula_structural   Tb2Ga8CuPd3
_chemical_formula_sum   'Tb4 Ga16 Cu2 Pd6'
_cell_volume   480.54487358
_cell_formula_units_Z   2
loop_
 _symmetry_equiv_pos_site_id
 _symmetry_equiv_pos_as_xyz
  1  'x, y, z'
loop_
 _atom_site_type_symbol
 _atom_site_label
 _atom_site_symmetry_multiplicity
 _atom_site_fract_x
 _atom_site_fract_y
 _atom_site_fract_z
 _atom_site_occupancy
  Tb  Tb0  1  0.995259  0.673491  0.250000  1
  Tb  Tb1  1  0.004741  0.326509  0.750000  1
  Tb  Tb2  1  0.673491  0.995259  0.250000  1
  Tb  Tb3  1  0.326509  0.004741  0.750000  1
  Ga  Ga4  1  0.005126  0.330098  0.086897  1
  Ga  Ga5  1  0.994874  0.669902  0.913103  1
  Ga  Ga6  1  0.994874  0.669902  0.586897  1
  Ga  Ga7  1  0.330098  0.005126  0.413103  1
  Ga  Ga8  1  0.005126  0.330098  0.413103  1
  Ga  Ga9  1  0.669902  0.994874  0.586897  1
  Ga  Ga10  1  0.669902  0.994874  0.913103  1
  Ga  Ga11  1  0.330098  0.005126  0.086897  1
  Ga  Ga12  1  0.330729  0.330729  0.560516  1
  Ga  Ga13  1  0.669271  0.669271  0.439484  1
  Ga  Ga14  1  0.669271  0.669271  0.060516  1
  Ga  Ga15  1  0.330729  0.330729  0.939484  1
  Ga  Ga16  1  0.339896  0.540764  0.250000  1
  Ga  Ga17  1  0.660104  0.459236  0.750000  1
  Ga  Ga18  1  0.540764  0.339895  0.250000  1
  Ga  Ga19  1  0.459236  0.660105  0.750000  1
  Cu  Cu20  1  0.147388  0.147389  0.250000  1
  Cu  Cu21  1  0.852612  0.852611  0.750000  1
  Pd  Pd22  1  0.674765  0.325239  0.000000  1
  Pd  Pd23  1  0.325235  0.674761  0.000000  1
  Pd  Pd24  1  0.325235  0.674761  0.500000  1
  Pd  Pd25  1  0.674765  0.325239  0.500000  1
  Pd  Pd26  1  0.000000  0.000000  0.000000  1
  Pd  Pd27  1  0.000000  0.000000  0.500000  1
