# generated using pymatgen
data_Ho3P2S
_symmetry_space_group_name_H-M   'P 1'
_cell_length_a   6.85908890
_cell_length_b   6.85908862
_cell_length_c   6.85908829
_cell_angle_alpha   146.48639234
_cell_angle_beta   132.05687137
_cell_angle_gamma   59.76003818
_symmetry_Int_Tables_number   1
_chemical_formula_structural   Ho3P2S
_chemical_formula_sum   'Ho3 P2 S1'
_cell_volume   131.09985102
_cell_formula_units_Z   1
loop_
 _symmetry_equiv_pos_site_id
 _symmetry_equiv_pos_as_xyz
  1  'x, y, z'
loop_
 _atom_site_type_symbol
 _atom_site_label
 _atom_site_symmetry_multiplicity
 _atom_site_fract_x
 _atom_site_fract_y
 _atom_site_fract_z
 _atom_site_occupancy
  Ho  Ho0  1  0.500000  0.000000  0.500000  1
  Ho  Ho1  1  0.171089  0.671089  0.500000  1
  Ho  Ho2  1  0.828911  0.328911  0.500000  1
  P  P3  1  0.665673  0.665673  0.000000  1
  P  P4  1  0.334327  0.334327  0.000000  1
  S  S5  1  0.000000  0.000000  0.000000  1
