# generated using pymatgen
data_Y8TiTc11Ge16
_symmetry_space_group_name_H-M   'P 1'
_cell_length_a   6.96704700
_cell_length_b   6.97950343
_cell_length_c   12.99205123
_cell_angle_alpha   90.28693711
_cell_angle_beta   90.29914243
_cell_angle_gamma   90.34794726
_symmetry_Int_Tables_number   1
_chemical_formula_structural   Y8TiTc11Ge16
_chemical_formula_sum   'Y8 Ti1 Tc11 Ge16'
_cell_volume   631.73006513
_cell_formula_units_Z   1
loop_
 _symmetry_equiv_pos_site_id
 _symmetry_equiv_pos_as_xyz
  1  'x, y, z'
loop_
 _atom_site_type_symbol
 _atom_site_label
 _atom_site_symmetry_multiplicity
 _atom_site_fract_x
 _atom_site_fract_y
 _atom_site_fract_z
 _atom_site_occupancy
  Y  Y0  1  0.336317  0.991475  0.469653  1
  Y  Y1  1  0.504933  0.835522  0.723721  1
  Y  Y2  1  0.491829  0.159664  0.221470  1
  Y  Y3  1  0.838786  0.504719  0.276456  1
  Y  Y4  1  0.160625  0.486311  0.779952  1
  Y  Y5  1  0.659400  0.004541  0.972942  1
  Y  Y6  1  0.996412  0.339479  0.526811  1
  Y  Y7  1  0.007051  0.657936  0.027849  1
  Ti  Ti8  1  0.991934  0.824277  0.622153  1
  Tc  Tc9  1  0.333333  0.336404  0.000649  1
  Tc  Tc10  1  0.164566  0.834812  0.248166  1
  Tc  Tc11  1  0.838180  0.158484  0.748425  1
  Tc  Tc12  1  0.670572  0.665421  0.502591  1
  Tc  Tc13  1  0.195463  0.974081  0.868727  1
  Tc  Tc14  1  0.520067  0.689273  0.123171  1
  Tc  Tc15  1  0.489315  0.320034  0.625118  1
  Tc  Tc16  1  0.683134  0.508642  0.878450  1
  Tc  Tc17  1  0.316725  0.483576  0.377249  1
  Tc  Tc18  1  0.819123  0.024047  0.375868  1
  Tc  Tc19  1  0.974071  0.192613  0.130963  1
  Ge  Ge20  1  0.195409  0.112851  0.679587  1
  Ge  Ge21  1  0.388811  0.686127  0.933944  1
  Ge  Ge22  1  0.612701  0.314085  0.434293  1
  Ge  Ge23  1  0.685907  0.389238  0.067432  1
  Ge  Ge24  1  0.311894  0.616152  0.567797  1
  Ge  Ge25  1  0.812574  0.888150  0.183209  1
  Ge  Ge26  1  0.115335  0.191496  0.317264  1
  Ge  Ge27  1  0.889518  0.806389  0.819320  1
  Ge  Ge28  1  0.266595  0.985509  0.063634  1
  Ge  Ge29  1  0.522039  0.775398  0.315809  1
  Ge  Ge30  1  0.481588  0.219936  0.815380  1
  Ge  Ge31  1  0.780108  0.516828  0.685609  1
  Ge  Ge32  1  0.228082  0.483356  0.184809  1
  Ge  Ge33  1  0.709885  0.034986  0.566758  1
  Ge  Ge34  1  0.984199  0.262967  0.936043  1
  Ge  Ge35  1  0.023521  0.725224  0.428726  1
