# generated using pymatgen
data_Cs6K2HfAs4
_symmetry_space_group_name_H-M   'P 1'
_cell_length_a   11.45894794
_cell_length_b   11.45894911
_cell_length_c   11.45894800
_cell_angle_alpha   60.00000322
_cell_angle_beta   59.99999983
_cell_angle_gamma   59.99999994
_symmetry_Int_Tables_number   1
_chemical_formula_structural   Cs6K2HfAs4
_chemical_formula_sum   'Cs12 K4 Hf2 As8'
_cell_volume   1063.94529369
_cell_formula_units_Z   2
loop_
 _symmetry_equiv_pos_site_id
 _symmetry_equiv_pos_as_xyz
  1  'x, y, z'
loop_
 _atom_site_type_symbol
 _atom_site_label
 _atom_site_symmetry_multiplicity
 _atom_site_fract_x
 _atom_site_fract_y
 _atom_site_fract_z
 _atom_site_occupancy
  Cs  Cs0  1  0.027891  0.027891  0.472109  1
  Cs  Cs1  1  0.777891  0.222109  0.222109  1
  Cs  Cs2  1  0.222109  0.777891  0.777891  1
  Cs  Cs3  1  0.777891  0.777891  0.222109  1
  Cs  Cs4  1  0.777891  0.222109  0.777891  1
  Cs  Cs5  1  0.222109  0.777891  0.222109  1
  Cs  Cs6  1  0.472109  0.027891  0.472109  1
  Cs  Cs7  1  0.472109  0.027891  0.027891  1
  Cs  Cs8  1  0.027891  0.472109  0.472109  1
  Cs  Cs9  1  0.027891  0.472109  0.027891  1
  Cs  Cs10  1  0.222109  0.222109  0.777891  1
  Cs  Cs11  1  0.472109  0.472109  0.027891  1
  K  K12  1  0.625000  0.125000  0.625000  1
  K  K13  1  0.625000  0.625000  0.125000  1
  K  K14  1  0.125000  0.625000  0.625000  1
  K  K15  1  0.625000  0.625000  0.625000  1
  Hf  Hf16  1  0.750000  0.750000  0.750000  1
  Hf  Hf17  1  0.500000  0.500000  0.500000  1
  As  As18  1  0.405832  0.782501  0.405832  1
  As  As19  1  0.844168  0.844168  0.467499  1
  As  As20  1  0.467499  0.844168  0.844168  1
  As  As21  1  0.844168  0.844168  0.844168  1
  As  As22  1  0.782501  0.405832  0.405832  1
  As  As23  1  0.405832  0.405832  0.405832  1
  As  As24  1  0.405832  0.405832  0.782501  1
  As  As25  1  0.844168  0.467499  0.844168  1
