# generated using pymatgen
data_YHo15In4(OsPt)2
_symmetry_space_group_name_H-M   'P 1'
_cell_length_a   9.64787888
_cell_length_b   9.70322839
_cell_length_c   9.65593500
_cell_angle_alpha   59.70855366
_cell_angle_beta   59.36633784
_cell_angle_gamma   59.64243501
_symmetry_Int_Tables_number   1
_chemical_formula_structural   YHo15In4(OsPt)2
_chemical_formula_sum   'Y1 Ho15 In4 Os2 Pt2'
_cell_volume   632.96082303
_cell_formula_units_Z   1
loop_
 _symmetry_equiv_pos_site_id
 _symmetry_equiv_pos_as_xyz
  1  'x, y, z'
loop_
 _atom_site_type_symbol
 _atom_site_label
 _atom_site_symmetry_multiplicity
 _atom_site_fract_x
 _atom_site_fract_y
 _atom_site_fract_z
 _atom_site_occupancy
  Y  Y0  1  0.188079  0.189006  0.807824  1
  Ho  Ho1  1  0.596639  0.601945  0.204537  1
  Ho  Ho2  1  0.440527  0.058260  0.440431  1
  Ho  Ho3  1  0.439188  0.441931  0.062428  1
  Ho  Ho4  1  0.812237  0.187801  0.812493  1
  Ho  Ho5  1  0.192201  0.808081  0.192138  1
  Ho  Ho6  1  0.438222  0.054717  0.063943  1
  Ho  Ho7  1  0.189646  0.814519  0.804180  1
  Ho  Ho8  1  0.056151  0.441902  0.056554  1
  Ho  Ho9  1  0.806504  0.816088  0.188081  1
  Ho  Ho10  1  0.204808  0.600419  0.595946  1
  Ho  Ho11  1  0.063672  0.441132  0.438608  1
  Ho  Ho12  1  0.062944  0.054183  0.438258  1
  Ho  Ho13  1  0.803109  0.191556  0.190633  1
  Ho  Ho14  1  0.599453  0.198620  0.600591  1
  Ho  Ho15  1  0.599732  0.603222  0.598437  1
  In  In16  1  0.831784  0.834240  0.833688  1
  In  In17  1  0.833928  0.832949  0.500055  1
  In  In18  1  0.500964  0.832769  0.833447  1
  In  In19  1  0.832709  0.500573  0.832602  1
  Os  Os20  1  0.392977  0.826152  0.394345  1
  Os  Os21  1  0.395215  0.387375  0.391240  1
  Pt  Pt22  1  0.825790  0.390722  0.393943  1
  Pt  Pt23  1  0.393525  0.391835  0.825597  1
