# generated using pymatgen
data_YTm3Re4F28
_symmetry_space_group_name_H-M   'P 1'
_cell_length_a   5.54967212
_cell_length_b   8.85963683
_cell_length_c   12.00083392
_cell_angle_alpha   62.69350714
_cell_angle_beta   90.03437355
_cell_angle_gamma   89.99684346
_symmetry_Int_Tables_number   1
_chemical_formula_structural   YTm3Re4F28
_chemical_formula_sum   'Y1 Tm3 Re4 F28'
_cell_volume   524.30486545
_cell_formula_units_Z   1
loop_
 _symmetry_equiv_pos_site_id
 _symmetry_equiv_pos_as_xyz
  1  'x, y, z'
loop_
 _atom_site_type_symbol
 _atom_site_label
 _atom_site_symmetry_multiplicity
 _atom_site_fract_x
 _atom_site_fract_y
 _atom_site_fract_z
 _atom_site_occupancy
  Y  Y0  1  0.242212  0.815818  0.764202  1
  Tm  Tm1  1  0.257545  0.815700  0.264146  1
  Tm  Tm2  1  0.741400  0.187026  0.735795  1
  Tm  Tm3  1  0.757741  0.184728  0.235963  1
  Re  Re4  1  0.758198  0.726272  0.044931  1
  Re  Re5  1  0.241439  0.271418  0.957911  1
  Re  Re6  1  0.258994  0.274897  0.455994  1
  Re  Re7  1  0.742357  0.726354  0.541141  1
  F  F8  1  0.943611  0.707155  0.412663  1
  F  F9  1  0.056074  0.293032  0.584592  1
  F  F10  1  0.444758  0.291707  0.085572  1
  F  F11  1  0.559186  0.706466  0.915832  1
  F  F12  1  0.468837  0.728968  0.140694  1
  F  F13  1  0.530234  0.271309  0.860755  1
  F  F14  1  0.971112  0.271435  0.359263  1
  F  F15  1  0.032742  0.726778  0.636607  1
  F  F16  1  0.954145  0.746339  0.176121  1
  F  F17  1  0.044333  0.252513  0.826269  1
  F  F18  1  0.456171  0.254280  0.325136  1
  F  F19  1  0.550778  0.744737  0.674053  1
  F  F20  1  0.772477  0.475219  0.143338  1
  F  F21  1  0.225008  0.521530  0.858553  1
  F  F22  1  0.274250  0.525406  0.357194  1
  F  F23  1  0.726547  0.475612  0.641291  1
  F  F24  1  0.941902  0.274808  0.048278  1
  F  F25  1  0.058557  0.722112  0.956224  1
  F  F26  1  0.440294  0.724451  0.451890  1
  F  F27  1  0.558419  0.276783  0.547081  1
  F  F28  1  0.742794  0.976428  0.444370  1
  F  F29  1  0.258677  0.024952  0.552515  1
  F  F30  1  0.241881  0.021596  0.055530  1
  F  F31  1  0.758485  0.976082  0.946082  1
  F  F32  1  0.578109  0.971799  0.233016  1
  F  F33  1  0.419319  0.034650  0.767928  1
  F  F34  1  0.078314  0.028592  0.267110  1
  F  F35  1  0.913098  0.973052  0.731961  1
