# generated using pymatgen
data_Th2CoCu3Si4
_symmetry_space_group_name_H-M   'P 1'
_cell_length_a   4.12935600
_cell_length_b   4.12935600
_cell_length_c   9.61255500
_cell_angle_alpha   90.00000000
_cell_angle_beta   90.00000000
_cell_angle_gamma   90.00000000
_symmetry_Int_Tables_number   1
_chemical_formula_structural   Th2CoCu3Si4
_chemical_formula_sum   'Th2 Co1 Cu3 Si4'
_cell_volume   163.90925996
_cell_formula_units_Z   1
loop_
 _symmetry_equiv_pos_site_id
 _symmetry_equiv_pos_as_xyz
  1  'x, y, z'
loop_
 _atom_site_type_symbol
 _atom_site_label
 _atom_site_symmetry_multiplicity
 _atom_site_fract_x
 _atom_site_fract_y
 _atom_site_fract_z
 _atom_site_occupancy
  Th  Th0  1  0.000000  0.500000  0.260043  1
  Th  Th1  1  0.500000  0.000000  0.751723  1
  Co  Co2  1  0.000000  0.500000  0.615188  1
  Cu  Cu3  1  0.000000  0.000000  0.999685  1
  Cu  Cu4  1  0.500000  0.500000  0.999685  1
  Cu  Cu5  1  0.500000  0.000000  0.374422  1
  Si  Si6  1  0.000000  0.000000  0.506902  1
  Si  Si7  1  0.500000  0.500000  0.506902  1
  Si  Si8  1  0.000000  0.500000  0.857104  1
  Si  Si9  1  0.500000  0.000000  0.128346  1
