# generated using pymatgen
data_NpUPN2
_symmetry_space_group_name_H-M   'P 1'
_cell_length_a   3.79337900
_cell_length_b   3.79337961
_cell_length_c   6.51250800
_cell_angle_alpha   90.00000000
_cell_angle_beta   90.00000000
_cell_angle_gamma   120.00000337
_symmetry_Int_Tables_number   1
_chemical_formula_structural   NpUPN2
_chemical_formula_sum   'Np1 U1 P1 N2'
_cell_volume   81.15801723
_cell_formula_units_Z   1
loop_
 _symmetry_equiv_pos_site_id
 _symmetry_equiv_pos_as_xyz
  1  'x, y, z'
loop_
 _atom_site_type_symbol
 _atom_site_label
 _atom_site_symmetry_multiplicity
 _atom_site_fract_x
 _atom_site_fract_y
 _atom_site_fract_z
 _atom_site_occupancy
  Np  Np0  1  0.666667  0.333333  0.722052  1
  U  U1  1  0.333333  0.666667  0.283265  1
  P  P2  1  0.000000  0.000000  0.005377  1
  N  N3  1  0.333333  0.666667  0.624232  1
  N  N4  1  0.666667  0.333333  0.365074  1
