# generated using pymatgen
data_Tb8HoLuIr4
_symmetry_space_group_name_H-M   'P 1'
_cell_length_a   6.50235187
_cell_length_b   7.20601940
_cell_length_c   8.55665306
_cell_angle_alpha   96.62149125
_cell_angle_beta   112.33113098
_cell_angle_gamma   90.00000201
_symmetry_Int_Tables_number   1
_chemical_formula_structural   Tb8HoLuIr4
_chemical_formula_sum   'Tb8 Ho1 Lu1 Ir4'
_cell_volume   367.96984711
_cell_formula_units_Z   1
loop_
 _symmetry_equiv_pos_site_id
 _symmetry_equiv_pos_as_xyz
  1  'x, y, z'
loop_
 _atom_site_type_symbol
 _atom_site_label
 _atom_site_symmetry_multiplicity
 _atom_site_fract_x
 _atom_site_fract_y
 _atom_site_fract_z
 _atom_site_occupancy
  Tb  Tb0  1  0.971855  0.918103  0.181514  1
  Tb  Tb1  1  0.790342  0.581897  0.818486  1
  Tb  Tb2  1  0.028936  0.080549  0.818050  1
  Tb  Tb3  1  0.210885  0.419451  0.181950  1
  Tb  Tb4  1  0.651313  0.815997  0.438881  1
  Tb  Tb5  1  0.212431  0.684003  0.561119  1
  Tb  Tb6  1  0.346709  0.183298  0.559700  1
  Tb  Tb7  1  0.787010  0.316702  0.440300  1
  Ho  Ho8  1  0.570793  0.250000  0.000000  1
  Lu  Lu9  1  0.430834  0.750000  0.000000  1
  Ir  Ir10  1  0.821153  0.573035  0.217512  1
  Ir  Ir11  1  0.603642  0.926965  0.782488  1
  Ir  Ir12  1  0.178464  0.428927  0.782831  1
  Ir  Ir13  1  0.395632  0.071073  0.217169  1
