# generated using pymatgen
data_Ho2Tm(Al3Ni2)3
_symmetry_space_group_name_H-M   'P 1'
_cell_length_a   8.98925000
_cell_length_b   8.98925012
_cell_length_c   4.05113200
_cell_angle_alpha   90.00000000
_cell_angle_beta   90.00000000
_cell_angle_gamma   119.99999956
_symmetry_Int_Tables_number   1
_chemical_formula_structural   Ho2Tm(Al3Ni2)3
_chemical_formula_sum   'Ho2 Tm1 Al9 Ni6'
_cell_volume   283.50057966
_cell_formula_units_Z   1
loop_
 _symmetry_equiv_pos_site_id
 _symmetry_equiv_pos_as_xyz
  1  'x, y, z'
loop_
 _atom_site_type_symbol
 _atom_site_label
 _atom_site_symmetry_multiplicity
 _atom_site_fract_x
 _atom_site_fract_y
 _atom_site_fract_z
 _atom_site_occupancy
  Ho  Ho0  1  0.333333  0.666667  0.500000  1
  Ho  Ho1  1  0.666667  0.333333  0.500000  1
  Tm  Tm2  1  0.000000  0.000000  0.000000  1
  Al  Al3  1  0.500000  0.000000  0.000000  1
  Al  Al4  1  0.000000  0.500000  0.000000  1
  Al  Al5  1  0.500000  0.500000  0.000000  1
  Al  Al6  1  0.297692  0.000000  0.500000  1
  Al  Al7  1  0.702308  0.000000  0.500000  1
  Al  Al8  1  0.000000  0.297692  0.500000  1
  Al  Al9  1  0.000000  0.702308  0.500000  1
  Al  Al10  1  0.702308  0.702308  0.500000  1
  Al  Al11  1  0.297692  0.297692  0.500000  1
  Ni  Ni12  1  0.180840  0.361681  0.000000  1
  Ni  Ni13  1  0.819160  0.638319  0.000000  1
  Ni  Ni14  1  0.638319  0.819160  0.000000  1
  Ni  Ni15  1  0.361681  0.180840  0.000000  1
  Ni  Ni16  1  0.180840  0.819160  0.000000  1
  Ni  Ni17  1  0.819160  0.180840  0.000000  1
