# generated using pymatgen
data_Nb12Ga8FeNi3N4
_symmetry_space_group_name_H-M   'P 1'
_cell_length_a   8.22209822
_cell_length_b   8.18005758
_cell_length_c   8.18005800
_cell_angle_alpha   59.99999831
_cell_angle_beta   60.16899556
_cell_angle_gamma   60.16899653
_symmetry_Int_Tables_number   1
_chemical_formula_structural   Nb12Ga8FeNi3N4
_chemical_formula_sum   'Nb12 Ga8 Fe1 Ni3 N4'
_cell_volume   390.01835079
_cell_formula_units_Z   1
loop_
 _symmetry_equiv_pos_site_id
 _symmetry_equiv_pos_as_xyz
  1  'x, y, z'
loop_
 _atom_site_type_symbol
 _atom_site_label
 _atom_site_symmetry_multiplicity
 _atom_site_fract_x
 _atom_site_fract_y
 _atom_site_fract_z
 _atom_site_occupancy
  Nb  Nb0  1  0.810923  0.809770  0.189654  1
  Nb  Nb1  1  0.189750  0.192361  0.808945  1
  Nb  Nb2  1  0.810923  0.189654  0.809770  1
  Nb  Nb3  1  0.189750  0.808945  0.192361  1
  Nb  Nb4  1  0.189750  0.808945  0.808945  1
  Nb  Nb5  1  0.810923  0.189654  0.189654  1
  Nb  Nb6  1  0.439077  0.440230  0.060346  1
  Nb  Nb7  1  0.060250  0.057639  0.441055  1
  Nb  Nb8  1  0.439077  0.060346  0.440230  1
  Nb  Nb9  1  0.060250  0.441055  0.057639  1
  Nb  Nb10  1  0.060250  0.441055  0.441055  1
  Nb  Nb11  1  0.439077  0.060346  0.060346  1
  Ga  Ga12  1  0.754105  0.415299  0.415299  1
  Ga  Ga13  1  0.417316  0.750746  0.415970  1
  Ga  Ga14  1  0.417316  0.415970  0.750746  1
  Ga  Ga15  1  0.417316  0.415970  0.415970  1
  Ga  Ga16  1  0.495895  0.834701  0.834701  1
  Ga  Ga17  1  0.832684  0.499254  0.834030  1
  Ga  Ga18  1  0.832684  0.834030  0.499254  1
  Ga  Ga19  1  0.832684  0.834030  0.834030  1
  Fe  Fe20  1  0.125000  0.625000  0.625000  1
  Ni  Ni21  1  0.625000  0.125000  0.625000  1
  Ni  Ni22  1  0.625000  0.625000  0.125000  1
  Ni  Ni23  1  0.625000  0.625000  0.625000  1
  N  N24  1  0.625000  0.125000  0.125000  1
  N  N25  1  0.125000  0.625000  0.125000  1
  N  N26  1  0.125000  0.125000  0.625000  1
  N  N27  1  0.125000  0.125000  0.125000  1
