# generated using pymatgen
data_LiY8AlCo2
_symmetry_space_group_name_H-M   'P 1'
_cell_length_a   9.47292875
_cell_length_b   9.47292931
_cell_length_c   9.51028400
_cell_angle_alpha   59.86947042
_cell_angle_beta   59.86946847
_cell_angle_gamma   59.67282879
_symmetry_Int_Tables_number   1
_chemical_formula_structural   LiY8AlCo2
_chemical_formula_sum   'Li2 Y16 Al2 Co4'
_cell_volume   600.76726762
_cell_formula_units_Z   2
loop_
 _symmetry_equiv_pos_site_id
 _symmetry_equiv_pos_as_xyz
  1  'x, y, z'
loop_
 _atom_site_type_symbol
 _atom_site_label
 _atom_site_symmetry_multiplicity
 _atom_site_fract_x
 _atom_site_fract_y
 _atom_site_fract_z
 _atom_site_occupancy
  Li  Li0  1  0.569010  0.569010  0.575171  1
  Li  Li1  1  0.569010  0.569010  0.286808  1
  Y  Y2  1  0.347146  0.347146  0.351745  1
  Y  Y3  1  0.347146  0.347146  0.953964  1
  Y  Y4  1  0.346471  0.962658  0.345436  1
  Y  Y5  1  0.962658  0.346471  0.345436  1
  Y  Y6  1  0.811258  0.189316  0.191044  1
  Y  Y7  1  0.189316  0.811258  0.808382  1
  Y  Y8  1  0.189316  0.811258  0.191044  1
  Y  Y9  1  0.811258  0.189316  0.808382  1
  Y  Y10  1  0.191808  0.191808  0.808192  1
  Y  Y11  1  0.817566  0.817566  0.182434  1
  Y  Y12  1  0.941172  0.562494  0.561939  1
  Y  Y13  1  0.562494  0.941172  0.934395  1
  Y  Y14  1  0.562494  0.941172  0.561939  1
  Y  Y15  1  0.941172  0.562494  0.934395  1
  Y  Y16  1  0.559673  0.559673  0.940327  1
  Y  Y17  1  0.937579  0.937579  0.562421  1
  Al  Al18  1  0.575033  0.259083  0.582942  1
  Al  Al19  1  0.259083  0.575033  0.582942  1
  Co  Co20  1  0.142841  0.142841  0.138367  1
  Co  Co21  1  0.142841  0.142841  0.575953  1
  Co  Co22  1  0.146031  0.577626  0.138172  1
  Co  Co23  1  0.577626  0.146031  0.138172  1
