# generated using pymatgen
data_Y3Tm9Tc4
_symmetry_space_group_name_H-M   'P 1'
_cell_length_a   6.16908159
_cell_length_b   7.46682775
_cell_length_c   8.98350100
_cell_angle_alpha   90.00000000
_cell_angle_beta   90.00000000
_cell_angle_gamma   90.22623251
_symmetry_Int_Tables_number   1
_chemical_formula_structural   Y3Tm9Tc4
_chemical_formula_sum   'Y3 Tm9 Tc4'
_cell_volume   413.80799937
_cell_formula_units_Z   1
loop_
 _symmetry_equiv_pos_site_id
 _symmetry_equiv_pos_as_xyz
  1  'x, y, z'
loop_
 _atom_site_type_symbol
 _atom_site_label
 _atom_site_symmetry_multiplicity
 _atom_site_fract_x
 _atom_site_fract_y
 _atom_site_fract_z
 _atom_site_occupancy
  Y  Y0  1  0.623687  0.038923  0.250000  1
  Y  Y1  1  0.375945  0.962117  0.750000  1
  Y  Y2  1  0.124834  0.459219  0.750000  1
  Tm  Tm3  1  0.874225  0.541193  0.250000  1
  Tm  Tm4  1  0.152472  0.176528  0.063601  1
  Tm  Tm5  1  0.846868  0.822597  0.937951  1
  Tm  Tm6  1  0.655171  0.326484  0.938192  1
  Tm  Tm7  1  0.846868  0.822597  0.562049  1
  Tm  Tm8  1  0.344730  0.674373  0.063159  1
  Tm  Tm9  1  0.152472  0.176528  0.436399  1
  Tm  Tm10  1  0.344730  0.674373  0.436841  1
  Tm  Tm11  1  0.655171  0.326484  0.561808  1
  Tc  Tc12  1  0.455651  0.384586  0.250000  1
  Tc  Tc13  1  0.550114  0.616726  0.750000  1
  Tc  Tc14  1  0.947153  0.115005  0.750000  1
  Tc  Tc15  1  0.049910  0.882272  0.250000  1
