# generated using pymatgen
data_Tb2YbCeOs8
_symmetry_space_group_name_H-M   'P 1'
_cell_length_a   5.30490900
_cell_length_b   5.30490792
_cell_length_c   8.93513300
_cell_angle_alpha   90.00000000
_cell_angle_beta   90.00000000
_cell_angle_gamma   120.00000050
_symmetry_Int_Tables_number   1
_chemical_formula_structural   Tb2YbCeOs8
_chemical_formula_sum   'Tb2 Yb1 Ce1 Os8'
_cell_volume   217.76467896
_cell_formula_units_Z   1
loop_
 _symmetry_equiv_pos_site_id
 _symmetry_equiv_pos_as_xyz
  1  'x, y, z'
loop_
 _atom_site_type_symbol
 _atom_site_label
 _atom_site_symmetry_multiplicity
 _atom_site_fract_x
 _atom_site_fract_y
 _atom_site_fract_z
 _atom_site_occupancy
  Tb  Tb0  1  0.333333  0.666667  0.433526  1
  Tb  Tb1  1  0.666667  0.333333  0.569503  1
  Yb  Yb2  1  0.666667  0.333333  0.937496  1
  Ce  Ce3  1  0.333333  0.666667  0.063368  1
  Os  Os4  1  0.000000  0.000000  0.498679  1
  Os  Os5  1  0.000000  0.000000  0.997093  1
  Os  Os6  1  0.828678  0.171322  0.251256  1
  Os  Os7  1  0.828678  0.657355  0.251256  1
  Os  Os8  1  0.342645  0.171322  0.251256  1
  Os  Os9  1  0.170853  0.829147  0.748856  1
  Os  Os10  1  0.170853  0.341705  0.748856  1
  Os  Os11  1  0.658295  0.829147  0.748856  1
