# generated using pymatgen
data_Mg7V(CoSb)8
_symmetry_space_group_name_H-M   'P 1'
_cell_length_a   8.54985867
_cell_length_b   8.54985831
_cell_length_c   8.54985800
_cell_angle_alpha   60.00000121
_cell_angle_beta   60.00000259
_cell_angle_gamma   59.99999812
_symmetry_Int_Tables_number   1
_chemical_formula_structural   Mg7V(CoSb)8
_chemical_formula_sum   'Mg7 V1 Co8 Sb8'
_cell_volume   441.93842533
_cell_formula_units_Z   1
loop_
 _symmetry_equiv_pos_site_id
 _symmetry_equiv_pos_as_xyz
  1  'x, y, z'
loop_
 _atom_site_type_symbol
 _atom_site_label
 _atom_site_symmetry_multiplicity
 _atom_site_fract_x
 _atom_site_fract_y
 _atom_site_fract_z
 _atom_site_occupancy
  Mg  Mg0  1  0.500000  0.500000  0.000000  1
  Mg  Mg1  1  0.500000  0.000000  0.500000  1
  Mg  Mg2  1  0.500000  0.500000  0.500000  1
  Mg  Mg3  1  0.000000  0.500000  0.000000  1
  Mg  Mg4  1  0.000000  0.000000  0.500000  1
  Mg  Mg5  1  0.000000  0.500000  0.500000  1
  Mg  Mg6  1  0.500000  0.000000  0.000000  1
  V  V7  1  0.000000  0.000000  0.000000  1
  Co  Co8  1  0.117510  0.117510  0.117510  1
  Co  Co9  1  0.647470  0.117510  0.117510  1
  Co  Co10  1  0.117510  0.117510  0.647470  1
  Co  Co11  1  0.882490  0.352530  0.882490  1
  Co  Co12  1  0.117510  0.647470  0.117510  1
  Co  Co13  1  0.352530  0.882490  0.882490  1
  Co  Co14  1  0.882490  0.882490  0.352530  1
  Co  Co15  1  0.882490  0.882490  0.882490  1
  Sb  Sb16  1  0.250000  0.250000  0.250000  1
  Sb  Sb17  1  0.251184  0.748816  0.251184  1
  Sb  Sb18  1  0.251184  0.251184  0.748816  1
  Sb  Sb19  1  0.748816  0.251184  0.251184  1
  Sb  Sb20  1  0.251184  0.748816  0.748816  1
  Sb  Sb21  1  0.748816  0.748816  0.251184  1
  Sb  Sb22  1  0.748816  0.251184  0.748816  1
  Sb  Sb23  1  0.750000  0.750000  0.750000  1
