# generated using pymatgen
data_Zr3Mn8NiP6
_symmetry_space_group_name_H-M   'P 1'
_cell_length_a   3.64698700
_cell_length_b   10.49540000
_cell_length_c   12.24199200
_cell_angle_alpha   90.00000000
_cell_angle_beta   90.00000000
_cell_angle_gamma   90.00000000
_symmetry_Int_Tables_number   1
_chemical_formula_structural   Zr3Mn8NiP6
_chemical_formula_sum   'Zr6 Mn16 Ni2 P12'
_cell_volume   468.58167625
_cell_formula_units_Z   2
loop_
 _symmetry_equiv_pos_site_id
 _symmetry_equiv_pos_as_xyz
  1  'x, y, z'
loop_
 _atom_site_type_symbol
 _atom_site_label
 _atom_site_symmetry_multiplicity
 _atom_site_fract_x
 _atom_site_fract_y
 _atom_site_fract_z
 _atom_site_occupancy
  Zr  Zr0  1  0.751913  0.000000  0.470884  1
  Zr  Zr1  1  0.251913  0.500000  0.529116  1
  Zr  Zr2  1  0.251860  0.678318  0.794380  1
  Zr  Zr3  1  0.251860  0.321682  0.794380  1
  Zr  Zr4  1  0.751860  0.821682  0.205620  1
  Zr  Zr5  1  0.751860  0.178318  0.205620  1
  Mn  Mn6  1  0.751748  0.000000  0.009784  1
  Mn  Mn7  1  0.251748  0.500000  0.990216  1
  Mn  Mn8  1  0.251847  0.202502  0.567818  1
  Mn  Mn9  1  0.251847  0.797498  0.567818  1
  Mn  Mn10  1  0.751847  0.297498  0.432182  1
  Mn  Mn11  1  0.751847  0.702502  0.432182  1
  Mn  Mn12  1  0.251831  0.620149  0.300147  1
  Mn  Mn13  1  0.251831  0.379851  0.300147  1
  Mn  Mn14  1  0.751831  0.879851  0.699853  1
  Mn  Mn15  1  0.751831  0.120149  0.699853  1
  Mn  Mn16  1  0.251759  0.169145  0.003320  1
  Mn  Mn17  1  0.251759  0.830855  0.003320  1
  Mn  Mn18  1  0.751759  0.330855  0.996680  1
  Mn  Mn19  1  0.751759  0.669145  0.996680  1
  Mn  Mn20  1  0.251655  0.000000  0.839005  1
  Mn  Mn21  1  0.751655  0.500000  0.160995  1
  Ni  Ni22  1  0.252058  0.000000  0.296300  1
  Ni  Ni23  1  0.752058  0.500000  0.703700  1
  P  P24  1  0.251854  0.179775  0.381311  1
  P  P25  1  0.251854  0.820225  0.381311  1
  P  P26  1  0.751854  0.320225  0.618689  1
  P  P27  1  0.751854  0.679775  0.618689  1
  P  P28  1  0.251770  0.000000  0.121997  1
  P  P29  1  0.751770  0.500000  0.878003  1
  P  P30  1  0.251754  0.652931  0.118363  1
  P  P31  1  0.251754  0.347069  0.118363  1
  P  P32  1  0.751754  0.847069  0.881637  1
  P  P33  1  0.751754  0.152931  0.881637  1
  P  P34  1  0.251849  0.000000  0.644031  1
  P  P35  1  0.751849  0.500000  0.355969  1
