# generated using pymatgen
data_Na4Sr2SnP4
_symmetry_space_group_name_H-M   'P 1'
_cell_length_a   9.60322142
_cell_length_b   9.60322248
_cell_length_c   7.38573073
_cell_angle_alpha   89.25942622
_cell_angle_beta   89.25942377
_cell_angle_gamma   120.13648638
_symmetry_Int_Tables_number   1
_chemical_formula_structural   Na4Sr2SnP4
_chemical_formula_sum   'Na8 Sr4 Sn2 P8'
_cell_volume   588.86173987
_cell_formula_units_Z   2
loop_
 _symmetry_equiv_pos_site_id
 _symmetry_equiv_pos_as_xyz
  1  'x, y, z'
loop_
 _atom_site_type_symbol
 _atom_site_label
 _atom_site_symmetry_multiplicity
 _atom_site_fract_x
 _atom_site_fract_y
 _atom_site_fract_z
 _atom_site_occupancy
  Na  Na0  1  0.469246  0.931578  0.380622  1
  Na  Na1  1  0.931578  0.469246  0.880622  1
  Na  Na2  1  0.864225  0.717932  0.186926  1
  Na  Na3  1  0.292475  0.137272  0.229811  1
  Na  Na4  1  0.850255  0.139717  0.210835  1
  Na  Na5  1  0.137272  0.292475  0.729811  1
  Na  Na6  1  0.717932  0.864225  0.686926  1
  Na  Na7  1  0.139717  0.850255  0.710835  1
  Sr  Sr8  1  0.053606  0.530182  0.386832  1
  Sr  Sr9  1  0.481533  0.534465  0.379339  1
  Sr  Sr10  1  0.530182  0.053606  0.886832  1
  Sr  Sr11  1  0.534465  0.481533  0.879339  1
  Sn  Sn12  1  0.660186  0.323793  0.500630  1
  Sn  Sn13  1  0.323793  0.660186  0.000630  1
  P  P14  1  0.192894  0.373546  0.124159  1
  P  P15  1  0.624451  0.811350  0.088631  1
  P  P16  1  0.194724  0.817485  0.106558  1
  P  P17  1  0.811350  0.624451  0.588631  1
  P  P18  1  0.373546  0.192894  0.624159  1
  P  P19  1  0.817485  0.194724  0.606558  1
  P  P20  1  0.662080  0.337022  0.153785  1
  P  P21  1  0.337022  0.662080  0.653785  1
