# generated using pymatgen
data_Sc8Co3Ru4Pt
_symmetry_space_group_name_H-M   'P 1'
_cell_length_a   6.31848600
_cell_length_b   4.53741200
_cell_length_c   9.09224100
_cell_angle_alpha   90.00000000
_cell_angle_beta   90.00044372
_cell_angle_gamma   90.00000000
_symmetry_Int_Tables_number   1
_chemical_formula_structural   Sc8Co3Ru4Pt
_chemical_formula_sum   'Sc8 Co3 Ru4 Pt1'
_cell_volume   260.67067797
_cell_formula_units_Z   1
loop_
 _symmetry_equiv_pos_site_id
 _symmetry_equiv_pos_as_xyz
  1  'x, y, z'
loop_
 _atom_site_type_symbol
 _atom_site_label
 _atom_site_symmetry_multiplicity
 _atom_site_fract_x
 _atom_site_fract_y
 _atom_site_fract_z
 _atom_site_occupancy
  Sc  Sc0  1  0.007165  0.749999  0.124967  1
  Sc  Sc1  1  0.493202  0.749999  0.125026  1
  Sc  Sc2  1  0.003119  0.249999  0.380512  1
  Sc  Sc3  1  0.497254  0.249999  0.380571  1
  Sc  Sc4  1  0.501022  0.749999  0.624981  1
  Sc  Sc5  1  0.998584  0.749999  0.625001  1
  Sc  Sc6  1  0.496968  0.249999  0.869474  1
  Sc  Sc7  1  0.002655  0.249999  0.869476  1
  Co  Co8  1  0.250129  0.749999  0.375352  1
  Co  Co9  1  0.749868  0.249999  0.625005  1
  Co  Co10  1  0.249865  0.749999  0.874630  1
  Ru  Ru11  1  0.250134  0.249999  0.125080  1
  Ru  Ru12  1  0.750156  0.749999  0.375702  1
  Ru  Ru13  1  0.249873  0.249999  0.625083  1
  Ru  Ru14  1  0.749876  0.749999  0.874157  1
  Pt  Pt15  1  0.750131  0.249999  0.124980  1
