# generated using pymatgen
data_K8Li4DySc3As8
_symmetry_space_group_name_H-M   'P 1'
_cell_length_a   10.13455032
_cell_length_b   10.13455119
_cell_length_c   6.60517763
_cell_angle_alpha   89.97256050
_cell_angle_beta   90.02742934
_cell_angle_gamma   98.75756984
_symmetry_Int_Tables_number   1
_chemical_formula_structural   K8Li4DySc3As8
_chemical_formula_sum   'K8 Li4 Dy1 Sc3 As8'
_cell_volume   670.50250969
_cell_formula_units_Z   1
loop_
 _symmetry_equiv_pos_site_id
 _symmetry_equiv_pos_as_xyz
  1  'x, y, z'
loop_
 _atom_site_type_symbol
 _atom_site_label
 _atom_site_symmetry_multiplicity
 _atom_site_fract_x
 _atom_site_fract_y
 _atom_site_fract_z
 _atom_site_occupancy
  K  K0  1  0.069340  0.433517  0.748029  1
  K  K1  1  0.676525  0.323928  0.787062  1
  K  K2  1  0.323928  0.676525  0.212938  1
  K  K3  1  0.570279  0.929314  0.749552  1
  K  K4  1  0.433517  0.069340  0.251971  1
  K  K5  1  0.929314  0.570279  0.250448  1
  K  K6  1  0.820922  0.176812  0.289007  1
  K  K7  1  0.176812  0.820922  0.710993  1
  Li  Li8  1  0.119706  0.119706  0.500000  1
  Li  Li9  1  0.879318  0.879318  0.500000  1
  Li  Li10  1  0.382285  0.382285  0.000000  1
  Li  Li11  1  0.620003  0.620003  0.000000  1
  Dy  Dy12  1  0.131589  0.131589  0.000000  1
  Sc  Sc13  1  0.867370  0.867370  0.000000  1
  Sc  Sc14  1  0.370773  0.370773  0.500000  1
  Sc  Sc15  1  0.630383  0.630383  0.500000  1
  As  As16  1  0.840855  0.658496  0.750176  1
  As  As17  1  0.089851  0.899708  0.231558  1
  As  As18  1  0.408965  0.592001  0.725772  1
  As  As19  1  0.592001  0.408965  0.274228  1
  As  As20  1  0.658496  0.840855  0.249824  1
  As  As21  1  0.157931  0.350129  0.259254  1
  As  As22  1  0.350129  0.157931  0.740746  1
  As  As23  1  0.899708  0.089851  0.768442  1
