# generated using pymatgen
data_Lu3ZnCd2HgAu2
_symmetry_space_group_name_H-M   'P 1'
_cell_length_a   7.79540900
_cell_length_b   7.77583211
_cell_length_c   3.71648800
_cell_angle_alpha   90.00000000
_cell_angle_beta   90.00000000
_cell_angle_gamma   120.08332273
_symmetry_Int_Tables_number   1
_chemical_formula_structural   Lu3ZnCd2HgAu2
_chemical_formula_sum   'Lu3 Zn1 Cd2 Hg1 Au2'
_cell_volume   194.93233947
_cell_formula_units_Z   1
loop_
 _symmetry_equiv_pos_site_id
 _symmetry_equiv_pos_as_xyz
  1  'x, y, z'
loop_
 _atom_site_type_symbol
 _atom_site_label
 _atom_site_symmetry_multiplicity
 _atom_site_fract_x
 _atom_site_fract_y
 _atom_site_fract_z
 _atom_site_occupancy
  Lu  Lu0  1  0.585448  0.000000  0.000000  1
  Lu  Lu1  1  0.002965  0.594487  0.000000  1
  Lu  Lu2  1  0.408478  0.405513  0.000000  1
  Zn  Zn3  1  0.998236  0.000000  0.000000  1
  Cd  Cd4  1  0.997772  0.256423  0.500000  1
  Cd  Cd5  1  0.741349  0.743577  0.500000  1
  Hg  Hg6  1  0.258944  0.000000  0.500000  1
  Au  Au7  1  0.333983  0.661160  0.500000  1
  Au  Au8  1  0.672825  0.338840  0.500000  1
