# generated using pymatgen
data_Ti3NbAl2(B2Ru5)2
_symmetry_space_group_name_H-M   'P 1'
_cell_length_a   9.25924064
_cell_length_b   9.25924064
_cell_length_c   2.98110000
_cell_angle_alpha   90.00000000
_cell_angle_beta   90.00000000
_cell_angle_gamma   89.75802596
_symmetry_Int_Tables_number   1
_chemical_formula_structural   Ti3NbAl2(B2Ru5)2
_chemical_formula_sum   'Ti3 Nb1 Al2 B4 Ru10'
_cell_volume   255.57796878
_cell_formula_units_Z   1
loop_
 _symmetry_equiv_pos_site_id
 _symmetry_equiv_pos_as_xyz
  1  'x, y, z'
loop_
 _atom_site_type_symbol
 _atom_site_label
 _atom_site_symmetry_multiplicity
 _atom_site_fract_x
 _atom_site_fract_y
 _atom_site_fract_z
 _atom_site_occupancy
  Ti  Ti0  1  0.826318  0.674604  0.000000  1
  Ti  Ti1  1  0.174604  0.326318  0.000000  1
  Ti  Ti2  1  0.323376  0.823376  0.000000  1
  Nb  Nb3  1  0.675311  0.175311  0.000000  1
  Al  Al4  1  0.500236  0.498599  0.000000  1
  Al  Al5  1  0.998599  0.000236  0.000000  1
  B  B6  1  0.624806  0.872889  0.000000  1
  B  B7  1  0.372889  0.124806  0.000000  1
  B  B8  1  0.126360  0.626360  0.000000  1
  B  B9  1  0.876178  0.376178  0.000000  1
  Ru  Ru10  1  0.572913  0.711793  0.500000  1
  Ru  Ru11  1  0.427762  0.286004  0.500000  1
  Ru  Ru12  1  0.070907  0.787340  0.500000  1
  Ru  Ru13  1  0.932447  0.214862  0.500000  1
  Ru  Ru14  1  0.287340  0.570907  0.500000  1
  Ru  Ru15  1  0.714862  0.432447  0.500000  1
  Ru  Ru16  1  0.211793  0.072913  0.500000  1
  Ru  Ru17  1  0.786004  0.927762  0.500000  1
  Ru  Ru18  1  0.496389  0.996389  0.500000  1
  Ru  Ru19  1  0.000905  0.500905  0.500000  1
