# generated using pymatgen
data_Y4Ge3Sb3Rh7
_symmetry_space_group_name_H-M   'P 1'
_cell_length_a   7.45420206
_cell_length_b   7.45420167
_cell_length_c   7.49521800
_cell_angle_alpha   109.58273087
_cell_angle_beta   109.58272981
_cell_angle_gamma   109.35949037
_symmetry_Int_Tables_number   1
_chemical_formula_structural   Y4Ge3Sb3Rh7
_chemical_formula_sum   'Y4 Ge3 Sb3 Rh7'
_cell_volume   320.15855373
_cell_formula_units_Z   1
loop_
 _symmetry_equiv_pos_site_id
 _symmetry_equiv_pos_as_xyz
  1  'x, y, z'
loop_
 _atom_site_type_symbol
 _atom_site_label
 _atom_site_symmetry_multiplicity
 _atom_site_fract_x
 _atom_site_fract_y
 _atom_site_fract_z
 _atom_site_occupancy
  Y  Y0  1  0.000000  0.000000  0.544929  1
  Y  Y1  1  0.000000  0.479466  0.988708  1
  Y  Y2  1  0.479466  0.000000  0.988708  1
  Y  Y3  1  0.520534  0.520534  0.509242  1
  Ge  Ge4  1  0.335002  0.335002  0.006490  1
  Ge  Ge5  1  0.664998  0.000000  0.671489  1
  Ge  Ge6  1  0.000000  0.664998  0.671489  1
  Sb  Sb7  1  0.695772  0.695772  0.009530  1
  Sb  Sb8  1  0.304228  0.000000  0.313758  1
  Sb  Sb9  1  0.000000  0.304228  0.313758  1
  Rh  Rh10  1  0.749050  0.248929  0.502440  1
  Rh  Rh11  1  0.751071  0.500121  0.253511  1
  Rh  Rh12  1  0.499879  0.250950  0.753390  1
  Rh  Rh13  1  0.250950  0.499879  0.753390  1
  Rh  Rh14  1  0.248929  0.749050  0.502440  1
  Rh  Rh15  1  0.500121  0.751071  0.253511  1
  Rh  Rh16  1  0.000000  0.000000  0.963217  1
