# generated using pymatgen
data_TbNd5Er4(In2Pd)4
_symmetry_space_group_name_H-M   'P 1'
_cell_length_a   3.69345500
_cell_length_b   8.29651778
_cell_length_c   18.39280924
_cell_angle_alpha   89.83403210
_cell_angle_beta   90.00000000
_cell_angle_gamma   90.00000000
_symmetry_Int_Tables_number   1
_chemical_formula_structural   TbNd5Er4(In2Pd)4
_chemical_formula_sum   'Tb1 Nd5 Er4 In8 Pd4'
_cell_volume   563.60508793
_cell_formula_units_Z   1
loop_
 _symmetry_equiv_pos_site_id
 _symmetry_equiv_pos_as_xyz
  1  'x, y, z'
loop_
 _atom_site_type_symbol
 _atom_site_label
 _atom_site_symmetry_multiplicity
 _atom_site_fract_x
 _atom_site_fract_y
 _atom_site_fract_z
 _atom_site_occupancy
  Tb  Tb0  1  0.000000  0.234761  0.214732  1
  Nd  Nd1  1  0.000000  0.502268  0.498335  1
  Nd  Nd2  1  0.000000  0.997216  0.999891  1
  Nd  Nd3  1  0.000000  0.735771  0.285800  1
  Nd  Nd4  1  0.000000  0.266355  0.713250  1
  Nd  Nd5  1  0.000000  0.765592  0.786918  1
  Er  Er6  1  0.000000  0.615805  0.087632  1
  Er  Er7  1  0.000000  0.379072  0.916281  1
  Er  Er8  1  0.000000  0.882130  0.584724  1
  Er  Er9  1  0.000000  0.121117  0.412825  1
  In  In10  1  0.500000  0.691203  0.939514  1
  In  In11  1  0.500000  0.299733  0.065610  1
  In  In12  1  0.500000  0.810516  0.437368  1
  In  In13  1  0.500000  0.195123  0.560833  1
  In  In14  1  0.500000  0.593148  0.652622  1
  In  In15  1  0.500000  0.407047  0.345525  1
  In  In16  1  0.500000  0.914437  0.152863  1
  In  In17  1  0.500000  0.091917  0.847271  1
  Pd  Pd18  1  0.500000  0.513149  0.194125  1
  Pd  Pd19  1  0.500000  0.474994  0.807773  1
  Pd  Pd20  1  0.500000  0.976398  0.692679  1
  Pd  Pd21  1  0.500000  0.032246  0.303431  1
