# generated using pymatgen
data_La16HoTm3Sn16
_symmetry_space_group_name_H-M   'P 1'
_cell_length_a   8.40474002
_cell_length_b   8.49757502
_cell_length_c   16.25024100
_cell_angle_alpha   90.00000000
_cell_angle_beta   90.00000000
_cell_angle_gamma   89.99285427
_symmetry_Int_Tables_number   1
_chemical_formula_structural   La16HoTm3Sn16
_chemical_formula_sum   'La16 Ho1 Tm3 Sn16'
_cell_volume   1160.59072090
_cell_formula_units_Z   1
loop_
 _symmetry_equiv_pos_site_id
 _symmetry_equiv_pos_as_xyz
  1  'x, y, z'
loop_
 _atom_site_type_symbol
 _atom_site_label
 _atom_site_symmetry_multiplicity
 _atom_site_fract_x
 _atom_site_fract_y
 _atom_site_fract_z
 _atom_site_occupancy
  La  La0  1  0.972936  0.818881  0.899452  1
  La  La1  1  0.472974  0.680975  0.600563  1
  La  La2  1  0.527074  0.318933  0.100594  1
  La  La3  1  0.026962  0.181047  0.399388  1
  La  La4  1  0.972936  0.818881  0.600548  1
  La  La5  1  0.472974  0.680975  0.899437  1
  La  La6  1  0.527074  0.318933  0.399406  1
  La  La7  1  0.026962  0.181047  0.100612  1
  La  La8  1  0.879992  0.660644  0.382366  1
  La  La9  1  0.379988  0.839419  0.117659  1
  La  La10  1  0.620179  0.160646  0.617608  1
  La  La11  1  0.119922  0.339493  0.882397  1
  La  La12  1  0.119922  0.339493  0.617603  1
  La  La13  1  0.620179  0.160646  0.882392  1
  La  La14  1  0.379988  0.839419  0.382341  1
  La  La15  1  0.879992  0.660644  0.117634  1
  Ho  Ho16  1  0.288139  0.002862  0.750000  1
  Tm  Tm17  1  0.787910  0.496935  0.750000  1
  Tm  Tm18  1  0.212048  0.502913  0.250000  1
  Tm  Tm19  1  0.712095  0.997113  0.250000  1
  Sn  Sn20  1  0.781136  0.470233  0.546229  1
  Sn  Sn21  1  0.281155  0.029791  0.953892  1
  Sn  Sn22  1  0.718787  0.970260  0.453762  1
  Sn  Sn23  1  0.218857  0.529763  0.046240  1
  Sn  Sn24  1  0.218857  0.529763  0.453760  1
  Sn  Sn25  1  0.718787  0.970260  0.046238  1
  Sn  Sn26  1  0.281155  0.029791  0.546108  1
  Sn  Sn27  1  0.781136  0.470233  0.953771  1
  Sn  Sn28  1  0.168692  0.644505  0.750000  1
  Sn  Sn29  1  0.668620  0.855363  0.750000  1
  Sn  Sn30  1  0.331365  0.144748  0.250000  1
  Sn  Sn31  1  0.831337  0.355199  0.250000  1
  Sn  Sn32  1  0.923418  0.117474  0.750000  1
  Sn  Sn33  1  0.423516  0.382698  0.750000  1
  Sn  Sn34  1  0.576525  0.617526  0.250000  1
  Sn  Sn35  1  0.076410  0.882494  0.250000  1
