# generated using pymatgen
data_Cs6Mn2S7
_symmetry_space_group_name_H-M   'P 1'
_cell_length_a   11.43822600
_cell_length_b   8.58682065
_cell_length_c   14.19519602
_cell_angle_alpha   53.09745505
_cell_angle_beta   90.00000000
_cell_angle_gamma   90.00000000
_symmetry_Int_Tables_number   1
_chemical_formula_structural   Cs6Mn2S7
_chemical_formula_sum   'Cs12 Mn4 S14'
_cell_volume   1114.90211548
_cell_formula_units_Z   2
loop_
 _symmetry_equiv_pos_site_id
 _symmetry_equiv_pos_as_xyz
  1  'x, y, z'
loop_
 _atom_site_type_symbol
 _atom_site_label
 _atom_site_symmetry_multiplicity
 _atom_site_fract_x
 _atom_site_fract_y
 _atom_site_fract_z
 _atom_site_occupancy
  Cs  Cs0  1  0.794664  0.574930  0.293238  1
  Cs  Cs1  1  0.647390  0.947639  0.914954  1
  Cs  Cs2  1  0.529225  0.189720  0.562538  1
  Cs  Cs3  1  0.029225  0.810280  0.937462  1
  Cs  Cs4  1  0.294664  0.425070  0.206762  1
  Cs  Cs5  1  0.147390  0.052361  0.585046  1
  Cs  Cs6  1  0.852610  0.947639  0.414954  1
  Cs  Cs7  1  0.705336  0.574930  0.793238  1
  Cs  Cs8  1  0.970775  0.189720  0.062538  1
  Cs  Cs9  1  0.470775  0.810280  0.437462  1
  Cs  Cs10  1  0.352610  0.052361  0.085046  1
  Cs  Cs11  1  0.205336  0.425070  0.706762  1
  Mn  Mn12  1  0.860741  0.317525  0.631833  1
  Mn  Mn13  1  0.360741  0.682475  0.868167  1
  Mn  Mn14  1  0.639259  0.317525  0.131833  1
  Mn  Mn15  1  0.139259  0.682475  0.368167  1
  S  S16  1  0.000000  0.500000  0.500000  1
  S  S17  1  0.091816  0.737067  0.202965  1
  S  S18  1  0.294632  0.502924  0.425136  1
  S  S19  1  0.332463  0.942343  0.860281  1
  S  S20  1  0.832463  0.057657  0.639719  1
  S  S21  1  0.794632  0.497076  0.074864  1
  S  S22  1  0.591816  0.262933  0.297035  1
  S  S23  1  0.500000  0.500000  0.000000  1
  S  S24  1  0.408184  0.737067  0.702965  1
  S  S25  1  0.205368  0.502924  0.925136  1
  S  S26  1  0.167537  0.942343  0.360281  1
  S  S27  1  0.667537  0.057657  0.139719  1
  S  S28  1  0.705368  0.497076  0.574864  1
  S  S29  1  0.908184  0.262933  0.797035  1
