# generated using pymatgen
data_Er11TmCdCo5
_symmetry_space_group_name_H-M   'P 1'
_cell_length_a   8.20103282
_cell_length_b   8.20103133
_cell_length_c   8.20268021
_cell_angle_alpha   110.68843515
_cell_angle_beta   110.54092800
_cell_angle_gamma   107.19926990
_symmetry_Int_Tables_number   1
_chemical_formula_structural   Er11TmCdCo5
_chemical_formula_sum   'Er11 Tm1 Cd1 Co5'
_cell_volume   424.23621174
_cell_formula_units_Z   1
loop_
 _symmetry_equiv_pos_site_id
 _symmetry_equiv_pos_as_xyz
  1  'x, y, z'
loop_
 _atom_site_type_symbol
 _atom_site_label
 _atom_site_symmetry_multiplicity
 _atom_site_fract_x
 _atom_site_fract_y
 _atom_site_fract_z
 _atom_site_occupancy
  Er  Er0  1  0.712024  0.816463  0.528487  1
  Er  Er1  1  0.288001  0.816795  0.104796  1
  Er  Er2  1  0.711738  0.183565  0.895303  1
  Er  Er3  1  0.619820  0.315140  0.304870  1
  Er  Er4  1  0.380014  0.684424  0.695170  1
  Er  Er5  1  0.010748  0.315158  0.695170  1
  Er  Er6  1  0.989729  0.685049  0.304870  1
  Er  Er7  1  0.212158  0.405248  0.193671  1
  Er  Er8  1  0.787516  0.594189  0.806277  1
  Er  Er9  1  0.212088  0.018761  0.806277  1
  Er  Er10  1  0.788424  0.981514  0.193671  1
  Tm  Tm11  1  0.287809  0.183255  0.471064  1
  Cd  Cd12  1  0.499951  0.499889  0.999840  1
  Co  Co13  1  0.000233  0.376458  0.376690  1
  Co  Co14  1  0.999978  0.623471  0.623449  1
  Co  Co15  1  0.386645  0.887230  0.500042  1
  Co  Co16  1  0.612812  0.113397  0.500042  1
  Co  Co17  1  0.000314  0.999996  0.000310  1
