# generated using pymatgen
data_LiTm16Tl(Ni2Ag)2
_symmetry_space_group_name_H-M   'P 1'
_cell_length_a   9.39446642
_cell_length_b   9.35749644
_cell_length_c   9.35749538
_cell_angle_alpha   60.08274139
_cell_angle_beta   60.19597867
_cell_angle_gamma   60.19599084
_symmetry_Int_Tables_number   1
_chemical_formula_structural   LiTm16Tl(Ni2Ag)2
_chemical_formula_sum   'Li1 Tm16 Tl1 Ni4 Ag2'
_cell_volume   583.75287185
_cell_formula_units_Z   1
loop_
 _symmetry_equiv_pos_site_id
 _symmetry_equiv_pos_as_xyz
  1  'x, y, z'
loop_
 _atom_site_type_symbol
 _atom_site_label
 _atom_site_symmetry_multiplicity
 _atom_site_fract_x
 _atom_site_fract_y
 _atom_site_fract_z
 _atom_site_occupancy
  Li  Li0  1  0.278232  0.572856  0.572856  1
  Tm  Tm1  1  0.349918  0.347752  0.347752  1
  Tm  Tm2  1  0.349250  0.347595  0.955932  1
  Tm  Tm3  1  0.349250  0.955932  0.347595  1
  Tm  Tm4  1  0.951841  0.349250  0.349250  1
  Tm  Tm5  1  0.809785  0.188667  0.188667  1
  Tm  Tm6  1  0.188024  0.811949  0.811949  1
  Tm  Tm7  1  0.186242  0.813538  0.185991  1
  Tm  Tm8  1  0.809570  0.189993  0.810659  1
  Tm  Tm9  1  0.186242  0.185991  0.813538  1
  Tm  Tm10  1  0.809570  0.810659  0.189993  1
  Tm  Tm11  1  0.935297  0.564812  0.564812  1
  Tm  Tm12  1  0.562920  0.937375  0.937375  1
  Tm  Tm13  1  0.563358  0.941250  0.564542  1
  Tm  Tm14  1  0.932075  0.564648  0.939967  1
  Tm  Tm15  1  0.563358  0.564542  0.941250  1
  Tm  Tm16  1  0.932075  0.939967  0.564648  1
  Tl  Tl17  1  0.580108  0.582244  0.582244  1
  Ni  Ni18  1  0.142564  0.142678  0.142678  1
  Ni  Ni19  1  0.142197  0.142750  0.572205  1
  Ni  Ni20  1  0.142197  0.572205  0.142750  1
  Ni  Ni21  1  0.572375  0.142342  0.142342  1
  Ag  Ag22  1  0.581779  0.581990  0.249020  1
  Ag  Ag23  1  0.581779  0.249020  0.581990  1
