# generated using pymatgen
data_Ce7TmSi15Rh
_symmetry_space_group_name_H-M   'P 1'
_cell_length_a   8.15975700
_cell_length_b   8.17278960
_cell_length_c   8.30835100
_cell_angle_alpha   89.91524939
_cell_angle_beta   90.00000000
_cell_angle_gamma   119.94726800
_symmetry_Int_Tables_number   1
_chemical_formula_structural   Ce7TmSi15Rh
_chemical_formula_sum   'Ce7 Tm1 Si15 Rh1'
_cell_volume   480.09026709
_cell_formula_units_Z   1
loop_
 _symmetry_equiv_pos_site_id
 _symmetry_equiv_pos_as_xyz
  1  'x, y, z'
loop_
 _atom_site_type_symbol
 _atom_site_label
 _atom_site_symmetry_multiplicity
 _atom_site_fract_x
 _atom_site_fract_y
 _atom_site_fract_z
 _atom_site_occupancy
  Ce  Ce0  1  0.999797  0.999593  0.749489  1
  Ce  Ce1  1  0.000139  0.000278  0.251318  1
  Ce  Ce2  1  0.500326  0.499247  0.747373  1
  Ce  Ce3  1  0.499874  0.999748  0.748219  1
  Ce  Ce4  1  0.998920  0.499247  0.747373  1
  Ce  Ce5  1  0.500307  0.499366  0.252244  1
  Ce  Ce6  1  0.999060  0.499366  0.252244  1
  Tm  Tm7  1  0.500984  0.001967  0.253090  1
  Si  Si8  1  0.666463  0.332927  0.002006  1
  Si  Si9  1  0.666340  0.332679  0.498275  1
  Si  Si10  1  0.333751  0.667502  0.496493  1
  Si  Si11  1  0.834120  0.165669  0.001651  1
  Si  Si12  1  0.834594  0.669186  0.000564  1
  Si  Si13  1  0.331548  0.165669  0.001651  1
  Si  Si14  1  0.831943  0.166826  0.497692  1
  Si  Si15  1  0.832265  0.664532  0.498571  1
  Si  Si16  1  0.334882  0.166826  0.497692  1
  Si  Si17  1  0.166233  0.834016  0.497424  1
  Si  Si18  1  0.667781  0.834016  0.497424  1
  Si  Si19  1  0.166310  0.332619  0.498371  1
  Si  Si20  1  0.169027  0.833407  0.003594  1
  Si  Si21  1  0.664379  0.833407  0.003594  1
  Si  Si22  1  0.167285  0.334567  0.000507  1
  Rh  Rh23  1  0.333671  0.667342  0.003140  1
