# generated using pymatgen
data_Eu3CoN3
_symmetry_space_group_name_H-M   'P 1'
_cell_length_a   7.33128400
_cell_length_b   7.33128470
_cell_length_c   5.10305900
_cell_angle_alpha   90.00000000
_cell_angle_beta   90.00000000
_cell_angle_gamma   119.99999682
_symmetry_Int_Tables_number   1
_chemical_formula_structural   Eu3CoN3
_chemical_formula_sum   'Eu6 Co2 N6'
_cell_volume   237.53158354
_cell_formula_units_Z   2
loop_
 _symmetry_equiv_pos_site_id
 _symmetry_equiv_pos_as_xyz
  1  'x, y, z'
loop_
 _atom_site_type_symbol
 _atom_site_label
 _atom_site_symmetry_multiplicity
 _atom_site_fract_x
 _atom_site_fract_y
 _atom_site_fract_z
 _atom_site_occupancy
  Eu  Eu0  1  0.925914  0.636410  0.250000  1
  Eu  Eu1  1  0.710496  0.074086  0.250000  1
  Eu  Eu2  1  0.363590  0.289504  0.250000  1
  Eu  Eu3  1  0.074086  0.363590  0.750000  1
  Eu  Eu4  1  0.289504  0.925914  0.750000  1
  Eu  Eu5  1  0.636410  0.710496  0.750000  1
  Co  Co6  1  0.666667  0.333333  0.750000  1
  Co  Co7  1  0.333333  0.666667  0.250000  1
  N  N8  1  0.909472  0.603138  0.750000  1
  N  N9  1  0.693666  0.090528  0.750000  1
  N  N10  1  0.396862  0.306334  0.750000  1
  N  N11  1  0.090528  0.396862  0.250000  1
  N  N12  1  0.306334  0.909472  0.250000  1
  N  N13  1  0.603138  0.693666  0.250000  1
