# generated using pymatgen
data_Sc3AlIn2Pt3
_symmetry_space_group_name_H-M   'P 1'
_cell_length_a   7.43366825
_cell_length_b   7.43366790
_cell_length_c   3.62025600
_cell_angle_alpha   90.00000000
_cell_angle_beta   90.00000000
_cell_angle_gamma   119.63724850
_symmetry_Int_Tables_number   1
_chemical_formula_structural   Sc3AlIn2Pt3
_chemical_formula_sum   'Sc3 Al1 In2 Pt3'
_cell_volume   173.88100994
_cell_formula_units_Z   1
loop_
 _symmetry_equiv_pos_site_id
 _symmetry_equiv_pos_as_xyz
  1  'x, y, z'
loop_
 _atom_site_type_symbol
 _atom_site_label
 _atom_site_symmetry_multiplicity
 _atom_site_fract_x
 _atom_site_fract_y
 _atom_site_fract_z
 _atom_site_occupancy
  Sc  Sc0  1  0.600150  0.990549  0.000000  1
  Sc  Sc1  1  0.409986  0.409986  0.000000  1
  Sc  Sc2  1  0.990549  0.600150  0.000000  1
  Al  Al3  1  0.731750  0.731750  0.500000  1
  In  In4  1  0.004001  0.270241  0.500000  1
  In  In5  1  0.270241  0.004001  0.500000  1
  Pt  Pt6  1  0.671555  0.353871  0.500000  1
  Pt  Pt7  1  0.967897  0.967897  0.000000  1
  Pt  Pt8  1  0.353871  0.671555  0.500000  1
