# generated using pymatgen
data_Yb12Ru3Pt
_symmetry_space_group_name_H-M   'P 1'
_cell_length_a   6.18478700
_cell_length_b   7.69901924
_cell_length_c   9.21131500
_cell_angle_alpha   90.00000000
_cell_angle_beta   90.00000000
_cell_angle_gamma   90.26806358
_symmetry_Int_Tables_number   1
_chemical_formula_structural   Yb12Ru3Pt
_chemical_formula_sum   'Yb12 Ru3 Pt1'
_cell_volume   438.60848973
_cell_formula_units_Z   1
loop_
 _symmetry_equiv_pos_site_id
 _symmetry_equiv_pos_as_xyz
  1  'x, y, z'
loop_
 _atom_site_type_symbol
 _atom_site_label
 _atom_site_symmetry_multiplicity
 _atom_site_fract_x
 _atom_site_fract_y
 _atom_site_fract_z
 _atom_site_occupancy
  Yb  Yb0  1  0.351324  0.661835  0.062487  1
  Yb  Yb1  1  0.151001  0.172157  0.438913  1
  Yb  Yb2  1  0.652051  0.332681  0.568912  1
  Yb  Yb3  1  0.846761  0.834197  0.930289  1
  Yb  Yb4  1  0.652051  0.332681  0.931088  1
  Yb  Yb5  1  0.846761  0.834197  0.569711  1
  Yb  Yb6  1  0.351324  0.661835  0.437513  1
  Yb  Yb7  1  0.151001  0.172157  0.061087  1
  Yb  Yb8  1  0.868888  0.531982  0.250000  1
  Yb  Yb9  1  0.624013  0.041960  0.250000  1
  Yb  Yb10  1  0.124069  0.465183  0.750000  1
  Yb  Yb11  1  0.374833  0.962298  0.750000  1
  Ru  Ru12  1  0.449382  0.370912  0.250000  1
  Ru  Ru13  1  0.955641  0.124359  0.750000  1
  Ru  Ru14  1  0.548634  0.627773  0.750000  1
  Pt  Pt15  1  0.052266  0.873790  0.250000  1
