# generated using pymatgen
data_Ti4Mn2IrRh9
_symmetry_space_group_name_H-M   'P 1'
_cell_length_a   3.98644300
_cell_length_b   5.41381993
_cell_length_c   10.67921190
_cell_angle_alpha   89.86124031
_cell_angle_beta   90.00000000
_cell_angle_gamma   90.00000000
_symmetry_Int_Tables_number   1
_chemical_formula_structural   Ti4Mn2IrRh9
_chemical_formula_sum   'Ti4 Mn2 Ir1 Rh9'
_cell_volume   230.47684271
_cell_formula_units_Z   1
loop_
 _symmetry_equiv_pos_site_id
 _symmetry_equiv_pos_as_xyz
  1  'x, y, z'
loop_
 _atom_site_type_symbol
 _atom_site_label
 _atom_site_symmetry_multiplicity
 _atom_site_fract_x
 _atom_site_fract_y
 _atom_site_fract_z
 _atom_site_occupancy
  Ti  Ti0  1  0.500000  0.311298  0.138416  1
  Ti  Ti1  1  0.500000  0.689016  0.861106  1
  Ti  Ti2  1  0.500000  0.808833  0.361606  1
  Ti  Ti3  1  0.500000  0.190055  0.638021  1
  Mn  Mn4  1  0.000000  0.000684  0.000220  1
  Mn  Mn5  1  0.000000  0.500474  0.500085  1
  Ir  Ir6  1  0.500000  0.297377  0.387877  1
  Rh  Rh7  1  0.000000  0.999980  0.500307  1
  Rh  Rh8  1  0.000000  0.500766  0.999545  1
  Rh  Rh9  1  0.000000  0.058721  0.243839  1
  Rh  Rh10  1  0.000000  0.939453  0.756663  1
  Rh  Rh11  1  0.000000  0.558904  0.255939  1
  Rh  Rh12  1  0.000000  0.439512  0.743125  1
  Rh  Rh13  1  0.500000  0.704812  0.613075  1
  Rh  Rh14  1  0.500000  0.796917  0.112927  1
  Rh  Rh15  1  0.500000  0.203198  0.887249  1
