# generated using pymatgen
data_Pr2Dy3Y(Co3P2)6
_symmetry_space_group_name_H-M   'P 1'
_cell_length_a   3.72446300
_cell_length_b   10.56599400
_cell_length_c   12.23927500
_cell_angle_alpha   90.00218070
_cell_angle_beta   90.00000000
_cell_angle_gamma   90.00000000
_symmetry_Int_Tables_number   1
_chemical_formula_structural   Pr2Dy3Y(Co3P2)6
_chemical_formula_sum   'Pr2 Dy3 Y1 Co18 P12'
_cell_volume   481.64795058
_cell_formula_units_Z   1
loop_
 _symmetry_equiv_pos_site_id
 _symmetry_equiv_pos_as_xyz
  1  'x, y, z'
loop_
 _atom_site_type_symbol
 _atom_site_label
 _atom_site_symmetry_multiplicity
 _atom_site_fract_x
 _atom_site_fract_y
 _atom_site_fract_z
 _atom_site_occupancy
  Pr  Pr0  1  0.000000  0.500018  0.522187  1
  Pr  Pr1  1  0.500000  0.999977  0.477821  1
  Dy  Dy2  1  0.500000  0.817231  0.204482  1
  Dy  Dy3  1  0.500000  0.182771  0.204464  1
  Dy  Dy4  1  0.000000  0.682748  0.795511  1
  Y  Y5  1  0.000000  0.317259  0.795540  1
  Co  Co6  1  0.500000  0.499997  0.155897  1
  Co  Co7  1  0.000000  0.999993  0.844113  1
  Co  Co8  1  0.500000  0.500055  0.706965  1
  Co  Co9  1  0.000000  0.000002  0.293010  1
  Co  Co10  1  0.000000  0.500005  0.986837  1
  Co  Co11  1  0.500000  0.000005  0.013178  1
  Co  Co12  1  0.500000  0.333318  0.995094  1
  Co  Co13  1  0.500000  0.666674  0.995077  1
  Co  Co14  1  0.000000  0.166678  0.004938  1
  Co  Co15  1  0.000000  0.833319  0.004923  1
  Co  Co16  1  0.500000  0.296748  0.428615  1
  Co  Co17  1  0.500000  0.703253  0.428622  1
  Co  Co18  1  0.000000  0.203246  0.571362  1
  Co  Co19  1  0.000000  0.796741  0.571380  1
  Co  Co20  1  0.500000  0.879987  0.713492  1
  Co  Co21  1  0.500000  0.119972  0.713483  1
  Co  Co22  1  0.000000  0.620002  0.286506  1
  Co  Co23  1  0.000000  0.379998  0.286505  1
  P  P24  1  0.500000  0.500041  0.884321  1
  P  P25  1  0.000000  0.000004  0.115677  1
  P  P26  1  0.500000  0.499996  0.338237  1
  P  P27  1  0.000000  0.999998  0.661764  1
  P  P28  1  0.500000  0.306490  0.617697  1
  P  P29  1  0.500000  0.693521  0.617731  1
  P  P30  1  0.000000  0.193533  0.382273  1
  P  P31  1  0.000000  0.806468  0.382274  1
  P  P32  1  0.500000  0.846816  0.894752  1
  P  P33  1  0.500000  0.153139  0.894777  1
  P  P34  1  0.000000  0.653178  0.105246  1
  P  P35  1  0.000000  0.346818  0.105248  1
