# generated using pymatgen
data_Mg3CrP6N13
_symmetry_space_group_name_H-M   'P 1'
_cell_length_a   7.04553677
_cell_length_b   7.04553785
_cell_length_c   7.04553708
_cell_angle_alpha   109.53277314
_cell_angle_beta   109.53277441
_cell_angle_gamma   109.53278477
_symmetry_Int_Tables_number   1
_chemical_formula_structural   Mg3CrP6N13
_chemical_formula_sum   'Mg3 Cr1 P6 N13'
_cell_volume   268.61279614
_cell_formula_units_Z   1
loop_
 _symmetry_equiv_pos_site_id
 _symmetry_equiv_pos_as_xyz
  1  'x, y, z'
loop_
 _atom_site_type_symbol
 _atom_site_label
 _atom_site_symmetry_multiplicity
 _atom_site_fract_x
 _atom_site_fract_y
 _atom_site_fract_z
 _atom_site_occupancy
  Mg  Mg0  1  0.002637  0.706612  0.002637  1
  Mg  Mg1  1  0.706612  0.002637  0.002637  1
  Mg  Mg2  1  0.002637  0.002637  0.706612  1
  Cr  Cr3  1  0.285700  0.285700  0.285700  1
  P  P4  1  0.497690  0.249671  0.748459  1
  P  P5  1  0.497690  0.748459  0.249671  1
  P  P6  1  0.748459  0.249671  0.497690  1
  P  P7  1  0.249671  0.497690  0.748459  1
  P  P8  1  0.748459  0.497690  0.249671  1
  P  P9  1  0.249671  0.748459  0.497690  1
  N  N10  1  0.022497  0.022497  0.022497  1
  N  N11  1  0.999849  0.730681  0.456288  1
  N  N12  1  0.264363  0.718697  0.264363  1
  N  N13  1  0.282881  0.542168  0.542168  1
  N  N14  1  0.542168  0.542168  0.282881  1
  N  N15  1  0.542168  0.282881  0.542168  1
  N  N16  1  0.730681  0.999849  0.456288  1
  N  N17  1  0.456288  0.999849  0.730681  1
  N  N18  1  0.730681  0.456288  0.999849  1
  N  N19  1  0.264363  0.264363  0.718697  1
  N  N20  1  0.718697  0.264363  0.264363  1
  N  N21  1  0.999849  0.456288  0.730681  1
  N  N22  1  0.456288  0.730681  0.999849  1
