# generated using pymatgen
data_CaYbOsC2
_symmetry_space_group_name_H-M   'P 1'
_cell_length_a   5.17546400
_cell_length_b   6.54171100
_cell_length_c   10.23562000
_cell_angle_alpha   90.00000000
_cell_angle_beta   90.00000000
_cell_angle_gamma   90.00000000
_symmetry_Int_Tables_number   1
_chemical_formula_structural   CaYbOsC2
_chemical_formula_sum   'Ca4 Yb4 Os4 C8'
_cell_volume   346.54114035
_cell_formula_units_Z   4
loop_
 _symmetry_equiv_pos_site_id
 _symmetry_equiv_pos_as_xyz
  1  'x, y, z'
loop_
 _atom_site_type_symbol
 _atom_site_label
 _atom_site_symmetry_multiplicity
 _atom_site_fract_x
 _atom_site_fract_y
 _atom_site_fract_z
 _atom_site_occupancy
  Ca  Ca0  1  0.250000  0.532934  0.220009  1
  Ca  Ca1  1  0.750000  0.467066  0.779991  1
  Ca  Ca2  1  0.750000  0.967066  0.720009  1
  Ca  Ca3  1  0.250000  0.032934  0.279991  1
  Yb  Yb4  1  0.250000  0.691297  0.548665  1
  Yb  Yb5  1  0.750000  0.308703  0.451335  1
  Yb  Yb6  1  0.750000  0.808703  0.048665  1
  Yb  Yb7  1  0.250000  0.191297  0.951335  1
  Os  Os8  1  0.250000  0.733469  0.851073  1
  Os  Os9  1  0.750000  0.266531  0.148927  1
  Os  Os10  1  0.750000  0.766531  0.351073  1
  Os  Os11  1  0.250000  0.233469  0.648927  1
  C  C12  1  0.250000  0.469007  0.760309  1
  C  C13  1  0.750000  0.530993  0.239691  1
  C  C14  1  0.750000  0.030993  0.260309  1
  C  C15  1  0.250000  0.969007  0.739691  1
  C  C16  1  0.250000  0.792524  0.027033  1
  C  C17  1  0.750000  0.207476  0.972967  1
  C  C18  1  0.750000  0.707476  0.527033  1
  C  C19  1  0.250000  0.292524  0.472967  1
