# generated using pymatgen
data_SrYb3(IrO4)4
_symmetry_space_group_name_H-M   'P 1'
_cell_length_a   5.17604600
_cell_length_b   5.16067807
_cell_length_c   12.53102900
_cell_angle_alpha   90.00000000
_cell_angle_beta   90.00000000
_cell_angle_gamma   90.48355019
_symmetry_Int_Tables_number   1
_chemical_formula_structural   SrYb3(IrO4)4
_chemical_formula_sum   'Sr1 Yb3 Ir4 O16'
_cell_volume   334.71576185
_cell_formula_units_Z   1
loop_
 _symmetry_equiv_pos_site_id
 _symmetry_equiv_pos_as_xyz
  1  'x, y, z'
loop_
 _atom_site_type_symbol
 _atom_site_label
 _atom_site_symmetry_multiplicity
 _atom_site_fract_x
 _atom_site_fract_y
 _atom_site_fract_z
 _atom_site_occupancy
  Sr  Sr0  1  0.750000  0.500000  0.166682  1
  Yb  Yb1  1  0.750000  0.000000  0.666528  1
  Yb  Yb2  1  0.250000  0.500000  0.830609  1
  Yb  Yb3  1  0.250000  0.000000  0.333481  1
  Ir  Ir4  1  0.750000  0.500000  0.434867  1
  Ir  Ir5  1  0.250000  0.000000  0.066344  1
  Ir  Ir6  1  0.250000  0.500000  0.574244  1
  Ir  Ir7  1  0.750000  0.000000  0.922789  1
  O  O8  1  0.117132  0.274159  0.679220  1
  O  O9  1  0.615152  0.223095  0.818170  1
  O  O10  1  0.884848  0.776905  0.818170  1
  O  O11  1  0.382868  0.725841  0.679220  1
  O  O12  1  0.882542  0.732908  0.332842  1
  O  O13  1  0.359322  0.776578  0.176302  1
  O  O14  1  0.140678  0.223422  0.176302  1
  O  O15  1  0.617458  0.267092  0.332842  1
  O  O16  1  0.562205  0.303890  0.550609  1
  O  O17  1  0.064314  0.204839  0.949986  1
  O  O18  1  0.435686  0.795161  0.949986  1
  O  O19  1  0.937795  0.696110  0.550609  1
  O  O20  1  0.435086  0.700005  0.457620  1
  O  O21  1  0.937606  0.807155  0.037480  1
  O  O22  1  0.562394  0.192845  0.037480  1
  O  O23  1  0.064914  0.299995  0.457620  1
