# generated using pymatgen
data_Tb3NdSc6(Si5Ir2)4
_symmetry_space_group_name_H-M   'P 1'
_cell_length_a   12.52450346
_cell_length_b   12.52450405
_cell_length_c   4.17638400
_cell_angle_alpha   90.00000000
_cell_angle_beta   90.00000000
_cell_angle_gamma   89.89666675
_symmetry_Int_Tables_number   1
_chemical_formula_structural   Tb3NdSc6(Si5Ir2)4
_chemical_formula_sum   'Tb3 Nd1 Sc6 Si20 Ir8'
_cell_volume   655.11986917
_cell_formula_units_Z   1
loop_
 _symmetry_equiv_pos_site_id
 _symmetry_equiv_pos_as_xyz
  1  'x, y, z'
loop_
 _atom_site_type_symbol
 _atom_site_label
 _atom_site_symmetry_multiplicity
 _atom_site_fract_x
 _atom_site_fract_y
 _atom_site_fract_z
 _atom_site_occupancy
  Tb  Tb0  1  0.115456  0.615428  0.500000  1
  Tb  Tb1  1  0.884572  0.384544  0.500000  1
  Tb  Tb2  1  0.615823  0.884177  0.500000  1
  Nd  Nd3  1  0.384534  0.115466  0.500000  1
  Sc  Sc4  1  0.674551  0.174292  0.500000  1
  Sc  Sc5  1  0.325708  0.825449  0.500000  1
  Sc  Sc6  1  0.173930  0.326070  0.500000  1
  Sc  Sc7  1  0.825755  0.674245  0.500000  1
  Sc  Sc8  1  0.999621  0.999898  0.000000  1
  Sc  Sc9  1  0.500102  0.500379  0.000000  1
  Si  Si10  1  0.569103  0.067925  0.000000  1
  Si  Si11  1  0.432075  0.930897  0.000000  1
  Si  Si12  1  0.067849  0.432151  0.000000  1
  Si  Si13  1  0.932098  0.567902  0.000000  1
  Si  Si14  1  0.198644  0.165539  0.000000  1
  Si  Si15  1  0.800348  0.834296  0.000000  1
  Si  Si16  1  0.165233  0.799567  0.000000  1
  Si  Si17  1  0.700433  0.334767  0.000000  1
  Si  Si18  1  0.834580  0.199635  0.000000  1
  Si  Si19  1  0.300365  0.665420  0.000000  1
  Si  Si20  1  0.665704  0.699652  0.000000  1
  Si  Si21  1  0.334461  0.301356  0.000000  1
  Si  Si22  1  0.007883  0.151013  0.500000  1
  Si  Si23  1  0.991849  0.848997  0.500000  1
  Si  Si24  1  0.149830  0.992115  0.500000  1
  Si  Si25  1  0.507885  0.350170  0.500000  1
  Si  Si26  1  0.849383  0.007876  0.500000  1
  Si  Si27  1  0.492124  0.650617  0.500000  1
  Si  Si28  1  0.651003  0.508151  0.500000  1
  Si  Si29  1  0.348987  0.492117  0.500000  1
  Ir  Ir30  1  0.020240  0.244024  0.000000  1
  Ir  Ir31  1  0.979299  0.755996  0.000000  1
  Ir  Ir32  1  0.241948  0.977790  0.000000  1
  Ir  Ir33  1  0.522210  0.258052  0.000000  1
  Ir  Ir34  1  0.757047  0.020613  0.000000  1
  Ir  Ir35  1  0.479387  0.742953  0.000000  1
  Ir  Ir36  1  0.744004  0.520701  0.000000  1
  Ir  Ir37  1  0.255976  0.479760  0.000000  1
