# generated using pymatgen
data_SmY15(CdCo)4
_symmetry_space_group_name_H-M   'P 1'
_cell_length_a   9.58577625
_cell_length_b   9.57296297
_cell_length_c   9.57296300
_cell_angle_alpha   60.00000335
_cell_angle_beta   60.04421107
_cell_angle_gamma   60.04420859
_symmetry_Int_Tables_number   1
_chemical_formula_structural   SmY15(CdCo)4
_chemical_formula_sum   'Sm1 Y15 Cd4 Co4'
_cell_volume   621.57701439
_cell_formula_units_Z   1
loop_
 _symmetry_equiv_pos_site_id
 _symmetry_equiv_pos_as_xyz
  1  'x, y, z'
loop_
 _atom_site_type_symbol
 _atom_site_label
 _atom_site_symmetry_multiplicity
 _atom_site_fract_x
 _atom_site_fract_y
 _atom_site_fract_z
 _atom_site_occupancy
  Sm  Sm0  1  0.959200  0.346934  0.346934  1
  Y  Y1  1  0.936669  0.937550  0.562890  1
  Y  Y2  1  0.812374  0.187263  0.187263  1
  Y  Y3  1  0.936669  0.562890  0.562890  1
  Y  Y4  1  0.936669  0.562890  0.937550  1
  Y  Y5  1  0.812374  0.813101  0.187263  1
  Y  Y6  1  0.347768  0.346759  0.346759  1
  Y  Y7  1  0.561531  0.937683  0.937683  1
  Y  Y8  1  0.561531  0.937683  0.563104  1
  Y  Y9  1  0.188200  0.812252  0.812252  1
  Y  Y10  1  0.188200  0.187297  0.812252  1
  Y  Y11  1  0.347768  0.346759  0.958715  1
  Y  Y12  1  0.347768  0.958715  0.346759  1
  Y  Y13  1  0.812374  0.187263  0.813101  1
  Y  Y14  1  0.561531  0.563104  0.937683  1
  Y  Y15  1  0.188200  0.812252  0.187297  1
  Cd  Cd16  1  0.579023  0.580573  0.259833  1
  Cd  Cd17  1  0.259940  0.580020  0.580020  1
  Cd  Cd18  1  0.579023  0.580573  0.580573  1
  Cd  Cd19  1  0.579023  0.259833  0.580573  1
  Co  Co20  1  0.576337  0.141222  0.141222  1
  Co  Co21  1  0.142611  0.140336  0.140336  1
  Co  Co22  1  0.142611  0.576717  0.140336  1
  Co  Co23  1  0.142611  0.140336  0.576717  1
