# generated using pymatgen
data_YAl9Cr2Ru
_symmetry_space_group_name_H-M   'P 1'
_cell_length_a   5.06080983
_cell_length_b   6.83593423
_cell_length_c   6.90364801
_cell_angle_alpha   98.07576465
_cell_angle_beta   112.30368508
_cell_angle_gamma   68.27437316
_symmetry_Int_Tables_number   1
_chemical_formula_structural   YAl9Cr2Ru
_chemical_formula_sum   'Y1 Al9 Cr2 Ru1'
_cell_volume   205.27005417
_cell_formula_units_Z   1
loop_
 _symmetry_equiv_pos_site_id
 _symmetry_equiv_pos_as_xyz
  1  'x, y, z'
loop_
 _atom_site_type_symbol
 _atom_site_label
 _atom_site_symmetry_multiplicity
 _atom_site_fract_x
 _atom_site_fract_y
 _atom_site_fract_z
 _atom_site_occupancy
  Y  Y0  1  0.000000  0.000000  0.000000  1
  Al  Al1  1  0.724392  0.778234  0.210654  1
  Al  Al2  1  0.275608  0.221766  0.789346  1
  Al  Al3  1  0.497374  0.778234  0.789346  1
  Al  Al4  1  0.502626  0.221766  0.210654  1
  Al  Al5  1  0.663386  0.354537  0.665522  1
  Al  Al6  1  0.336614  0.645463  0.334478  1
  Al  Al7  1  0.982076  0.354537  0.334478  1
  Al  Al8  1  0.017924  0.645463  0.665522  1
  Al  Al9  1  0.500000  0.000000  0.500000  1
  Cr  Cr10  1  0.500000  0.500000  0.000000  1
  Cr  Cr11  1  0.000000  0.500000  0.000000  1
  Ru  Ru12  1  0.000000  0.000000  0.500000  1
