# generated using pymatgen
data_CsNiSb12IrOs2
_symmetry_space_group_name_H-M   'P 1'
_cell_length_a   8.15564358
_cell_length_b   8.16438292
_cell_length_c   8.19157339
_cell_angle_alpha   109.56116345
_cell_angle_beta   109.53637195
_cell_angle_gamma   109.28574593
_symmetry_Int_Tables_number   1
_chemical_formula_structural   CsNiSb12IrOs2
_chemical_formula_sum   'Cs1 Ni1 Sb12 Ir1 Os2'
_cell_volume   420.03691830
_cell_formula_units_Z   1
loop_
 _symmetry_equiv_pos_site_id
 _symmetry_equiv_pos_as_xyz
  1  'x, y, z'
loop_
 _atom_site_type_symbol
 _atom_site_label
 _atom_site_symmetry_multiplicity
 _atom_site_fract_x
 _atom_site_fract_y
 _atom_site_fract_z
 _atom_site_occupancy
  Cs  Cs0  1  0.000000  0.000000  0.000000  1
  Ni  Ni1  1  0.000000  0.000000  0.500000  1
  Sb  Sb2  1  0.342402  0.184631  0.840974  1
  Sb  Sb3  1  0.657598  0.815369  0.159026  1
  Sb  Sb4  1  0.655330  0.499432  0.840718  1
  Sb  Sb5  1  0.344670  0.500568  0.159282  1
  Sb  Sb6  1  0.186191  0.844725  0.346837  1
  Sb  Sb7  1  0.813809  0.155275  0.653163  1
  Sb  Sb8  1  0.500216  0.841822  0.658859  1
  Sb  Sb9  1  0.499784  0.158178  0.341141  1
  Sb  Sb10  1  0.841489  0.342118  0.185498  1
  Sb  Sb11  1  0.158511  0.657882  0.814502  1
  Sb  Sb12  1  0.843058  0.657862  0.498807  1
  Sb  Sb13  1  0.156942  0.342138  0.501193  1
  Ir  Ir14  1  0.000000  0.500000  0.000000  1
  Os  Os15  1  0.500000  0.000000  0.000000  1
  Os  Os16  1  0.500000  0.500000  0.500000  1
