# generated using pymatgen
data_Sr3Sc2Ti3O12
_symmetry_space_group_name_H-M   'P 1'
_cell_length_a   11.35790850
_cell_length_b   11.35790858
_cell_length_c   11.35790900
_cell_angle_alpha   109.47121781
_cell_angle_beta   109.47121797
_cell_angle_gamma   109.47122063
_symmetry_Int_Tables_number   1
_chemical_formula_structural   Sr3Sc2Ti3O12
_chemical_formula_sum   'Sr12 Sc8 Ti12 O48'
_cell_volume   1127.90691121
_cell_formula_units_Z   4
loop_
 _symmetry_equiv_pos_site_id
 _symmetry_equiv_pos_as_xyz
  1  'x, y, z'
loop_
 _atom_site_type_symbol
 _atom_site_label
 _atom_site_symmetry_multiplicity
 _atom_site_fract_x
 _atom_site_fract_y
 _atom_site_fract_z
 _atom_site_occupancy
  Sr  Sr0  1  0.250000  0.375000  0.125000  1
  Sr  Sr1  1  0.375000  0.750001  0.125000  1
  Sr  Sr2  1  0.375000  0.125000  0.250000  1
  Sr  Sr3  1  0.875000  0.625000  0.250000  1
  Sr  Sr4  1  0.750000  0.125000  0.375000  1
  Sr  Sr5  1  0.125000  0.250000  0.375000  1
  Sr  Sr6  1  0.874999  0.750000  0.625000  1
  Sr  Sr7  1  0.250000  0.875000  0.624999  1
  Sr  Sr8  1  0.125001  0.375000  0.750000  1
  Sr  Sr9  1  0.625000  0.874999  0.750000  1
  Sr  Sr10  1  0.750000  0.625000  0.874999  1
  Sr  Sr11  1  0.625000  0.250000  0.875000  1
  Sc  Sc12  1  0.000000  0.000000  0.000000  1
  Sc  Sc13  1  0.500001  0.000000  0.000000  1
  Sc  Sc14  1  0.500000  0.500000  0.000000  1
  Sc  Sc15  1  0.000000  0.500001  0.000000  1
  Sc  Sc16  1  0.500000  0.000000  0.500000  1
  Sc  Sc17  1  0.000000  0.500000  0.500000  1
  Sc  Sc18  1  0.000000  0.000000  0.500001  1
  Sc  Sc19  1  0.500001  0.500001  0.500001  1
  Ti  Ti20  1  0.874999  0.249999  0.125000  1
  Ti  Ti21  1  0.750000  0.875000  0.125000  1
  Ti  Ti22  1  0.124999  0.874999  0.249999  1
  Ti  Ti23  1  0.625000  0.375000  0.250001  1
  Ti  Ti24  1  0.250001  0.625000  0.375000  1
  Ti  Ti25  1  0.625000  0.750000  0.375000  1
  Ti  Ti26  1  0.375000  0.250001  0.625000  1
  Ti  Ti27  1  0.750000  0.375000  0.624999  1
  Ti  Ti28  1  0.875000  0.125000  0.750000  1
  Ti  Ti29  1  0.375000  0.625000  0.750000  1
  Ti  Ti30  1  0.250000  0.124999  0.874999  1
  Ti  Ti31  1  0.125000  0.750000  0.875000  1
  O  O32  1  0.199593  0.116108  0.011759  1
  O  O33  1  0.312166  0.895653  0.011759  1
  O  O34  1  0.699592  0.687833  0.083485  1
  O  O35  1  0.883893  0.395653  0.083486  1
  O  O36  1  0.988241  0.687834  0.104348  1
  O  O37  1  0.616107  0.416514  0.104347  1
  O  O38  1  0.011760  0.199593  0.116107  1
  O  O39  1  0.604347  0.916515  0.116108  1
  O  O40  1  0.488240  0.604347  0.187834  1
  O  O41  1  0.199593  0.583486  0.187833  1
  O  O42  1  0.116108  0.011760  0.199593  1
  O  O43  1  0.583486  0.187833  0.199593  1
  O  O44  1  0.312167  0.916514  0.300407  1
  O  O45  1  0.488241  0.383893  0.300407  1
  O  O46  1  0.895653  0.011759  0.312166  1
  O  O47  1  0.916514  0.300407  0.312167  1
  O  O48  1  0.583485  0.895652  0.383892  1
  O  O49  1  0.300407  0.488241  0.383893  1
  O  O50  1  0.083485  0.883893  0.395653  1
  O  O51  1  0.812165  0.511759  0.395653  1
  O  O52  1  0.104347  0.616107  0.416514  1
  O  O53  1  0.812167  0.800407  0.416515  1
  O  O54  1  0.604347  0.187834  0.488240  1
  O  O55  1  0.383893  0.300407  0.488241  1
  O  O56  1  0.395653  0.812166  0.511759  1
  O  O57  1  0.616108  0.699594  0.511760  1
  O  O58  1  0.895652  0.383892  0.583485  1
  O  O59  1  0.187833  0.199593  0.583486  1
  O  O60  1  0.916515  0.116108  0.604347  1
  O  O61  1  0.187834  0.488240  0.604346  1
  O  O62  1  0.416514  0.104347  0.616107  1
  O  O63  1  0.699594  0.511760  0.616108  1
  O  O64  1  0.083486  0.699592  0.687833  1
  O  O65  1  0.104347  0.988241  0.687834  1
  O  O66  1  0.687833  0.083485  0.699593  1
  O  O67  1  0.511760  0.616108  0.699594  1
  O  O68  1  0.883892  0.988240  0.800406  1
  O  O69  1  0.416515  0.812167  0.800407  1
  O  O70  1  0.511759  0.395653  0.812165  1
  O  O71  1  0.800407  0.416515  0.812167  1
  O  O72  1  0.988240  0.800406  0.883892  1
  O  O73  1  0.395653  0.083486  0.883893  1
  O  O74  1  0.383892  0.583485  0.895653  1
  O  O75  1  0.011759  0.312166  0.895653  1
  O  O76  1  0.300407  0.312166  0.916514  1
  O  O77  1  0.116108  0.604347  0.916515  1
  O  O78  1  0.800406  0.883892  0.988240  1
  O  O79  1  0.687834  0.104347  0.988241  1
