# generated using pymatgen
data_HoLuAl20(RuRh)2
_symmetry_space_group_name_H-M   'P 1'
_cell_length_a   6.84442317
_cell_length_b   6.83987889
_cell_length_c   9.13932100
_cell_angle_alpha   90.00000000
_cell_angle_beta   90.00000000
_cell_angle_gamma   96.99149110
_symmetry_Int_Tables_number   1
_chemical_formula_structural   HoLuAl20(RuRh)2
_chemical_formula_sum   'Ho1 Lu1 Al20 Ru2 Rh2'
_cell_volume   424.67609956
_cell_formula_units_Z   1
loop_
 _symmetry_equiv_pos_site_id
 _symmetry_equiv_pos_as_xyz
  1  'x, y, z'
loop_
 _atom_site_type_symbol
 _atom_site_label
 _atom_site_symmetry_multiplicity
 _atom_site_fract_x
 _atom_site_fract_y
 _atom_site_fract_z
 _atom_site_occupancy
  Ho  Ho0  1  0.130998  0.874654  0.250000  1
  Lu  Lu1  1  0.867798  0.125757  0.750000  1
  Al  Al2  1  0.621684  0.375255  0.550394  1
  Al  Al3  1  0.378764  0.624435  0.450042  1
  Al  Al4  1  0.378764  0.624435  0.049958  1
  Al  Al5  1  0.621684  0.375255  0.949606  1
  Al  Al6  1  0.224260  0.222816  0.499460  1
  Al  Al7  1  0.775572  0.777357  0.501353  1
  Al  Al8  1  0.775572  0.777357  0.998647  1
  Al  Al9  1  0.224260  0.222816  0.000540  1
  Al  Al10  1  0.844933  0.154044  0.100585  1
  Al  Al11  1  0.154599  0.846445  0.898900  1
  Al  Al12  1  0.154599  0.846445  0.601100  1
  Al  Al13  1  0.844933  0.154044  0.399415  1
  Al  Al14  1  0.855942  0.587014  0.750000  1
  Al  Al15  1  0.143551  0.411703  0.250000  1
  Al  Al16  1  0.413266  0.142032  0.750000  1
  Al  Al17  1  0.587921  0.858417  0.250000  1
  Al  Al18  1  0.223787  0.479473  0.750000  1
  Al  Al19  1  0.775727  0.519829  0.250000  1
  Al  Al20  1  0.519796  0.778203  0.750000  1
  Al  Al21  1  0.480924  0.222182  0.250000  1
  Ru  Ru22  1  0.500240  0.000041  0.999411  1
  Ru  Ru23  1  0.500240  0.000041  0.500589  1
  Rh  Rh24  1  0.000092  0.499975  0.500310  1
  Rh  Rh25  1  0.000092  0.499975  0.999690  1
