# generated using pymatgen
data_U8Ta9Nb3Si16
_symmetry_space_group_name_H-M   'P 1'
_cell_length_a   7.03004919
_cell_length_b   7.03081504
_cell_length_c   12.98698140
_cell_angle_alpha   89.98867476
_cell_angle_beta   89.97388878
_cell_angle_gamma   89.99523929
_symmetry_Int_Tables_number   1
_chemical_formula_structural   U8Ta9Nb3Si16
_chemical_formula_sum   'U8 Ta9 Nb3 Si16'
_cell_volume   641.90713100
_cell_formula_units_Z   1
loop_
 _symmetry_equiv_pos_site_id
 _symmetry_equiv_pos_as_xyz
  1  'x, y, z'
loop_
 _atom_site_type_symbol
 _atom_site_label
 _atom_site_symmetry_multiplicity
 _atom_site_fract_x
 _atom_site_fract_y
 _atom_site_fract_z
 _atom_site_occupancy
  U  U0  1  0.993787  0.331877  0.219090  1
  U  U1  1  0.006038  0.668165  0.719006  1
  U  U2  1  0.168544  0.493232  0.469233  1
  U  U3  1  0.505343  0.831385  0.030905  1
  U  U4  1  0.831248  0.506349  0.968951  1
  U  U5  1  0.494287  0.168999  0.530758  1
  U  U6  1  0.331289  0.994426  0.780899  1
  U  U7  1  0.668757  0.005345  0.280908  1
  Ta  Ta8  1  0.168551  0.168755  0.000003  1
  Ta  Ta9  1  0.831661  0.831495  0.500205  1
  Ta  Ta10  1  0.331545  0.668150  0.250055  1
  Ta  Ta11  1  0.668179  0.332018  0.750308  1
  Ta  Ta12  1  0.155790  0.998673  0.374249  1
  Ta  Ta13  1  0.844146  0.001333  0.874167  1
  Ta  Ta14  1  0.501263  0.656007  0.624269  1
  Ta  Ta15  1  0.344204  0.499342  0.875755  1
  Ta  Ta16  1  0.498609  0.344302  0.124001  1
  Nb  Nb17  1  0.656027  0.500351  0.375722  1
  Nb  Nb18  1  0.999602  0.156315  0.625843  1
  Nb  Nb19  1  0.000685  0.843761  0.125494  1
  Si  Si20  1  0.297203  0.039705  0.184802  1
  Si  Si21  1  0.702619  0.960712  0.684717  1
  Si  Si22  1  0.460420  0.797188  0.434845  1
  Si  Si23  1  0.202333  0.539164  0.065295  1
  Si  Si24  1  0.539581  0.202389  0.934724  1
  Si  Si25  1  0.797562  0.460773  0.565515  1
  Si  Si26  1  0.039575  0.297900  0.815581  1
  Si  Si27  1  0.961049  0.702166  0.315562  1
  Si  Si28  1  0.370219  0.292926  0.315567  1
  Si  Si29  1  0.629470  0.707119  0.815875  1
  Si  Si30  1  0.206917  0.870349  0.565774  1
  Si  Si31  1  0.129627  0.793685  0.933652  1
  Si  Si32  1  0.793178  0.129780  0.065860  1
  Si  Si33  1  0.870442  0.205666  0.434052  1
  Si  Si34  1  0.294411  0.370743  0.684243  1
  Si  Si35  1  0.705841  0.629452  0.184114  1
