# generated using pymatgen
data_Ca2Zr2CoNiAs4
_symmetry_space_group_name_H-M   'P 1'
_cell_length_a   4.13797900
_cell_length_b   4.13797967
_cell_length_c   13.79924000
_cell_angle_alpha   90.00000000
_cell_angle_beta   90.00000000
_cell_angle_gamma   119.99998663
_symmetry_Int_Tables_number   1
_chemical_formula_structural   Ca2Zr2CoNiAs4
_chemical_formula_sum   'Ca2 Zr2 Co1 Ni1 As4'
_cell_volume   204.62679097
_cell_formula_units_Z   1
loop_
 _symmetry_equiv_pos_site_id
 _symmetry_equiv_pos_as_xyz
  1  'x, y, z'
loop_
 _atom_site_type_symbol
 _atom_site_label
 _atom_site_symmetry_multiplicity
 _atom_site_fract_x
 _atom_site_fract_y
 _atom_site_fract_z
 _atom_site_occupancy
  Ca  Ca0  1  0.666667  0.333333  0.392750  1
  Ca  Ca1  1  0.333333  0.666667  0.888594  1
  Zr  Zr2  1  0.333333  0.666667  0.626071  1
  Zr  Zr3  1  0.666667  0.333333  0.122370  1
  Co  Co4  1  0.000000  0.000000  0.707882  1
  Ni  Ni5  1  0.000000  0.000000  0.207821  1
  As  As6  1  0.333333  0.666667  0.254934  1
  As  As7  1  0.000000  0.000000  0.022983  1
  As  As8  1  0.000000  0.000000  0.526468  1
  As  As9  1  0.666667  0.333333  0.750124  1
