# generated using pymatgen
data_Ac3SiPd5
_symmetry_space_group_name_H-M   'P 1'
_cell_length_a   8.75947137
_cell_length_b   8.75947107
_cell_length_c   8.75947093
_cell_angle_alpha   127.97129934
_cell_angle_beta   126.46515862
_cell_angle_gamma   77.90105733
_symmetry_Int_Tables_number   1
_chemical_formula_structural   Ac3SiPd5
_chemical_formula_sum   'Ac6 Si2 Pd10'
_cell_volume   412.98466609
_cell_formula_units_Z   2
loop_
 _symmetry_equiv_pos_site_id
 _symmetry_equiv_pos_as_xyz
  1  'x, y, z'
loop_
 _atom_site_type_symbol
 _atom_site_label
 _atom_site_symmetry_multiplicity
 _atom_site_fract_x
 _atom_site_fract_y
 _atom_site_fract_z
 _atom_site_occupancy
  Ac  Ac0  1  0.819435  0.048938  0.770498  1
  Ac  Ac1  1  0.221559  0.451062  0.770498  1
  Ac  Ac2  1  0.180565  0.951062  0.229502  1
  Ac  Ac3  1  0.385769  0.250000  0.135769  1
  Ac  Ac4  1  0.778441  0.548938  0.229502  1
  Ac  Ac5  1  0.614231  0.750000  0.864231  1
  Si  Si6  1  0.207065  0.750000  0.457065  1
  Si  Si7  1  0.792935  0.250000  0.542935  1
  Pd  Pd8  1  0.829335  0.584418  0.634676  1
  Pd  Pd9  1  0.550259  0.305341  0.634676  1
  Pd  Pd10  1  0.449741  0.084418  0.755082  1
  Pd  Pd11  1  0.829335  0.194659  0.244918  1
  Pd  Pd12  1  0.170665  0.415582  0.365324  1
  Pd  Pd13  1  0.449741  0.694659  0.365324  1
  Pd  Pd14  1  0.550259  0.915582  0.244918  1
  Pd  Pd15  1  0.170665  0.805341  0.755082  1
  Pd  Pd16  1  0.000000  0.000000  0.500000  1
  Pd  Pd17  1  0.000000  0.500000  0.000000  1
