# generated using pymatgen
data_Er5Tm3Ta10(TiSi8)2
_symmetry_space_group_name_H-M   'P 1'
_cell_length_a   7.02467801
_cell_length_b   7.01769215
_cell_length_c   12.91373302
_cell_angle_alpha   89.99846117
_cell_angle_beta   90.00621332
_cell_angle_gamma   89.98677506
_symmetry_Int_Tables_number   1
_chemical_formula_structural   Er5Tm3Ta10(TiSi8)2
_chemical_formula_sum   'Er5 Tm3 Ta10 Ti2 Si16'
_cell_volume   636.60863390
_cell_formula_units_Z   1
loop_
 _symmetry_equiv_pos_site_id
 _symmetry_equiv_pos_as_xyz
  1  'x, y, z'
loop_
 _atom_site_type_symbol
 _atom_site_label
 _atom_site_symmetry_multiplicity
 _atom_site_fract_x
 _atom_site_fract_y
 _atom_site_fract_z
 _atom_site_occupancy
  Er  Er0  1  0.841970  0.498489  0.282298  1
  Er  Er1  1  0.158016  0.501471  0.782304  1
  Er  Er2  1  0.658109  0.997795  0.967793  1
  Er  Er3  1  0.002442  0.340854  0.531938  1
  Er  Er4  1  0.997583  0.659123  0.031889  1
  Tm  Tm5  1  0.342160  0.002064  0.467730  1
  Tm  Tm6  1  0.498668  0.842198  0.717880  1
  Tm  Tm7  1  0.501238  0.157840  0.217995  1
  Ta  Ta8  1  0.328936  0.329073  0.999764  1
  Ta  Ta9  1  0.173090  0.826801  0.250160  1
  Ta  Ta10  1  0.826956  0.173224  0.750027  1
  Ta  Ta11  1  0.670987  0.671047  0.499731  1
  Ta  Ta12  1  0.152521  0.006865  0.873729  1
  Ta  Ta13  1  0.493297  0.652088  0.124186  1
  Ta  Ta14  1  0.506587  0.347817  0.624069  1
  Ta  Ta15  1  0.651757  0.492313  0.876001  1
  Ta  Ta16  1  0.348223  0.507713  0.376038  1
  Ta  Ta17  1  0.847562  0.993139  0.373772  1
  Ti  Ti18  1  0.007677  0.152933  0.126183  1
  Ti  Ti19  1  0.992389  0.847089  0.626092  1
  Si  Si20  1  0.202531  0.132181  0.681098  1
  Si  Si21  1  0.365318  0.705166  0.931282  1
  Si  Si22  1  0.634564  0.294691  0.431273  1
  Si  Si23  1  0.705122  0.363755  0.069280  1
  Si  Si24  1  0.294880  0.636511  0.569203  1
  Si  Si25  1  0.797513  0.867799  0.181192  1
  Si  Si26  1  0.135130  0.202983  0.318172  1
  Si  Si27  1  0.865061  0.796812  0.818006  1
  Si  Si28  1  0.292840  0.954950  0.064578  1
  Si  Si29  1  0.546438  0.795473  0.313681  1
  Si  Si30  1  0.453396  0.204650  0.813563  1
  Si  Si31  1  0.796435  0.547796  0.685269  1
  Si  Si32  1  0.203579  0.452185  0.185279  1
  Si  Si33  1  0.706890  0.045018  0.564505  1
  Si  Si34  1  0.954106  0.294417  0.937011  1
  Si  Si35  1  0.046031  0.705678  0.437025  1
