# generated using pymatgen
data_Eu2B4IrRu3
_symmetry_space_group_name_H-M   'P 1'
_cell_length_a   6.89728614
_cell_length_b   6.00311028
_cell_length_c   5.60762888
_cell_angle_alpha   72.79882091
_cell_angle_beta   56.24583459
_cell_angle_gamma   51.49291134
_symmetry_Int_Tables_number   1
_chemical_formula_structural   Eu2B4IrRu3
_chemical_formula_sum   'Eu2 B4 Ir1 Ru3'
_cell_volume   150.61332671
_cell_formula_units_Z   1
loop_
 _symmetry_equiv_pos_site_id
 _symmetry_equiv_pos_as_xyz
  1  'x, y, z'
loop_
 _atom_site_type_symbol
 _atom_site_label
 _atom_site_symmetry_multiplicity
 _atom_site_fract_x
 _atom_site_fract_y
 _atom_site_fract_z
 _atom_site_occupancy
  Eu  Eu0  1  0.999660  0.999660  0.000340  1
  Eu  Eu1  1  0.250453  0.250452  0.249546  1
  B  B2  1  0.319488  0.678928  0.323510  1
  B  B3  1  0.575164  0.927091  0.571265  1
  B  B4  1  0.678928  0.319488  0.678074  1
  B  B5  1  0.927092  0.575163  0.926480  1
  Ir  Ir6  1  0.634665  0.634667  0.365334  1
  Ru  Ru7  1  0.884888  0.884887  0.615112  1
  Ru  Ru8  1  0.364994  0.364995  0.635005  1
  Ru  Ru9  1  0.614668  0.614667  0.885333  1
