# generated using pymatgen
data_TbPa4Co16(MoP4)3
_symmetry_space_group_name_H-M   'P 1'
_cell_length_a   12.08069400
_cell_length_b   12.08069459
_cell_length_c   3.70623500
_cell_angle_alpha   90.00000000
_cell_angle_beta   90.00000000
_cell_angle_gamma   120.00000387
_symmetry_Int_Tables_number   1
_chemical_formula_structural   TbPa4Co16(MoP4)3
_chemical_formula_sum   'Tb1 Pa4 Co16 Mo3 P12'
_cell_volume   468.43286437
_cell_formula_units_Z   1
loop_
 _symmetry_equiv_pos_site_id
 _symmetry_equiv_pos_as_xyz
  1  'x, y, z'
loop_
 _atom_site_type_symbol
 _atom_site_label
 _atom_site_symmetry_multiplicity
 _atom_site_fract_x
 _atom_site_fract_y
 _atom_site_fract_z
 _atom_site_occupancy
  Tb  Tb0  1  0.666667  0.333333  0.000000  1
  Pa  Pa1  1  0.333333  0.666667  0.000000  1
  Pa  Pa2  1  0.815838  0.815938  0.500000  1
  Pa  Pa3  1  0.184062  0.999899  0.500000  1
  Pa  Pa4  1  0.000101  0.184162  0.500000  1
  Co  Co5  1  0.874837  0.358292  0.500000  1
  Co  Co6  1  0.641708  0.516545  0.500000  1
  Co  Co7  1  0.483455  0.125163  0.500000  1
  Co  Co8  1  0.359190  0.873336  0.500000  1
  Co  Co9  1  0.514146  0.640810  0.500000  1
  Co  Co10  1  0.126664  0.485854  0.500000  1
  Co  Co11  1  0.807628  0.179950  0.000000  1
  Co  Co12  1  0.820050  0.627676  0.000000  1
  Co  Co13  1  0.372324  0.192372  0.000000  1
  Co  Co14  1  0.181432  0.807017  0.000000  1
  Co  Co15  1  0.625584  0.818568  0.000000  1
  Co  Co16  1  0.192983  0.374416  0.000000  1
  Co  Co17  1  0.280560  0.278861  0.500000  1
  Co  Co18  1  0.721139  0.001699  0.500000  1
  Co  Co19  1  0.998301  0.719440  0.500000  1
  Co  Co20  1  0.000000  0.000000  0.000000  1
  Mo  Mo21  1  0.442755  0.441554  0.000000  1
  Mo  Mo22  1  0.558446  0.001201  0.000000  1
  Mo  Mo23  1  0.998799  0.557245  0.000000  1
  P  P24  1  0.688711  0.167817  0.500000  1
  P  P25  1  0.832183  0.520893  0.500000  1
  P  P26  1  0.479107  0.311289  0.500000  1
  P  P27  1  0.164270  0.688737  0.500000  1
  P  P28  1  0.524466  0.835730  0.500000  1
  P  P29  1  0.311263  0.475534  0.500000  1
  P  P30  1  0.180254  0.180746  0.000000  1
  P  P31  1  0.819254  0.999507  0.000000  1
  P  P32  1  0.000493  0.819746  0.000000  1
  P  P33  1  0.634132  0.633069  0.000000  1
  P  P34  1  0.366931  0.001064  0.000000  1
  P  P35  1  0.998936  0.365868  0.000000  1
