# generated using pymatgen
data_LiSm2Si3Rh4
_symmetry_space_group_name_H-M   'P 1'
_cell_length_a   4.10974300
_cell_length_b   4.10974300
_cell_length_c   10.04787300
_cell_angle_alpha   90.00000000
_cell_angle_beta   90.00000000
_cell_angle_gamma   90.00000000
_symmetry_Int_Tables_number   1
_chemical_formula_structural   LiSm2Si3Rh4
_chemical_formula_sum   'Li1 Sm2 Si3 Rh4'
_cell_volume   169.70844963
_cell_formula_units_Z   1
loop_
 _symmetry_equiv_pos_site_id
 _symmetry_equiv_pos_as_xyz
  1  'x, y, z'
loop_
 _atom_site_type_symbol
 _atom_site_label
 _atom_site_symmetry_multiplicity
 _atom_site_fract_x
 _atom_site_fract_y
 _atom_site_fract_z
 _atom_site_occupancy
  Li  Li0  1  0.000000  0.000000  0.500000  1
  Sm  Sm1  1  0.000000  0.500000  0.254051  1
  Sm  Sm2  1  0.500000  0.000000  0.745949  1
  Si  Si3  1  0.500000  0.500000  0.500000  1
  Si  Si4  1  0.000000  0.500000  0.871880  1
  Si  Si5  1  0.500000  0.000000  0.128120  1
  Rh  Rh6  1  0.000000  0.000000  0.000000  1
  Rh  Rh7  1  0.500000  0.500000  0.000000  1
  Rh  Rh8  1  0.000000  0.500000  0.632692  1
  Rh  Rh9  1  0.500000  0.000000  0.367308  1
