# generated using pymatgen
data_LiHf4TcOs2
_symmetry_space_group_name_H-M   'P 1'
_cell_length_a   6.51816700
_cell_length_b   4.59480300
_cell_length_c   9.25942100
_cell_angle_alpha   90.00000000
_cell_angle_beta   90.00087884
_cell_angle_gamma   90.00000000
_symmetry_Int_Tables_number   1
_chemical_formula_structural   LiHf4TcOs2
_chemical_formula_sum   'Li2 Hf8 Tc2 Os4'
_cell_volume   277.31681894
_cell_formula_units_Z   2
loop_
 _symmetry_equiv_pos_site_id
 _symmetry_equiv_pos_as_xyz
  1  'x, y, z'
loop_
 _atom_site_type_symbol
 _atom_site_label
 _atom_site_symmetry_multiplicity
 _atom_site_fract_x
 _atom_site_fract_y
 _atom_site_fract_z
 _atom_site_occupancy
  Li  Li0  1  0.750063  0.250001  0.125020  1
  Li  Li1  1  0.250057  0.750001  0.374980  1
  Hf  Hf2  1  0.002375  0.750001  0.122337  1
  Hf  Hf3  1  0.497739  0.750001  0.122353  1
  Hf  Hf4  1  0.997717  0.250001  0.377651  1
  Hf  Hf5  1  0.502354  0.250001  0.377666  1
  Hf  Hf6  1  0.501456  0.750001  0.627268  1
  Hf  Hf7  1  0.998397  0.750001  0.627261  1
  Hf  Hf8  1  0.498399  0.250001  0.872739  1
  Hf  Hf9  1  0.001456  0.250001  0.872729  1
  Tc  Tc10  1  0.749942  0.250001  0.624331  1
  Tc  Tc11  1  0.249950  0.750001  0.875662  1
  Os  Os12  1  0.250042  0.250001  0.128118  1
  Os  Os13  1  0.750036  0.750001  0.371889  1
  Os  Os14  1  0.249954  0.250001  0.620263  1
  Os  Os15  1  0.749963  0.750001  0.879731  1
