# generated using pymatgen
data_Eu3Dy(CuSi3)2
_symmetry_space_group_name_H-M   'P 1'
_cell_length_a   8.19059712
_cell_length_b   8.08819892
_cell_length_c   5.87116647
_cell_angle_alpha   69.79408477
_cell_angle_beta   67.92989721
_cell_angle_gamma   42.27602934
_symmetry_Int_Tables_number   1
_chemical_formula_structural   Eu3Dy(CuSi3)2
_chemical_formula_sum   'Eu3 Dy1 Cu2 Si6'
_cell_volume   241.05400037
_cell_formula_units_Z   1
loop_
 _symmetry_equiv_pos_site_id
 _symmetry_equiv_pos_as_xyz
  1  'x, y, z'
loop_
 _atom_site_type_symbol
 _atom_site_label
 _atom_site_symmetry_multiplicity
 _atom_site_fract_x
 _atom_site_fract_y
 _atom_site_fract_z
 _atom_site_occupancy
  Eu  Eu0  1  0.249999  0.250001  0.250000  1
  Eu  Eu1  1  0.255297  0.744703  0.255298  1
  Eu  Eu2  1  0.744702  0.255298  0.744703  1
  Dy  Dy3  1  0.749999  0.750001  0.750000  1
  Cu  Cu4  1  0.832546  0.832546  0.167454  1
  Cu  Cu5  1  0.167454  0.167454  0.832546  1
  Si  Si6  1  0.836392  0.333391  0.159902  1
  Si  Si7  1  0.670316  0.159902  0.333391  1
  Si  Si8  1  0.668546  0.668547  0.331454  1
  Si  Si9  1  0.331453  0.331454  0.668547  1
  Si  Si10  1  0.333391  0.836391  0.670316  1
  Si  Si11  1  0.159902  0.670316  0.836391  1
