# generated using pymatgen
data_TbEu3(Mo2O7)2
_symmetry_space_group_name_H-M   'P 1'
_cell_length_a   7.47853673
_cell_length_b   7.47853571
_cell_length_c   7.44412756
_cell_angle_alpha   59.84697998
_cell_angle_beta   59.84697381
_cell_angle_gamma   60.00000430
_symmetry_Int_Tables_number   1
_chemical_formula_structural   TbEu3(Mo2O7)2
_chemical_formula_sum   'Tb1 Eu3 Mo4 O14'
_cell_volume   293.71332162
_cell_formula_units_Z   1
loop_
 _symmetry_equiv_pos_site_id
 _symmetry_equiv_pos_as_xyz
  1  'x, y, z'
loop_
 _atom_site_type_symbol
 _atom_site_label
 _atom_site_symmetry_multiplicity
 _atom_site_fract_x
 _atom_site_fract_y
 _atom_site_fract_z
 _atom_site_occupancy
  Tb  Tb0  1  0.125000  0.125000  0.625000  1
  Eu  Eu1  1  0.625000  0.125000  0.125000  1
  Eu  Eu2  1  0.125000  0.625000  0.125000  1
  Eu  Eu3  1  0.125000  0.125000  0.125000  1
  Mo  Mo4  1  0.125000  0.625000  0.625000  1
  Mo  Mo5  1  0.625000  0.125000  0.625000  1
  Mo  Mo6  1  0.625000  0.625000  0.125000  1
  Mo  Mo7  1  0.625000  0.625000  0.625000  1
  O  O8  1  0.248346  0.248346  0.254963  1
  O  O9  1  0.001654  0.001654  0.995037  1
  O  O10  1  0.701051  0.701051  0.294569  1
  O  O11  1  0.290228  0.290228  0.703854  1
  O  O12  1  0.715691  0.290228  0.703854  1
  O  O13  1  0.303328  0.701051  0.294569  1
  O  O14  1  0.290228  0.715691  0.703854  1
  O  O15  1  0.701051  0.303328  0.294569  1
  O  O16  1  0.548949  0.548949  0.955431  1
  O  O17  1  0.959772  0.959772  0.546146  1
  O  O18  1  0.534309  0.959772  0.546146  1
  O  O19  1  0.946672  0.548949  0.955431  1
  O  O20  1  0.959772  0.534309  0.546146  1
  O  O21  1  0.548949  0.946672  0.955431  1
