# generated using pymatgen
data_Sc2B2AsIrRh4
_symmetry_space_group_name_H-M   'P 1'
_cell_length_a   3.21214500
_cell_length_b   9.22901400
_cell_length_c   9.22901400
_cell_angle_alpha   90.00000000
_cell_angle_beta   90.00000000
_cell_angle_gamma   90.00000000
_symmetry_Int_Tables_number   1
_chemical_formula_structural   Sc2B2AsIrRh4
_chemical_formula_sum   'Sc4 B4 As2 Ir2 Rh8'
_cell_volume   273.59348484
_cell_formula_units_Z   2
loop_
 _symmetry_equiv_pos_site_id
 _symmetry_equiv_pos_as_xyz
  1  'x, y, z'
loop_
 _atom_site_type_symbol
 _atom_site_label
 _atom_site_symmetry_multiplicity
 _atom_site_fract_x
 _atom_site_fract_y
 _atom_site_fract_z
 _atom_site_occupancy
  Sc  Sc0  1  0.000000  0.325053  0.174945  1
  Sc  Sc1  1  0.000000  0.825054  0.325053  1
  Sc  Sc2  1  0.000000  0.174945  0.674946  1
  Sc  Sc3  1  0.000000  0.674946  0.825054  1
  B  B4  1  0.000000  0.621451  0.121451  1
  B  B5  1  0.000000  0.121451  0.378548  1
  B  B6  1  0.000000  0.878548  0.621451  1
  B  B7  1  0.000000  0.378548  0.878548  1
  As  As8  1  0.000000  0.000000  0.000000  1
  As  As9  1  0.000000  0.500000  0.500000  1
  Ir  Ir10  1  0.499999  0.500000  0.000000  1
  Ir  Ir11  1  0.499999  0.000000  0.500000  1
  Rh  Rh12  1  0.499999  0.784048  0.072616  1
  Rh  Rh13  1  0.499999  0.072616  0.215951  1
  Rh  Rh14  1  0.499999  0.572617  0.284047  1
  Rh  Rh15  1  0.499999  0.284047  0.427382  1
  Rh  Rh16  1  0.499999  0.715952  0.572617  1
  Rh  Rh17  1  0.499999  0.427382  0.715952  1
  Rh  Rh18  1  0.499999  0.927382  0.784048  1
  Rh  Rh19  1  0.499999  0.215951  0.927382  1
