# generated using pymatgen
data_Tb4TmPb4
_symmetry_space_group_name_H-M   'P 1'
_cell_length_a   8.21958500
_cell_length_b   15.70893700
_cell_length_c   8.31019200
_cell_angle_alpha   90.00000000
_cell_angle_beta   90.00000000
_cell_angle_gamma   90.00000000
_symmetry_Int_Tables_number   1
_chemical_formula_structural   Tb4TmPb4
_chemical_formula_sum   'Tb16 Tm4 Pb16'
_cell_volume   1073.01982698
_cell_formula_units_Z   4
loop_
 _symmetry_equiv_pos_site_id
 _symmetry_equiv_pos_as_xyz
  1  'x, y, z'
loop_
 _atom_site_type_symbol
 _atom_site_label
 _atom_site_symmetry_multiplicity
 _atom_site_fract_x
 _atom_site_fract_y
 _atom_site_fract_z
 _atom_site_occupancy
  Tb  Tb0  1  0.622889  0.620371  0.159269  1
  Tb  Tb1  1  0.122889  0.879629  0.340731  1
  Tb  Tb2  1  0.377111  0.120371  0.840731  1
  Tb  Tb3  1  0.877111  0.379629  0.659269  1
  Tb  Tb4  1  0.377111  0.379629  0.840731  1
  Tb  Tb5  1  0.877111  0.120371  0.659269  1
  Tb  Tb6  1  0.622889  0.879629  0.159269  1
  Tb  Tb7  1  0.122889  0.620371  0.340731  1
  Tb  Tb8  1  0.466433  0.600053  0.676783  1
  Tb  Tb9  1  0.966433  0.899947  0.823217  1
  Tb  Tb10  1  0.533567  0.100053  0.323217  1
  Tb  Tb11  1  0.033567  0.399947  0.176783  1
  Tb  Tb12  1  0.533567  0.399947  0.323217  1
  Tb  Tb13  1  0.033567  0.100053  0.176783  1
  Tb  Tb14  1  0.466433  0.899947  0.676783  1
  Tb  Tb15  1  0.966433  0.600053  0.823217  1
  Tm  Tm16  1  0.790983  0.750000  0.496367  1
  Tm  Tm17  1  0.290983  0.750000  0.003633  1
  Tm  Tm18  1  0.209017  0.250000  0.503633  1
  Tm  Tm19  1  0.709017  0.250000  0.996367  1
  Pb  Pb20  1  0.718764  0.456722  0.967040  1
  Pb  Pb21  1  0.218764  0.043278  0.532960  1
  Pb  Pb22  1  0.281236  0.956722  0.032960  1
  Pb  Pb23  1  0.781236  0.543278  0.467040  1
  Pb  Pb24  1  0.281236  0.543278  0.032960  1
  Pb  Pb25  1  0.781236  0.956722  0.467040  1
  Pb  Pb26  1  0.718764  0.043278  0.967040  1
  Pb  Pb27  1  0.218764  0.456722  0.532960  1
  Pb  Pb28  1  0.427777  0.750000  0.373674  1
  Pb  Pb29  1  0.927777  0.750000  0.126326  1
  Pb  Pb30  1  0.572223  0.250000  0.626326  1
  Pb  Pb31  1  0.072223  0.250000  0.873674  1
  Pb  Pb32  1  0.654387  0.750000  0.847143  1
  Pb  Pb33  1  0.154387  0.750000  0.652857  1
  Pb  Pb34  1  0.345613  0.250000  0.152857  1
  Pb  Pb35  1  0.845613  0.250000  0.347143  1
