# generated using pymatgen
data_Cs3Sb3Pt2
_symmetry_space_group_name_H-M   'P 1'
_cell_length_a   7.14348900
_cell_length_b   7.80221327
_cell_length_c   11.70279808
_cell_angle_alpha   72.67932122
_cell_angle_beta   90.00000000
_cell_angle_gamma   90.00000000
_symmetry_Int_Tables_number   1
_chemical_formula_structural   Cs3Sb3Pt2
_chemical_formula_sum   'Cs6 Sb6 Pt4'
_cell_volume   622.67816671
_cell_formula_units_Z   2
loop_
 _symmetry_equiv_pos_site_id
 _symmetry_equiv_pos_as_xyz
  1  'x, y, z'
loop_
 _atom_site_type_symbol
 _atom_site_label
 _atom_site_symmetry_multiplicity
 _atom_site_fract_x
 _atom_site_fract_y
 _atom_site_fract_z
 _atom_site_occupancy
  Cs  Cs0  1  0.250000  0.438318  0.433476  1
  Cs  Cs1  1  0.750000  0.160325  0.910099  1
  Cs  Cs2  1  0.750000  0.466220  0.158931  1
  Cs  Cs3  1  0.250000  0.533780  0.841069  1
  Cs  Cs4  1  0.750000  0.561682  0.566524  1
  Cs  Cs5  1  0.250000  0.839675  0.089901  1
  Sb  Sb6  1  0.250000  0.876557  0.536339  1
  Sb  Sb7  1  0.750000  0.123443  0.463661  1
  Sb  Sb8  1  0.250000  0.262870  0.172648  1
  Sb  Sb9  1  0.750000  0.737130  0.827352  1
  Sb  Sb10  1  0.250000  0.088768  0.734926  1
  Sb  Sb11  1  0.750000  0.911232  0.265074  1
  Pt  Pt12  1  0.047829  0.035916  0.341272  1
  Pt  Pt13  1  0.547829  0.964084  0.658728  1
  Pt  Pt14  1  0.452171  0.035916  0.341272  1
  Pt  Pt15  1  0.952171  0.964084  0.658728  1
