# generated using pymatgen
data_Y6Er3LuPb6
_symmetry_space_group_name_H-M   'P 1'
_cell_length_a   9.03615700
_cell_length_b   9.03615717
_cell_length_c   6.57201500
_cell_angle_alpha   90.00000000
_cell_angle_beta   90.00000000
_cell_angle_gamma   119.99999572
_symmetry_Int_Tables_number   1
_chemical_formula_structural   Y6Er3LuPb6
_chemical_formula_sum   'Y6 Er3 Lu1 Pb6'
_cell_volume   464.72575397
_cell_formula_units_Z   1
loop_
 _symmetry_equiv_pos_site_id
 _symmetry_equiv_pos_as_xyz
  1  'x, y, z'
loop_
 _atom_site_type_symbol
 _atom_site_label
 _atom_site_symmetry_multiplicity
 _atom_site_fract_x
 _atom_site_fract_y
 _atom_site_fract_z
 _atom_site_occupancy
  Y  Y0  1  0.761684  0.761601  0.749878  1
  Y  Y1  1  0.238399  0.000082  0.749878  1
  Y  Y2  1  0.999918  0.238316  0.749878  1
  Y  Y3  1  0.238399  0.238316  0.250122  1
  Y  Y4  1  0.761684  0.000082  0.250122  1
  Y  Y5  1  0.999918  0.761601  0.250122  1
  Er  Er6  1  0.666667  0.333333  0.000000  1
  Er  Er7  1  0.333333  0.666667  0.000000  1
  Er  Er8  1  0.333333  0.666667  0.500000  1
  Lu  Lu9  1  0.666667  0.333333  0.500000  1
  Pb  Pb10  1  0.395898  0.395448  0.749575  1
  Pb  Pb11  1  0.604552  0.000450  0.749575  1
  Pb  Pb12  1  0.999550  0.604102  0.749575  1
  Pb  Pb13  1  0.604552  0.604102  0.250425  1
  Pb  Pb14  1  0.395898  0.000450  0.250425  1
  Pb  Pb15  1  0.999550  0.395448  0.250425  1
