# generated using pymatgen
data_Dy5Zr3(Co4As3)4
_symmetry_space_group_name_H-M   'P 1'
_cell_length_a   12.75050200
_cell_length_b   12.75050281
_cell_length_c   3.83742600
_cell_angle_alpha   90.00000000
_cell_angle_beta   90.00000000
_cell_angle_gamma   120.00000309
_symmetry_Int_Tables_number   1
_chemical_formula_structural   Dy5Zr3(Co4As3)4
_chemical_formula_sum   'Dy5 Zr3 Co16 As12'
_cell_volume   540.28788194
_cell_formula_units_Z   1
loop_
 _symmetry_equiv_pos_site_id
 _symmetry_equiv_pos_as_xyz
  1  'x, y, z'
loop_
 _atom_site_type_symbol
 _atom_site_label
 _atom_site_symmetry_multiplicity
 _atom_site_fract_x
 _atom_site_fract_y
 _atom_site_fract_z
 _atom_site_occupancy
  Dy  Dy0  1  0.182718  0.182718  0.500000  1
  Dy  Dy1  1  0.817282  0.000000  0.500000  1
  Dy  Dy2  1  0.000000  0.817282  0.500000  1
  Dy  Dy3  1  0.333333  0.666667  0.000000  1
  Dy  Dy4  1  0.666667  0.333333  0.000000  1
  Zr  Zr5  1  0.561138  0.561138  0.000000  1
  Zr  Zr6  1  0.438862  0.000000  0.000000  1
  Zr  Zr7  1  0.000000  0.438862  0.000000  1
  Co  Co8  1  0.719987  0.719987  0.500000  1
  Co  Co9  1  0.280013  0.000000  0.500000  1
  Co  Co10  1  0.000000  0.280013  0.500000  1
  Co  Co11  1  0.177823  0.373649  0.000000  1
  Co  Co12  1  0.626351  0.804174  0.000000  1
  Co  Co13  1  0.195826  0.822177  0.000000  1
  Co  Co14  1  0.804174  0.626351  0.000000  1
  Co  Co15  1  0.822177  0.195826  0.000000  1
  Co  Co16  1  0.373649  0.177823  0.000000  1
  Co  Co17  1  0.357353  0.479821  0.500000  1
  Co  Co18  1  0.520179  0.877533  0.500000  1
  Co  Co19  1  0.122467  0.642647  0.500000  1
  Co  Co20  1  0.877533  0.520179  0.500000  1
  Co  Co21  1  0.642647  0.122467  0.500000  1
  Co  Co22  1  0.479821  0.357353  0.500000  1
  Co  Co23  1  0.000000  0.000000  0.000000  1
  As  As24  1  0.822681  0.822681  0.000000  1
  As  As25  1  0.177319  0.000000  0.000000  1
  As  As26  1  0.000000  0.177319  0.000000  1
  As  As27  1  0.173510  0.481495  0.500000  1
  As  As28  1  0.518505  0.692015  0.500000  1
  As  As29  1  0.307985  0.826490  0.500000  1
  As  As30  1  0.692015  0.518505  0.500000  1
  As  As31  1  0.826490  0.307985  0.500000  1
  As  As32  1  0.481495  0.173510  0.500000  1
  As  As33  1  0.351980  0.351980  0.000000  1
  As  As34  1  0.648020  0.000000  0.000000  1
  As  As35  1  0.000000  0.648020  0.000000  1
