# generated using pymatgen
data_Lu9Al(Ni2Au)2
_symmetry_space_group_name_H-M   'P 1'
_cell_length_a   8.39063802
_cell_length_b   8.39063773
_cell_length_c   8.39063789
_cell_angle_alpha   129.39161968
_cell_angle_beta   129.39161761
_cell_angle_gamma   74.38125347
_symmetry_Int_Tables_number   1
_chemical_formula_structural   Lu9Al(Ni2Au)2
_chemical_formula_sum   'Lu9 Al1 Ni4 Au2'
_cell_volume   343.88934665
_cell_formula_units_Z   1
loop_
 _symmetry_equiv_pos_site_id
 _symmetry_equiv_pos_as_xyz
  1  'x, y, z'
loop_
 _atom_site_type_symbol
 _atom_site_label
 _atom_site_symmetry_multiplicity
 _atom_site_fract_x
 _atom_site_fract_y
 _atom_site_fract_z
 _atom_site_occupancy
  Lu  Lu0  1  0.500000  0.500000  0.000000  1
  Lu  Lu1  1  0.821781  0.289926  0.843606  1
  Lu  Lu2  1  0.178219  0.710074  0.156394  1
  Lu  Lu3  1  0.446322  0.978176  0.156394  1
  Lu  Lu4  1  0.289926  0.446322  0.468144  1
  Lu  Lu5  1  0.021824  0.178219  0.468144  1
  Lu  Lu6  1  0.553678  0.021824  0.843606  1
  Lu  Lu7  1  0.710074  0.553678  0.531856  1
  Lu  Lu8  1  0.978176  0.821781  0.531856  1
  Al  Al9  1  0.000000  0.000000  0.000000  1
  Ni  Ni10  1  0.124650  0.627494  0.752145  1
  Ni  Ni11  1  0.875350  0.372506  0.247855  1
  Ni  Ni12  1  0.627494  0.875350  0.502844  1
  Ni  Ni13  1  0.372506  0.124650  0.497156  1
  Au  Au14  1  0.262714  0.262714  0.000000  1
  Au  Au15  1  0.737286  0.737286  0.000000  1
