# generated using pymatgen
data_Er4TmZr3(As3Rh4)4
_symmetry_space_group_name_H-M   'P 1'
_cell_length_a   13.32803209
_cell_length_b   13.32803251
_cell_length_c   3.99030300
_cell_angle_alpha   90.00000000
_cell_angle_beta   90.00000000
_cell_angle_gamma   119.99407814
_symmetry_Int_Tables_number   1
_chemical_formula_structural   Er4TmZr3(As3Rh4)4
_chemical_formula_sum   'Er4 Tm1 Zr3 As12 Rh16'
_cell_volume   613.89555947
_cell_formula_units_Z   1
loop_
 _symmetry_equiv_pos_site_id
 _symmetry_equiv_pos_as_xyz
  1  'x, y, z'
loop_
 _atom_site_type_symbol
 _atom_site_label
 _atom_site_symmetry_multiplicity
 _atom_site_fract_x
 _atom_site_fract_y
 _atom_site_fract_z
 _atom_site_occupancy
  Er  Er0  1  0.813122  0.000050  0.500000  1
  Er  Er1  1  0.000050  0.813122  0.500000  1
  Er  Er2  1  0.333224  0.666733  0.000000  1
  Er  Er3  1  0.666733  0.333224  0.000000  1
  Tm  Tm4  1  0.186855  0.186855  0.500000  1
  Zr  Zr5  1  0.555591  0.555591  0.000000  1
  Zr  Zr6  1  0.444386  0.000063  0.000000  1
  Zr  Zr7  1  0.000063  0.444386  0.000000  1
  As  As8  1  0.825326  0.825326  0.000000  1
  As  As9  1  0.174777  0.000292  0.000000  1
  As  As10  1  0.000292  0.174777  0.000000  1
  As  As11  1  0.171106  0.485790  0.500000  1
  As  As12  1  0.514217  0.685342  0.500000  1
  As  As13  1  0.314564  0.828980  0.500000  1
  As  As14  1  0.685342  0.514217  0.500000  1
  As  As15  1  0.828980  0.314564  0.500000  1
  As  As16  1  0.485790  0.171106  0.500000  1
  As  As17  1  0.352873  0.352873  0.000000  1
  As  As18  1  0.646922  0.999997  0.000000  1
  As  As19  1  0.999997  0.646922  0.000000  1
  Rh  Rh20  1  0.719341  0.719341  0.500000  1
  Rh  Rh21  1  0.280445  0.000133  0.500000  1
  Rh  Rh22  1  0.000133  0.280445  0.500000  1
  Rh  Rh23  1  0.176560  0.372522  0.000000  1
  Rh  Rh24  1  0.627259  0.803762  0.000000  1
  Rh  Rh25  1  0.196238  0.823643  0.000000  1
  Rh  Rh26  1  0.803762  0.627259  0.000000  1
  Rh  Rh27  1  0.823643  0.196238  0.000000  1
  Rh  Rh28  1  0.372522  0.176560  0.000000  1
  Rh  Rh29  1  0.355513  0.483642  0.500000  1
  Rh  Rh30  1  0.516170  0.871774  0.500000  1
  Rh  Rh31  1  0.128072  0.644582  0.500000  1
  Rh  Rh32  1  0.871774  0.516170  0.500000  1
  Rh  Rh33  1  0.644582  0.128072  0.500000  1
  Rh  Rh34  1  0.483642  0.355513  0.500000  1
  Rh  Rh35  1  0.000138  0.000138  0.000000  1
