# generated using pymatgen
data_YHoCu2(AuO4)2
_symmetry_space_group_name_H-M   'P 1'
_cell_length_a   6.45070308
_cell_length_b   6.45078563
_cell_length_c   6.49068267
_cell_angle_alpha   125.99506213
_cell_angle_beta   126.08869047
_cell_angle_gamma   79.39550431
_symmetry_Int_Tables_number   1
_chemical_formula_structural   YHoCu2(AuO4)2
_chemical_formula_sum   'Y1 Ho1 Cu2 Au2 O8'
_cell_volume   171.07138948
_cell_formula_units_Z   1
loop_
 _symmetry_equiv_pos_site_id
 _symmetry_equiv_pos_as_xyz
  1  'x, y, z'
loop_
 _atom_site_type_symbol
 _atom_site_label
 _atom_site_symmetry_multiplicity
 _atom_site_fract_x
 _atom_site_fract_y
 _atom_site_fract_z
 _atom_site_occupancy
  Y  Y0  1  0.000140  0.000139  0.000002  1
  Ho  Ho1  1  0.749751  0.249738  0.500002  1
  Cu  Cu2  1  0.374887  0.624641  0.249575  1
  Cu  Cu3  1  0.375067  0.125316  0.750427  1
  Au  Au4  1  0.375188  0.624693  0.749919  1
  Au  Au5  1  0.874771  0.625271  0.250082  1
  O  O6  1  0.739706  0.285979  0.140869  1
  O  O7  1  0.145106  0.598831  0.859121  1
  O  O8  1  0.009308  0.966233  0.361960  1
  O  O9  1  0.604276  0.647352  0.638047  1
  O  O10  1  0.045179  0.387242  0.034845  1
  O  O11  1  0.352401  0.010333  0.965154  1
  O  O12  1  0.401479  0.240416  0.537669  1
  O  O13  1  0.702740  0.863815  0.462331  1
