# generated using pymatgen
data_TbYbAl20IrOs3
_symmetry_space_group_name_H-M   'P 1'
_cell_length_a   6.88490680
_cell_length_b   6.88457903
_cell_length_c   9.17987600
_cell_angle_alpha   90.21116442
_cell_angle_beta   90.05991582
_cell_angle_gamma   96.46611625
_symmetry_Int_Tables_number   1
_chemical_formula_structural   TbYbAl20IrOs3
_chemical_formula_sum   'Tb1 Yb1 Al20 Ir1 Os3'
_cell_volume   432.35184663
_cell_formula_units_Z   1
loop_
 _symmetry_equiv_pos_site_id
 _symmetry_equiv_pos_as_xyz
  1  'x, y, z'
loop_
 _atom_site_type_symbol
 _atom_site_label
 _atom_site_symmetry_multiplicity
 _atom_site_fract_x
 _atom_site_fract_y
 _atom_site_fract_z
 _atom_site_occupancy
  Tb  Tb0  1  0.629843  0.373462  0.749732  1
  Yb  Yb1  1  0.371733  0.625819  0.250332  1
  Al  Al2  1  0.280715  0.017745  0.747781  1
  Al  Al3  1  0.019839  0.283104  0.249297  1
  Al  Al4  1  0.718639  0.979992  0.252337  1
  Al  Al5  1  0.982733  0.718556  0.750526  1
  Al  Al6  1  0.878909  0.123960  0.949264  1
  Al  Al7  1  0.121391  0.875340  0.046196  1
  Al  Al8  1  0.876870  0.123511  0.549073  1
  Al  Al9  1  0.123853  0.875488  0.455103  1
  Al  Al10  1  0.646296  0.917568  0.749122  1
  Al  Al11  1  0.916289  0.646577  0.250342  1
  Al  Al12  1  0.352547  0.083740  0.251094  1
  Al  Al13  1  0.083509  0.354939  0.749641  1
  Al  Al14  1  0.342384  0.655031  0.896954  1
  Al  Al15  1  0.660143  0.341612  0.103120  1
  Al  Al16  1  0.344519  0.656354  0.600771  1
  Al  Al17  1  0.658565  0.340183  0.398903  1
  Al  Al18  1  0.723747  0.723878  0.998861  1
  Al  Al19  1  0.722733  0.724055  0.500664  1
  Al  Al20  1  0.274686  0.277971  0.000947  1
  Al  Al21  1  0.275280  0.277558  0.499864  1
  Ir  Ir22  1  0.499179  0.001478  0.999457  1
  Os  Os23  1  0.998116  0.500196  0.999420  1
  Os  Os24  1  0.499556  0.001684  0.500620  1
  Os  Os25  1  0.997924  0.500202  0.500578  1
