# generated using pymatgen
data_Nd7Ho(Tm3Pt4)4
_symmetry_space_group_name_H-M   'P 1'
_cell_length_a   7.53804276
_cell_length_b   7.63262453
_cell_length_c   14.65999752
_cell_angle_alpha   90.00313989
_cell_angle_beta   90.02963051
_cell_angle_gamma   90.04252593
_symmetry_Int_Tables_number   1
_chemical_formula_structural   Nd7Ho(Tm3Pt4)4
_chemical_formula_sum   'Nd7 Ho1 Tm12 Pt16'
_cell_volume   843.46334475
_cell_formula_units_Z   1
loop_
 _symmetry_equiv_pos_site_id
 _symmetry_equiv_pos_as_xyz
  1  'x, y, z'
loop_
 _atom_site_type_symbol
 _atom_site_label
 _atom_site_symmetry_multiplicity
 _atom_site_fract_x
 _atom_site_fract_y
 _atom_site_fract_z
 _atom_site_occupancy
  Nd  Nd0  1  0.500452  0.678422  0.593382  1
  Nd  Nd1  1  0.999522  0.823049  0.906136  1
  Nd  Nd2  1  0.499536  0.323241  0.093856  1
  Nd  Nd3  1  0.000162  0.175022  0.407375  1
  Nd  Nd4  1  0.499576  0.323165  0.406172  1
  Nd  Nd5  1  0.999790  0.177251  0.093455  1
  Nd  Nd6  1  0.500486  0.677079  0.905924  1
  Ho  Ho7  1  0.002273  0.820613  0.594801  1
  Tm  Tm8  1  0.658934  0.166152  0.623008  1
  Tm  Tm9  1  0.156794  0.332044  0.875562  1
  Tm  Tm10  1  0.342883  0.832563  0.123776  1
  Tm  Tm11  1  0.844758  0.668605  0.377388  1
  Tm  Tm12  1  0.342649  0.832894  0.376745  1
  Tm  Tm13  1  0.842887  0.667069  0.124012  1
  Tm  Tm14  1  0.657242  0.167244  0.875698  1
  Tm  Tm15  1  0.156633  0.332547  0.623549  1
  Tm  Tm16  1  0.820183  0.508836  0.749052  1
  Tm  Tm17  1  0.319371  0.991870  0.748783  1
  Tm  Tm18  1  0.179533  0.491975  0.250300  1
  Tm  Tm19  1  0.679953  0.008023  0.250203  1
  Pt  Pt20  1  0.680167  0.961555  0.458739  1
  Pt  Pt21  1  0.179294  0.536933  0.042640  1
  Pt  Pt22  1  0.321024  0.037104  0.957056  1
  Pt  Pt23  1  0.822805  0.467507  0.544353  1
  Pt  Pt24  1  0.315026  0.033145  0.543878  1
  Pt  Pt25  1  0.821309  0.462946  0.957004  1
  Pt  Pt26  1  0.679120  0.962952  0.042669  1
  Pt  Pt27  1  0.178383  0.539675  0.458550  1
  Pt  Pt28  1  0.453406  0.379193  0.749741  1
  Pt  Pt29  1  0.954826  0.119056  0.748843  1
  Pt  Pt30  1  0.545975  0.621596  0.250267  1
  Pt  Pt31  1  0.045993  0.878527  0.250081  1
  Pt  Pt32  1  0.686428  0.861385  0.748936  1
  Pt  Pt33  1  0.182011  0.640643  0.747709  1
  Pt  Pt34  1  0.315221  0.138415  0.250126  1
  Pt  Pt35  1  0.815397  0.361708  0.250230  1
