# generated using pymatgen
data_TbMn3P6N13
_symmetry_space_group_name_H-M   'P 1'
_cell_length_a   7.14786113
_cell_length_b   7.14786254
_cell_length_c   7.14786200
_cell_angle_alpha   109.24902858
_cell_angle_beta   109.24903253
_cell_angle_gamma   109.24903972
_symmetry_Int_Tables_number   1
_chemical_formula_structural   TbMn3P6N13
_chemical_formula_sum   'Tb1 Mn3 P6 N13'
_cell_volume   283.41864766
_cell_formula_units_Z   1
loop_
 _symmetry_equiv_pos_site_id
 _symmetry_equiv_pos_as_xyz
  1  'x, y, z'
loop_
 _atom_site_type_symbol
 _atom_site_label
 _atom_site_symmetry_multiplicity
 _atom_site_fract_x
 _atom_site_fract_y
 _atom_site_fract_z
 _atom_site_occupancy
  Tb  Tb0  1  0.284911  0.284911  0.284911  1
  Mn  Mn1  1  0.993109  0.700622  0.993109  1
  Mn  Mn2  1  0.700622  0.993109  0.993109  1
  Mn  Mn3  1  0.993109  0.993109  0.700622  1
  P  P4  1  0.504472  0.252112  0.756882  1
  P  P5  1  0.504472  0.756882  0.252112  1
  P  P6  1  0.756882  0.252112  0.504472  1
  P  P7  1  0.252112  0.504472  0.756882  1
  P  P8  1  0.756882  0.504472  0.252112  1
  P  P9  1  0.252112  0.756882  0.504472  1
  N  N10  1  0.977305  0.977305  0.977305  1
  N  N11  1  0.001484  0.732958  0.447239  1
  N  N12  1  0.272420  0.715236  0.272420  1
  N  N13  1  0.280101  0.560238  0.560238  1
  N  N14  1  0.560238  0.560238  0.280101  1
  N  N15  1  0.560238  0.280101  0.560238  1
  N  N16  1  0.732958  0.001484  0.447239  1
  N  N17  1  0.447239  0.001484  0.732958  1
  N  N18  1  0.732958  0.447239  0.001484  1
  N  N19  1  0.272420  0.272420  0.715236  1
  N  N20  1  0.715236  0.272420  0.272420  1
  N  N21  1  0.001484  0.447239  0.732958  1
  N  N22  1  0.447239  0.732958  0.001484  1
