# generated using pymatgen
data_NaPmSeS
_symmetry_space_group_name_H-M   'P 1'
_cell_length_a   7.66670712
_cell_length_b   8.36275500
_cell_length_c   7.22148208
_cell_angle_alpha   90.00000000
_cell_angle_beta   107.05314301
_cell_angle_gamma   90.00000000
_symmetry_Int_Tables_number   1
_chemical_formula_structural   NaPmSeS
_chemical_formula_sum   'Na4 Pm4 Se4 S4'
_cell_volume   442.64701739
_cell_formula_units_Z   4
loop_
 _symmetry_equiv_pos_site_id
 _symmetry_equiv_pos_as_xyz
  1  'x, y, z'
loop_
 _atom_site_type_symbol
 _atom_site_label
 _atom_site_symmetry_multiplicity
 _atom_site_fract_x
 _atom_site_fract_y
 _atom_site_fract_z
 _atom_site_occupancy
  Na  Na0  1  0.964850  0.248276  0.979384  1
  Na  Na1  1  0.035144  0.748279  0.520630  1
  Na  Na2  1  0.964850  0.251725  0.479386  1
  Na  Na3  1  0.035145  0.751720  0.020629  1
  Pm  Pm4  1  0.517228  0.623290  0.251100  1
  Pm  Pm5  1  0.482772  0.123289  0.248894  1
  Pm  Pm6  1  0.517227  0.876709  0.751099  1
  Pm  Pm7  1  0.482772  0.376710  0.748894  1
  Se  Se8  1  0.742797  0.886078  0.164629  1
  Se  Se9  1  0.257209  0.386080  0.335364  1
  Se  Se10  1  0.742797  0.613921  0.664629  1
  Se  Se11  1  0.257208  0.113921  0.835363  1
  S  S12  1  0.694856  0.363043  0.140518  1
  S  S13  1  0.305146  0.863042  0.359481  1
  S  S14  1  0.694855  0.136956  0.640520  1
  S  S15  1  0.305145  0.636960  0.859481  1
