# generated using pymatgen
data_Yb2FeRuO6
_symmetry_space_group_name_H-M   'P 1'
_cell_length_a   5.42780608
_cell_length_b   5.42780936
_cell_length_c   5.48146236
_cell_angle_alpha   120.10900334
_cell_angle_beta   120.10891802
_cell_angle_gamma   60.12057193
_symmetry_Int_Tables_number   1
_chemical_formula_structural   Yb2FeRuO6
_chemical_formula_sum   'Yb2 Fe1 Ru1 O6'
_cell_volume   114.10534486
_cell_formula_units_Z   1
loop_
 _symmetry_equiv_pos_site_id
 _symmetry_equiv_pos_as_xyz
  1  'x, y, z'
loop_
 _atom_site_type_symbol
 _atom_site_label
 _atom_site_symmetry_multiplicity
 _atom_site_fract_x
 _atom_site_fract_y
 _atom_site_fract_z
 _atom_site_occupancy
  Yb  Yb0  1  0.750167  0.750166  0.271012  1
  Yb  Yb1  1  0.249833  0.249834  0.728987  1
  Fe  Fe2  1  0.000000  0.000000  0.000000  1
  Ru  Ru3  1  0.500000  0.500000  0.500000  1
  O  O4  1  0.254011  0.254011  0.152444  1
  O  O5  1  0.806823  0.308739  0.309813  1
  O  O6  1  0.308739  0.806823  0.309814  1
  O  O7  1  0.691261  0.193177  0.690188  1
  O  O8  1  0.193177  0.691261  0.690189  1
  O  O9  1  0.745988  0.745988  0.847555  1
