# generated using pymatgen
data_EuH5Rh
_symmetry_space_group_name_H-M   'P 1'
_cell_length_a   4.61168900
_cell_length_b   5.01329200
_cell_length_c   12.30173500
_cell_angle_alpha   90.00000000
_cell_angle_beta   90.00000000
_cell_angle_gamma   90.00000000
_symmetry_Int_Tables_number   1
_chemical_formula_structural   EuH5Rh
_chemical_formula_sum   'Eu4 H20 Rh4'
_cell_volume   284.41295867
_cell_formula_units_Z   4
loop_
 _symmetry_equiv_pos_site_id
 _symmetry_equiv_pos_as_xyz
  1  'x, y, z'
loop_
 _atom_site_type_symbol
 _atom_site_label
 _atom_site_symmetry_multiplicity
 _atom_site_fract_x
 _atom_site_fract_y
 _atom_site_fract_z
 _atom_site_occupancy
  Eu  Eu0  1  0.258538  0.173669  0.646859  1
  Eu  Eu1  1  0.758538  0.326331  0.353141  1
  Eu  Eu2  1  0.241462  0.826331  0.146859  1
  Eu  Eu3  1  0.741462  0.673669  0.853141  1
  H  H4  1  0.579524  0.395811  0.528954  1
  H  H5  1  0.079524  0.104189  0.471046  1
  H  H6  1  0.920476  0.604189  0.028954  1
  H  H7  1  0.420476  0.895811  0.971046  1
  H  H8  1  0.136620  0.989999  0.824281  1
  H  H9  1  0.636620  0.510001  0.175719  1
  H  H10  1  0.363380  0.010001  0.324281  1
  H  H11  1  0.863380  0.489999  0.675719  1
  H  H12  1  0.221422  0.451721  0.841553  1
  H  H13  1  0.721422  0.048279  0.158447  1
  H  H14  1  0.278578  0.548279  0.341553  1
  H  H15  1  0.778578  0.951721  0.658447  1
  H  H16  1  0.586425  0.165309  0.829173  1
  H  H17  1  0.086425  0.334691  0.170827  1
  H  H18  1  0.913575  0.834691  0.329173  1
  H  H19  1  0.413575  0.665309  0.670827  1
  H  H20  1  0.997915  0.114030  0.995845  1
  H  H21  1  0.497915  0.385970  0.004155  1
  H  H22  1  0.502085  0.885970  0.495845  1
  H  H23  1  0.002085  0.614030  0.504155  1
  Rh  Rh24  1  0.311613  0.174287  0.912680  1
  Rh  Rh25  1  0.811613  0.325713  0.087320  1
  Rh  Rh26  1  0.188387  0.825713  0.412680  1
  Rh  Rh27  1  0.688387  0.674287  0.587320  1
