# generated using pymatgen
data_HoLu3Co4(SnH)4
_symmetry_space_group_name_H-M   'P 1'
_cell_length_a   4.22240700
_cell_length_b   7.02922200
_cell_length_c   8.10216500
_cell_angle_alpha   90.00215504
_cell_angle_beta   90.00000000
_cell_angle_gamma   90.00000000
_symmetry_Int_Tables_number   1
_chemical_formula_structural   HoLu3Co4(SnH)4
_chemical_formula_sum   'Ho1 Lu3 Co4 Sn4 H4'
_cell_volume   240.47417066
_cell_formula_units_Z   1
loop_
 _symmetry_equiv_pos_site_id
 _symmetry_equiv_pos_as_xyz
  1  'x, y, z'
loop_
 _atom_site_type_symbol
 _atom_site_label
 _atom_site_symmetry_multiplicity
 _atom_site_fract_x
 _atom_site_fract_y
 _atom_site_fract_z
 _atom_site_occupancy
  Ho  Ho0  1  0.750000  0.513772  0.814354  1
  Lu  Lu1  1  0.750000  0.014413  0.683179  1
  Lu  Lu2  1  0.250000  0.985777  0.316571  1
  Lu  Lu3  1  0.250000  0.486071  0.183680  1
  Co  Co4  1  0.750000  0.770703  0.106134  1
  Co  Co5  1  0.250000  0.227678  0.895883  1
  Co  Co6  1  0.250000  0.731439  0.603052  1
  Co  Co7  1  0.750000  0.269765  0.395417  1
  Sn  Sn8  1  0.750000  0.653786  0.424341  1
  Sn  Sn9  1  0.250000  0.345811  0.572716  1
  Sn  Sn10  1  0.250000  0.847144  0.926132  1
  Sn  Sn11  1  0.750000  0.153377  0.074898  1
  H  H12  1  0.250000  0.450259  0.920877  1
  H  H13  1  0.750000  0.548095  0.082912  1
  H  H14  1  0.750000  0.047926  0.419504  1
  H  H15  1  0.250000  0.953985  0.580349  1
