# generated using pymatgen
data_Dy10Tl2SnSb3
_symmetry_space_group_name_H-M   'P 1'
_cell_length_a   6.51890800
_cell_length_b   8.98891289
_cell_length_c   8.97454200
_cell_angle_alpha   119.97125225
_cell_angle_beta   89.99997363
_cell_angle_gamma   89.99999405
_symmetry_Int_Tables_number   1
_chemical_formula_structural   Dy10Tl2SnSb3
_chemical_formula_sum   'Dy10 Tl2 Sn1 Sb3'
_cell_volume   455.56534961
_cell_formula_units_Z   1
loop_
 _symmetry_equiv_pos_site_id
 _symmetry_equiv_pos_as_xyz
  1  'x, y, z'
loop_
 _atom_site_type_symbol
 _atom_site_label
 _atom_site_symmetry_multiplicity
 _atom_site_fract_x
 _atom_site_fract_y
 _atom_site_fract_z
 _atom_site_occupancy
  Dy  Dy0  1  0.499674  0.335384  0.667695  1
  Dy  Dy1  1  0.499644  0.663109  0.330398  1
  Dy  Dy2  1  0.000358  0.663108  0.330397  1
  Dy  Dy3  1  0.000327  0.335384  0.667693  1
  Dy  Dy4  1  0.750000  0.239541  0.004334  1
  Dy  Dy5  1  0.749999  0.758672  0.764136  1
  Dy  Dy6  1  0.750002  0.000132  0.239884  1
  Dy  Dy7  1  0.250001  0.760501  0.997538  1
  Dy  Dy8  1  0.250001  0.241576  0.237309  1
  Dy  Dy9  1  0.250001  0.001657  0.760664  1
  Tl  Tl10  1  0.750000  0.604324  0.000395  1
  Tl  Tl11  1  0.749999  0.394583  0.395671  1
  Sn  Sn12  1  0.250001  0.394104  0.997003  1
  Sb  Sb13  1  0.750002  0.999457  0.608424  1
  Sb  Sb14  1  0.249997  0.608799  0.606930  1
  Sb  Sb15  1  0.250001  0.999671  0.391533  1
