# generated using pymatgen
data_La4Tb5HoRu4
_symmetry_space_group_name_H-M   'P 1'
_cell_length_a   6.52219599
_cell_length_b   7.24950159
_cell_length_c   8.82178617
_cell_angle_alpha   96.25956650
_cell_angle_beta   111.69490537
_cell_angle_gamma   89.99999824
_symmetry_Int_Tables_number   1
_chemical_formula_structural   La4Tb5HoRu4
_chemical_formula_sum   'La4 Tb5 Ho1 Ru4'
_cell_volume   384.89362175
_cell_formula_units_Z   1
loop_
 _symmetry_equiv_pos_site_id
 _symmetry_equiv_pos_as_xyz
  1  'x, y, z'
loop_
 _atom_site_type_symbol
 _atom_site_label
 _atom_site_symmetry_multiplicity
 _atom_site_fract_x
 _atom_site_fract_y
 _atom_site_fract_z
 _atom_site_occupancy
  La  La0  1  0.978377  0.911414  0.193637  1
  La  La1  1  0.784738  0.588586  0.806363  1
  La  La2  1  0.021515  0.088945  0.806444  1
  La  La3  1  0.215072  0.411055  0.193556  1
  Tb  Tb4  1  0.636527  0.815032  0.431179  1
  Tb  Tb5  1  0.205347  0.684968  0.568821  1
  Tb  Tb6  1  0.363702  0.185104  0.569025  1
  Tb  Tb7  1  0.794678  0.314896  0.430975  1
  Tb  Tb8  1  0.425458  0.750000  0.000000  1
  Ho  Ho9  1  0.574283  0.250000  0.000000  1
  Ru  Ru10  1  0.825316  0.580900  0.224454  1
  Ru  Ru11  1  0.600862  0.919100  0.775546  1
  Ru  Ru12  1  0.174830  0.418614  0.775535  1
  Ru  Ru13  1  0.399295  0.081386  0.224465  1
