# generated using pymatgen
data_CaLa9(SnBi)4
_symmetry_space_group_name_H-M   'P 1'
_cell_length_a   8.56081000
_cell_length_b   8.59935100
_cell_length_c   16.37061700
_cell_angle_alpha   90.00000000
_cell_angle_beta   90.00000000
_cell_angle_gamma   90.00000000
_symmetry_Int_Tables_number   1
_chemical_formula_structural   CaLa9(SnBi)4
_chemical_formula_sum   'Ca2 La18 Sn8 Bi8'
_cell_volume   1205.16242420
_cell_formula_units_Z   2
loop_
 _symmetry_equiv_pos_site_id
 _symmetry_equiv_pos_as_xyz
  1  'x, y, z'
loop_
 _atom_site_type_symbol
 _atom_site_label
 _atom_site_symmetry_multiplicity
 _atom_site_fract_x
 _atom_site_fract_y
 _atom_site_fract_z
 _atom_site_occupancy
  Ca  Ca0  1  0.226787  0.499576  0.250000  1
  Ca  Ca1  1  0.726787  0.000424  0.250000  1
  La  La2  1  0.049577  0.175918  0.390413  1
  La  La3  1  0.397547  0.834724  0.118943  1
  La  La4  1  0.103829  0.335263  0.619770  1
  La  La5  1  0.448366  0.675458  0.889710  1
  La  La6  1  0.897547  0.665276  0.118943  1
  La  La7  1  0.103829  0.335263  0.880230  1
  La  La8  1  0.448366  0.675458  0.610290  1
  La  La9  1  0.278337  0.997101  0.750000  1
  La  La10  1  0.603829  0.164737  0.619770  1
  La  La11  1  0.778337  0.502899  0.750000  1
  La  La12  1  0.897547  0.665276  0.381057  1
  La  La13  1  0.049577  0.175918  0.109587  1
  La  La14  1  0.948366  0.824542  0.889710  1
  La  La15  1  0.603829  0.164737  0.880230  1
  La  La16  1  0.549577  0.324082  0.109587  1
  La  La17  1  0.397547  0.834724  0.381057  1
  La  La18  1  0.948366  0.824542  0.610290  1
  La  La19  1  0.549577  0.324082  0.390413  1
  Sn  Sn20  1  0.648064  0.864345  0.750000  1
  Sn  Sn21  1  0.849826  0.363767  0.250000  1
  Sn  Sn22  1  0.597359  0.620312  0.250000  1
  Sn  Sn23  1  0.404125  0.377537  0.750000  1
  Sn  Sn24  1  0.148064  0.635655  0.750000  1
  Sn  Sn25  1  0.904125  0.122463  0.750000  1
  Sn  Sn26  1  0.349826  0.136233  0.250000  1
  Sn  Sn27  1  0.097359  0.879688  0.250000  1
  Bi  Bi28  1  0.765601  0.481648  0.543717  1
  Bi  Bi29  1  0.732829  0.982091  0.454618  1
  Bi  Bi30  1  0.232829  0.517909  0.454618  1
  Bi  Bi31  1  0.265601  0.018352  0.956283  1
  Bi  Bi32  1  0.765601  0.481648  0.956283  1
  Bi  Bi33  1  0.232829  0.517909  0.045382  1
  Bi  Bi34  1  0.265601  0.018352  0.543717  1
  Bi  Bi35  1  0.732829  0.982091  0.045382  1
