# generated using pymatgen
data_Sm3Pa(Pt2Pb)2
_symmetry_space_group_name_H-M   'P 1'
_cell_length_a   8.08038000
_cell_length_b   8.08038000
_cell_length_c   3.64056700
_cell_angle_alpha   90.00000000
_cell_angle_beta   90.00000000
_cell_angle_gamma   87.99244120
_symmetry_Int_Tables_number   1
_chemical_formula_structural   Sm3Pa(Pt2Pb)2
_chemical_formula_sum   'Sm3 Pa1 Pt4 Pb2'
_cell_volume   237.55597192
_cell_formula_units_Z   1
loop_
 _symmetry_equiv_pos_site_id
 _symmetry_equiv_pos_as_xyz
  1  'x, y, z'
loop_
 _atom_site_type_symbol
 _atom_site_label
 _atom_site_symmetry_multiplicity
 _atom_site_fract_x
 _atom_site_fract_y
 _atom_site_fract_z
 _atom_site_occupancy
  Sm  Sm0  1  0.830847  0.332045  0.500000  1
  Sm  Sm1  1  0.167955  0.669154  0.500000  1
  Sm  Sm2  1  0.672858  0.827143  0.500000  1
  Pa  Pa3  1  0.333611  0.166389  0.500000  1
  Pt  Pt4  1  0.611463  0.134558  0.000000  1
  Pt  Pt5  1  0.141697  0.358303  0.000000  1
  Pt  Pt6  1  0.880770  0.619231  0.000000  1
  Pt  Pt7  1  0.365442  0.888538  0.000000  1
  Pb  Pb8  1  0.993273  0.997914  0.000000  1
  Pb  Pb9  1  0.502086  0.506727  0.000000  1
