# generated using pymatgen
data_TbDy19(Bi2Ir)4
_symmetry_space_group_name_H-M   'P 1'
_cell_length_a   8.02227203
_cell_length_b   9.01727600
_cell_length_c   12.50621705
_cell_angle_alpha   90.00000000
_cell_angle_beta   90.01062556
_cell_angle_gamma   90.00000000
_symmetry_Int_Tables_number   1
_chemical_formula_structural   TbDy19(Bi2Ir)4
_chemical_formula_sum   'Tb1 Dy19 Bi8 Ir4'
_cell_volume   904.68773368
_cell_formula_units_Z   1
loop_
 _symmetry_equiv_pos_site_id
 _symmetry_equiv_pos_as_xyz
  1  'x, y, z'
loop_
 _atom_site_type_symbol
 _atom_site_label
 _atom_site_symmetry_multiplicity
 _atom_site_fract_x
 _atom_site_fract_y
 _atom_site_fract_z
 _atom_site_occupancy
  Tb  Tb0  1  0.840726  0.750000  0.793061  1
  Dy  Dy1  1  0.159232  0.250000  0.206685  1
  Dy  Dy2  1  0.340762  0.250000  0.706672  1
  Dy  Dy3  1  0.659216  0.750000  0.293359  1
  Dy  Dy4  1  0.376822  0.750000  0.693030  1
  Dy  Dy5  1  0.623125  0.250000  0.306915  1
  Dy  Dy6  1  0.876879  0.250000  0.806920  1
  Dy  Dy7  1  0.123085  0.750000  0.193046  1
  Dy  Dy8  1  0.946080  0.750000  0.501248  1
  Dy  Dy9  1  0.053921  0.250000  0.498705  1
  Dy  Dy10  1  0.446077  0.250000  0.998680  1
  Dy  Dy11  1  0.553762  0.750000  0.001396  1
  Dy  Dy12  1  0.676279  0.041827  0.566050  1
  Dy  Dy13  1  0.323702  0.958151  0.433936  1
  Dy  Dy14  1  0.176419  0.958283  0.933952  1
  Dy  Dy15  1  0.323702  0.541849  0.433936  1
  Dy  Dy16  1  0.823645  0.041898  0.066122  1
  Dy  Dy17  1  0.676279  0.458173  0.566050  1
  Dy  Dy18  1  0.823645  0.458102  0.066122  1
  Dy  Dy19  1  0.176419  0.541717  0.933952  1
  Bi  Bi20  1  0.569010  0.490981  0.827426  1
  Bi  Bi21  1  0.430828  0.508863  0.172598  1
  Bi  Bi22  1  0.069361  0.508685  0.672503  1
  Bi  Bi23  1  0.430828  0.991137  0.172598  1
  Bi  Bi24  1  0.930786  0.491137  0.327399  1
  Bi  Bi25  1  0.569010  0.009019  0.827426  1
  Bi  Bi26  1  0.930786  0.008863  0.327399  1
  Bi  Bi27  1  0.069361  0.991315  0.672503  1
  Ir  Ir28  1  0.570328  0.750000  0.509017  1
  Ir  Ir29  1  0.429726  0.250000  0.490987  1
  Ir  Ir30  1  0.070334  0.250000  0.990982  1
  Ir  Ir31  1  0.929866  0.750000  0.009322  1
