# generated using pymatgen
data_YbEr3Os5Ru3
_symmetry_space_group_name_H-M   'P 1'
_cell_length_a   5.32822857
_cell_length_b   5.15841670
_cell_length_c   8.95092400
_cell_angle_alpha   89.99743679
_cell_angle_beta   90.00194258
_cell_angle_gamma   119.80764511
_symmetry_Int_Tables_number   1
_chemical_formula_structural   YbEr3Os5Ru3
_chemical_formula_sum   'Yb1 Er3 Os5 Ru3'
_cell_volume   213.46973020
_cell_formula_units_Z   1
loop_
 _symmetry_equiv_pos_site_id
 _symmetry_equiv_pos_as_xyz
  1  'x, y, z'
loop_
 _atom_site_type_symbol
 _atom_site_label
 _atom_site_symmetry_multiplicity
 _atom_site_fract_x
 _atom_site_fract_y
 _atom_site_fract_z
 _atom_site_occupancy
  Yb  Yb0  1  0.666291  0.333372  0.936973  1
  Er  Er1  1  0.668246  0.334326  0.571003  1
  Er  Er2  1  0.331987  0.666103  0.432942  1
  Er  Er3  1  0.330613  0.665548  0.062203  1
  Os  Os4  1  0.171443  0.339865  0.749445  1
  Os  Os5  1  0.172146  0.830663  0.748970  1
  Os  Os6  1  0.660061  0.829355  0.749367  1
  Os  Os7  1  0.836127  0.663078  0.249946  1
  Os  Os8  1  0.835119  0.173708  0.249945  1
  Ru  Ru9  1  0.989457  0.994805  0.498281  1
  Ru  Ru10  1  0.987999  0.994124  0.000052  1
  Ru  Ru11  1  0.350509  0.175056  0.250871  1
