# generated using pymatgen
data_DyY15In4RuRh3
_symmetry_space_group_name_H-M   'P 1'
_cell_length_a   9.71261872
_cell_length_b   9.69925748
_cell_length_c   9.69925704
_cell_angle_alpha   59.86995074
_cell_angle_beta   59.90980536
_cell_angle_gamma   59.90980537
_symmetry_Int_Tables_number   1
_chemical_formula_structural   DyY15In4RuRh3
_chemical_formula_sum   'Dy1 Y15 In4 Ru1 Rh3'
_cell_volume   644.58082779
_cell_formula_units_Z   1
loop_
 _symmetry_equiv_pos_site_id
 _symmetry_equiv_pos_as_xyz
  1  'x, y, z'
loop_
 _atom_site_type_symbol
 _atom_site_label
 _atom_site_symmetry_multiplicity
 _atom_site_fract_x
 _atom_site_fract_y
 _atom_site_fract_z
 _atom_site_occupancy
  Dy  Dy0  1  0.546078  0.150605  0.150605  1
  Y  Y1  1  0.688824  0.310431  0.310431  1
  Y  Y2  1  0.690706  0.690980  0.311804  1
  Y  Y3  1  0.310400  0.688776  0.310618  1
  Y  Y4  1  0.937008  0.937243  0.563205  1
  Y  Y5  1  0.149666  0.149992  0.547975  1
  Y  Y6  1  0.559736  0.942149  0.559225  1
  Y  Y7  1  0.151114  0.151508  0.151508  1
  Y  Y8  1  0.310400  0.310618  0.688776  1
  Y  Y9  1  0.941473  0.559947  0.559947  1
  Y  Y10  1  0.559736  0.559225  0.942149  1
  Y  Y11  1  0.562809  0.937691  0.937691  1
  Y  Y12  1  0.937008  0.563205  0.937243  1
  Y  Y13  1  0.149666  0.547975  0.149992  1
  Y  Y14  1  0.311729  0.690697  0.690697  1
  Y  Y15  1  0.690706  0.311804  0.690980  1
  In  In16  1  0.918128  0.917890  0.247885  1
  In  In17  1  0.248723  0.917680  0.917680  1
  In  In18  1  0.918128  0.247885  0.917890  1
  In  In19  1  0.917329  0.916992  0.916992  1
  Ru  Ru20  1  0.358799  0.356633  0.356633  1
  Rh  Rh21  1  0.923915  0.358020  0.358020  1
  Rh  Rh22  1  0.358959  0.356852  0.925205  1
  Rh  Rh23  1  0.358959  0.925205  0.356852  1
