# generated using pymatgen
data_Th3In2GaOs2Rh
_symmetry_space_group_name_H-M   'P 1'
_cell_length_a   7.61089700
_cell_length_b   7.61284973
_cell_length_c   3.97533200
_cell_angle_alpha   90.00000000
_cell_angle_beta   90.00000000
_cell_angle_gamma   119.99152831
_symmetry_Int_Tables_number   1
_chemical_formula_structural   Th3In2GaOs2Rh
_chemical_formula_sum   'Th3 In2 Ga1 Os2 Rh1'
_cell_volume   199.49141272
_cell_formula_units_Z   1
loop_
 _symmetry_equiv_pos_site_id
 _symmetry_equiv_pos_as_xyz
  1  'x, y, z'
loop_
 _atom_site_type_symbol
 _atom_site_label
 _atom_site_symmetry_multiplicity
 _atom_site_fract_x
 _atom_site_fract_y
 _atom_site_fract_z
 _atom_site_occupancy
  Th  Th0  1  0.995427  0.410316  0.500000  1
  Th  Th1  1  0.585110  0.589684  0.500000  1
  Th  Th2  1  0.433133  0.000000  0.500000  1
  In  In3  1  0.002940  0.756336  0.000000  1
  In  In4  1  0.246605  0.243664  0.000000  1
  Ga  Ga5  1  0.751737  0.000000  0.000000  1
  Os  Os6  1  0.341758  0.672786  0.000000  1
  Os  Os7  1  0.668973  0.327214  0.000000  1
  Rh  Rh8  1  0.974318  0.000000  0.500000  1
