# generated using pymatgen
data_K(MnS)3
_symmetry_space_group_name_H-M   'P 1'
_cell_length_a   8.58675400
_cell_length_b   8.58675528
_cell_length_c   4.10234800
_cell_angle_alpha   90.00000000
_cell_angle_beta   90.00000000
_cell_angle_gamma   120.00000278
_symmetry_Int_Tables_number   1
_chemical_formula_structural   K(MnS)3
_chemical_formula_sum   'K2 Mn6 S6'
_cell_volume   261.95170224
_cell_formula_units_Z   2
loop_
 _symmetry_equiv_pos_site_id
 _symmetry_equiv_pos_as_xyz
  1  'x, y, z'
loop_
 _atom_site_type_symbol
 _atom_site_label
 _atom_site_symmetry_multiplicity
 _atom_site_fract_x
 _atom_site_fract_y
 _atom_site_fract_z
 _atom_site_occupancy
  K  K0  1  0.333333  0.666667  0.750000  1
  K  K1  1  0.666667  0.333333  0.250000  1
  Mn  Mn2  1  0.970703  0.823168  0.250000  1
  Mn  Mn3  1  0.852465  0.029297  0.250000  1
  Mn  Mn4  1  0.147535  0.970703  0.750000  1
  Mn  Mn5  1  0.029297  0.176832  0.750000  1
  Mn  Mn6  1  0.176832  0.147535  0.250000  1
  Mn  Mn7  1  0.823168  0.852465  0.750000  1
  S  S8  1  0.944730  0.669406  0.750000  1
  S  S9  1  0.055270  0.330594  0.250000  1
  S  S10  1  0.275324  0.944730  0.250000  1
  S  S11  1  0.669406  0.724676  0.250000  1
  S  S12  1  0.330594  0.275324  0.750000  1
  S  S13  1  0.724676  0.055270  0.750000  1
