# generated using pymatgen
data_Rb2MoF7
_symmetry_space_group_name_H-M   'P 1'
_cell_length_a   6.04513700
_cell_length_b   6.07818900
_cell_length_c   10.58994300
_cell_angle_alpha   90.00000000
_cell_angle_beta   90.00000000
_cell_angle_gamma   90.00000000
_symmetry_Int_Tables_number   1
_chemical_formula_structural   Rb2MoF7
_chemical_formula_sum   'Rb4 Mo2 F14'
_cell_volume   389.11141407
_cell_formula_units_Z   2
loop_
 _symmetry_equiv_pos_site_id
 _symmetry_equiv_pos_as_xyz
  1  'x, y, z'
loop_
 _atom_site_type_symbol
 _atom_site_label
 _atom_site_symmetry_multiplicity
 _atom_site_fract_x
 _atom_site_fract_y
 _atom_site_fract_z
 _atom_site_occupancy
  Rb  Rb0  1  0.000000  0.500000  0.356765  1
  Rb  Rb1  1  0.500000  0.000000  0.643235  1
  Rb  Rb2  1  0.500000  0.500000  0.999140  1
  Rb  Rb3  1  0.000000  0.000000  0.000860  1
  Mo  Mo4  1  0.000000  0.500000  0.756762  1
  Mo  Mo5  1  0.500000  0.000000  0.243238  1
  F  F6  1  0.215526  0.262508  0.798477  1
  F  F7  1  0.284474  0.237492  0.201523  1
  F  F8  1  0.715526  0.762508  0.201523  1
  F  F9  1  0.784474  0.737492  0.798477  1
  F  F10  1  0.215526  0.737492  0.798477  1
  F  F11  1  0.715526  0.237492  0.201523  1
  F  F12  1  0.284474  0.762508  0.201523  1
  F  F13  1  0.784474  0.262508  0.798477  1
  F  F14  1  0.000000  0.500000  0.946032  1
  F  F15  1  0.500000  0.000000  0.053968  1
  F  F16  1  0.193051  0.500000  0.606210  1
  F  F17  1  0.806949  0.500000  0.606210  1
  F  F18  1  0.306949  0.000000  0.393790  1
  F  F19  1  0.693051  0.000000  0.393790  1
