# generated using pymatgen
data_Li6Ge2IrRh
_symmetry_space_group_name_H-M   'P 1'
_cell_length_a   6.67226936
_cell_length_b   6.67331436
_cell_length_c   6.66525700
_cell_angle_alpha   90.00000000
_cell_angle_beta   90.00000000
_cell_angle_gamma   89.88498411
_symmetry_Int_Tables_number   1
_chemical_formula_structural   Li6Ge2IrRh
_chemical_formula_sum   'Li12 Ge4 Ir2 Rh2'
_cell_volume   296.77764134
_cell_formula_units_Z   2
loop_
 _symmetry_equiv_pos_site_id
 _symmetry_equiv_pos_as_xyz
  1  'x, y, z'
loop_
 _atom_site_type_symbol
 _atom_site_label
 _atom_site_symmetry_multiplicity
 _atom_site_fract_x
 _atom_site_fract_y
 _atom_site_fract_z
 _atom_site_occupancy
  Li  Li0  1  0.127561  0.198200  0.456778  1
  Li  Li1  1  0.458847  0.128796  0.198676  1
  Li  Li2  1  0.197454  0.457166  0.128240  1
  Li  Li3  1  0.302546  0.542834  0.628240  1
  Li  Li4  1  0.956495  0.373032  0.802443  1
  Li  Li5  1  0.801306  0.958255  0.372436  1
  Li  Li6  1  0.041153  0.871204  0.698676  1
  Li  Li7  1  0.543505  0.626968  0.302443  1
  Li  Li8  1  0.698694  0.041745  0.872436  1
  Li  Li9  1  0.628299  0.302094  0.541320  1
  Li  Li10  1  0.871701  0.697906  0.041320  1
  Li  Li11  1  0.372439  0.801800  0.956778  1
  Ge  Ge12  1  0.931576  0.568264  0.431611  1
  Ge  Ge13  1  0.568424  0.431736  0.931611  1
  Ge  Ge14  1  0.431450  0.931308  0.568812  1
  Ge  Ge15  1  0.068550  0.068692  0.068812  1
  Ir  Ir16  1  0.817306  0.316844  0.183095  1
  Ir  Ir17  1  0.682694  0.683156  0.683095  1
  Rh  Rh18  1  0.316394  0.183102  0.816588  1
  Rh  Rh19  1  0.183606  0.816898  0.316588  1
