# generated using pymatgen
data_Pr12Ru3AuBr12
_symmetry_space_group_name_H-M   'P 1'
_cell_length_a   10.63387242
_cell_length_b   10.63387253
_cell_length_c   10.63387233
_cell_angle_alpha   109.80630181
_cell_angle_beta   109.80630858
_cell_angle_gamma   109.80629888
_symmetry_Int_Tables_number   1
_chemical_formula_structural   Pr12Ru3AuBr12
_chemical_formula_sum   'Pr12 Ru3 Au1 Br12'
_cell_volume   913.99787664
_cell_formula_units_Z   1
loop_
 _symmetry_equiv_pos_site_id
 _symmetry_equiv_pos_as_xyz
  1  'x, y, z'
loop_
 _atom_site_type_symbol
 _atom_site_label
 _atom_site_symmetry_multiplicity
 _atom_site_fract_x
 _atom_site_fract_y
 _atom_site_fract_z
 _atom_site_occupancy
  Pr  Pr0  1  0.470260  0.495244  0.227345  1
  Pr  Pr1  1  0.750000  0.233531  0.266469  1
  Pr  Pr2  1  0.750000  0.014919  0.485081  1
  Pr  Pr3  1  0.227345  0.470260  0.495244  1
  Pr  Pr4  1  0.266469  0.750000  0.233531  1
  Pr  Pr5  1  0.029740  0.272655  0.004756  1
  Pr  Pr6  1  0.004756  0.029740  0.272655  1
  Pr  Pr7  1  0.485081  0.750000  0.014919  1
  Pr  Pr8  1  0.495244  0.227345  0.470260  1
  Pr  Pr9  1  0.014919  0.485081  0.750000  1
  Pr  Pr10  1  0.272655  0.004756  0.029740  1
  Pr  Pr11  1  0.233531  0.266469  0.750000  1
  Ru  Ru12  1  0.501422  0.998578  0.250000  1
  Ru  Ru13  1  0.998578  0.250000  0.501422  1
  Ru  Ru14  1  0.250000  0.501422  0.998578  1
  Au  Au15  1  0.250000  0.250000  0.250000  1
  Br  Br16  1  0.250000  0.756258  0.743742  1
  Br  Br17  1  0.505918  0.501219  0.752246  1
  Br  Br18  1  0.994082  0.747754  0.998781  1
  Br  Br19  1  0.743742  0.250000  0.756258  1
  Br  Br20  1  0.998781  0.994082  0.747754  1
  Br  Br21  1  0.250000  0.997983  0.502017  1
  Br  Br22  1  0.752246  0.505918  0.501219  1
  Br  Br23  1  0.502017  0.250000  0.997983  1
  Br  Br24  1  0.756258  0.743742  0.250000  1
  Br  Br25  1  0.747754  0.998781  0.994082  1
  Br  Br26  1  0.997983  0.502017  0.250000  1
  Br  Br27  1  0.501219  0.752246  0.505918  1
