# generated using pymatgen
data_Mg2Fe11NiP7
_symmetry_space_group_name_H-M   'P 1'
_cell_length_a   8.90647344
_cell_length_b   8.87154255
_cell_length_c   3.57436400
_cell_angle_alpha   90.00000000
_cell_angle_beta   90.00000000
_cell_angle_gamma   119.61726097
_symmetry_Int_Tables_number   1
_chemical_formula_structural   Mg2Fe11NiP7
_chemical_formula_sum   'Mg2 Fe11 Ni1 P7'
_cell_volume   245.52538285
_cell_formula_units_Z   1
loop_
 _symmetry_equiv_pos_site_id
 _symmetry_equiv_pos_as_xyz
  1  'x, y, z'
loop_
 _atom_site_type_symbol
 _atom_site_label
 _atom_site_symmetry_multiplicity
 _atom_site_fract_x
 _atom_site_fract_y
 _atom_site_fract_z
 _atom_site_occupancy
  Mg  Mg0  1  0.000815  0.999206  0.000000  1
  Mg  Mg1  1  0.334055  0.667985  0.500000  1
  Fe  Fe2  1  0.051410  0.772886  0.500000  1
  Fe  Fe3  1  0.711761  0.942077  0.500000  1
  Fe  Fe4  1  0.889372  0.429024  0.500000  1
  Fe  Fe5  1  0.545962  0.119199  0.500000  1
  Fe  Fe6  1  0.570564  0.452102  0.500000  1
  Fe  Fe7  1  0.391457  0.213435  0.000000  1
  Fe  Fe8  1  0.785790  0.173365  0.000000  1
  Fe  Fe9  1  0.820258  0.605145  0.000000  1
  Fe  Fe10  1  0.608698  0.706823  0.000000  1
  Fe  Fe11  1  0.294784  0.903708  0.000000  1
  Fe  Fe12  1  0.229526  0.285770  0.500000  1
  Ni  Ni13  1  0.102678  0.400019  0.000000  1
  P  P14  1  0.260727  0.046381  0.500000  1
  P  P15  1  0.952047  0.209065  0.500000  1
  P  P16  1  0.782246  0.733909  0.500000  1
  P  P17  1  0.375949  0.450962  0.000000  1
  P  P18  1  0.547323  0.921109  0.000000  1
  P  P19  1  0.078265  0.636492  0.000000  1
  P  P20  1  0.666312  0.331336  0.000000  1
