# generated using pymatgen
data_La2YTm3CoI10
_symmetry_space_group_name_H-M   'P 1'
_cell_length_a   7.79071531
_cell_length_b   9.78654246
_cell_length_c   9.75815229
_cell_angle_alpha   106.74665846
_cell_angle_beta   95.64905493
_cell_angle_gamma   105.71297988
_symmetry_Int_Tables_number   1
_chemical_formula_structural   La2YTm3CoI10
_chemical_formula_sum   'La2 Y1 Tm3 Co1 I10'
_cell_volume   673.13923364
_cell_formula_units_Z   1
loop_
 _symmetry_equiv_pos_site_id
 _symmetry_equiv_pos_as_xyz
  1  'x, y, z'
loop_
 _atom_site_type_symbol
 _atom_site_label
 _atom_site_symmetry_multiplicity
 _atom_site_fract_x
 _atom_site_fract_y
 _atom_site_fract_z
 _atom_site_occupancy
  La  La0  1  0.884568  0.956717  0.229620  1
  La  La1  1  0.112798  0.041994  0.769325  1
  Y  Y2  1  0.345730  0.125088  0.161669  1
  Tm  Tm3  1  0.026366  0.720083  0.914891  1
  Tm  Tm4  1  0.972399  0.279425  0.084238  1
  Tm  Tm5  1  0.660465  0.876825  0.840650  1
  Co  Co6  1  0.998767  0.999346  0.999488  1
  I  I7  1  0.652495  0.554098  0.731509  1
  I  I8  1  0.345281  0.448815  0.268514  1
  I  I9  1  0.726451  0.909075  0.542660  1
  I  I10  1  0.270803  0.089725  0.458993  1
  I  I11  1  0.081156  0.381272  0.826117  1
  I  I12  1  0.918637  0.618672  0.173558  1
  I  I13  1  0.442821  0.814484  0.086520  1
  I  I14  1  0.557394  0.182727  0.909838  1
  I  I15  1  0.228947  0.736081  0.661108  1
  I  I16  1  0.774924  0.265572  0.341303  1
