# generated using pymatgen
data_K4AgAs2Au
_symmetry_space_group_name_H-M   'P 1'
_cell_length_a   6.40185831
_cell_length_b   6.40185937
_cell_length_c   6.20964525
_cell_angle_alpha   90.23824144
_cell_angle_beta   90.23824871
_cell_angle_gamma   104.36599027
_symmetry_Int_Tables_number   1
_chemical_formula_structural   K4AgAs2Au
_chemical_formula_sum   'K4 Ag1 As2 Au1'
_cell_volume   246.53126993
_cell_formula_units_Z   1
loop_
 _symmetry_equiv_pos_site_id
 _symmetry_equiv_pos_as_xyz
  1  'x, y, z'
loop_
 _atom_site_type_symbol
 _atom_site_label
 _atom_site_symmetry_multiplicity
 _atom_site_fract_x
 _atom_site_fract_y
 _atom_site_fract_z
 _atom_site_occupancy
  K  K0  1  0.028353  0.681983  0.252485  1
  K  K1  1  0.971647  0.318017  0.747515  1
  K  K2  1  0.681983  0.028353  0.252485  1
  K  K3  1  0.318017  0.971647  0.747515  1
  Ag  Ag4  1  0.500000  0.500000  0.000000  1
  As  As5  1  0.758459  0.758459  0.748864  1
  As  As6  1  0.241541  0.241541  0.251136  1
  Au  Au7  1  0.500000  0.500000  0.500000  1
