# generated using pymatgen
data_LaAlSiAu2
_symmetry_space_group_name_H-M   'P 1'
_cell_length_a   4.42854500
_cell_length_b   4.42854500
_cell_length_c   10.48817400
_cell_angle_alpha   90.00000000
_cell_angle_beta   90.00000000
_cell_angle_gamma   90.00000000
_symmetry_Int_Tables_number   1
_chemical_formula_structural   LaAlSiAu2
_chemical_formula_sum   'La2 Al2 Si2 Au4'
_cell_volume   205.69418194
_cell_formula_units_Z   2
loop_
 _symmetry_equiv_pos_site_id
 _symmetry_equiv_pos_as_xyz
  1  'x, y, z'
loop_
 _atom_site_type_symbol
 _atom_site_label
 _atom_site_symmetry_multiplicity
 _atom_site_fract_x
 _atom_site_fract_y
 _atom_site_fract_z
 _atom_site_occupancy
  La  La0  1  0.000000  0.500000  0.241300  1
  La  La1  1  0.500000  0.000000  0.758700  1
  Al  Al2  1  0.000000  0.000000  0.500000  1
  Al  Al3  1  0.500000  0.500000  0.500000  1
  Si  Si4  1  0.000000  0.500000  0.866343  1
  Si  Si5  1  0.500000  0.000000  0.133657  1
  Au  Au6  1  0.000000  0.000000  0.000000  1
  Au  Au7  1  0.500000  0.500000  0.000000  1
  Au  Au8  1  0.000000  0.500000  0.631383  1
  Au  Au9  1  0.500000  0.000000  0.368617  1
