# generated using pymatgen
data_Tb5Nd3(CdOs)2
_symmetry_space_group_name_H-M   'P 1'
_cell_length_a   9.78929065
_cell_length_b   9.78929076
_cell_length_c   9.78929000
_cell_angle_alpha   59.99999582
_cell_angle_beta   59.99999544
_cell_angle_gamma   59.99999539
_symmetry_Int_Tables_number   1
_chemical_formula_structural   Tb5Nd3(CdOs)2
_chemical_formula_sum   'Tb10 Nd6 Cd4 Os4'
_cell_volume   663.34369288
_cell_formula_units_Z   2
loop_
 _symmetry_equiv_pos_site_id
 _symmetry_equiv_pos_as_xyz
  1  'x, y, z'
loop_
 _atom_site_type_symbol
 _atom_site_label
 _atom_site_symmetry_multiplicity
 _atom_site_fract_x
 _atom_site_fract_y
 _atom_site_fract_z
 _atom_site_occupancy
  Tb  Tb0  1  0.344591  0.344591  0.344591  1
  Tb  Tb1  1  0.344591  0.344591  0.966228  1
  Tb  Tb2  1  0.344591  0.966228  0.344591  1
  Tb  Tb3  1  0.966228  0.344591  0.344591  1
  Tb  Tb4  1  0.811047  0.188953  0.188953  1
  Tb  Tb5  1  0.188953  0.811047  0.811047  1
  Tb  Tb6  1  0.188953  0.811047  0.188953  1
  Tb  Tb7  1  0.811047  0.188953  0.811047  1
  Tb  Tb8  1  0.188953  0.188953  0.811047  1
  Tb  Tb9  1  0.811047  0.811047  0.188953  1
  Nd  Nd10  1  0.942177  0.557823  0.557823  1
  Nd  Nd11  1  0.557823  0.942177  0.942177  1
  Nd  Nd12  1  0.557823  0.942177  0.557823  1
  Nd  Nd13  1  0.942177  0.557823  0.942177  1
  Nd  Nd14  1  0.557823  0.557823  0.942177  1
  Nd  Nd15  1  0.942177  0.942177  0.557823  1
  Cd  Cd16  1  0.578819  0.578819  0.578819  1
  Cd  Cd17  1  0.578819  0.578819  0.263543  1
  Cd  Cd18  1  0.578819  0.263543  0.578819  1
  Cd  Cd19  1  0.263543  0.578819  0.578819  1
  Os  Os20  1  0.138698  0.138698  0.138698  1
  Os  Os21  1  0.138698  0.138698  0.583905  1
  Os  Os22  1  0.138698  0.583905  0.138698  1
  Os  Os23  1  0.583905  0.138698  0.138698  1
