# generated using pymatgen
data_Lu3Sc17Si7Sb9
_symmetry_space_group_name_H-M   'P 1'
_cell_length_a   7.41093775
_cell_length_b   7.44472672
_cell_length_c   14.35158482
_cell_angle_alpha   90.00028039
_cell_angle_beta   90.89358381
_cell_angle_gamma   89.06178425
_symmetry_Int_Tables_number   1
_chemical_formula_structural   Lu3Sc17Si7Sb9
_chemical_formula_sum   'Lu3 Sc17 Si7 Sb9'
_cell_volume   791.60900478
_cell_formula_units_Z   1
loop_
 _symmetry_equiv_pos_site_id
 _symmetry_equiv_pos_as_xyz
  1  'x, y, z'
loop_
 _atom_site_type_symbol
 _atom_site_label
 _atom_site_symmetry_multiplicity
 _atom_site_fract_x
 _atom_site_fract_y
 _atom_site_fract_z
 _atom_site_occupancy
  Lu  Lu0  1  0.041969  0.691590  0.610421  1
  Lu  Lu1  1  0.957551  0.317550  0.386550  1
  Lu  Lu2  1  0.457744  0.176169  0.385755  1
  Sc  Sc3  1  0.216685  0.992887  0.751352  1
  Sc  Sc4  1  0.783448  0.999008  0.248644  1
  Sc  Sc5  1  0.282296  0.494990  0.247827  1
  Sc  Sc6  1  0.707460  0.510371  0.751182  1
  Sc  Sc7  1  0.948476  0.322447  0.117163  1
  Sc  Sc8  1  0.544188  0.824035  0.613953  1
  Sc  Sc9  1  0.053665  0.689617  0.884724  1
  Sc  Sc10  1  0.550983  0.826702  0.885748  1
  Sc  Sc11  1  0.444499  0.171983  0.118681  1
  Sc  Sc12  1  0.394635  0.339137  0.630889  1
  Sc  Sc13  1  0.614690  0.660362  0.365423  1
  Sc  Sc14  1  0.118393  0.836064  0.366200  1
  Sc  Sc15  1  0.609980  0.661193  0.130239  1
  Sc  Sc16  1  0.868317  0.152090  0.628632  1
  Sc  Sc17  1  0.402830  0.337373  0.872735  1
  Sc  Sc18  1  0.873956  0.152564  0.874855  1
  Sc  Sc19  1  0.112340  0.834888  0.129674  1
  Si  Si20  1  0.913115  0.618212  0.248036  1
  Si  Si21  1  0.411858  0.878751  0.248211  1
  Si  Si22  1  0.584994  0.116690  0.751063  1
  Si  Si23  1  0.361255  0.649323  0.750494  1
  Si  Si24  1  0.653907  0.361739  0.247373  1
  Si  Si25  1  0.153403  0.132475  0.247590  1
  Si  Si26  1  0.843047  0.866784  0.751836  1
  Sb  Sb27  1  0.083063  0.377486  0.751983  1
  Sb  Sb28  1  0.222587  0.036277  0.541645  1
  Sb  Sb29  1  0.779558  0.958470  0.458667  1
  Sb  Sb30  1  0.280284  0.531934  0.458355  1
  Sb  Sb31  1  0.766761  0.976361  0.044293  1
  Sb  Sb32  1  0.723778  0.472175  0.541341  1
  Sb  Sb33  1  0.228056  0.028047  0.959262  1
  Sb  Sb34  1  0.739981  0.484014  0.958272  1
  Sb  Sb35  1  0.270246  0.520244  0.040933  1
