# generated using pymatgen
data_Y4Mg4Pt3Rh
_symmetry_space_group_name_H-M   'P 1'
_cell_length_a   4.18348800
_cell_length_b   7.09895926
_cell_length_c   8.64252312
_cell_angle_alpha   90.10122242
_cell_angle_beta   90.00000000
_cell_angle_gamma   90.00000000
_symmetry_Int_Tables_number   1
_chemical_formula_structural   Y4Mg4Pt3Rh
_chemical_formula_sum   'Y4 Mg4 Pt3 Rh1'
_cell_volume   256.66880207
_cell_formula_units_Z   1
loop_
 _symmetry_equiv_pos_site_id
 _symmetry_equiv_pos_as_xyz
  1  'x, y, z'
loop_
 _atom_site_type_symbol
 _atom_site_label
 _atom_site_symmetry_multiplicity
 _atom_site_fract_x
 _atom_site_fract_y
 _atom_site_fract_z
 _atom_site_occupancy
  Y  Y0  1  0.250000  0.040122  0.326808  1
  Y  Y1  1  0.250000  0.537361  0.176391  1
  Y  Y2  1  0.750000  0.967626  0.674342  1
  Y  Y3  1  0.750000  0.459979  0.821870  1
  Mg  Mg4  1  0.250000  0.137006  0.938563  1
  Mg  Mg5  1  0.250000  0.635040  0.560715  1
  Mg  Mg6  1  0.750000  0.863362  0.060300  1
  Mg  Mg7  1  0.750000  0.362594  0.442306  1
  Pt  Pt8  1  0.250000  0.751067  0.874928  1
  Pt  Pt9  1  0.750000  0.749253  0.373250  1
  Pt  Pt10  1  0.750000  0.249844  0.125733  1
  Rh  Rh11  1  0.250000  0.246745  0.624795  1
