# generated using pymatgen
data_Nd2TmTh(Ga3Ir)6
_symmetry_space_group_name_H-M   'P 1'
_cell_length_a   7.65033291
_cell_length_b   7.65751692
_cell_length_c   9.53874900
_cell_angle_alpha   90.00000000
_cell_angle_beta   90.00000000
_cell_angle_gamma   119.73379002
_symmetry_Int_Tables_number   1
_chemical_formula_structural   Nd2TmTh(Ga3Ir)6
_chemical_formula_sum   'Nd2 Tm1 Th1 Ga18 Ir6'
_cell_volume   485.23164034
_cell_formula_units_Z   1
loop_
 _symmetry_equiv_pos_site_id
 _symmetry_equiv_pos_as_xyz
  1  'x, y, z'
loop_
 _atom_site_type_symbol
 _atom_site_label
 _atom_site_symmetry_multiplicity
 _atom_site_fract_x
 _atom_site_fract_y
 _atom_site_fract_z
 _atom_site_occupancy
  Nd  Nd0  1  0.002126  0.330900  0.250000  1
  Nd  Nd1  1  0.669385  0.996713  0.750000  1
  Tm  Tm2  1  0.330387  0.001911  0.250000  1
  Th  Th3  1  0.996797  0.668945  0.750000  1
  Ga  Ga4  1  0.130734  0.130800  0.750000  1
  Ga  Ga5  1  0.874010  0.873880  0.250000  1
  Ga  Ga6  1  0.001836  0.331242  0.577610  1
  Ga  Ga7  1  0.001831  0.668441  0.415252  1
  Ga  Ga8  1  0.001831  0.668441  0.084748  1
  Ga  Ga9  1  0.338028  0.004339  0.924637  1
  Ga  Ga10  1  0.001836  0.331242  0.922390  1
  Ga  Ga11  1  0.662232  0.999392  0.081987  1
  Ga  Ga12  1  0.662232  0.999392  0.418013  1
  Ga  Ga13  1  0.338028  0.004339  0.575363  1
  Ga  Ga14  1  0.332970  0.330123  0.066188  1
  Ga  Ga15  1  0.663298  0.666480  0.940908  1
  Ga  Ga16  1  0.663298  0.666480  0.559092  1
  Ga  Ga17  1  0.332970  0.330123  0.433812  1
  Ga  Ga18  1  0.340513  0.544666  0.750000  1
  Ga  Ga19  1  0.657799  0.451334  0.250000  1
  Ga  Ga20  1  0.541936  0.337300  0.750000  1
  Ga  Ga21  1  0.453937  0.662674  0.250000  1
  Ir  Ir22  1  0.673437  0.331755  0.500603  1
  Ir  Ir23  1  0.326805  0.670910  0.500428  1
  Ir  Ir24  1  0.326805  0.670910  0.999572  1
  Ir  Ir25  1  0.673437  0.331755  0.999397  1
  Ir  Ir26  1  0.000753  0.997757  0.500579  1
  Ir  Ir27  1  0.000753  0.997757  0.999421  1
