# generated using pymatgen
data_YErHf6F30
_symmetry_space_group_name_H-M   'P 1'
_cell_length_a   8.13621265
_cell_length_b   8.13621237
_cell_length_c   8.12343117
_cell_angle_alpha   79.72639831
_cell_angle_beta   79.72640195
_cell_angle_gamma   100.13101904
_symmetry_Int_Tables_number   1
_chemical_formula_structural   YErHf6F30
_chemical_formula_sum   'Y1 Er1 Hf6 F30'
_cell_volume   508.52716786
_cell_formula_units_Z   1
loop_
 _symmetry_equiv_pos_site_id
 _symmetry_equiv_pos_as_xyz
  1  'x, y, z'
loop_
 _atom_site_type_symbol
 _atom_site_label
 _atom_site_symmetry_multiplicity
 _atom_site_fract_x
 _atom_site_fract_y
 _atom_site_fract_z
 _atom_site_occupancy
  Y  Y0  1  0.822674  0.177326  0.750000  1
  Er  Er1  1  0.177273  0.822727  0.250000  1
  Hf  Hf2  1  0.751951  0.248049  0.250000  1
  Hf  Hf3  1  0.248015  0.751985  0.750000  1
  Hf  Hf4  1  0.746469  0.677370  0.673638  1
  Hf  Hf5  1  0.322630  0.253531  0.826362  1
  Hf  Hf6  1  0.254208  0.322751  0.325294  1
  Hf  Hf7  1  0.677249  0.745792  0.174706  1
  F  F8  1  0.316470  0.349191  0.054260  1
  F  F9  1  0.934186  0.810431  0.152868  1
  F  F10  1  0.842191  0.463073  0.682479  1
  F  F11  1  0.460826  0.840509  0.184098  1
  F  F12  1  0.811116  0.933206  0.650689  1
  F  F13  1  0.349245  0.316380  0.554582  1
  F  F14  1  0.683620  0.650755  0.945417  1
  F  F15  1  0.066794  0.188884  0.849311  1
  F  F16  1  0.159491  0.539174  0.315902  1
  F  F17  1  0.536927  0.157809  0.817521  1
  F  F18  1  0.189569  0.065814  0.347132  1
  F  F19  1  0.650809  0.683530  0.445740  1
  F  F20  1  0.774489  0.281448  0.998169  1
  F  F21  1  0.006295  0.276962  0.220917  1
  F  F22  1  0.774577  0.504884  0.222279  1
  F  F23  1  0.504813  0.774748  0.721978  1
  F  F24  1  0.276565  0.006475  0.721031  1
  F  F25  1  0.279446  0.775108  0.497509  1
  F  F26  1  0.224892  0.720554  0.002491  1
  F  F27  1  0.993525  0.723435  0.778969  1
  F  F28  1  0.225252  0.495187  0.778022  1
  F  F29  1  0.495116  0.225423  0.277721  1
  F  F30  1  0.723038  0.993705  0.279083  1
  F  F31  1  0.718552  0.225511  0.501831  1
  F  F32  1  0.468228  0.531772  0.250000  1
  F  F33  1  0.746979  0.951868  0.973662  1
  F  F34  1  0.048132  0.253021  0.526338  1
  F  F35  1  0.252466  0.046317  0.028308  1
  F  F36  1  0.953683  0.747534  0.471692  1
  F  F37  1  0.532240  0.467760  0.750000  1
