# generated using pymatgen
data_Dy2Lu3Os2
_symmetry_space_group_name_H-M   'P 1'
_cell_length_a   6.26356002
_cell_length_b   7.33432272
_cell_length_c   8.28511530
_cell_angle_alpha   97.14236589
_cell_angle_beta   112.20989268
_cell_angle_gamma   89.99999671
_symmetry_Int_Tables_number   1
_chemical_formula_structural   Dy2Lu3Os2
_chemical_formula_sum   'Dy4 Lu6 Os4'
_cell_volume   349.17826224
_cell_formula_units_Z   2
loop_
 _symmetry_equiv_pos_site_id
 _symmetry_equiv_pos_as_xyz
  1  'x, y, z'
loop_
 _atom_site_type_symbol
 _atom_site_label
 _atom_site_symmetry_multiplicity
 _atom_site_fract_x
 _atom_site_fract_y
 _atom_site_fract_z
 _atom_site_occupancy
  Dy  Dy0  1  0.527278  0.081773  0.816037  1
  Dy  Dy1  1  0.472722  0.918227  0.183963  1
  Dy  Dy2  1  0.711240  0.418227  0.183963  1
  Dy  Dy3  1  0.288760  0.581773  0.816037  1
  Lu  Lu4  1  0.297638  0.319000  0.435940  1
  Lu  Lu5  1  0.702362  0.681000  0.564060  1
  Lu  Lu6  1  0.861698  0.181000  0.564060  1
  Lu  Lu7  1  0.138302  0.819000  0.435940  1
  Lu  Lu8  1  0.080753  0.250000  0.000000  1
  Lu  Lu9  1  0.919247  0.750000  0.000000  1
  Os  Os10  1  0.318146  0.578255  0.220134  1
  Os  Os11  1  0.681854  0.421745  0.779866  1
  Os  Os12  1  0.098012  0.921745  0.779866  1
  Os  Os13  1  0.901988  0.078255  0.220134  1
