# generated using pymatgen
data_TbPr2Pa3(Ni3Bi4)2
_symmetry_space_group_name_H-M   'P 1'
_cell_length_a   8.38507016
_cell_length_b   8.39969583
_cell_length_c   8.38506990
_cell_angle_alpha   109.78132155
_cell_angle_beta   109.23830671
_cell_angle_gamma   109.32360440
_symmetry_Int_Tables_number   1
_chemical_formula_structural   TbPr2Pa3(Ni3Bi4)2
_chemical_formula_sum   'Tb1 Pr2 Pa3 Ni6 Bi8'
_cell_volume   455.01267445
_cell_formula_units_Z   1
loop_
 _symmetry_equiv_pos_site_id
 _symmetry_equiv_pos_as_xyz
  1  'x, y, z'
loop_
 _atom_site_type_symbol
 _atom_site_label
 _atom_site_symmetry_multiplicity
 _atom_site_fract_x
 _atom_site_fract_y
 _atom_site_fract_z
 _atom_site_occupancy
  Tb  Tb0  1  0.627624  0.750000  0.377624  1
  Pr  Pr1  1  0.251538  0.126483  0.876586  1
  Pr  Pr2  1  0.750103  0.373517  0.625054  1
  Pa  Pa3  1  0.125999  0.879174  0.249639  1
  Pa  Pa4  1  0.370465  0.620826  0.746825  1
  Pa  Pa5  1  0.871565  0.250000  0.121565  1
  Ni  Ni6  1  0.642688  0.363467  0.239294  1
  Ni  Ni7  1  0.875827  0.136533  0.779221  1
  Ni  Ni8  1  0.366015  0.250000  0.616015  1
  Ni  Ni9  1  0.131076  0.750000  0.881076  1
  Ni  Ni10  1  0.235137  0.614953  0.371462  1
  Ni  Ni11  1  0.756510  0.885047  0.120183  1
  Bi  Bi12  1  0.337683  0.337749  0.332998  1
  Bi  Bi13  1  0.169563  0.504086  0.003753  1
  Bi  Bi14  1  0.995249  0.162251  0.499935  1
  Bi  Bi15  1  0.832876  0.831593  0.831495  1
  Bi  Bi16  1  0.499667  0.995914  0.165477  1
  Bi  Bi17  1  0.664973  0.505140  0.000681  1
  Bi  Bi18  1  0.495541  0.994860  0.659832  1
  Bi  Bi19  1  0.999902  0.668407  0.501282  1
