# generated using pymatgen
data_KRb4Au6
_symmetry_space_group_name_H-M   'P 1'
_cell_length_a   15.46599242
_cell_length_b   15.46599363
_cell_length_c   5.21580300
_cell_angle_alpha   90.00000000
_cell_angle_beta   90.00000000
_cell_angle_gamma   161.10373568
_symmetry_Int_Tables_number   1
_chemical_formula_structural   KRb4Au6
_chemical_formula_sum   'K1 Rb4 Au6'
_cell_volume   404.04374602
_cell_formula_units_Z   1
loop_
 _symmetry_equiv_pos_site_id
 _symmetry_equiv_pos_as_xyz
  1  'x, y, z'
loop_
 _atom_site_type_symbol
 _atom_site_label
 _atom_site_symmetry_multiplicity
 _atom_site_fract_x
 _atom_site_fract_y
 _atom_site_fract_z
 _atom_site_occupancy
  K  K0  1  0.384251  0.615749  0.000000  1
  Rb  Rb1  1  0.999599  0.000401  0.000000  1
  Rb  Rb2  1  0.617056  0.382944  0.000000  1
  Rb  Rb3  1  0.808847  0.191152  0.500000  1
  Rb  Rb4  1  0.192099  0.807900  0.500000  1
  Au  Au5  1  0.737081  0.262919  0.000000  1
  Au  Au6  1  0.264015  0.735985  0.000000  1
  Au  Au7  1  0.922626  0.077374  0.500000  1
  Au  Au8  1  0.547214  0.452785  0.500000  1
  Au  Au9  1  0.450607  0.549392  0.500000  1
  Au  Au10  1  0.076603  0.923397  0.500000  1
