# generated using pymatgen
data_Ba3CoF9
_symmetry_space_group_name_H-M   'P 1'
_cell_length_a   5.78421900
_cell_length_b   9.80196200
_cell_length_c   15.02270300
_cell_angle_alpha   90.00000000
_cell_angle_beta   90.00000000
_cell_angle_gamma   90.00000000
_symmetry_Int_Tables_number   1
_chemical_formula_structural   Ba3CoF9
_chemical_formula_sum   'Ba12 Co4 F36'
_cell_volume   851.73760763
_cell_formula_units_Z   4
loop_
 _symmetry_equiv_pos_site_id
 _symmetry_equiv_pos_as_xyz
  1  'x, y, z'
loop_
 _atom_site_type_symbol
 _atom_site_label
 _atom_site_symmetry_multiplicity
 _atom_site_fract_x
 _atom_site_fract_y
 _atom_site_fract_z
 _atom_site_occupancy
  Ba  Ba0  1  0.750000  0.050650  0.899025  1
  Ba  Ba1  1  0.750000  0.167208  0.458335  1
  Ba  Ba2  1  0.250000  0.239438  0.677690  1
  Ba  Ba3  1  0.750000  0.260562  0.177690  1
  Ba  Ba4  1  0.250000  0.332792  0.958335  1
  Ba  Ba5  1  0.250000  0.449350  0.399025  1
  Ba  Ba6  1  0.750000  0.550650  0.600975  1
  Ba  Ba7  1  0.750000  0.667208  0.041665  1
  Ba  Ba8  1  0.250000  0.739438  0.822310  1
  Ba  Ba9  1  0.750000  0.760562  0.322310  1
  Ba  Ba10  1  0.250000  0.832792  0.541665  1
  Ba  Ba11  1  0.250000  0.949350  0.100975  1
  Co  Co12  1  0.250000  0.014974  0.329664  1
  Co  Co13  1  0.750000  0.485026  0.829664  1
  Co  Co14  1  0.250000  0.514974  0.170336  1
  Co  Co15  1  0.750000  0.985026  0.670336  1
  F  F16  1  0.504686  0.053297  0.589965  1
  F  F17  1  0.995314  0.053297  0.589965  1
  F  F18  1  0.013646  0.072211  0.248900  1
  F  F19  1  0.486354  0.072211  0.248900  1
  F  F20  1  0.750000  0.157997  0.723523  1
  F  F21  1  0.250000  0.148020  0.844194  1
  F  F22  1  0.504741  0.147338  0.040476  1
  F  F23  1  0.995259  0.147338  0.040476  1
  F  F24  1  0.250000  0.175007  0.398283  1
  F  F25  1  0.750000  0.324993  0.898283  1
  F  F26  1  0.004741  0.352662  0.540476  1
  F  F27  1  0.495259  0.352662  0.540476  1
  F  F28  1  0.750000  0.351980  0.344194  1
  F  F29  1  0.250000  0.342003  0.223523  1
  F  F30  1  0.986354  0.427789  0.748900  1
  F  F31  1  0.513646  0.427789  0.748900  1
  F  F32  1  0.004686  0.446703  0.089965  1
  F  F33  1  0.495314  0.446703  0.089965  1
  F  F34  1  0.504686  0.553297  0.910035  1
  F  F35  1  0.995314  0.553297  0.910035  1
  F  F36  1  0.013646  0.572211  0.251100  1
  F  F37  1  0.486354  0.572211  0.251100  1
  F  F38  1  0.750000  0.657997  0.776477  1
  F  F39  1  0.250000  0.648020  0.655806  1
  F  F40  1  0.504741  0.647338  0.459524  1
  F  F41  1  0.995259  0.647338  0.459524  1
  F  F42  1  0.250000  0.675007  0.101717  1
  F  F43  1  0.750000  0.824993  0.601717  1
  F  F44  1  0.004741  0.852662  0.959524  1
  F  F45  1  0.495259  0.852662  0.959524  1
  F  F46  1  0.750000  0.851980  0.155806  1
  F  F47  1  0.250000  0.842003  0.276477  1
  F  F48  1  0.513646  0.927789  0.751100  1
  F  F49  1  0.986354  0.927789  0.751100  1
  F  F50  1  0.004686  0.946703  0.410035  1
  F  F51  1  0.495314  0.946703  0.410035  1
