# generated using pymatgen
data_Tm3MnCo7P6Ir
_symmetry_space_group_name_H-M   'P 1'
_cell_length_a   3.66756300
_cell_length_b   10.65913200
_cell_length_c   12.27698500
_cell_angle_alpha   90.00000000
_cell_angle_beta   90.00000000
_cell_angle_gamma   90.00000000
_symmetry_Int_Tables_number   1
_chemical_formula_structural   Tm3MnCo7P6Ir
_chemical_formula_sum   'Tm6 Mn2 Co14 P12 Ir2'
_cell_volume   479.94464279
_cell_formula_units_Z   2
loop_
 _symmetry_equiv_pos_site_id
 _symmetry_equiv_pos_as_xyz
  1  'x, y, z'
loop_
 _atom_site_type_symbol
 _atom_site_label
 _atom_site_symmetry_multiplicity
 _atom_site_fract_x
 _atom_site_fract_y
 _atom_site_fract_z
 _atom_site_occupancy
  Tm  Tm0  1  0.000000  0.500000  0.518688  1
  Tm  Tm1  1  0.500000  0.000000  0.481312  1
  Tm  Tm2  1  0.500000  0.815185  0.203209  1
  Tm  Tm3  1  0.500000  0.184815  0.203209  1
  Tm  Tm4  1  0.000000  0.684815  0.796791  1
  Tm  Tm5  1  0.000000  0.315185  0.796791  1
  Mn  Mn6  1  0.500000  0.500000  0.156636  1
  Mn  Mn7  1  0.000000  0.000000  0.843364  1
  Co  Co8  1  0.000000  0.500000  0.989655  1
  Co  Co9  1  0.500000  0.000000  0.010345  1
  Co  Co10  1  0.500000  0.331754  0.995100  1
  Co  Co11  1  0.500000  0.668246  0.995100  1
  Co  Co12  1  0.000000  0.168246  0.004900  1
  Co  Co13  1  0.000000  0.831754  0.004900  1
  Co  Co14  1  0.500000  0.298411  0.430866  1
  Co  Co15  1  0.500000  0.701589  0.430866  1
  Co  Co16  1  0.000000  0.201589  0.569134  1
  Co  Co17  1  0.000000  0.798411  0.569134  1
  Co  Co18  1  0.500000  0.879726  0.709252  1
  Co  Co19  1  0.500000  0.120274  0.709252  1
  Co  Co20  1  0.000000  0.620274  0.290748  1
  Co  Co21  1  0.000000  0.379726  0.290748  1
  P  P22  1  0.500000  0.500000  0.890466  1
  P  P23  1  0.000000  0.000000  0.109534  1
  P  P24  1  0.500000  0.500000  0.346848  1
  P  P25  1  0.000000  0.000000  0.653152  1
  P  P26  1  0.500000  0.303300  0.614637  1
  P  P27  1  0.500000  0.696700  0.614637  1
  P  P28  1  0.000000  0.196700  0.385363  1
  P  P29  1  0.000000  0.803300  0.385363  1
  P  P30  1  0.500000  0.845534  0.891966  1
  P  P31  1  0.500000  0.154466  0.891966  1
  P  P32  1  0.000000  0.654466  0.108034  1
  P  P33  1  0.000000  0.345534  0.108034  1
  Ir  Ir34  1  0.500000  0.500000  0.701947  1
  Ir  Ir35  1  0.000000  0.000000  0.298053  1
