# generated using pymatgen
data_Pr3LuZn2Pt3
_symmetry_space_group_name_H-M   'P 1'
_cell_length_a   7.57156300
_cell_length_b   7.61873929
_cell_length_c   4.14271800
_cell_angle_alpha   90.00000000
_cell_angle_beta   90.00000000
_cell_angle_gamma   119.79538057
_symmetry_Int_Tables_number   1
_chemical_formula_structural   Pr3LuZn2Pt3
_chemical_formula_sum   'Pr3 Lu1 Zn2 Pt3'
_cell_volume   207.38456576
_cell_formula_units_Z   1
loop_
 _symmetry_equiv_pos_site_id
 _symmetry_equiv_pos_as_xyz
  1  'x, y, z'
loop_
 _atom_site_type_symbol
 _atom_site_label
 _atom_site_symmetry_multiplicity
 _atom_site_fract_x
 _atom_site_fract_y
 _atom_site_fract_z
 _atom_site_occupancy
  Pr  Pr0  1  0.619393  0.000000  0.000000  1
  Pr  Pr1  1  0.418265  0.440391  0.000000  1
  Pr  Pr2  1  0.977873  0.559609  0.000000  1
  Lu  Lu3  1  0.235390  0.000000  0.500001  1
  Zn  Zn4  1  0.006497  0.247583  0.500001  1
  Zn  Zn5  1  0.758913  0.752417  0.500001  1
  Pt  Pt6  1  0.001330  0.000000  0.000000  1
  Pt  Pt7  1  0.652452  0.322564  0.500001  1
  Pt  Pt8  1  0.329888  0.677436  0.500001  1
