# generated using pymatgen
data_Nd16InNi4Ag3
_symmetry_space_group_name_H-M   'P 1'
_cell_length_a   9.76794538
_cell_length_b   9.83338205
_cell_length_c   9.83338300
_cell_angle_alpha   60.00000018
_cell_angle_beta   59.77814644
_cell_angle_gamma   59.77814522
_symmetry_Int_Tables_number   1
_chemical_formula_structural   Nd16InNi4Ag3
_chemical_formula_sum   'Nd16 In1 Ni4 Ag3'
_cell_volume   665.62495277
_cell_formula_units_Z   1
loop_
 _symmetry_equiv_pos_site_id
 _symmetry_equiv_pos_as_xyz
  1  'x, y, z'
loop_
 _atom_site_type_symbol
 _atom_site_label
 _atom_site_symmetry_multiplicity
 _atom_site_fract_x
 _atom_site_fract_y
 _atom_site_fract_z
 _atom_site_occupancy
  Nd  Nd0  1  0.599366  0.599413  0.599413  1
  Nd  Nd1  1  0.599366  0.599413  0.201808  1
  Nd  Nd2  1  0.599366  0.201808  0.599413  1
  Nd  Nd3  1  0.197388  0.600871  0.600871  1
  Nd  Nd4  1  0.060721  0.439878  0.439878  1
  Nd  Nd5  1  0.442046  0.057747  0.057747  1
  Nd  Nd6  1  0.442046  0.057747  0.442460  1
  Nd  Nd7  1  0.060721  0.439878  0.059522  1
  Nd  Nd8  1  0.442046  0.442460  0.057747  1
  Nd  Nd9  1  0.060721  0.059522  0.439878  1
  Nd  Nd10  1  0.181923  0.813795  0.813795  1
  Nd  Nd11  1  0.811869  0.187501  0.187501  1
  Nd  Nd12  1  0.811869  0.187501  0.813130  1
  Nd  Nd13  1  0.181923  0.813795  0.190488  1
  Nd  Nd14  1  0.811869  0.813130  0.187501  1
  Nd  Nd15  1  0.181923  0.190488  0.813795  1
  In  In16  1  0.520304  0.826565  0.826565  1
  Ni  Ni17  1  0.391960  0.393112  0.393112  1
  Ni  Ni18  1  0.391960  0.393112  0.821816  1
  Ni  Ni19  1  0.391960  0.821816  0.393112  1
  Ni  Ni20  1  0.822163  0.392612  0.392612  1
  Ag  Ag21  1  0.832164  0.831578  0.831578  1
  Ag  Ag22  1  0.832164  0.831578  0.504680  1
  Ag  Ag23  1  0.832164  0.504680  0.831578  1
