# generated using pymatgen
data_Hf12Zn4Ni7PdN4
_symmetry_space_group_name_H-M   'P 1'
_cell_length_a   8.34883731
_cell_length_b   8.34742498
_cell_length_c   8.34883800
_cell_angle_alpha   59.99440025
_cell_angle_beta   59.99999725
_cell_angle_gamma   59.99439887
_symmetry_Int_Tables_number   1
_chemical_formula_structural   Hf12Zn4Ni7PdN4
_chemical_formula_sum   'Hf12 Zn4 Ni7 Pd1 N4'
_cell_volume   411.38910103
_cell_formula_units_Z   1
loop_
 _symmetry_equiv_pos_site_id
 _symmetry_equiv_pos_as_xyz
  1  'x, y, z'
loop_
 _atom_site_type_symbol
 _atom_site_label
 _atom_site_symmetry_multiplicity
 _atom_site_fract_x
 _atom_site_fract_y
 _atom_site_fract_z
 _atom_site_occupancy
  Hf  Hf0  1  0.808697  0.185856  0.196751  1
  Hf  Hf1  1  0.191012  0.808322  0.191012  1
  Hf  Hf2  1  0.809654  0.808322  0.191012  1
  Hf  Hf3  1  0.191012  0.808322  0.809654  1
  Hf  Hf4  1  0.808697  0.185856  0.808697  1
  Hf  Hf5  1  0.196751  0.185856  0.808697  1
  Hf  Hf6  1  0.440661  0.058351  0.060327  1
  Hf  Hf7  1  0.059658  0.439975  0.059658  1
  Hf  Hf8  1  0.440709  0.439975  0.059658  1
  Hf  Hf9  1  0.059658  0.439975  0.440709  1
  Hf  Hf10  1  0.440661  0.058351  0.440661  1
  Hf  Hf11  1  0.060327  0.058351  0.440661  1
  Zn  Zn12  1  0.619170  0.629130  0.132529  1
  Zn  Zn13  1  0.619170  0.629130  0.619170  1
  Zn  Zn14  1  0.132529  0.629130  0.619170  1
  Zn  Zn15  1  0.625261  0.124216  0.625261  1
  Ni  Ni16  1  0.414152  0.411932  0.759765  1
  Ni  Ni17  1  0.414152  0.411932  0.414152  1
  Ni  Ni18  1  0.759765  0.411932  0.414152  1
  Ni  Ni19  1  0.412439  0.762683  0.412439  1
  Ni  Ni20  1  0.836617  0.837742  0.489023  1
  Ni  Ni21  1  0.836617  0.837742  0.836617  1
  Ni  Ni22  1  0.489023  0.837742  0.836617  1
  Pd  Pd23  1  0.833250  0.500251  0.833250  1
  N  N24  1  0.124558  0.125099  0.625785  1
  N  N25  1  0.124558  0.125099  0.124558  1
  N  N26  1  0.625785  0.125099  0.124558  1
  N  N27  1  0.125456  0.623631  0.125456  1
