# generated using pymatgen
data_YEr11In20
_symmetry_space_group_name_H-M   'P 1'
_cell_length_a   6.46353820
_cell_length_b   10.41251505
_cell_length_c   12.23484636
_cell_angle_alpha   89.99334324
_cell_angle_beta   89.97286146
_cell_angle_gamma   90.00935348
_symmetry_Int_Tables_number   1
_chemical_formula_structural   YEr11In20
_chemical_formula_sum   'Y1 Er11 In20'
_cell_volume   823.42571392
_cell_formula_units_Z   1
loop_
 _symmetry_equiv_pos_site_id
 _symmetry_equiv_pos_as_xyz
  1  'x, y, z'
loop_
 _atom_site_type_symbol
 _atom_site_label
 _atom_site_symmetry_multiplicity
 _atom_site_fract_x
 _atom_site_fract_y
 _atom_site_fract_z
 _atom_site_occupancy
  Y  Y0  1  0.608579  0.495565  0.642787  1
  Er  Er1  1  0.347726  0.750031  0.056476  1
  Er  Er2  1  0.151921  0.750015  0.556377  1
  Er  Er3  1  0.652244  0.250062  0.943546  1
  Er  Er4  1  0.847878  0.249773  0.443408  1
  Er  Er5  1  0.891754  0.495589  0.142569  1
  Er  Er6  1  0.608237  0.004385  0.642534  1
  Er  Er7  1  0.108236  0.995584  0.857388  1
  Er  Er8  1  0.391512  0.504403  0.357105  1
  Er  Er9  1  0.108318  0.504396  0.857533  1
  Er  Er10  1  0.391701  0.995639  0.357434  1
  Er  Er11  1  0.891717  0.004420  0.142573  1
  In  In12  1  0.617148  0.750559  0.504441  1
  In  In13  1  0.882793  0.750032  0.004945  1
  In  In14  1  0.382598  0.249908  0.495044  1
  In  In15  1  0.117240  0.249999  0.995085  1
  In  In16  1  0.649294  0.750016  0.246706  1
  In  In17  1  0.851112  0.750293  0.747030  1
  In  In18  1  0.350403  0.249723  0.753335  1
  In  In19  1  0.149314  0.249968  0.253215  1
  In  In20  1  0.128512  0.750012  0.286435  1
  In  In21  1  0.371406  0.750036  0.786442  1
  In  In22  1  0.872210  0.249536  0.713751  1
  In  In23  1  0.628458  0.249984  0.213610  1
  In  In24  1  0.875802  0.543331  0.401847  1
  In  In25  1  0.624295  0.956717  0.902001  1
  In  In26  1  0.124222  0.043287  0.598003  1
  In  In27  1  0.375726  0.456712  0.098031  1
  In  In28  1  0.123838  0.456608  0.597873  1
  In  In29  1  0.375721  0.043288  0.098036  1
  In  In30  1  0.875833  0.956696  0.401962  1
  In  In31  1  0.624251  0.543436  0.902476  1
