# generated using pymatgen
data_Ho5Cd2(HgPd)2
_symmetry_space_group_name_H-M   'P 1'
_cell_length_a   3.64562200
_cell_length_b   7.91354200
_cell_length_c   18.23242700
_cell_angle_alpha   90.00000000
_cell_angle_beta   90.00000000
_cell_angle_gamma   90.00000000
_symmetry_Int_Tables_number   1
_chemical_formula_structural   Ho5Cd2(HgPd)2
_chemical_formula_sum   'Ho10 Cd4 Hg4 Pd4'
_cell_volume   526.00155911
_cell_formula_units_Z   2
loop_
 _symmetry_equiv_pos_site_id
 _symmetry_equiv_pos_as_xyz
  1  'x, y, z'
loop_
 _atom_site_type_symbol
 _atom_site_label
 _atom_site_symmetry_multiplicity
 _atom_site_fract_x
 _atom_site_fract_y
 _atom_site_fract_z
 _atom_site_occupancy
  Ho  Ho0  1  0.000000  0.500000  0.500000  1
  Ho  Ho1  1  0.000000  0.000000  0.000000  1
  Ho  Ho2  1  0.000000  0.741187  0.283584  1
  Ho  Ho3  1  0.000000  0.258813  0.716416  1
  Ho  Ho4  1  0.000000  0.758813  0.783584  1
  Ho  Ho5  1  0.000000  0.241187  0.216416  1
  Ho  Ho6  1  0.000000  0.610903  0.083757  1
  Ho  Ho7  1  0.000000  0.389097  0.916243  1
  Ho  Ho8  1  0.000000  0.889097  0.583757  1
  Ho  Ho9  1  0.000000  0.110903  0.416243  1
  Cd  Cd10  1  0.500000  0.579756  0.648699  1
  Cd  Cd11  1  0.500000  0.420244  0.351301  1
  Cd  Cd12  1  0.500000  0.920244  0.148699  1
  Cd  Cd13  1  0.500000  0.079756  0.851301  1
  Hg  Hg14  1  0.500000  0.716504  0.933632  1
  Hg  Hg15  1  0.500000  0.283496  0.066368  1
  Hg  Hg16  1  0.500000  0.783496  0.433632  1
  Hg  Hg17  1  0.500000  0.216504  0.566368  1
  Pd  Pd18  1  0.500000  0.529776  0.196759  1
  Pd  Pd19  1  0.500000  0.470224  0.803241  1
  Pd  Pd20  1  0.500000  0.970224  0.696759  1
  Pd  Pd21  1  0.500000  0.029776  0.303241  1
