# generated using pymatgen
data_Tb2Ho2TcB12Rh
_symmetry_space_group_name_H-M   'P 1'
_cell_length_a   3.68622100
_cell_length_b   9.15185273
_cell_length_c   11.55024211
_cell_angle_alpha   90.36881425
_cell_angle_beta   90.00000000
_cell_angle_gamma   90.00000000
_symmetry_Int_Tables_number   1
_chemical_formula_structural   Tb2Ho2TcB12Rh
_chemical_formula_sum   'Tb4 Ho4 Tc2 B24 Rh2'
_cell_volume   389.64802724
_cell_formula_units_Z   2
loop_
 _symmetry_equiv_pos_site_id
 _symmetry_equiv_pos_as_xyz
  1  'x, y, z'
loop_
 _atom_site_type_symbol
 _atom_site_label
 _atom_site_symmetry_multiplicity
 _atom_site_fract_x
 _atom_site_fract_y
 _atom_site_fract_z
 _atom_site_occupancy
  Tb  Tb0  1  0.500000  0.319286  0.411011  1
  Tb  Tb1  1  0.500000  0.680714  0.588989  1
  Tb  Tb2  1  0.500000  0.173528  0.916967  1
  Tb  Tb3  1  0.500000  0.826472  0.083033  1
  Ho  Ho4  1  0.500000  0.441637  0.126740  1
  Ho  Ho5  1  0.500000  0.558363  0.873260  1
  Ho  Ho6  1  0.500000  0.053831  0.628635  1
  Ho  Ho7  1  0.500000  0.946169  0.371365  1
  Tc  Tc8  1  0.500000  0.139318  0.180256  1
  Tc  Tc9  1  0.500000  0.860682  0.819744  1
  B  B10  1  0.000000  0.107308  0.471208  1
  B  B11  1  0.000000  0.892692  0.528792  1
  B  B12  1  0.000000  0.394141  0.970502  1
  B  B13  1  0.000000  0.605859  0.029498  1
  B  B14  1  0.000000  0.132184  0.314819  1
  B  B15  1  0.000000  0.867816  0.685181  1
  B  B16  1  0.000000  0.367929  0.816505  1
  B  B17  1  0.000000  0.632071  0.183495  1
  B  B18  1  0.000000  0.053570  0.067795  1
  B  B19  1  0.000000  0.946430  0.932205  1
  B  B20  1  0.000000  0.445251  0.566513  1
  B  B21  1  0.000000  0.554749  0.433487  1
  B  B22  1  0.000000  0.483855  0.287340  1
  B  B23  1  0.000000  0.516145  0.712660  1
  B  B24  1  0.000000  0.016092  0.786812  1
  B  B25  1  0.000000  0.983908  0.213188  1
  B  B26  1  0.000000  0.248280  0.081509  1
  B  B27  1  0.000000  0.751720  0.918491  1
  B  B28  1  0.000000  0.250511  0.579246  1
  B  B29  1  0.000000  0.749489  0.420754  1
  B  B30  1  0.000000  0.292529  0.234484  1
  B  B31  1  0.000000  0.707471  0.765516  1
  B  B32  1  0.000000  0.208713  0.734475  1
  B  B33  1  0.000000  0.791287  0.265525  1
  Rh  Rh34  1  0.500000  0.361738  0.678995  1
  Rh  Rh35  1  0.500000  0.638262  0.321005  1
