# generated using pymatgen
data_Dy8Ti10ReSi16Rh
_symmetry_space_group_name_H-M   'P 1'
_cell_length_a   7.01866531
_cell_length_b   7.01866501
_cell_length_c   12.83975512
_cell_angle_alpha   89.87972349
_cell_angle_beta   90.12027294
_cell_angle_gamma   89.77619509
_symmetry_Int_Tables_number   1
_chemical_formula_structural   Dy8Ti10ReSi16Rh
_chemical_formula_sum   'Dy8 Ti10 Re1 Si16 Rh1'
_cell_volume   632.50003563
_cell_formula_units_Z   1
loop_
 _symmetry_equiv_pos_site_id
 _symmetry_equiv_pos_as_xyz
  1  'x, y, z'
loop_
 _atom_site_type_symbol
 _atom_site_label
 _atom_site_symmetry_multiplicity
 _atom_site_fract_x
 _atom_site_fract_y
 _atom_site_fract_z
 _atom_site_occupancy
  Dy  Dy0  1  0.998385  0.658819  0.031751  1
  Dy  Dy1  1  0.002026  0.341924  0.531424  1
  Dy  Dy2  1  0.658819  0.998385  0.968249  1
  Dy  Dy3  1  0.159814  0.501704  0.783293  1
  Dy  Dy4  1  0.840862  0.497744  0.283759  1
  Dy  Dy5  1  0.501704  0.159814  0.216707  1
  Dy  Dy6  1  0.497744  0.840862  0.716241  1
  Dy  Dy7  1  0.341924  0.002026  0.468576  1
  Ti  Ti8  1  0.345133  0.506060  0.373389  1
  Ti  Ti9  1  0.850440  0.997008  0.375901  1
  Ti  Ti10  1  0.006642  0.152588  0.124048  1
  Ti  Ti11  1  0.997008  0.850440  0.624099  1
  Ti  Ti12  1  0.506060  0.345133  0.626611  1
  Ti  Ti13  1  0.152588  0.006642  0.875952  1
  Ti  Ti14  1  0.825807  0.173850  0.749406  1
  Ti  Ti15  1  0.173850  0.825807  0.250594  1
  Ti  Ti16  1  0.491945  0.650373  0.127049  1
  Ti  Ti17  1  0.650373  0.491945  0.872951  1
  Re  Re18  1  0.327456  0.327456  0.000000  1
  Si  Si19  1  0.050077  0.712838  0.435928  1
  Si  Si20  1  0.953629  0.289905  0.934705  1
  Si  Si21  1  0.712838  0.050077  0.564072  1
  Si  Si22  1  0.208008  0.450926  0.182671  1
  Si  Si23  1  0.790778  0.551059  0.682142  1
  Si  Si24  1  0.450926  0.208008  0.817329  1
  Si  Si25  1  0.551059  0.790778  0.317858  1
  Si  Si26  1  0.289905  0.953629  0.065295  1
  Si  Si27  1  0.797832  0.867603  0.185070  1
  Si  Si28  1  0.297635  0.627960  0.565155  1
  Si  Si29  1  0.700738  0.370615  0.065262  1
  Si  Si30  1  0.627960  0.297635  0.434845  1
  Si  Si31  1  0.370615  0.700738  0.934738  1
  Si  Si32  1  0.131332  0.202599  0.315615  1
  Si  Si33  1  0.202599  0.131332  0.684385  1
  Si  Si34  1  0.867603  0.797832  0.814930  1
  Rh  Rh35  1  0.667887  0.667887  0.500000  1
