# generated using pymatgen
data_DyBi(OF)2
_symmetry_space_group_name_H-M   'P 1'
_cell_length_a   3.91209700
_cell_length_b   3.91209700
_cell_length_c   5.78782300
_cell_angle_alpha   90.00000000
_cell_angle_beta   90.00000000
_cell_angle_gamma   90.00000000
_symmetry_Int_Tables_number   1
_chemical_formula_structural   DyBi(OF)2
_chemical_formula_sum   'Dy1 Bi1 O2 F2'
_cell_volume   88.57975410
_cell_formula_units_Z   1
loop_
 _symmetry_equiv_pos_site_id
 _symmetry_equiv_pos_as_xyz
  1  'x, y, z'
loop_
 _atom_site_type_symbol
 _atom_site_label
 _atom_site_symmetry_multiplicity
 _atom_site_fract_x
 _atom_site_fract_y
 _atom_site_fract_z
 _atom_site_occupancy
  Dy  Dy0  1  0.000000  0.500000  0.732529  1
  Bi  Bi1  1  0.500000  0.000000  0.307280  1
  O  O2  1  0.000000  0.000000  0.510709  1
  O  O3  1  0.500000  0.500000  0.510709  1
  F  F4  1  0.000000  0.000000  0.969388  1
  F  F5  1  0.500000  0.500000  0.969388  1
