# generated using pymatgen
data_Ho2Mn6Fe4Co2P7
_symmetry_space_group_name_H-M   'P 1'
_cell_length_a   9.15917643
_cell_length_b   9.19182685
_cell_length_c   3.57996400
_cell_angle_alpha   90.00000000
_cell_angle_beta   90.00000000
_cell_angle_gamma   120.42507698
_symmetry_Int_Tables_number   1
_chemical_formula_structural   Ho2Mn6Fe4Co2P7
_chemical_formula_sum   'Ho2 Mn6 Fe4 Co2 P7'
_cell_volume   259.89105395
_cell_formula_units_Z   1
loop_
 _symmetry_equiv_pos_site_id
 _symmetry_equiv_pos_as_xyz
  1  'x, y, z'
loop_
 _atom_site_type_symbol
 _atom_site_label
 _atom_site_symmetry_multiplicity
 _atom_site_fract_x
 _atom_site_fract_y
 _atom_site_fract_z
 _atom_site_occupancy
  Ho  Ho0  1  0.999933  0.005067  0.000000  1
  Ho  Ho1  1  0.332256  0.662574  0.500000  1
  Mn  Mn2  1  0.290182  0.905172  0.000000  1
  Mn  Mn3  1  0.614120  0.706049  0.000000  1
  Mn  Mn4  1  0.057824  0.770755  0.500000  1
  Mn  Mn5  1  0.540627  0.103220  0.500000  1
  Mn  Mn6  1  0.561495  0.460639  0.500000  1
  Mn  Mn7  1  0.893486  0.435201  0.500000  1
  Fe  Fe8  1  0.094539  0.386924  0.000000  1
  Fe  Fe9  1  0.784518  0.177530  0.000000  1
  Fe  Fe10  1  0.393597  0.216475  0.000000  1
  Fe  Fe11  1  0.823509  0.607326  0.000000  1
  Co  Co12  1  0.716982  0.946144  0.500000  1
  Co  Co13  1  0.228838  0.282852  0.500000  1
  P  P14  1  0.552993  0.923019  0.000000  1
  P  P15  1  0.365170  0.444224  0.000000  1
  P  P16  1  0.076791  0.619913  0.000000  1
  P  P17  1  0.953375  0.216577  0.500000  1
  P  P18  1  0.260741  0.054704  0.500000  1
  P  P19  1  0.791331  0.742295  0.500000  1
  P  P20  1  0.667696  0.333340  0.000000  1
