# generated using pymatgen
data_Y6Fe2Co15P12Os
_symmetry_space_group_name_H-M   'P 1'
_cell_length_a   3.71226900
_cell_length_b   10.53152300
_cell_length_c   12.17662300
_cell_angle_alpha   90.00000000
_cell_angle_beta   90.00000000
_cell_angle_gamma   90.00000000
_symmetry_Int_Tables_number   1
_chemical_formula_structural   Y6Fe2Co15P12Os
_chemical_formula_sum   'Y6 Fe2 Co15 P12 Os1'
_cell_volume   476.05538194
_cell_formula_units_Z   1
loop_
 _symmetry_equiv_pos_site_id
 _symmetry_equiv_pos_as_xyz
  1  'x, y, z'
loop_
 _atom_site_type_symbol
 _atom_site_label
 _atom_site_symmetry_multiplicity
 _atom_site_fract_x
 _atom_site_fract_y
 _atom_site_fract_z
 _atom_site_occupancy
  Y  Y0  1  0.000000  0.500000  0.524675  1
  Y  Y1  1  0.500000  0.000000  0.478137  1
  Y  Y2  1  0.500000  0.817564  0.205708  1
  Y  Y3  1  0.500000  0.182436  0.205708  1
  Y  Y4  1  0.000000  0.681286  0.795531  1
  Y  Y5  1  0.000000  0.318714  0.795531  1
  Fe  Fe6  1  0.000000  0.000000  0.842872  1
  Fe  Fe7  1  0.000000  0.500000  0.989255  1
  Co  Co8  1  0.500000  0.500000  0.701804  1
  Co  Co9  1  0.000000  0.000000  0.297085  1
  Co  Co10  1  0.500000  0.000000  0.013942  1
  Co  Co11  1  0.500000  0.331284  0.991516  1
  Co  Co12  1  0.500000  0.668716  0.991516  1
  Co  Co13  1  0.000000  0.166467  0.005824  1
  Co  Co14  1  0.000000  0.833533  0.005824  1
  Co  Co15  1  0.500000  0.297256  0.429919  1
  Co  Co16  1  0.500000  0.702744  0.429919  1
  Co  Co17  1  0.000000  0.203798  0.568602  1
  Co  Co18  1  0.000000  0.796202  0.568602  1
  Co  Co19  1  0.500000  0.878764  0.709146  1
  Co  Co20  1  0.500000  0.121236  0.709146  1
  Co  Co21  1  0.000000  0.620276  0.290651  1
  Co  Co22  1  0.000000  0.379724  0.290651  1
  P  P23  1  0.500000  0.500000  0.882335  1
  P  P24  1  0.000000  0.000000  0.117412  1
  P  P25  1  0.500000  0.500000  0.349152  1
  P  P26  1  0.000000  0.000000  0.657538  1
  P  P27  1  0.500000  0.310231  0.616325  1
  P  P28  1  0.500000  0.689769  0.616325  1
  P  P29  1  0.000000  0.188874  0.383922  1
  P  P30  1  0.000000  0.811126  0.383922  1
  P  P31  1  0.500000  0.848841  0.892312  1
  P  P32  1  0.500000  0.151159  0.892312  1
  P  P33  1  0.000000  0.654901  0.104813  1
  P  P34  1  0.000000  0.345099  0.104813  1
  Os  Os35  1  0.500000  0.500000  0.157253  1
