# generated using pymatgen
data_Tb8Ti10NbSi16Hg
_symmetry_space_group_name_H-M   'P 1'
_cell_length_a   7.10085446
_cell_length_b   7.10085442
_cell_length_c   12.97547829
_cell_angle_alpha   90.17329078
_cell_angle_beta   89.82671097
_cell_angle_gamma   89.58918124
_symmetry_Int_Tables_number   1
_chemical_formula_structural   Tb8Ti10NbSi16Hg
_chemical_formula_sum   'Tb8 Ti10 Nb1 Si16 Hg1'
_cell_volume   654.22845609
_cell_formula_units_Z   1
loop_
 _symmetry_equiv_pos_site_id
 _symmetry_equiv_pos_as_xyz
  1  'x, y, z'
loop_
 _atom_site_type_symbol
 _atom_site_label
 _atom_site_symmetry_multiplicity
 _atom_site_fract_x
 _atom_site_fract_y
 _atom_site_fract_z
 _atom_site_occupancy
  Tb  Tb0  1  0.341268  0.001859  0.467343  1
  Tb  Tb1  1  0.497792  0.839277  0.715856  1
  Tb  Tb2  1  0.501255  0.157884  0.214989  1
  Tb  Tb3  1  0.839277  0.497792  0.284144  1
  Tb  Tb4  1  0.157884  0.501255  0.785011  1
  Tb  Tb5  1  0.657049  0.000332  0.968412  1
  Tb  Tb6  1  0.001859  0.341268  0.532657  1
  Tb  Tb7  1  0.000332  0.657049  0.031588  1
  Ti  Ti8  1  0.173772  0.826375  0.250483  1
  Ti  Ti9  1  0.826375  0.173772  0.749517  1
  Ti  Ti10  1  0.148014  0.008761  0.877298  1
  Ti  Ti11  1  0.494613  0.650415  0.124261  1
  Ti  Ti12  1  0.508490  0.351388  0.624314  1
  Ti  Ti13  1  0.650415  0.494613  0.875739  1
  Ti  Ti14  1  0.351388  0.508490  0.375686  1
  Ti  Ti15  1  0.847462  0.990482  0.375320  1
  Ti  Ti16  1  0.008761  0.148014  0.122702  1
  Ti  Ti17  1  0.990482  0.847462  0.624680  1
  Nb  Nb18  1  0.673496  0.673496  0.500000  1
  Si  Si19  1  0.201148  0.130731  0.684885  1
  Si  Si20  1  0.374559  0.724090  0.928496  1
  Si  Si21  1  0.630272  0.294432  0.433963  1
  Si  Si22  1  0.724090  0.374559  0.071504  1
  Si  Si23  1  0.294432  0.630272  0.566037  1
  Si  Si24  1  0.798808  0.868616  0.183893  1
  Si  Si25  1  0.130731  0.201148  0.315115  1
  Si  Si26  1  0.868616  0.798808  0.816107  1
  Si  Si27  1  0.285491  0.932866  0.067672  1
  Si  Si28  1  0.546238  0.791574  0.313731  1
  Si  Si29  1  0.458993  0.205657  0.805490  1
  Si  Si30  1  0.791574  0.546238  0.686269  1
  Si  Si31  1  0.205657  0.458993  0.194510  1
  Si  Si32  1  0.710349  0.048144  0.564165  1
  Si  Si33  1  0.932866  0.285491  0.932328  1
  Si  Si34  1  0.048144  0.710349  0.435835  1
  Hg  Hg35  1  0.328044  0.328044  0.000000  1
