# generated using pymatgen
data_Er16In3Hg(RuRh)2
_symmetry_space_group_name_H-M   'P 1'
_cell_length_a   9.56212238
_cell_length_b   9.54756356
_cell_length_c   9.54676622
_cell_angle_alpha   59.98262716
_cell_angle_beta   59.94677953
_cell_angle_gamma   59.94954799
_symmetry_Int_Tables_number   1
_chemical_formula_structural   Er16In3Hg(RuRh)2
_chemical_formula_sum   'Er16 In3 Hg1 Ru2 Rh2'
_cell_volume   615.73021396
_cell_formula_units_Z   1
loop_
 _symmetry_equiv_pos_site_id
 _symmetry_equiv_pos_as_xyz
  1  'x, y, z'
loop_
 _atom_site_type_symbol
 _atom_site_label
 _atom_site_symmetry_multiplicity
 _atom_site_fract_x
 _atom_site_fract_y
 _atom_site_fract_z
 _atom_site_occupancy
  Er  Er0  1  0.190136  0.194157  0.808846  1
  Er  Er1  1  0.438785  0.058614  0.063815  1
  Er  Er2  1  0.440341  0.058581  0.437607  1
  Er  Er3  1  0.061937  0.435647  0.062111  1
  Er  Er4  1  0.652137  0.047194  0.648533  1
  Er  Er5  1  0.190870  0.808048  0.810210  1
  Er  Er6  1  0.063472  0.058581  0.437607  1
  Er  Er7  1  0.808642  0.191065  0.191653  1
  Er  Er8  1  0.808866  0.808616  0.193298  1
  Er  Er9  1  0.652560  0.647545  0.047337  1
  Er  Er10  1  0.650648  0.650162  0.651088  1
  Er  Er11  1  0.059372  0.439971  0.441285  1
  Er  Er12  1  0.048103  0.650162  0.651088  1
  Er  Er13  1  0.806862  0.194157  0.808846  1
  Er  Er14  1  0.440304  0.435647  0.062111  1
  Er  Er15  1  0.189219  0.808616  0.193298  1
  In  In16  1  0.416593  0.419492  0.747322  1
  In  In17  1  0.746913  0.418339  0.416402  1
  In  In18  1  0.418347  0.418339  0.416402  1
  Hg  Hg19  1  0.413481  0.759633  0.413404  1
  Ru  Ru20  1  0.860391  0.422942  0.856277  1
  Ru  Ru21  1  0.860562  0.855241  0.423633  1
  Rh  Rh22  1  0.422608  0.859625  0.858915  1
  Rh  Rh23  1  0.858851  0.859625  0.858915  1
