# generated using pymatgen
data_Sr8Be3Si12Pd
_symmetry_space_group_name_H-M   'P 1'
_cell_length_a   8.12535000
_cell_length_b   8.12535042
_cell_length_c   9.42075100
_cell_angle_alpha   90.00000000
_cell_angle_beta   90.00000000
_cell_angle_gamma   119.99999829
_symmetry_Int_Tables_number   1
_chemical_formula_structural   Sr8Be3Si12Pd
_chemical_formula_sum   'Sr8 Be3 Si12 Pd1'
_cell_volume   538.64215798
_cell_formula_units_Z   1
loop_
 _symmetry_equiv_pos_site_id
 _symmetry_equiv_pos_as_xyz
  1  'x, y, z'
loop_
 _atom_site_type_symbol
 _atom_site_label
 _atom_site_symmetry_multiplicity
 _atom_site_fract_x
 _atom_site_fract_y
 _atom_site_fract_z
 _atom_site_occupancy
  Sr  Sr0  1  0.500053  0.499947  0.749041  1
  Sr  Sr1  1  0.500226  0.499774  0.250970  1
  Sr  Sr2  1  0.999893  0.499947  0.749041  1
  Sr  Sr3  1  0.999550  0.499774  0.250970  1
  Sr  Sr4  1  0.500053  0.000107  0.749041  1
  Sr  Sr5  1  0.500226  0.000450  0.250970  1
  Sr  Sr6  1  0.000000  0.000000  0.750941  1
  Sr  Sr7  1  0.000000  0.000000  0.249081  1
  Be  Be8  1  0.666667  0.333333  0.999220  1
  Be  Be9  1  0.333333  0.666667  0.000871  1
  Be  Be10  1  0.333333  0.666667  0.499522  1
  Si  Si11  1  0.827526  0.172474  0.000078  1
  Si  Si12  1  0.172173  0.827827  0.000069  1
  Si  Si13  1  0.344947  0.172474  0.000078  1
  Si  Si14  1  0.169459  0.830541  0.499911  1
  Si  Si15  1  0.655655  0.827827  0.000069  1
  Si  Si16  1  0.833097  0.166903  0.500058  1
  Si  Si17  1  0.827526  0.655053  0.000078  1
  Si  Si18  1  0.661081  0.830541  0.499911  1
  Si  Si19  1  0.172173  0.344345  0.000069  1
  Si  Si20  1  0.333807  0.166903  0.500058  1
  Si  Si21  1  0.169459  0.338919  0.499911  1
  Si  Si22  1  0.833097  0.666193  0.500058  1
  Pd  Pd23  1  0.666667  0.333333  0.499985  1
