# generated using pymatgen
data_Ca11La8SmSi16
_symmetry_space_group_name_H-M   'P 1'
_cell_length_a   7.56885207
_cell_length_b   8.02970159
_cell_length_c   15.35787500
_cell_angle_alpha   89.96652746
_cell_angle_beta   90.00778947
_cell_angle_gamma   89.98668974
_symmetry_Int_Tables_number   1
_chemical_formula_structural   Ca11La8SmSi16
_chemical_formula_sum   'Ca11 La8 Sm1 Si16'
_cell_volume   933.38423532
_cell_formula_units_Z   1
loop_
 _symmetry_equiv_pos_site_id
 _symmetry_equiv_pos_as_xyz
  1  'x, y, z'
loop_
 _atom_site_type_symbol
 _atom_site_label
 _atom_site_symmetry_multiplicity
 _atom_site_fract_x
 _atom_site_fract_y
 _atom_site_fract_z
 _atom_site_occupancy
  Ca  Ca0  1  0.320887  0.181695  0.622446  1
  Ca  Ca1  1  0.679190  0.818836  0.377885  1
  Ca  Ca2  1  0.647477  0.999717  0.749585  1
  Ca  Ca3  1  0.180114  0.681392  0.377671  1
  Ca  Ca4  1  0.820656  0.318944  0.877788  1
  Ca  Ca5  1  0.820986  0.318218  0.622233  1
  Ca  Ca6  1  0.854988  0.495805  0.251792  1
  Ca  Ca7  1  0.350400  0.003491  0.250899  1
  Ca  Ca8  1  0.320346  0.181160  0.878252  1
  Ca  Ca9  1  0.179146  0.682699  0.121254  1
  Ca  Ca10  1  0.146679  0.500000  0.749654  1
  La  La11  1  0.025244  0.183750  0.402123  1
  La  La12  1  0.524251  0.315879  0.402582  1
  La  La13  1  0.473142  0.685028  0.900317  1
  La  La14  1  0.474512  0.685077  0.598851  1
  La  La15  1  0.974714  0.814877  0.598408  1
  La  La16  1  0.973923  0.814760  0.900544  1
  La  La17  1  0.525404  0.315455  0.099090  1
  La  La18  1  0.025283  0.185359  0.097250  1
  Sm  Sm19  1  0.678099  0.815432  0.124164  1
  Si  Si20  1  0.257326  0.875954  0.750369  1
  Si  Si21  1  0.470875  0.593582  0.246981  1
  Si  Si22  1  0.031149  0.091666  0.750113  1
  Si  Si23  1  0.530803  0.407904  0.750588  1
  Si  Si24  1  0.143577  0.473624  0.536453  1
  Si  Si25  1  0.967150  0.906993  0.247266  1
  Si  Si26  1  0.741090  0.120804  0.247834  1
  Si  Si27  1  0.855229  0.531600  0.037604  1
  Si  Si28  1  0.361606  0.973695  0.038665  1
  Si  Si29  1  0.141090  0.473621  0.963241  1
  Si  Si30  1  0.642818  0.026230  0.536720  1
  Si  Si31  1  0.357185  0.974517  0.462769  1
  Si  Si32  1  0.857718  0.525677  0.462510  1
  Si  Si33  1  0.756960  0.624428  0.750298  1
  Si  Si34  1  0.243898  0.377223  0.250084  1
  Si  Si35  1  0.646080  0.024907  0.965712  1
