# generated using pymatgen
data_Dy7Er(LuPb4)2
_symmetry_space_group_name_H-M   'P 1'
_cell_length_a   8.16250300
_cell_length_b   8.24902004
_cell_length_c   15.60939707
_cell_angle_alpha   90.01074978
_cell_angle_beta   90.00000000
_cell_angle_gamma   90.00000000
_symmetry_Int_Tables_number   1
_chemical_formula_structural   Dy7Er(LuPb4)2
_chemical_formula_sum   'Dy14 Er2 Lu4 Pb16'
_cell_volume   1051.02206342
_cell_formula_units_Z   2
loop_
 _symmetry_equiv_pos_site_id
 _symmetry_equiv_pos_as_xyz
  1  'x, y, z'
loop_
 _atom_site_type_symbol
 _atom_site_label
 _atom_site_symmetry_multiplicity
 _atom_site_fract_x
 _atom_site_fract_y
 _atom_site_fract_z
 _atom_site_occupancy
  Dy  Dy0  1  0.623366  0.158490  0.379172  1
  Dy  Dy1  1  0.123366  0.341510  0.120828  1
  Dy  Dy2  1  0.623366  0.158565  0.120890  1
  Dy  Dy3  1  0.123366  0.341435  0.379110  1
  Dy  Dy4  1  0.376656  0.841488  0.620888  1
  Dy  Dy5  1  0.876656  0.658512  0.879112  1
  Dy  Dy6  1  0.535959  0.323495  0.900123  1
  Dy  Dy7  1  0.035959  0.176505  0.599877  1
  Dy  Dy8  1  0.464031  0.676501  0.400122  1
  Dy  Dy9  1  0.964031  0.823499  0.099878  1
  Dy  Dy10  1  0.464021  0.676493  0.099789  1
  Dy  Dy11  1  0.964021  0.823507  0.400211  1
  Dy  Dy12  1  0.536001  0.323585  0.599896  1
  Dy  Dy13  1  0.036001  0.176415  0.900104  1
  Er  Er14  1  0.376570  0.841514  0.879071  1
  Er  Er15  1  0.876570  0.658486  0.620929  1
  Lu  Lu16  1  0.208476  0.504504  0.750011  1
  Lu  Lu17  1  0.708476  0.995496  0.749989  1
  Lu  Lu18  1  0.791492  0.495648  0.250005  1
  Lu  Lu19  1  0.291492  0.004352  0.249995  1
  Pb  Pb20  1  0.281296  0.032544  0.043382  1
  Pb  Pb21  1  0.781296  0.467456  0.456618  1
  Pb  Pb22  1  0.718974  0.966993  0.543609  1
  Pb  Pb23  1  0.218974  0.533007  0.956391  1
  Pb  Pb24  1  0.718514  0.967213  0.956403  1
  Pb  Pb25  1  0.218514  0.532787  0.543597  1
  Pb  Pb26  1  0.281195  0.032722  0.456452  1
  Pb  Pb27  1  0.781195  0.467278  0.043548  1
  Pb  Pb28  1  0.571092  0.626160  0.750016  1
  Pb  Pb29  1  0.071092  0.873840  0.749984  1
  Pb  Pb30  1  0.428917  0.374012  0.250001  1
  Pb  Pb31  1  0.928917  0.125988  0.249999  1
  Pb  Pb32  1  0.347785  0.154918  0.750055  1
  Pb  Pb33  1  0.847785  0.345082  0.749945  1
  Pb  Pb34  1  0.652287  0.844967  0.249996  1
  Pb  Pb35  1  0.152287  0.655033  0.250004  1
