# generated using pymatgen
data_Tb2Y2MnRuC8
_symmetry_space_group_name_H-M   'P 1'
_cell_length_a   6.64406869
_cell_length_b   6.64890381
_cell_length_c   6.64890369
_cell_angle_alpha   134.08311855
_cell_angle_beta   109.80838016
_cell_angle_gamma   88.03119366
_symmetry_Int_Tables_number   1
_chemical_formula_structural   Tb2Y2MnRuC8
_chemical_formula_sum   'Tb2 Y2 Mn1 Ru1 C8'
_cell_volume   189.48542903
_cell_formula_units_Z   1
loop_
 _symmetry_equiv_pos_site_id
 _symmetry_equiv_pos_as_xyz
  1  'x, y, z'
loop_
 _atom_site_type_symbol
 _atom_site_label
 _atom_site_symmetry_multiplicity
 _atom_site_fract_x
 _atom_site_fract_y
 _atom_site_fract_z
 _atom_site_occupancy
  Tb  Tb0  1  0.504308  0.355231  0.154418  1
  Tb  Tb1  1  0.495692  0.650109  0.850921  1
  Y  Y2  1  0.201001  0.849940  0.345701  1
  Y  Y3  1  0.798999  0.144700  0.648938  1
  Mn  Mn4  1  0.000000  0.750084  0.750084  1
  Ru  Ru5  1  0.000000  0.250122  0.250122  1
  C  C6  1  0.251200  0.054169  0.149330  1
  C  C7  1  0.748800  0.898128  0.802968  1
  C  C8  1  0.905535  0.602029  0.351008  1
  C  C9  1  0.094465  0.445473  0.696494  1
  C  C10  1  0.467950  0.127540  0.339764  1
  C  C11  1  0.532050  0.871815  0.659592  1
  C  C12  1  0.788450  0.628401  0.160707  1
  C  C13  1  0.211550  0.372258  0.839951  1
