# generated using pymatgen
data_DyPu(NbN2)2
_symmetry_space_group_name_H-M   'P 1'
_cell_length_a   3.29038300
_cell_length_b   5.68958407
_cell_length_c   10.96242012
_cell_angle_alpha   89.98274976
_cell_angle_beta   90.00000000
_cell_angle_gamma   90.00000000
_symmetry_Int_Tables_number   1
_chemical_formula_structural   DyPu(NbN2)2
_chemical_formula_sum   'Dy2 Pu2 Nb4 N8'
_cell_volume   205.22647871
_cell_formula_units_Z   2
loop_
 _symmetry_equiv_pos_site_id
 _symmetry_equiv_pos_as_xyz
  1  'x, y, z'
loop_
 _atom_site_type_symbol
 _atom_site_label
 _atom_site_symmetry_multiplicity
 _atom_site_fract_x
 _atom_site_fract_y
 _atom_site_fract_z
 _atom_site_occupancy
  Dy  Dy0  1  0.750000  0.915991  0.359590  1
  Dy  Dy1  1  0.250000  0.084009  0.640410  1
  Pu  Pu2  1  0.250000  0.581786  0.859800  1
  Pu  Pu3  1  0.750000  0.418214  0.140200  1
  Nb  Nb4  1  0.250000  0.917810  0.105663  1
  Nb  Nb5  1  0.750000  0.082190  0.894337  1
  Nb  Nb6  1  0.750000  0.583254  0.603786  1
  Nb  Nb7  1  0.250000  0.416746  0.396214  1
  N  N8  1  0.250000  0.655365  0.244820  1
  N  N9  1  0.750000  0.344635  0.755180  1
  N  N10  1  0.750000  0.840781  0.744757  1
  N  N11  1  0.250000  0.159219  0.255243  1
  N  N12  1  0.250000  0.751553  0.506441  1
  N  N13  1  0.750000  0.248447  0.493559  1
  N  N14  1  0.750000  0.749491  0.007088  1
  N  N15  1  0.250000  0.250509  0.992912  1
