# generated using pymatgen
data_Yb3HoAl13Si5Ir6
_symmetry_space_group_name_H-M   'P 1'
_cell_length_a   7.48475826
_cell_length_b   7.45175990
_cell_length_c   9.43014032
_cell_angle_alpha   89.97497328
_cell_angle_beta   90.05531421
_cell_angle_gamma   119.85936942
_symmetry_Int_Tables_number   1
_chemical_formula_structural   Yb3HoAl13Si5Ir6
_chemical_formula_sum   'Yb3 Ho1 Al13 Si5 Ir6'
_cell_volume   456.14078497
_cell_formula_units_Z   1
loop_
 _symmetry_equiv_pos_site_id
 _symmetry_equiv_pos_as_xyz
  1  'x, y, z'
loop_
 _atom_site_type_symbol
 _atom_site_label
 _atom_site_symmetry_multiplicity
 _atom_site_fract_x
 _atom_site_fract_y
 _atom_site_fract_z
 _atom_site_occupancy
  Yb  Yb0  1  0.005350  0.341806  0.749255  1
  Yb  Yb1  1  0.674907  0.007615  0.252459  1
  Yb  Yb2  1  0.319639  0.991352  0.745175  1
  Ho  Ho3  1  0.000044  0.662436  0.253489  1
  Al  Al4  1  0.129321  0.127439  0.250365  1
  Al  Al5  1  0.871220  0.872333  0.750557  1
  Al  Al6  1  0.665015  0.997141  0.578154  1
  Al  Al7  1  0.662306  0.997933  0.923747  1
  Al  Al8  1  0.339233  0.003253  0.071699  1
  Al  Al9  1  0.336439  0.334559  0.559320  1
  Al  Al10  1  0.664205  0.669249  0.439371  1
  Al  Al11  1  0.663605  0.669179  0.059395  1
  Al  Al12  1  0.336299  0.331556  0.940473  1
  Al  Al13  1  0.337091  0.546344  0.250361  1
  Al  Al14  1  0.660293  0.449624  0.750572  1
  Al  Al15  1  0.546568  0.344315  0.250126  1
  Al  Al16  1  0.453565  0.658088  0.749411  1
  Si  Si17  1  0.000998  0.326661  0.067770  1
  Si  Si18  1  0.998112  0.671125  0.932159  1
  Si  Si19  1  0.991250  0.665724  0.572600  1
  Si  Si20  1  0.340292  0.006354  0.422648  1
  Si  Si21  1  0.002931  0.327566  0.429682  1
  Ir  Ir22  1  0.689164  0.338866  0.004412  1
  Ir  Ir23  1  0.310954  0.661163  0.000038  1
  Ir  Ir24  1  0.311131  0.670677  0.498851  1
  Ir  Ir25  1  0.682757  0.332111  0.496928  1
  Ir  Ir26  1  0.000536  0.998282  0.002189  1
  Ir  Ir27  1  0.006779  0.997254  0.498795  1
