# generated using pymatgen
data_Pr14Er6Bi7Pb9
_symmetry_space_group_name_H-M   'P 1'
_cell_length_a   8.41966605
_cell_length_b   8.48400464
_cell_length_c   16.10797698
_cell_angle_alpha   90.11056528
_cell_angle_beta   90.00401039
_cell_angle_gamma   90.01178060
_symmetry_Int_Tables_number   1
_chemical_formula_structural   Pr14Er6Bi7Pb9
_chemical_formula_sum   'Pr14 Er6 Bi7 Pb9'
_cell_volume   1150.63066752
_cell_formula_units_Z   1
loop_
 _symmetry_equiv_pos_site_id
 _symmetry_equiv_pos_as_xyz
  1  'x, y, z'
loop_
 _atom_site_type_symbol
 _atom_site_label
 _atom_site_symmetry_multiplicity
 _atom_site_fract_x
 _atom_site_fract_y
 _atom_site_fract_z
 _atom_site_occupancy
  Pr  Pr0  1  0.369281  0.843082  0.118756  1
  Pr  Pr1  1  0.871797  0.656591  0.381464  1
  Pr  Pr2  1  0.370861  0.839543  0.378821  1
  Pr  Pr3  1  0.870803  0.658313  0.121693  1
  Pr  Pr4  1  0.627116  0.156728  0.878543  1
  Pr  Pr5  1  0.126631  0.343841  0.619960  1
  Pr  Pr6  1  0.460090  0.673809  0.602653  1
  Pr  Pr7  1  0.963035  0.822530  0.897845  1
  Pr  Pr8  1  0.537697  0.324517  0.101864  1
  Pr  Pr9  1  0.038065  0.176623  0.397783  1
  Pr  Pr10  1  0.530938  0.322743  0.400235  1
  Pr  Pr11  1  0.034371  0.179210  0.100129  1
  Pr  Pr12  1  0.464701  0.672438  0.895321  1
  Pr  Pr13  1  0.967065  0.825842  0.603541  1
  Er  Er14  1  0.632515  0.155281  0.626562  1
  Er  Er15  1  0.133034  0.344691  0.873739  1
  Er  Er16  1  0.797717  0.501595  0.750580  1
  Er  Er17  1  0.297419  0.998044  0.749369  1
  Er  Er18  1  0.201454  0.497348  0.250084  1
  Er  Er19  1  0.701502  0.003417  0.252176  1
  Bi  Bi20  1  0.718556  0.975395  0.457121  1
  Bi  Bi21  1  0.217918  0.525724  0.042909  1
  Bi  Bi22  1  0.275775  0.036771  0.949603  1
  Bi  Bi23  1  0.775239  0.463584  0.550105  1
  Bi  Bi24  1  0.291755  0.032092  0.549465  1
  Bi  Bi25  1  0.790470  0.468322  0.950329  1
  Bi  Bi26  1  0.717533  0.972323  0.048747  1
  Pb  Pb27  1  0.217631  0.529901  0.452633  1
  Pb  Pb28  1  0.436388  0.370219  0.748834  1
  Pb  Pb29  1  0.936529  0.129475  0.751059  1
  Pb  Pb30  1  0.562990  0.625682  0.248541  1
  Pb  Pb31  1  0.063131  0.874640  0.250516  1
  Pb  Pb32  1  0.656104  0.848454  0.748950  1
  Pb  Pb33  1  0.155558  0.650838  0.750885  1
  Pb  Pb34  1  0.344034  0.152362  0.249084  1
  Pb  Pb35  1  0.844294  0.348034  0.250099  1
