# generated using pymatgen
data_Dy3Cd3AgSnPb
_symmetry_space_group_name_H-M   'P 1'
_cell_length_a   7.53716000
_cell_length_b   7.53715774
_cell_length_c   4.55584300
_cell_angle_alpha   90.00000000
_cell_angle_beta   90.00000000
_cell_angle_gamma   120.00000114
_symmetry_Int_Tables_number   1
_chemical_formula_structural   Dy3Cd3AgSnPb
_chemical_formula_sum   'Dy3 Cd3 Ag1 Sn1 Pb1'
_cell_volume   224.13759885
_cell_formula_units_Z   1
loop_
 _symmetry_equiv_pos_site_id
 _symmetry_equiv_pos_as_xyz
  1  'x, y, z'
loop_
 _atom_site_type_symbol
 _atom_site_label
 _atom_site_symmetry_multiplicity
 _atom_site_fract_x
 _atom_site_fract_y
 _atom_site_fract_z
 _atom_site_occupancy
  Dy  Dy0  1  0.413373  0.416498  0.500000  1
  Dy  Dy1  1  0.583502  0.996874  0.500000  1
  Dy  Dy2  1  0.003126  0.586627  0.500000  1
  Cd  Cd3  1  0.762244  0.766161  0.000000  1
  Cd  Cd4  1  0.233839  0.996083  0.000000  1
  Cd  Cd5  1  0.003917  0.237756  0.000000  1
  Ag  Ag6  1  0.000000  0.000000  0.500000  1
  Sn  Sn7  1  0.333333  0.666667  0.000000  1
  Pb  Pb8  1  0.666667  0.333333  0.000000  1
