# generated using pymatgen
data_ErLu5H18
_symmetry_space_group_name_H-M   'P 1'
_cell_length_a   6.14872800
_cell_length_b   6.14605258
_cell_length_c   6.42624014
_cell_angle_alpha   90.02088631
_cell_angle_beta   90.00000000
_cell_angle_gamma   120.01440088
_symmetry_Int_Tables_number   1
_chemical_formula_structural   ErLu5H18
_chemical_formula_sum   'Er1 Lu5 H18'
_cell_volume   210.28391650
_cell_formula_units_Z   1
loop_
 _symmetry_equiv_pos_site_id
 _symmetry_equiv_pos_as_xyz
  1  'x, y, z'
loop_
 _atom_site_type_symbol
 _atom_site_label
 _atom_site_symmetry_multiplicity
 _atom_site_fract_x
 _atom_site_fract_y
 _atom_site_fract_z
 _atom_site_occupancy
  Er  Er0  1  0.663262  0.000000  0.750000  1
  Lu  Lu1  1  0.337338  0.337148  0.749995  1
  Lu  Lu2  1  0.000189  0.662852  0.750005  1
  Lu  Lu3  1  0.662530  0.662070  0.249926  1
  Lu  Lu4  1  0.000460  0.337930  0.250074  1
  Lu  Lu5  1  0.336896  0.000000  0.250000  1
  H  H6  1  0.319127  0.968514  0.910261  1
  H  H7  1  0.648058  0.677003  0.911001  1
  H  H8  1  0.031569  0.352242  0.909421  1
  H  H9  1  0.321203  0.352689  0.409451  1
  H  H10  1  0.031421  0.679028  0.409440  1
  H  H11  1  0.646620  0.967584  0.406533  1
  H  H12  1  0.679038  0.032416  0.093467  1
  H  H13  1  0.352394  0.320972  0.090560  1
  H  H14  1  0.968514  0.647311  0.090549  1
  H  H15  1  0.679328  0.647758  0.590579  1
  H  H16  1  0.971056  0.322997  0.588999  1
  H  H17  1  0.350614  0.031486  0.589739  1
  H  H18  1  0.003932  0.000000  0.750000  1
  H  H19  1  0.999606  0.000000  0.250000  1
  H  H20  1  0.666647  0.336742  0.815540  1
  H  H21  1  0.666650  0.333000  0.314713  1
  H  H22  1  0.333649  0.667000  0.185287  1
  H  H23  1  0.329903  0.663258  0.684460  1
