# generated using pymatgen
data_DyTm7ZnIn3
_symmetry_space_group_name_H-M   'P 1'
_cell_length_a   10.51145500
_cell_length_b   10.51145347
_cell_length_c   6.72604200
_cell_angle_alpha   90.00000000
_cell_angle_beta   90.00000000
_cell_angle_gamma   120.00000798
_symmetry_Int_Tables_number   1
_chemical_formula_structural   DyTm7ZnIn3
_chemical_formula_sum   'Dy2 Tm14 Zn2 In6'
_cell_volume   643.59962013
_cell_formula_units_Z   2
loop_
 _symmetry_equiv_pos_site_id
 _symmetry_equiv_pos_as_xyz
  1  'x, y, z'
loop_
 _atom_site_type_symbol
 _atom_site_label
 _atom_site_symmetry_multiplicity
 _atom_site_fract_x
 _atom_site_fract_y
 _atom_site_fract_z
 _atom_site_occupancy
  Dy  Dy0  1  0.000000  0.000000  0.499478  1
  Dy  Dy1  1  0.000000  0.000000  0.999478  1
  Tm  Tm2  1  0.520665  0.041330  0.517268  1
  Tm  Tm3  1  0.958670  0.479335  0.517268  1
  Tm  Tm4  1  0.520665  0.479335  0.517268  1
  Tm  Tm5  1  0.479335  0.958670  0.017268  1
  Tm  Tm6  1  0.041330  0.520665  0.017268  1
  Tm  Tm7  1  0.479335  0.520665  0.017268  1
  Tm  Tm8  1  0.173680  0.347360  0.734025  1
  Tm  Tm9  1  0.652640  0.826320  0.734025  1
  Tm  Tm10  1  0.173680  0.826320  0.734025  1
  Tm  Tm11  1  0.826320  0.652640  0.234025  1
  Tm  Tm12  1  0.347360  0.173680  0.234025  1
  Tm  Tm13  1  0.826320  0.173680  0.234025  1
  Tm  Tm14  1  0.666667  0.333333  0.868750  1
  Tm  Tm15  1  0.333333  0.666667  0.368750  1
  Zn  Zn16  1  0.666667  0.333333  0.301239  1
  Zn  Zn17  1  0.333333  0.666667  0.801239  1
  In  In18  1  0.834936  0.669872  0.749585  1
  In  In19  1  0.330128  0.165064  0.749585  1
  In  In20  1  0.834936  0.165064  0.749585  1
  In  In21  1  0.165064  0.330128  0.249585  1
  In  In22  1  0.669872  0.834936  0.249585  1
  In  In23  1  0.165064  0.834936  0.249585  1
