# generated using pymatgen
data_Er16Zr4Ir11Rh
_symmetry_space_group_name_H-M   'P 1'
_cell_length_a   10.76177100
_cell_length_b   10.76177100
_cell_length_c   6.23824100
_cell_angle_alpha   90.00000000
_cell_angle_beta   90.00000000
_cell_angle_gamma   90.00000000
_symmetry_Int_Tables_number   1
_chemical_formula_structural   Er16Zr4Ir11Rh
_chemical_formula_sum   'Er16 Zr4 Ir11 Rh1'
_cell_volume   722.48634211
_cell_formula_units_Z   1
loop_
 _symmetry_equiv_pos_site_id
 _symmetry_equiv_pos_as_xyz
  1  'x, y, z'
loop_
 _atom_site_type_symbol
 _atom_site_label
 _atom_site_symmetry_multiplicity
 _atom_site_fract_x
 _atom_site_fract_y
 _atom_site_fract_z
 _atom_site_occupancy
  Er  Er0  1  0.290095  0.086236  0.371375  1
  Er  Er1  1  0.289459  0.913329  0.869466  1
  Er  Er2  1  0.710541  0.086671  0.869466  1
  Er  Er3  1  0.709905  0.913764  0.371375  1
  Er  Er4  1  0.586671  0.789459  0.869466  1
  Er  Er5  1  0.586236  0.209905  0.371375  1
  Er  Er6  1  0.413764  0.790095  0.371375  1
  Er  Er7  1  0.413329  0.210541  0.869466  1
  Er  Er8  1  0.209731  0.413494  0.629153  1
  Er  Er9  1  0.209798  0.587123  0.129210  1
  Er  Er10  1  0.790202  0.412877  0.129210  1
  Er  Er11  1  0.790269  0.586506  0.629153  1
  Er  Er12  1  0.912877  0.709798  0.129210  1
  Er  Er13  1  0.913494  0.290269  0.629153  1
  Er  Er14  1  0.086506  0.709731  0.629153  1
  Er  Er15  1  0.087123  0.290202  0.129210  1
  Zr  Zr16  1  0.000000  0.000000  0.500151  1
  Zr  Zr17  1  0.000000  0.000000  0.000528  1
  Zr  Zr18  1  0.500000  0.500000  0.000528  1
  Zr  Zr19  1  0.500000  0.500000  0.500151  1
  Ir  Ir20  1  0.852633  0.146131  0.250213  1
  Ir  Ir21  1  0.853044  0.853782  0.750200  1
  Ir  Ir22  1  0.146956  0.146218  0.750200  1
  Ir  Ir23  1  0.147367  0.853869  0.250213  1
  Ir  Ir24  1  0.646218  0.353044  0.750200  1
  Ir  Ir25  1  0.646131  0.647367  0.250213  1
  Ir  Ir26  1  0.353869  0.352633  0.250213  1
  Ir  Ir27  1  0.353782  0.646956  0.750200  1
  Ir  Ir28  1  0.500000  0.000000  0.616239  1
  Ir  Ir29  1  0.000000  0.500000  0.885924  1
  Ir  Ir30  1  0.000000  0.500000  0.385470  1
  Rh  Rh31  1  0.500000  0.000000  0.112541  1
