# generated using pymatgen
data_Y5HoAl24CuRu7
_symmetry_space_group_name_H-M   'P 1'
_cell_length_a   8.81254042
_cell_length_b   8.81253983
_cell_length_c   9.52814751
_cell_angle_alpha   89.74844554
_cell_angle_beta   90.25155318
_cell_angle_gamma   119.72157677
_symmetry_Int_Tables_number   1
_chemical_formula_structural   Y5HoAl24CuRu7
_chemical_formula_sum   'Y5 Ho1 Al24 Cu1 Ru7'
_cell_volume   642.60980011
_cell_formula_units_Z   1
loop_
 _symmetry_equiv_pos_site_id
 _symmetry_equiv_pos_as_xyz
  1  'x, y, z'
loop_
 _atom_site_type_symbol
 _atom_site_label
 _atom_site_symmetry_multiplicity
 _atom_site_fract_x
 _atom_site_fract_y
 _atom_site_fract_z
 _atom_site_occupancy
  Y  Y0  1  0.192001  0.386026  0.248608  1
  Y  Y1  1  0.808028  0.613769  0.751381  1
  Y  Y2  1  0.613974  0.807999  0.248608  1
  Y  Y3  1  0.386231  0.191972  0.751381  1
  Y  Y4  1  0.194370  0.805630  0.251103  1
  Ho  Ho5  1  0.805253  0.194747  0.748793  1
  Al  Al6  1  0.331989  0.668011  0.020236  1
  Al  Al7  1  0.668152  0.331848  0.979366  1
  Al  Al8  1  0.666607  0.333393  0.515958  1
  Al  Al9  1  0.333495  0.666505  0.484361  1
  Al  Al10  1  0.163134  0.324449  0.578170  1
  Al  Al11  1  0.836576  0.675379  0.422117  1
  Al  Al12  1  0.675551  0.836866  0.578170  1
  Al  Al13  1  0.843470  0.676244  0.079159  1
  Al  Al14  1  0.324621  0.163424  0.422117  1
  Al  Al15  1  0.156132  0.323567  0.920539  1
  Al  Al16  1  0.162724  0.837276  0.577823  1
  Al  Al17  1  0.323756  0.156530  0.079159  1
  Al  Al18  1  0.837262  0.162738  0.422537  1
  Al  Al19  1  0.676433  0.843868  0.920539  1
  Al  Al20  1  0.836700  0.163300  0.076498  1
  Al  Al21  1  0.163287  0.836713  0.923118  1
  Al  Al22  1  0.560797  0.122060  0.248358  1
  Al  Al23  1  0.439613  0.878162  0.751669  1
  Al  Al24  1  0.877940  0.439203  0.248358  1
  Al  Al25  1  0.121838  0.560387  0.751669  1
  Al  Al26  1  0.561167  0.438833  0.249927  1
  Al  Al27  1  0.438784  0.561216  0.750033  1
  Al  Al28  1  0.999353  0.000647  0.250119  1
  Al  Al29  1  0.000251  0.999749  0.749861  1
  Cu  Cu30  1  0.500111  0.499889  0.000086  1
  Ru  Ru31  1  0.500261  0.000169  0.999839  1
  Ru  Ru32  1  0.999831  0.499739  0.999839  1
  Ru  Ru33  1  0.500361  0.000172  0.500269  1
  Ru  Ru34  1  0.999828  0.499639  0.500269  1
  Ru  Ru35  1  0.500046  0.499954  0.499970  1
  Ru  Ru36  1  0.000041  0.999959  0.000072  1
  Ru  Ru37  1  0.000032  0.999968  0.499918  1
