# generated using pymatgen
data_Be3AlSiTc
_symmetry_space_group_name_H-M   'P 1'
_cell_length_a   4.42362182
_cell_length_b   4.42362294
_cell_length_c   4.51898905
_cell_angle_alpha   60.69568060
_cell_angle_beta   60.69567826
_cell_angle_gamma   59.99999933
_symmetry_Int_Tables_number   1
_chemical_formula_structural   Be3AlSiTc
_chemical_formula_sum   'Be3 Al1 Si1 Tc1'
_cell_volume   63.17858866
_cell_formula_units_Z   1
loop_
 _symmetry_equiv_pos_site_id
 _symmetry_equiv_pos_as_xyz
  1  'x, y, z'
loop_
 _atom_site_type_symbol
 _atom_site_label
 _atom_site_symmetry_multiplicity
 _atom_site_fract_x
 _atom_site_fract_y
 _atom_site_fract_z
 _atom_site_occupancy
  Be  Be0  1  0.624771  0.127824  0.622635  1
  Be  Be1  1  0.127824  0.624771  0.622635  1
  Be  Be2  1  0.624771  0.624771  0.622635  1
  Al  Al3  1  0.244536  0.244536  0.266393  1
  Si  Si4  1  0.626773  0.626773  0.119682  1
  Tc  Tc5  1  0.001327  0.001327  0.996020  1
