# generated using pymatgen
data_Ho10Sn6PS
_symmetry_space_group_name_H-M   'P 1'
_cell_length_a   9.01734000
_cell_length_b   9.01733992
_cell_length_c   6.68158900
_cell_angle_alpha   90.00000000
_cell_angle_beta   90.00000000
_cell_angle_gamma   119.99999296
_symmetry_Int_Tables_number   1
_chemical_formula_structural   Ho10Sn6PS
_chemical_formula_sum   'Ho10 Sn6 P1 S1'
_cell_volume   470.50831905
_cell_formula_units_Z   1
loop_
 _symmetry_equiv_pos_site_id
 _symmetry_equiv_pos_as_xyz
  1  'x, y, z'
loop_
 _atom_site_type_symbol
 _atom_site_label
 _atom_site_symmetry_multiplicity
 _atom_site_fract_x
 _atom_site_fract_y
 _atom_site_fract_z
 _atom_site_occupancy
  Ho  Ho0  1  0.666667  0.333333  0.000000  1
  Ho  Ho1  1  0.333333  0.666667  0.000000  1
  Ho  Ho2  1  0.333333  0.666667  0.500000  1
  Ho  Ho3  1  0.666667  0.333333  0.500000  1
  Ho  Ho4  1  0.757987  0.757987  0.751474  1
  Ho  Ho5  1  0.242013  0.000000  0.751474  1
  Ho  Ho6  1  0.000000  0.242013  0.751474  1
  Ho  Ho7  1  0.242013  0.242013  0.248526  1
  Ho  Ho8  1  0.757987  0.000000  0.248526  1
  Ho  Ho9  1  0.000000  0.757987  0.248526  1
  Sn  Sn10  1  0.398290  0.398290  0.750014  1
  Sn  Sn11  1  0.601710  0.000000  0.750014  1
  Sn  Sn12  1  0.000000  0.601710  0.750014  1
  Sn  Sn13  1  0.601710  0.601710  0.249986  1
  Sn  Sn14  1  0.398290  0.000000  0.249986  1
  Sn  Sn15  1  0.000000  0.398290  0.249986  1
  P  P16  1  0.000000  0.000000  0.000000  1
  S  S17  1  0.000000  0.000000  0.500000  1
