# generated using pymatgen
data_Tb12InNi4Os
_symmetry_space_group_name_H-M   'P 1'
_cell_length_a   8.35165709
_cell_length_b   8.35287406
_cell_length_c   8.35165594
_cell_angle_alpha   111.68031941
_cell_angle_beta   109.60758195
_cell_angle_gamma   107.15150290
_symmetry_Int_Tables_number   1
_chemical_formula_structural   Tb12InNi4Os
_chemical_formula_sum   'Tb12 In1 Ni4 Os1'
_cell_volume   447.82856767
_cell_formula_units_Z   1
loop_
 _symmetry_equiv_pos_site_id
 _symmetry_equiv_pos_as_xyz
  1  'x, y, z'
loop_
 _atom_site_type_symbol
 _atom_site_label
 _atom_site_symmetry_multiplicity
 _atom_site_fract_x
 _atom_site_fract_y
 _atom_site_fract_z
 _atom_site_occupancy
  Tb  Tb0  1  0.407796  0.217648  0.190087  1
  Tb  Tb1  1  0.592204  0.782352  0.809913  1
  Tb  Tb2  1  0.027561  0.217648  0.809851  1
  Tb  Tb3  1  0.972439  0.782352  0.190149  1
  Tb  Tb4  1  0.179235  0.285713  0.464879  1
  Tb  Tb5  1  0.820765  0.714287  0.535121  1
  Tb  Tb6  1  0.179166  0.714287  0.893522  1
  Tb  Tb7  1  0.820834  0.285713  0.106478  1
  Tb  Tb8  1  0.321249  0.626361  0.305111  1
  Tb  Tb9  1  0.678751  0.373639  0.694889  1
  Tb  Tb10  1  0.321251  0.016170  0.694918  1
  Tb  Tb11  1  0.678749  0.983830  0.305082  1
  In  In12  1  0.500000  0.500000  0.000000  1
  Ni  Ni13  1  0.365522  0.000000  0.365522  1
  Ni  Ni14  1  0.634478  0.000000  0.634478  1
  Ni  Ni15  1  0.120580  0.620512  0.499931  1
  Ni  Ni16  1  0.879420  0.379488  0.500069  1
  Os  Os17  1  0.000000  0.000000  0.000000  1
