# generated using pymatgen
data_KMn3FeO8
_symmetry_space_group_name_H-M   'P 1'
_cell_length_a   7.18978575
_cell_length_b   7.18978611
_cell_length_c   9.98923800
_cell_angle_alpha   46.54854043
_cell_angle_beta   46.54853797
_cell_angle_gamma   23.84667826
_symmetry_Int_Tables_number   1
_chemical_formula_structural   KMn3FeO8
_chemical_formula_sum   'K1 Mn3 Fe1 O8'
_cell_volume   148.49120793
_cell_formula_units_Z   1
loop_
 _symmetry_equiv_pos_site_id
 _symmetry_equiv_pos_as_xyz
  1  'x, y, z'
loop_
 _atom_site_type_symbol
 _atom_site_label
 _atom_site_symmetry_multiplicity
 _atom_site_fract_x
 _atom_site_fract_y
 _atom_site_fract_z
 _atom_site_occupancy
  K  K0  1  0.002079  0.002079  0.998925  1
  Mn  Mn1  1  0.847725  0.847725  0.817339  1
  Mn  Mn2  1  0.664200  0.664200  0.486857  1
  Mn  Mn3  1  0.330480  0.330480  0.518805  1
  Fe  Fe4  1  0.150241  0.150241  0.184990  1
  O  O5  1  0.333957  0.333957  0.707393  1
  O  O6  1  0.668262  0.668262  0.296211  1
  O  O7  1  0.951085  0.951085  0.381780  1
  O  O8  1  0.043672  0.043672  0.623576  1
  O  O9  1  0.353981  0.353981  0.938467  1
  O  O10  1  0.658600  0.658600  0.036612  1
  O  O11  1  0.700423  0.700423  0.647347  1
  O  O12  1  0.295294  0.295294  0.361700  1
