# generated using pymatgen
data_KBa3As8Ir3Ru5
_symmetry_space_group_name_H-M   'P 1'
_cell_length_a   6.99689282
_cell_length_b   9.28388375
_cell_length_c   8.31781551
_cell_angle_alpha   63.54663735
_cell_angle_beta   72.76030853
_cell_angle_gamma   97.64854380
_symmetry_Int_Tables_number   1
_chemical_formula_structural   KBa3As8Ir3Ru5
_chemical_formula_sum   'K1 Ba3 As8 Ir3 Ru5'
_cell_volume   439.23831291
_cell_formula_units_Z   1
loop_
 _symmetry_equiv_pos_site_id
 _symmetry_equiv_pos_as_xyz
  1  'x, y, z'
loop_
 _atom_site_type_symbol
 _atom_site_label
 _atom_site_symmetry_multiplicity
 _atom_site_fract_x
 _atom_site_fract_y
 _atom_site_fract_z
 _atom_site_occupancy
  K  K0  1  0.999686  0.000211  0.999951  1
  Ba  Ba1  1  0.999993  0.492610  0.753407  1
  Ba  Ba2  1  0.000399  0.000192  0.499893  1
  Ba  Ba3  1  0.000947  0.507073  0.246366  1
  As  As4  1  0.295039  0.321665  0.514859  1
  As  As5  1  0.293448  0.323732  0.014706  1
  As  As6  1  0.295676  0.823570  0.264559  1
  As  As7  1  0.295804  0.826795  0.762558  1
  As  As8  1  0.706599  0.675873  0.485801  1
  As  As9  1  0.707030  0.676923  0.984977  1
  As  As10  1  0.703381  0.175962  0.239132  1
  As  As11  1  0.701946  0.175352  0.733866  1
  Ir  Ir12  1  0.500536  0.623648  0.312890  1
  Ir  Ir13  1  0.500750  0.626032  0.811910  1
  Ir  Ir14  1  0.499563  0.125311  0.062649  1
  Ru  Ru15  1  0.498816  0.125203  0.561979  1
  Ru  Ru16  1  0.499381  0.375906  0.688217  1
  Ru  Ru17  1  0.499465  0.376143  0.186100  1
  Ru  Ru18  1  0.500948  0.873881  0.437536  1
  Ru  Ru19  1  0.500594  0.873918  0.938644  1
