# generated using pymatgen
data_Li3Sm(BO3)2
_symmetry_space_group_name_H-M   'P 1'
_cell_length_a   6.44085500
_cell_length_b   8.82925172
_cell_length_c   10.08375200
_cell_angle_alpha   63.13974498
_cell_angle_beta   90.00000000
_cell_angle_gamma   90.00000000
_symmetry_Int_Tables_number   1
_chemical_formula_structural   Li3Sm(BO3)2
_chemical_formula_sum   'Li12 Sm4 B8 O24'
_cell_volume   511.57410077
_cell_formula_units_Z   4
loop_
 _symmetry_equiv_pos_site_id
 _symmetry_equiv_pos_as_xyz
  1  'x, y, z'
loop_
 _atom_site_type_symbol
 _atom_site_label
 _atom_site_symmetry_multiplicity
 _atom_site_fract_x
 _atom_site_fract_y
 _atom_site_fract_z
 _atom_site_occupancy
  Li  Li0  1  0.242416  0.394038  0.978241  1
  Li  Li1  1  0.937534  0.297058  0.165534  1
  Li  Li2  1  0.742416  0.605962  0.521759  1
  Li  Li3  1  0.719880  0.165153  0.041186  1
  Li  Li4  1  0.562466  0.297058  0.665534  1
  Li  Li5  1  0.219880  0.834847  0.458814  1
  Li  Li6  1  0.780120  0.165153  0.541186  1
  Li  Li7  1  0.437534  0.702942  0.334466  1
  Li  Li8  1  0.280120  0.834847  0.958814  1
  Li  Li9  1  0.257584  0.394038  0.478241  1
  Li  Li10  1  0.062466  0.702942  0.834466  1
  Li  Li11  1  0.757584  0.605962  0.021759  1
  Sm  Sm12  1  0.472428  0.182746  0.299469  1
  Sm  Sm13  1  0.027572  0.182746  0.799469  1
  Sm  Sm14  1  0.972428  0.817254  0.200531  1
  Sm  Sm15  1  0.527572  0.817254  0.700531  1
  B  B16  1  0.336440  0.540631  0.676576  1
  B  B17  1  0.836440  0.459369  0.823424  1
  B  B18  1  0.830517  0.949070  0.393773  1
  B  B19  1  0.330517  0.050930  0.106227  1
  B  B20  1  0.669483  0.949070  0.893773  1
  B  B21  1  0.169483  0.050930  0.606227  1
  B  B22  1  0.163560  0.540631  0.176576  1
  B  B23  1  0.663560  0.459369  0.323424  1
  O  O24  1  0.791004  0.616742  0.813750  1
  O  O25  1  0.288679  0.587483  0.787930  1
  O  O26  1  0.438858  0.664388  0.551103  1
  O  O27  1  0.938858  0.335612  0.948897  1
  O  O28  1  0.788679  0.412517  0.712070  1
  O  O29  1  0.717773  0.991696  0.488178  1
  O  O30  1  0.434261  0.202886  0.058398  1
  O  O31  1  0.291004  0.383258  0.686250  1
  O  O32  1  0.824160  0.061233  0.242510  1
  O  O33  1  0.324160  0.938767  0.257490  1
  O  O34  1  0.934261  0.797114  0.441602  1
  O  O35  1  0.217773  0.008304  0.011822  1
  O  O36  1  0.782227  0.991696  0.988178  1
  O  O37  1  0.065739  0.202886  0.558398  1
  O  O38  1  0.675840  0.061233  0.742510  1
  O  O39  1  0.175840  0.938767  0.757490  1
  O  O40  1  0.708996  0.616742  0.313750  1
  O  O41  1  0.565739  0.797114  0.941602  1
  O  O42  1  0.282227  0.008304  0.511822  1
  O  O43  1  0.211321  0.587483  0.287930  1
  O  O44  1  0.061142  0.664388  0.051103  1
  O  O45  1  0.561142  0.335612  0.448897  1
  O  O46  1  0.711321  0.412517  0.212070  1
  O  O47  1  0.208996  0.383258  0.186250  1
