# generated using pymatgen
data_Sr12Ca4Nb7RuO36
_symmetry_space_group_name_H-M   'P 1'
_cell_length_a   5.89029010
_cell_length_b   10.06685910
_cell_length_c   14.33939517
_cell_angle_alpha   89.73731403
_cell_angle_beta   90.02025705
_cell_angle_gamma   90.06738242
_symmetry_Int_Tables_number   1
_chemical_formula_structural   Sr12Ca4Nb7RuO36
_chemical_formula_sum   'Sr12 Ca4 Nb7 Ru1 O36'
_cell_volume   850.26953109
_cell_formula_units_Z   1
loop_
 _symmetry_equiv_pos_site_id
 _symmetry_equiv_pos_as_xyz
  1  'x, y, z'
loop_
 _atom_site_type_symbol
 _atom_site_label
 _atom_site_symmetry_multiplicity
 _atom_site_fract_x
 _atom_site_fract_y
 _atom_site_fract_z
 _atom_site_occupancy
  Sr  Sr0  1  0.538609  0.833250  0.414133  1
  Sr  Sr1  1  0.537686  0.493381  0.752970  1
  Sr  Sr2  1  0.960338  0.335071  0.413205  1
  Sr  Sr3  1  0.463538  0.834469  0.909572  1
  Sr  Sr4  1  0.539905  0.170675  0.092146  1
  Sr  Sr5  1  0.038284  0.010638  0.245365  1
  Sr  Sr6  1  0.035016  0.334356  0.912610  1
  Sr  Sr7  1  0.961954  0.993724  0.753029  1
  Sr  Sr8  1  0.459559  0.166390  0.585161  1
  Sr  Sr9  1  0.039940  0.665395  0.584942  1
  Sr  Sr10  1  0.459815  0.503813  0.245837  1
  Sr  Sr11  1  0.962348  0.661120  0.091639  1
  Ca  Ca12  1  0.499407  0.499123  0.000092  1
  Ca  Ca13  1  0.999517  0.000201  0.499809  1
  Ca  Ca14  1  0.499977  0.500030  0.499813  1
  Ca  Ca15  1  0.000442  0.000791  0.000889  1
  Nb  Nb16  1  0.504774  0.829878  0.663058  1
  Nb  Nb17  1  0.994972  0.329913  0.663465  1
  Nb  Nb18  1  0.495563  0.163517  0.836351  1
  Nb  Nb19  1  0.003491  0.671402  0.335548  1
  Nb  Nb20  1  0.003999  0.663439  0.836660  1
  Nb  Nb21  1  0.494024  0.170888  0.336439  1
  Nb  Nb22  1  0.503868  0.837168  0.163179  1
  Ru  Ru23  1  0.996027  0.337088  0.167690  1
  O  O24  1  0.023311  0.791617  0.937069  1
  O  O25  1  0.813317  0.602733  0.435686  1
  O  O26  1  0.779369  0.864253  0.591781  1
  O  O27  1  0.779808  0.261137  0.775425  1
  O  O28  1  0.785644  0.216523  0.247947  1
  O  O29  1  0.195993  0.449150  0.094778  1
  O  O30  1  0.696986  0.045619  0.905690  1
  O  O31  1  0.518180  0.018081  0.724979  1
  O  O32  1  0.720981  0.761131  0.775020  1
  O  O33  1  0.220636  0.136057  0.407612  1
  O  O34  1  0.687919  0.104078  0.435565  1
  O  O35  1  0.026489  0.147537  0.620256  1
  O  O36  1  0.978734  0.207989  0.068663  1
  O  O37  1  0.731736  0.427221  0.119444  1
  O  O38  1  0.016545  0.480804  0.271965  1
  O  O39  1  0.476843  0.292062  0.936272  1
  O  O40  1  0.982120  0.518478  0.725137  1
  O  O41  1  0.712676  0.713009  0.249186  1
  O  O42  1  0.306670  0.956181  0.094089  1
  O  O43  1  0.274890  0.570353  0.879309  1
  O  O44  1  0.277722  0.240985  0.225240  1
  O  O45  1  0.527670  0.352931  0.379696  1
  O  O46  1  0.214184  0.785816  0.751320  1
  O  O47  1  0.220406  0.739410  0.224545  1
  O  O48  1  0.521684  0.706677  0.064125  1
  O  O49  1  0.777184  0.927659  0.121783  1
  O  O50  1  0.482260  0.982900  0.274558  1
  O  O51  1  0.186863  0.396731  0.563296  1
  O  O52  1  0.472457  0.647649  0.620190  1
  O  O53  1  0.719775  0.364682  0.592738  1
  O  O54  1  0.973617  0.852607  0.378515  1
  O  O55  1  0.278643  0.634059  0.406336  1
  O  O56  1  0.286879  0.285698  0.750741  1
  O  O57  1  0.223947  0.070912  0.878725  1
  O  O58  1  0.312163  0.896601  0.563119  1
  O  O59  1  0.802645  0.544949  0.905602  1
