# generated using pymatgen
data_Nd4Al18Ir5Pt
_symmetry_space_group_name_H-M   'P 1'
_cell_length_a   7.62256422
_cell_length_b   7.62256410
_cell_length_c   9.58287904
_cell_angle_alpha   90.02691573
_cell_angle_beta   90.02691578
_cell_angle_gamma   119.42128465
_symmetry_Int_Tables_number   1
_chemical_formula_structural   Nd4Al18Ir5Pt
_chemical_formula_sum   'Nd4 Al18 Ir5 Pt1'
_cell_volume   484.98890060
_cell_formula_units_Z   1
loop_
 _symmetry_equiv_pos_site_id
 _symmetry_equiv_pos_as_xyz
  1  'x, y, z'
loop_
 _atom_site_type_symbol
 _atom_site_label
 _atom_site_symmetry_multiplicity
 _atom_site_fract_x
 _atom_site_fract_y
 _atom_site_fract_z
 _atom_site_occupancy
  Nd  Nd0  1  0.994262  0.669165  0.250042  1
  Nd  Nd1  1  0.004790  0.330257  0.750047  1
  Nd  Nd2  1  0.669743  0.995210  0.249953  1
  Nd  Nd3  1  0.330835  0.005738  0.749958  1
  Al  Al4  1  0.129699  0.128919  0.250307  1
  Al  Al5  1  0.871081  0.870301  0.749693  1
  Al  Al6  1  0.005546  0.334883  0.074540  1
  Al  Al7  1  0.000900  0.668726  0.925680  1
  Al  Al8  1  0.998175  0.665048  0.572377  1
  Al  Al9  1  0.334952  0.001825  0.427623  1
  Al  Al10  1  0.002158  0.334570  0.427240  1
  Al  Al11  1  0.665430  0.997842  0.572760  1
  Al  Al12  1  0.665117  0.994454  0.925460  1
  Al  Al13  1  0.331274  0.999100  0.074320  1
  Al  Al14  1  0.333832  0.333913  0.548544  1
  Al  Al15  1  0.666087  0.666168  0.451456  1
  Al  Al16  1  0.665331  0.668214  0.050803  1
  Al  Al17  1  0.331786  0.334669  0.949197  1
  Al  Al18  1  0.340256  0.546910  0.250136  1
  Al  Al19  1  0.660131  0.455110  0.747338  1
  Al  Al20  1  0.544890  0.339869  0.252662  1
  Al  Al21  1  0.453090  0.659744  0.749864  1
  Ir  Ir22  1  0.328992  0.671008  0.000000  1
  Ir  Ir23  1  0.329206  0.670794  0.500000  1
  Ir  Ir24  1  0.671055  0.328945  0.500000  1
  Ir  Ir25  1  0.999889  0.000111  0.000000  1
  Ir  Ir26  1  0.000139  0.999861  0.500000  1
  Pt  Pt27  1  0.671355  0.328645  0.000000  1
