# generated using pymatgen
data_Ca3Pr17(Ga5Sb)2
_symmetry_space_group_name_H-M   'P 1'
_cell_length_a   7.99950200
_cell_length_b   7.99950200
_cell_length_c   14.77031000
_cell_angle_alpha   90.00000000
_cell_angle_beta   90.00000000
_cell_angle_gamma   90.00000000
_symmetry_Int_Tables_number   1
_chemical_formula_structural   Ca3Pr17(Ga5Sb)2
_chemical_formula_sum   'Ca3 Pr17 Ga10 Sb2'
_cell_volume   945.18215383
_cell_formula_units_Z   1
loop_
 _symmetry_equiv_pos_site_id
 _symmetry_equiv_pos_as_xyz
  1  'x, y, z'
loop_
 _atom_site_type_symbol
 _atom_site_label
 _atom_site_symmetry_multiplicity
 _atom_site_fract_x
 _atom_site_fract_y
 _atom_site_fract_z
 _atom_site_occupancy
  Ca  Ca0  1  0.000000  0.500000  0.746221  1
  Ca  Ca1  1  0.000000  0.500000  0.235076  1
  Ca  Ca2  1  0.500000  0.000000  0.245917  1
  Pr  Pr3  1  0.823157  0.835581  0.608024  1
  Pr  Pr4  1  0.174553  0.832969  0.100491  1
  Pr  Pr5  1  0.165773  0.828141  0.391953  1
  Pr  Pr6  1  0.834227  0.171859  0.391953  1
  Pr  Pr7  1  0.671859  0.665773  0.391953  1
  Pr  Pr8  1  0.664419  0.323157  0.608024  1
  Pr  Pr9  1  0.335581  0.676843  0.608024  1
  Pr  Pr10  1  0.667031  0.674553  0.100491  1
  Pr  Pr11  1  0.677893  0.340711  0.898161  1
  Pr  Pr12  1  0.840711  0.822107  0.898161  1
  Pr  Pr13  1  0.328141  0.334227  0.391953  1
  Pr  Pr14  1  0.176843  0.164419  0.608024  1
  Pr  Pr15  1  0.825447  0.167031  0.100491  1
  Pr  Pr16  1  0.322107  0.659289  0.898161  1
  Pr  Pr17  1  0.332969  0.325447  0.100491  1
  Pr  Pr18  1  0.159289  0.177893  0.898161  1
  Pr  Pr19  1  0.500000  0.000000  0.790874  1
  Ga  Ga20  1  0.619954  0.381382  0.247972  1
  Ga  Ga21  1  0.121177  0.879851  0.749291  1
  Ga  Ga22  1  0.379851  0.378823  0.749291  1
  Ga  Ga23  1  0.380046  0.618618  0.247972  1
  Ga  Ga24  1  0.881382  0.880046  0.247972  1
  Ga  Ga25  1  0.620149  0.621177  0.749291  1
  Ga  Ga26  1  0.878823  0.120149  0.749291  1
  Ga  Ga27  1  0.500000  0.000000  0.002145  1
  Ga  Ga28  1  0.118618  0.119954  0.247972  1
  Ga  Ga29  1  0.000000  0.500000  0.002058  1
  Sb  Sb30  1  0.000000  0.500000  0.504202  1
  Sb  Sb31  1  0.500000  0.000000  0.489944  1
