# generated using pymatgen
data_DyScP7Ru12
_symmetry_space_group_name_H-M   'P 1'
_cell_length_a   9.38814300
_cell_length_b   9.38814196
_cell_length_c   3.93126200
_cell_angle_alpha   90.00000000
_cell_angle_beta   90.00000000
_cell_angle_gamma   119.99999309
_symmetry_Int_Tables_number   1
_chemical_formula_structural   DyScP7Ru12
_chemical_formula_sum   'Dy1 Sc1 P7 Ru12'
_cell_volume   300.06959677
_cell_formula_units_Z   1
loop_
 _symmetry_equiv_pos_site_id
 _symmetry_equiv_pos_as_xyz
  1  'x, y, z'
loop_
 _atom_site_type_symbol
 _atom_site_label
 _atom_site_symmetry_multiplicity
 _atom_site_fract_x
 _atom_site_fract_y
 _atom_site_fract_z
 _atom_site_occupancy
  Dy  Dy0  1  0.333333  0.666667  0.000000  1
  Sc  Sc1  1  0.666667  0.333333  0.500000  1
  P  P2  1  0.600158  0.718439  0.500000  1
  P  P3  1  0.000000  0.000000  0.000000  1
  P  P4  1  0.281561  0.881719  0.500000  1
  P  P5  1  0.118281  0.399842  0.500000  1
  P  P6  1  0.882881  0.571797  0.000000  1
  P  P7  1  0.428203  0.311084  0.000000  1
  P  P8  1  0.688916  0.117119  0.000000  1
  Ru  Ru9  1  0.556993  0.951924  0.500000  1
  Ru  Ru10  1  0.394932  0.443007  0.500000  1
  Ru  Ru11  1  0.914379  0.121497  0.500000  1
  Ru  Ru12  1  0.207119  0.085621  0.500000  1
  Ru  Ru13  1  0.878503  0.792881  0.500000  1
  Ru  Ru14  1  0.726880  0.891565  0.000000  1
  Ru  Ru15  1  0.108435  0.835314  0.000000  1
  Ru  Ru16  1  0.164686  0.273120  0.000000  1
  Ru  Ru17  1  0.425986  0.069537  0.000000  1
  Ru  Ru18  1  0.930463  0.356449  0.000000  1
  Ru  Ru19  1  0.643551  0.574014  0.000000  1
  Ru  Ru20  1  0.048076  0.605068  0.500000  1
