# generated using pymatgen
data_Tm5Lu(Sc2Pb3)2
_symmetry_space_group_name_H-M   'P 1'
_cell_length_a   8.81033800
_cell_length_b   8.80570645
_cell_length_c   6.31938500
_cell_angle_alpha   90.00000000
_cell_angle_beta   90.00000000
_cell_angle_gamma   120.01740053
_symmetry_Int_Tables_number   1
_chemical_formula_structural   Tm5Lu(Sc2Pb3)2
_chemical_formula_sum   'Tm5 Lu1 Sc4 Pb6'
_cell_volume   424.50816180
_cell_formula_units_Z   1
loop_
 _symmetry_equiv_pos_site_id
 _symmetry_equiv_pos_as_xyz
  1  'x, y, z'
loop_
 _atom_site_type_symbol
 _atom_site_label
 _atom_site_symmetry_multiplicity
 _atom_site_fract_x
 _atom_site_fract_y
 _atom_site_fract_z
 _atom_site_occupancy
  Tm  Tm0  1  0.237291  0.000000  0.250000  1
  Tm  Tm1  1  0.236816  0.236936  0.750000  1
  Tm  Tm2  1  0.999880  0.763064  0.750000  1
  Tm  Tm3  1  0.999852  0.236803  0.250000  1
  Tm  Tm4  1  0.763049  0.763197  0.250000  1
  Lu  Lu5  1  0.763144  0.000000  0.750000  1
  Sc  Sc6  1  0.333321  0.666613  0.999948  1
  Sc  Sc7  1  0.666709  0.333387  0.500052  1
  Sc  Sc8  1  0.666709  0.333387  0.999948  1
  Sc  Sc9  1  0.333321  0.666613  0.500052  1
  Pb  Pb10  1  0.601073  0.000000  0.250000  1
  Pb  Pb11  1  0.601326  0.601819  0.750000  1
  Pb  Pb12  1  0.999507  0.398181  0.750000  1
  Pb  Pb13  1  0.999966  0.601185  0.250000  1
  Pb  Pb14  1  0.398781  0.398815  0.250000  1
  Pb  Pb15  1  0.399253  0.000000  0.750000  1
