# generated using pymatgen
data_Ca7Pr5(GaRh)8
_symmetry_space_group_name_H-M   'P 1'
_cell_length_a   5.74684460
_cell_length_b   7.96806191
_cell_length_c   13.95244910
_cell_angle_alpha   90.10225329
_cell_angle_beta   90.06970331
_cell_angle_gamma   90.04878333
_symmetry_Int_Tables_number   1
_chemical_formula_structural   Ca7Pr5(GaRh)8
_chemical_formula_sum   'Ca7 Pr5 Ga8 Rh8'
_cell_volume   638.89785250
_cell_formula_units_Z   1
loop_
 _symmetry_equiv_pos_site_id
 _symmetry_equiv_pos_as_xyz
  1  'x, y, z'
loop_
 _atom_site_type_symbol
 _atom_site_label
 _atom_site_symmetry_multiplicity
 _atom_site_fract_x
 _atom_site_fract_y
 _atom_site_fract_z
 _atom_site_occupancy
  Ca  Ca0  1  0.853132  0.393882  0.900512  1
  Ca  Ca1  1  0.854147  0.104239  0.097737  1
  Ca  Ca2  1  0.146956  0.893731  0.600372  1
  Ca  Ca3  1  0.145365  0.609443  0.401707  1
  Ca  Ca4  1  0.369935  0.246031  0.749998  1
  Ca  Ca5  1  0.628290  0.751844  0.249859  1
  Ca  Ca6  1  0.629833  0.746173  0.750061  1
  Pr  Pr7  1  0.142092  0.603026  0.094023  1
  Pr  Pr8  1  0.145357  0.899985  0.904266  1
  Pr  Pr9  1  0.855847  0.097647  0.406441  1
  Pr  Pr10  1  0.853612  0.401891  0.594682  1
  Pr  Pr11  1  0.377158  0.252794  0.248675  1
  Ga  Ga12  1  0.390482  0.250292  0.998981  1
  Ga  Ga13  1  0.609523  0.750222  0.499909  1
  Ga  Ga14  1  0.626165  0.750501  0.000853  1
  Ga  Ga15  1  0.374012  0.250701  0.501489  1
  Ga  Ga16  1  0.867169  0.407034  0.251371  1
  Ga  Ga17  1  0.853114  0.093015  0.748556  1
  Ga  Ga18  1  0.142468  0.901213  0.248595  1
  Ga  Ga19  1  0.148002  0.592148  0.751565  1
  Rh  Rh20  1  0.631933  0.469750  0.096449  1
  Rh  Rh21  1  0.636722  0.027307  0.905183  1
  Rh  Rh22  1  0.361597  0.975777  0.404446  1
  Rh  Rh23  1  0.362095  0.529404  0.593717  1
  Rh  Rh24  1  0.355815  0.534452  0.910772  1
  Rh  Rh25  1  0.353243  0.969274  0.091014  1
  Rh  Rh26  1  0.644595  0.033890  0.590130  1
  Rh  Rh27  1  0.641342  0.464336  0.408637  1
