# generated using pymatgen
data_Ho2NbIrRu2
_symmetry_space_group_name_H-M   'P 1'
_cell_length_a   5.66007412
_cell_length_b   5.66249908
_cell_length_c   8.16445500
_cell_angle_alpha   90.00000000
_cell_angle_beta   90.00000000
_cell_angle_gamma   120.01411110
_symmetry_Int_Tables_number   1
_chemical_formula_structural   Ho2NbIrRu2
_chemical_formula_sum   'Ho4 Nb2 Ir2 Ru4'
_cell_volume   226.58247842
_cell_formula_units_Z   2
loop_
 _symmetry_equiv_pos_site_id
 _symmetry_equiv_pos_as_xyz
  1  'x, y, z'
loop_
 _atom_site_type_symbol
 _atom_site_label
 _atom_site_symmetry_multiplicity
 _atom_site_fract_x
 _atom_site_fract_y
 _atom_site_fract_z
 _atom_site_occupancy
  Ho  Ho0  1  0.666618  0.333325  0.562953  1
  Ho  Ho1  1  0.333176  0.666572  0.440345  1
  Ho  Ho2  1  0.333176  0.666572  0.059655  1
  Ho  Ho3  1  0.666618  0.333325  0.937047  1
  Nb  Nb4  1  0.996931  0.998465  0.494725  1
  Nb  Nb5  1  0.996931  0.998465  0.005275  1
  Ir  Ir6  1  0.173982  0.344342  0.750000  1
  Ir  Ir7  1  0.174006  0.829681  0.750000  1
  Ru  Ru8  1  0.660323  0.830180  0.750000  1
  Ru  Ru9  1  0.825273  0.651374  0.250000  1
  Ru  Ru10  1  0.825238  0.173860  0.250000  1
  Ru  Ru11  1  0.347730  0.173838  0.250000  1
