# generated using pymatgen
data_YHo15In2(Co2Ag)2
_symmetry_space_group_name_H-M   'P 1'
_cell_length_a   9.42465034
_cell_length_b   9.41962488
_cell_length_c   9.43779439
_cell_angle_alpha   59.92279695
_cell_angle_beta   59.92146847
_cell_angle_gamma   60.07277429
_symmetry_Int_Tables_number   1
_chemical_formula_structural   YHo15In2(Co2Ag)2
_chemical_formula_sum   'Y1 Ho15 In2 Co4 Ag2'
_cell_volume   592.07938448
_cell_formula_units_Z   1
loop_
 _symmetry_equiv_pos_site_id
 _symmetry_equiv_pos_as_xyz
  1  'x, y, z'
loop_
 _atom_site_type_symbol
 _atom_site_label
 _atom_site_symmetry_multiplicity
 _atom_site_fract_x
 _atom_site_fract_y
 _atom_site_fract_z
 _atom_site_occupancy
  Y  Y0  1  0.187796  0.188209  0.812729  1
  Ho  Ho1  1  0.596205  0.596766  0.207301  1
  Ho  Ho2  1  0.438515  0.060535  0.439905  1
  Ho  Ho3  1  0.439530  0.438966  0.059536  1
  Ho  Ho4  1  0.810999  0.184732  0.812867  1
  Ho  Ho5  1  0.183976  0.809507  0.191611  1
  Ho  Ho6  1  0.438334  0.060681  0.059759  1
  Ho  Ho7  1  0.184429  0.811222  0.813441  1
  Ho  Ho8  1  0.060654  0.438408  0.060006  1
  Ho  Ho9  1  0.808381  0.807183  0.192643  1
  Ho  Ho10  1  0.209449  0.599335  0.597163  1
  Ho  Ho11  1  0.060195  0.438490  0.439551  1
  Ho  Ho12  1  0.061543  0.062293  0.434368  1
  Ho  Ho13  1  0.809371  0.184262  0.192085  1
  Ho  Ho14  1  0.599161  0.209369  0.597988  1
  Ho  Ho15  1  0.595835  0.595575  0.600470  1
  In  In16  1  0.509064  0.832573  0.828600  1
  In  In17  1  0.832712  0.508754  0.828662  1
  Co  Co18  1  0.394602  0.827219  0.391203  1
  Co  Co19  1  0.392107  0.391940  0.389926  1
  Co  Co20  1  0.827578  0.394582  0.391044  1
  Co  Co21  1  0.391585  0.391685  0.829577  1
  Ag  Ag22  1  0.833522  0.833365  0.828509  1
  Ag  Ag23  1  0.834458  0.834349  0.501057  1
