# generated using pymatgen
data_Ta(MoAs)4
_symmetry_space_group_name_H-M   'P 1'
_cell_length_a   7.08097696
_cell_length_b   7.08097771
_cell_length_c   7.10114590
_cell_angle_alpha   93.14273349
_cell_angle_beta   93.13348571
_cell_angle_gamma   152.89867327
_symmetry_Int_Tables_number   1
_chemical_formula_structural   Ta(MoAs)4
_chemical_formula_sum   'Ta1 Mo4 As4'
_cell_volume   157.71622010
_cell_formula_units_Z   1
loop_
 _symmetry_equiv_pos_site_id
 _symmetry_equiv_pos_as_xyz
  1  'x, y, z'
loop_
 _atom_site_type_symbol
 _atom_site_label
 _atom_site_symmetry_multiplicity
 _atom_site_fract_x
 _atom_site_fract_y
 _atom_site_fract_z
 _atom_site_occupancy
  Ta  Ta0  1  0.000000  0.000000  0.000000  1
  Mo  Mo1  1  0.378663  0.298055  0.676719  1
  Mo  Mo2  1  0.298041  0.621343  0.919384  1
  Mo  Mo3  1  0.701959  0.378657  0.080616  1
  Mo  Mo4  1  0.621337  0.701945  0.323281  1
  As  As5  1  0.285721  0.057597  0.343319  1
  As  As6  1  0.057793  0.714236  0.772028  1
  As  As7  1  0.942207  0.285764  0.227972  1
  As  As8  1  0.714279  0.942403  0.656681  1
