# generated using pymatgen
data_Tm2Pa2Tc7Os
_symmetry_space_group_name_H-M   'P 1'
_cell_length_a   5.22769000
_cell_length_b   5.22768920
_cell_length_c   9.25196900
_cell_angle_alpha   90.00000000
_cell_angle_beta   90.00000000
_cell_angle_gamma   119.99999239
_symmetry_Int_Tables_number   1
_chemical_formula_structural   Tm2Pa2Tc7Os
_chemical_formula_sum   'Tm2 Pa2 Tc7 Os1'
_cell_volume   218.96990002
_cell_formula_units_Z   1
loop_
 _symmetry_equiv_pos_site_id
 _symmetry_equiv_pos_as_xyz
  1  'x, y, z'
loop_
 _atom_site_type_symbol
 _atom_site_label
 _atom_site_symmetry_multiplicity
 _atom_site_fract_x
 _atom_site_fract_y
 _atom_site_fract_z
 _atom_site_occupancy
  Tm  Tm0  1  0.666667  0.333333  0.935812  1
  Tm  Tm1  1  0.333333  0.666667  0.064188  1
  Pa  Pa2  1  0.333333  0.666667  0.440095  1
  Pa  Pa3  1  0.666667  0.333333  0.559905  1
  Tc  Tc4  1  0.000000  0.000000  0.500000  1
  Tc  Tc5  1  0.829351  0.170649  0.245270  1
  Tc  Tc6  1  0.829351  0.658702  0.245270  1
  Tc  Tc7  1  0.341298  0.170649  0.245270  1
  Tc  Tc8  1  0.170649  0.829351  0.754730  1
  Tc  Tc9  1  0.170649  0.341298  0.754730  1
  Tc  Tc10  1  0.658702  0.829351  0.754730  1
  Os  Os11  1  0.000000  0.000000  0.000000  1
