# generated using pymatgen
data_Dy3Mg2TiIr3
_symmetry_space_group_name_H-M   'P 1'
_cell_length_a   7.02932000
_cell_length_b   7.22306304
_cell_length_c   4.18625400
_cell_angle_alpha   90.00000000
_cell_angle_beta   90.00000000
_cell_angle_gamma   119.11661356
_symmetry_Int_Tables_number   1
_chemical_formula_structural   Dy3Mg2TiIr3
_chemical_formula_sum   'Dy3 Mg2 Ti1 Ir3'
_cell_volume   185.68995665
_cell_formula_units_Z   1
loop_
 _symmetry_equiv_pos_site_id
 _symmetry_equiv_pos_as_xyz
  1  'x, y, z'
loop_
 _atom_site_type_symbol
 _atom_site_label
 _atom_site_symmetry_multiplicity
 _atom_site_fract_x
 _atom_site_fract_y
 _atom_site_fract_z
 _atom_site_occupancy
  Dy  Dy0  1  0.408401  0.000000  0.500001  1
  Dy  Dy1  1  0.999918  0.414111  0.500001  1
  Dy  Dy2  1  0.585807  0.585889  0.500001  1
  Mg  Mg3  1  0.245201  0.245668  0.000000  1
  Mg  Mg4  1  0.999534  0.754332  0.000000  1
  Ti  Ti5  1  0.755951  0.000000  0.000000  1
  Ir  Ir6  1  0.677126  0.315245  0.000000  1
  Ir  Ir7  1  0.361881  0.684755  0.000000  1
  Ir  Ir8  1  0.966182  0.000000  0.500001  1
