# generated using pymatgen
data_La3Y3(SiPd5)2
_symmetry_space_group_name_H-M   'P 1'
_cell_length_a   8.43076870
_cell_length_b   8.37206345
_cell_length_c   8.37206405
_cell_angle_alpha   127.59866648
_cell_angle_beta   126.13576238
_cell_angle_gamma   78.31434169
_symmetry_Int_Tables_number   1
_chemical_formula_structural   La3Y3(SiPd5)2
_chemical_formula_sum   'La3 Y3 Si2 Pd10'
_cell_volume   366.52653180
_cell_formula_units_Z   1
loop_
 _symmetry_equiv_pos_site_id
 _symmetry_equiv_pos_as_xyz
  1  'x, y, z'
loop_
 _atom_site_type_symbol
 _atom_site_label
 _atom_site_symmetry_multiplicity
 _atom_site_fract_x
 _atom_site_fract_y
 _atom_site_fract_z
 _atom_site_occupancy
  La  La0  1  0.379946  0.248851  0.131096  1
  La  La1  1  0.774527  0.549892  0.224634  1
  La  La2  1  0.617813  0.750223  0.867590  1
  Y  Y3  1  0.821793  0.048537  0.773256  1
  Y  Y4  1  0.218041  0.449532  0.768510  1
  Y  Y5  1  0.177106  0.950464  0.226642  1
  Si  Si6  1  0.214976  0.751055  0.463920  1
  Si  Si7  1  0.786915  0.249376  0.537538  1
  Pd  Pd8  1  0.837991  0.599461  0.647122  1
  Pd  Pd9  1  0.542844  0.303848  0.637412  1
  Pd  Pd10  1  0.452393  0.095147  0.757105  1
  Pd  Pd11  1  0.837991  0.190869  0.238531  1
  Pd  Pd12  1  0.165559  0.401627  0.357774  1
  Pd  Pd13  1  0.452393  0.695288  0.357246  1
  Pd  Pd14  1  0.542844  0.905432  0.238996  1
  Pd  Pd15  1  0.165559  0.807784  0.763932  1
  Pd  Pd16  1  0.005654  0.006676  0.509719  1
  Pd  Pd17  1  0.005654  0.495936  0.998978  1
