# generated using pymatgen
data_Hf2Zr7ScSn6
_symmetry_space_group_name_H-M   'P 1'
_cell_length_a   8.52734309
_cell_length_b   8.52734450
_cell_length_c   5.80750700
_cell_angle_alpha   89.99922411
_cell_angle_beta   89.99922248
_cell_angle_gamma   119.95131122
_symmetry_Int_Tables_number   1
_chemical_formula_structural   Hf2Zr7ScSn6
_chemical_formula_sum   'Hf2 Zr7 Sc1 Sn6'
_cell_volume   365.89863022
_cell_formula_units_Z   1
loop_
 _symmetry_equiv_pos_site_id
 _symmetry_equiv_pos_as_xyz
  1  'x, y, z'
loop_
 _atom_site_type_symbol
 _atom_site_label
 _atom_site_symmetry_multiplicity
 _atom_site_fract_x
 _atom_site_fract_y
 _atom_site_fract_z
 _atom_site_occupancy
  Hf  Hf0  1  0.331054  0.665730  0.499772  1
  Hf  Hf1  1  0.665730  0.331054  0.499772  1
  Zr  Zr2  1  0.248362  0.001499  0.750652  1
  Zr  Zr3  1  0.001499  0.248362  0.750652  1
  Zr  Zr4  1  0.244368  0.244368  0.249393  1
  Zr  Zr5  1  0.754909  0.000280  0.249285  1
  Zr  Zr6  1  0.000280  0.754909  0.249285  1
  Zr  Zr7  1  0.665914  0.331401  0.000439  1
  Zr  Zr8  1  0.331401  0.665914  0.000439  1
  Sc  Sc9  1  0.755734  0.755734  0.750642  1
  Sn  Sn10  1  0.394605  0.394605  0.747874  1
  Sn  Sn11  1  0.608385  0.997734  0.747919  1
  Sn  Sn12  1  0.997734  0.608385  0.747919  1
  Sn  Sn13  1  0.607776  0.607776  0.252205  1
  Sn  Sn14  1  0.392572  0.999679  0.251877  1
  Sn  Sn15  1  0.999679  0.392572  0.251877  1
