# generated using pymatgen
data_TbGd8Ho(SiB4)4
_symmetry_space_group_name_H-M   'P 1'
_cell_length_a   7.26449600
_cell_length_b   7.26449600
_cell_length_c   8.17991400
_cell_angle_alpha   90.00000000
_cell_angle_beta   90.00000000
_cell_angle_gamma   90.00000000
_symmetry_Int_Tables_number   1
_chemical_formula_structural   TbGd8Ho(SiB4)4
_chemical_formula_sum   'Tb1 Gd8 Ho1 Si4 B16'
_cell_volume   431.67780099
_cell_formula_units_Z   1
loop_
 _symmetry_equiv_pos_site_id
 _symmetry_equiv_pos_as_xyz
  1  'x, y, z'
loop_
 _atom_site_type_symbol
 _atom_site_label
 _atom_site_symmetry_multiplicity
 _atom_site_fract_x
 _atom_site_fract_y
 _atom_site_fract_z
 _atom_site_occupancy
  Tb  Tb0  1  0.000000  0.000000  0.500000  1
  Gd  Gd1  1  0.680098  0.180223  0.225282  1
  Gd  Gd2  1  0.319902  0.819777  0.774718  1
  Gd  Gd3  1  0.319902  0.819777  0.225282  1
  Gd  Gd4  1  0.819777  0.680098  0.225282  1
  Gd  Gd5  1  0.819777  0.680098  0.774718  1
  Gd  Gd6  1  0.680098  0.180223  0.774718  1
  Gd  Gd7  1  0.180223  0.319902  0.774718  1
  Gd  Gd8  1  0.180223  0.319902  0.225282  1
  Ho  Ho9  1  0.500000  0.500000  0.500000  1
  Si  Si10  1  0.115451  0.613800  0.500000  1
  Si  Si11  1  0.884549  0.386200  0.500000  1
  Si  Si12  1  0.386200  0.115451  0.500000  1
  Si  Si13  1  0.613800  0.884549  0.500000  1
  B  B14  1  0.172488  0.039293  0.000000  1
  B  B15  1  0.827512  0.960707  0.000000  1
  B  B16  1  0.960707  0.172488  0.000000  1
  B  B17  1  0.327503  0.539234  0.000000  1
  B  B18  1  0.039293  0.827512  0.000000  1
  B  B19  1  0.672497  0.460766  0.000000  1
  B  B20  1  0.539234  0.672497  0.000000  1
  B  B21  1  0.460766  0.327503  0.000000  1
  B  B22  1  0.090009  0.590040  0.000000  1
  B  B23  1  0.909991  0.409960  0.000000  1
  B  B24  1  0.409960  0.090009  0.000000  1
  B  B25  1  0.590040  0.909991  0.000000  1
  B  B26  1  0.000000  0.000000  0.159633  1
  B  B27  1  0.000000  0.000000  0.840367  1
  B  B28  1  0.500000  0.500000  0.840038  1
  B  B29  1  0.500000  0.500000  0.159962  1
