# generated using pymatgen
data_Dy12Co4TcBi
_symmetry_space_group_name_H-M   'P 1'
_cell_length_a   8.35040883
_cell_length_b   8.35040893
_cell_length_c   8.35040845
_cell_angle_alpha   111.63239077
_cell_angle_beta   110.40248019
_cell_angle_gamma   106.42364592
_symmetry_Int_Tables_number   1
_chemical_formula_structural   Dy12Co4TcBi
_chemical_formula_sum   'Dy12 Co4 Tc1 Bi1'
_cell_volume   447.23113662
_cell_formula_units_Z   1
loop_
 _symmetry_equiv_pos_site_id
 _symmetry_equiv_pos_as_xyz
  1  'x, y, z'
loop_
 _atom_site_type_symbol
 _atom_site_label
 _atom_site_symmetry_multiplicity
 _atom_site_fract_x
 _atom_site_fract_y
 _atom_site_fract_z
 _atom_site_occupancy
  Dy  Dy0  1  0.817731  0.715621  0.533352  1
  Dy  Dy1  1  0.182269  0.284379  0.466648  1
  Dy  Dy2  1  0.182269  0.715621  0.897889  1
  Dy  Dy3  1  0.817731  0.284379  0.102111  1
  Dy  Dy4  1  0.689464  0.380569  0.691105  1
  Dy  Dy5  1  0.310536  0.619431  0.308895  1
  Dy  Dy6  1  0.689464  0.998359  0.308895  1
  Dy  Dy7  1  0.310536  0.001641  0.691105  1
  Dy  Dy8  1  0.590888  0.787109  0.803779  1
  Dy  Dy9  1  0.409112  0.212891  0.196221  1
  Dy  Dy10  1  0.983330  0.787109  0.196221  1
  Dy  Dy11  1  0.016670  0.212891  0.803779  1
  Co  Co12  1  0.621425  0.000000  0.621425  1
  Co  Co13  1  0.378575  0.000000  0.378575  1
  Co  Co14  1  0.110636  0.610636  0.500000  1
  Co  Co15  1  0.889364  0.389364  0.500000  1
  Tc  Tc16  1  0.000000  0.000000  0.000000  1
  Bi  Bi17  1  0.500000  0.500000  0.000000  1
