# generated using pymatgen
data_Ta3Co2Re(NiB2)2
_symmetry_space_group_name_H-M   'P 1'
_cell_length_a   3.30111000
_cell_length_b   5.80162623
_cell_length_c   6.74997440
_cell_angle_alpha   89.24059804
_cell_angle_beta   90.00000000
_cell_angle_gamma   90.00000000
_symmetry_Int_Tables_number   1
_chemical_formula_structural   Ta3Co2Re(NiB2)2
_chemical_formula_sum   'Ta3 Co2 Re1 Ni2 B4'
_cell_volume   129.26284783
_cell_formula_units_Z   1
loop_
 _symmetry_equiv_pos_site_id
 _symmetry_equiv_pos_as_xyz
  1  'x, y, z'
loop_
 _atom_site_type_symbol
 _atom_site_label
 _atom_site_symmetry_multiplicity
 _atom_site_fract_x
 _atom_site_fract_y
 _atom_site_fract_z
 _atom_site_occupancy
  Ta  Ta0  1  0.250000  0.527579  0.679369  1
  Ta  Ta1  1  0.750000  0.473084  0.317446  1
  Ta  Ta2  1  0.250000  0.027202  0.829597  1
  Co  Co3  1  0.750000  0.353999  0.942031  1
  Co  Co4  1  0.250000  0.641637  0.057867  1
  Re  Re5  1  0.750000  0.969670  0.172364  1
  Ni  Ni6  1  0.750000  0.860434  0.557797  1
  Ni  Ni7  1  0.250000  0.145244  0.442484  1
  B  B8  1  0.250000  0.265821  0.122901  1
  B  B9  1  0.750000  0.725085  0.890066  1
  B  B10  1  0.250000  0.773057  0.361969  1
  B  B11  1  0.750000  0.237190  0.626110  1
