# generated using pymatgen
data_Pr3Er5(Si3Pt)4
_symmetry_space_group_name_H-M   'P 1'
_cell_length_a   8.16323700
_cell_length_b   8.16323808
_cell_length_c   8.28188300
_cell_angle_alpha   90.00000000
_cell_angle_beta   90.00000000
_cell_angle_gamma   120.12185371
_symmetry_Int_Tables_number   1
_chemical_formula_structural   Pr3Er5(Si3Pt)4
_chemical_formula_sum   'Pr3 Er5 Si12 Pt4'
_cell_volume   477.36439067
_cell_formula_units_Z   1
loop_
 _symmetry_equiv_pos_site_id
 _symmetry_equiv_pos_as_xyz
  1  'x, y, z'
loop_
 _atom_site_type_symbol
 _atom_site_label
 _atom_site_symmetry_multiplicity
 _atom_site_fract_x
 _atom_site_fract_y
 _atom_site_fract_z
 _atom_site_occupancy
  Pr  Pr0  1  0.000027  0.999975  0.250000  1
  Pr  Pr1  1  0.000006  0.999991  0.750000  1
  Pr  Pr2  1  0.498932  0.501060  0.250000  1
  Er  Er3  1  0.498790  0.997883  0.250000  1
  Er  Er4  1  0.002087  0.501216  0.250000  1
  Er  Er5  1  0.501269  0.498740  0.750000  1
  Er  Er6  1  0.997372  0.498688  0.750000  1
  Er  Er7  1  0.501342  0.002660  0.750000  1
  Si  Si8  1  0.833874  0.166128  0.498985  1
  Si  Si9  1  0.833853  0.666493  0.502100  1
  Si  Si10  1  0.333512  0.166150  0.502099  1
  Si  Si11  1  0.833874  0.166128  0.001015  1
  Si  Si12  1  0.833853  0.666493  0.997900  1
  Si  Si13  1  0.333512  0.166150  0.997901  1
  Si  Si14  1  0.166182  0.833821  0.999814  1
  Si  Si15  1  0.666488  0.833901  0.996516  1
  Si  Si16  1  0.166101  0.333512  0.996517  1
  Si  Si17  1  0.166182  0.833821  0.500186  1
  Si  Si18  1  0.666488  0.833901  0.503484  1
  Si  Si19  1  0.166101  0.333512  0.503483  1
  Pt  Pt20  1  0.668334  0.331666  0.503734  1
  Pt  Pt21  1  0.668334  0.331666  0.996266  1
  Pt  Pt22  1  0.331743  0.668223  0.991484  1
  Pt  Pt23  1  0.331743  0.668223  0.508516  1
