# generated using pymatgen
data_NaMg(WN2)2
_symmetry_space_group_name_H-M   'P 1'
_cell_length_a   2.95801900
_cell_length_b   2.95801910
_cell_length_c   11.17983900
_cell_angle_alpha   90.00000000
_cell_angle_beta   90.00000000
_cell_angle_gamma   119.99998773
_symmetry_Int_Tables_number   1
_chemical_formula_structural   NaMg(WN2)2
_chemical_formula_sum   'Na1 Mg1 W2 N4'
_cell_volume   84.71653172
_cell_formula_units_Z   1
loop_
 _symmetry_equiv_pos_site_id
 _symmetry_equiv_pos_as_xyz
  1  'x, y, z'
loop_
 _atom_site_type_symbol
 _atom_site_label
 _atom_site_symmetry_multiplicity
 _atom_site_fract_x
 _atom_site_fract_y
 _atom_site_fract_z
 _atom_site_occupancy
  Na  Na0  1  0.000000  0.000000  0.500000  1
  Mg  Mg1  1  0.000000  0.000000  0.000000  1
  W  W2  1  0.333333  0.666667  0.760804  1
  W  W3  1  0.666667  0.333333  0.239196  1
  N  N4  1  0.666667  0.333333  0.655163  1
  N  N5  1  0.666667  0.333333  0.878354  1
  N  N6  1  0.333333  0.666667  0.121646  1
  N  N7  1  0.333333  0.666667  0.344837  1
