# generated using pymatgen
data_Tm4ScPt9
_symmetry_space_group_name_H-M   'P 1'
_cell_length_a   9.62916600
_cell_length_b   9.62916600
_cell_length_c   5.71577100
_cell_angle_alpha   90.00000000
_cell_angle_beta   90.00000000
_cell_angle_gamma   90.00000000
_symmetry_Int_Tables_number   1
_chemical_formula_structural   Tm4ScPt9
_chemical_formula_sum   'Tm8 Sc2 Pt18'
_cell_volume   529.97107611
_cell_formula_units_Z   2
loop_
 _symmetry_equiv_pos_site_id
 _symmetry_equiv_pos_as_xyz
  1  'x, y, z'
loop_
 _atom_site_type_symbol
 _atom_site_label
 _atom_site_symmetry_multiplicity
 _atom_site_fract_x
 _atom_site_fract_y
 _atom_site_fract_z
 _atom_site_occupancy
  Tm  Tm0  1  0.452760  0.809255  0.000000  1
  Tm  Tm1  1  0.547240  0.190745  0.000000  1
  Tm  Tm2  1  0.190745  0.547240  0.000000  1
  Tm  Tm3  1  0.809255  0.452760  0.000000  1
  Tm  Tm4  1  0.309255  0.047240  0.500000  1
  Tm  Tm5  1  0.690745  0.952760  0.500000  1
  Tm  Tm6  1  0.952760  0.690745  0.500000  1
  Tm  Tm7  1  0.047240  0.309255  0.500000  1
  Sc  Sc8  1  0.500000  0.500000  0.500000  1
  Sc  Sc9  1  0.000000  0.000000  0.000000  1
  Pt  Pt10  1  0.190057  0.809943  0.249562  1
  Pt  Pt11  1  0.809943  0.190057  0.750438  1
  Pt  Pt12  1  0.809943  0.190057  0.249562  1
  Pt  Pt13  1  0.190057  0.809943  0.750438  1
  Pt  Pt14  1  0.441208  0.777135  0.500000  1
  Pt  Pt15  1  0.558792  0.222865  0.500000  1
  Pt  Pt16  1  0.222865  0.558792  0.500000  1
  Pt  Pt17  1  0.777135  0.441208  0.500000  1
  Pt  Pt18  1  0.309943  0.309943  0.250438  1
  Pt  Pt19  1  0.690057  0.690057  0.749562  1
  Pt  Pt20  1  0.690057  0.690057  0.250438  1
  Pt  Pt21  1  0.309943  0.309943  0.749562  1
  Pt  Pt22  1  0.277135  0.058792  0.000000  1
  Pt  Pt23  1  0.722865  0.941208  0.000000  1
  Pt  Pt24  1  0.941208  0.722865  0.000000  1
  Pt  Pt25  1  0.058792  0.277135  0.000000  1
  Pt  Pt26  1  0.000000  0.000000  0.500000  1
  Pt  Pt27  1  0.500000  0.500000  0.000000  1
