# generated using pymatgen
data_Pa4OsPd3Pb2
_symmetry_space_group_name_H-M   'P 1'
_cell_length_a   7.89073900
_cell_length_b   7.89073900
_cell_length_c   3.66281000
_cell_angle_alpha   90.00000000
_cell_angle_beta   90.00000000
_cell_angle_gamma   89.61299490
_symmetry_Int_Tables_number   1
_chemical_formula_structural   Pa4OsPd3Pb2
_chemical_formula_sum   'Pa4 Os1 Pd3 Pb2'
_cell_volume   228.05512755
_cell_formula_units_Z   1
loop_
 _symmetry_equiv_pos_site_id
 _symmetry_equiv_pos_as_xyz
  1  'x, y, z'
loop_
 _atom_site_type_symbol
 _atom_site_label
 _atom_site_symmetry_multiplicity
 _atom_site_fract_x
 _atom_site_fract_y
 _atom_site_fract_z
 _atom_site_occupancy
  Pa  Pa0  1  0.330828  0.830828  0.500000  1
  Pa  Pa1  1  0.683574  0.183574  0.500000  1
  Pa  Pa2  1  0.158121  0.325202  0.500000  1
  Pa  Pa3  1  0.825202  0.658121  0.500000  1
  Os  Os4  1  0.874091  0.374091  0.000000  1
  Pd  Pd5  1  0.627105  0.873588  0.000000  1
  Pd  Pd6  1  0.373588  0.127105  0.000000  1
  Pd  Pd7  1  0.133517  0.633517  0.000000  1
  Pb  Pb8  1  0.495857  0.498118  0.000000  1
  Pb  Pb9  1  0.998118  0.995857  0.000000  1
