# generated using pymatgen
data_Cs(AsPd2)4
_symmetry_space_group_name_H-M   'P 1'
_cell_length_a   8.37079617
_cell_length_b   8.37089672
_cell_length_c   8.36568147
_cell_angle_alpha   93.09012975
_cell_angle_beta   93.11225723
_cell_angle_gamma   153.09746018
_symmetry_Int_Tables_number   1
_chemical_formula_structural   Cs(AsPd2)4
_chemical_formula_sum   'Cs1 As4 Pd8'
_cell_volume   257.96411853
_cell_formula_units_Z   1
loop_
 _symmetry_equiv_pos_site_id
 _symmetry_equiv_pos_as_xyz
  1  'x, y, z'
loop_
 _atom_site_type_symbol
 _atom_site_label
 _atom_site_symmetry_multiplicity
 _atom_site_fract_x
 _atom_site_fract_y
 _atom_site_fract_z
 _atom_site_occupancy
  Cs  Cs0  1  0.999998  0.000002  0.000002  1
  As  As1  1  0.770785  0.416899  0.187689  1
  As  As2  1  0.417022  0.229274  0.645993  1
  As  As3  1  0.582977  0.770726  0.354007  1
  As  As4  1  0.229214  0.583101  0.812311  1
  Pd  Pd5  1  0.016070  0.632844  0.648623  1
  Pd  Pd6  1  0.662004  0.231070  0.892986  1
  Pd  Pd7  1  0.230920  0.337918  0.568964  1
  Pd  Pd8  1  0.769081  0.662082  0.431035  1
  Pd  Pd9  1  0.337999  0.768930  0.107015  1
  Pd  Pd10  1  0.983930  0.367156  0.351377  1
  Pd  Pd11  1  0.367162  0.015839  0.383073  1
  Pd  Pd12  1  0.632837  0.984161  0.616926  1
