# generated using pymatgen
data_Sc3Sn3Ru2Au
_symmetry_space_group_name_H-M   'P 1'
_cell_length_a   7.74708000
_cell_length_b   7.74707943
_cell_length_c   6.74425300
_cell_angle_alpha   90.00000000
_cell_angle_beta   90.00000000
_cell_angle_gamma   119.99999391
_symmetry_Int_Tables_number   1
_chemical_formula_structural   Sc3Sn3Ru2Au
_chemical_formula_sum   'Sc6 Sn6 Ru4 Au2'
_cell_volume   350.54240458
_cell_formula_units_Z   2
loop_
 _symmetry_equiv_pos_site_id
 _symmetry_equiv_pos_as_xyz
  1  'x, y, z'
loop_
 _atom_site_type_symbol
 _atom_site_label
 _atom_site_symmetry_multiplicity
 _atom_site_fract_x
 _atom_site_fract_y
 _atom_site_fract_z
 _atom_site_occupancy
  Sc  Sc0  1  0.375451  0.977718  0.250000  1
  Sc  Sc1  1  0.602267  0.624549  0.250000  1
  Sc  Sc2  1  0.022282  0.397733  0.250000  1
  Sc  Sc3  1  0.374268  0.975579  0.750000  1
  Sc  Sc4  1  0.601311  0.625732  0.750000  1
  Sc  Sc5  1  0.024421  0.398689  0.750000  1
  Sn  Sn6  1  0.721948  0.000155  0.000134  1
  Sn  Sn7  1  0.278207  0.278052  0.499866  1
  Sn  Sn8  1  0.999845  0.721793  0.499866  1
  Sn  Sn9  1  0.999845  0.721793  0.000134  1
  Sn  Sn10  1  0.278207  0.278052  0.000134  1
  Sn  Sn11  1  0.721948  0.000155  0.499866  1
  Ru  Ru12  1  0.333333  0.666667  0.000955  1
  Ru  Ru13  1  0.333333  0.666667  0.499045  1
  Ru  Ru14  1  0.000000  0.000000  0.250000  1
  Ru  Ru15  1  0.000000  0.000000  0.750000  1
  Au  Au16  1  0.666667  0.333333  0.996452  1
  Au  Au17  1  0.666667  0.333333  0.503548  1
