# generated using pymatgen
data_Y3Sc3Si2Os
_symmetry_space_group_name_H-M   'P 1'
_cell_length_a   7.45003000
_cell_length_b   7.45003029
_cell_length_c   4.23160900
_cell_angle_alpha   90.00000000
_cell_angle_beta   90.00000000
_cell_angle_gamma   120.00000758
_symmetry_Int_Tables_number   1
_chemical_formula_structural   Y3Sc3Si2Os
_chemical_formula_sum   'Y3 Sc3 Si2 Os1'
_cell_volume   203.40058184
_cell_formula_units_Z   1
loop_
 _symmetry_equiv_pos_site_id
 _symmetry_equiv_pos_as_xyz
  1  'x, y, z'
loop_
 _atom_site_type_symbol
 _atom_site_label
 _atom_site_symmetry_multiplicity
 _atom_site_fract_x
 _atom_site_fract_y
 _atom_site_fract_z
 _atom_site_occupancy
  Y  Y0  1  0.416835  0.000000  0.000000  1
  Y  Y1  1  0.000000  0.416835  0.000000  1
  Y  Y2  1  0.583165  0.583164  0.000000  1
  Sc  Sc3  1  0.760645  0.000000  0.500001  1
  Sc  Sc4  1  0.239354  0.239355  0.500001  1
  Sc  Sc5  1  0.000000  0.760645  0.500001  1
  Si  Si6  1  0.666666  0.333333  0.500001  1
  Si  Si7  1  0.333333  0.666667  0.500001  1
  Os  Os8  1  0.000000  0.000000  0.000000  1
