# generated using pymatgen
data_La8Al3Ga5Rh8
_symmetry_space_group_name_H-M   'P 1'
_cell_length_a   4.26734200
_cell_length_b   7.31572518
_cell_length_c   16.16279898
_cell_angle_alpha   90.08921510
_cell_angle_beta   90.00000000
_cell_angle_gamma   90.00000000
_symmetry_Int_Tables_number   1
_chemical_formula_structural   La8Al3Ga5Rh8
_chemical_formula_sum   'La8 Al3 Ga5 Rh8'
_cell_volume   504.58098222
_cell_formula_units_Z   1
loop_
 _symmetry_equiv_pos_site_id
 _symmetry_equiv_pos_as_xyz
  1  'x, y, z'
loop_
 _atom_site_type_symbol
 _atom_site_label
 _atom_site_symmetry_multiplicity
 _atom_site_fract_x
 _atom_site_fract_y
 _atom_site_fract_z
 _atom_site_occupancy
  La  La0  1  0.250000  0.513867  0.779838  1
  La  La1  1  0.750000  0.485690  0.218435  1
  La  La2  1  0.750000  0.986131  0.280312  1
  La  La3  1  0.250000  0.014031  0.720053  1
  La  La4  1  0.250000  0.653441  0.560039  1
  La  La5  1  0.750000  0.346852  0.439760  1
  La  La6  1  0.750000  0.844616  0.060428  1
  La  La7  1  0.250000  0.155425  0.940997  1
  Al  Al8  1  0.750000  0.493948  0.939374  1
  Al  Al9  1  0.750000  0.994221  0.560210  1
  Al  Al10  1  0.250000  0.005567  0.439841  1
  Ga  Ga11  1  0.250000  0.655952  0.350346  1
  Ga  Ga12  1  0.750000  0.344292  0.649105  1
  Ga  Ga13  1  0.750000  0.845275  0.850445  1
  Ga  Ga14  1  0.250000  0.153540  0.149597  1
  Ga  Ga15  1  0.250000  0.508799  0.060704  1
  Rh  Rh16  1  0.250000  0.773854  0.179268  1
  Rh  Rh17  1  0.750000  0.229926  0.822659  1
  Rh  Rh18  1  0.750000  0.729239  0.677386  1
  Rh  Rh19  1  0.250000  0.271013  0.322484  1
  Rh  Rh20  1  0.250000  0.714001  0.926945  1
  Rh  Rh21  1  0.750000  0.281030  0.071545  1
  Rh  Rh22  1  0.750000  0.787672  0.428469  1
  Rh  Rh23  1  0.250000  0.211619  0.571760  1
