# generated using pymatgen
data_Er3Al3SiPdPt
_symmetry_space_group_name_H-M   'P 1'
_cell_length_a   7.04269000
_cell_length_b   7.04268998
_cell_length_c   4.07194900
_cell_angle_alpha   90.00000000
_cell_angle_beta   90.00000000
_cell_angle_gamma   119.99999072
_symmetry_Int_Tables_number   1
_chemical_formula_structural   Er3Al3SiPdPt
_chemical_formula_sum   'Er3 Al3 Si1 Pd1 Pt1'
_cell_volume   174.90818994
_cell_formula_units_Z   1
loop_
 _symmetry_equiv_pos_site_id
 _symmetry_equiv_pos_as_xyz
  1  'x, y, z'
loop_
 _atom_site_type_symbol
 _atom_site_label
 _atom_site_symmetry_multiplicity
 _atom_site_fract_x
 _atom_site_fract_y
 _atom_site_fract_z
 _atom_site_occupancy
  Er  Er0  1  0.419261  0.004450  0.500000  1
  Er  Er1  1  0.995550  0.414811  0.500000  1
  Er  Er2  1  0.585189  0.580739  0.500000  1
  Al  Al3  1  0.760296  0.007057  0.000000  1
  Al  Al4  1  0.992943  0.753239  0.000000  1
  Al  Al5  1  0.246761  0.239704  0.000000  1
  Si  Si6  1  0.333333  0.666667  0.000000  1
  Pd  Pd7  1  0.000000  0.000000  0.500000  1
  Pt  Pt8  1  0.666667  0.333333  0.000000  1
