# generated using pymatgen
data_Mn2SiMo3N
_symmetry_space_group_name_H-M   'P 1'
_cell_length_a   7.83593545
_cell_length_b   7.83593497
_cell_length_c   7.83593500
_cell_angle_alpha   59.99999565
_cell_angle_beta   59.99999767
_cell_angle_gamma   60.00000130
_symmetry_Int_Tables_number   1
_chemical_formula_structural   Mn2SiMo3N
_chemical_formula_sum   'Mn8 Si4 Mo12 N4'
_cell_volume   340.21815256
_cell_formula_units_Z   4
loop_
 _symmetry_equiv_pos_site_id
 _symmetry_equiv_pos_as_xyz
  1  'x, y, z'
loop_
 _atom_site_type_symbol
 _atom_site_label
 _atom_site_symmetry_multiplicity
 _atom_site_fract_x
 _atom_site_fract_y
 _atom_site_fract_z
 _atom_site_occupancy
  Mn  Mn0  1  0.242830  0.919057  0.919057  1
  Mn  Mn1  1  0.919057  0.242830  0.919057  1
  Mn  Mn2  1  0.919057  0.919057  0.919057  1
  Mn  Mn3  1  0.919057  0.919057  0.242830  1
  Mn  Mn4  1  0.007170  0.330943  0.330943  1
  Mn  Mn5  1  0.330943  0.330943  0.007170  1
  Mn  Mn6  1  0.330943  0.007170  0.330943  1
  Mn  Mn7  1  0.330943  0.330943  0.330943  1
  Si  Si8  1  0.625000  0.125000  0.125000  1
  Si  Si9  1  0.125000  0.125000  0.625000  1
  Si  Si10  1  0.125000  0.625000  0.125000  1
  Si  Si11  1  0.125000  0.125000  0.125000  1
  Mo  Mo12  1  0.702540  0.297460  0.702540  1
  Mo  Mo13  1  0.547460  0.547460  0.952540  1
  Mo  Mo14  1  0.547460  0.952540  0.547460  1
  Mo  Mo15  1  0.952540  0.952540  0.547460  1
  Mo  Mo16  1  0.952540  0.547460  0.547460  1
  Mo  Mo17  1  0.952540  0.547460  0.952540  1
  Mo  Mo18  1  0.702540  0.297460  0.297460  1
  Mo  Mo19  1  0.297460  0.702540  0.297460  1
  Mo  Mo20  1  0.297460  0.297460  0.702540  1
  Mo  Mo21  1  0.297460  0.702540  0.702540  1
  Mo  Mo22  1  0.702540  0.702540  0.297460  1
  Mo  Mo23  1  0.547460  0.952540  0.952540  1
  N  N24  1  0.625000  0.625000  0.625000  1
  N  N25  1  0.125000  0.625000  0.625000  1
  N  N26  1  0.625000  0.125000  0.625000  1
  N  N27  1  0.625000  0.625000  0.125000  1
