# generated using pymatgen
data_CaTh(Co3Si2)2
_symmetry_space_group_name_H-M   'P 1'
_cell_length_a   6.32224653
_cell_length_b   6.32224711
_cell_length_c   6.32224592
_cell_angle_alpha   130.25494672
_cell_angle_beta   114.17495002
_cell_angle_gamma   86.80616188
_symmetry_Int_Tables_number   1
_chemical_formula_structural   CaTh(Co3Si2)2
_chemical_formula_sum   'Ca1 Th1 Co6 Si4'
_cell_volume   167.83735247
_cell_formula_units_Z   1
loop_
 _symmetry_equiv_pos_site_id
 _symmetry_equiv_pos_as_xyz
  1  'x, y, z'
loop_
 _atom_site_type_symbol
 _atom_site_label
 _atom_site_symmetry_multiplicity
 _atom_site_fract_x
 _atom_site_fract_y
 _atom_site_fract_z
 _atom_site_occupancy
  Ca  Ca0  1  0.750000  0.464650  0.714650  1
  Th  Th1  1  0.250000  0.537274  0.287274  1
  Co  Co2  1  0.014925  0.998266  0.513192  1
  Co  Co3  1  0.485075  0.998266  0.983342  1
  Co  Co4  1  0.719653  0.997527  0.718323  1
  Co  Co5  1  0.220796  0.498669  0.718323  1
  Co  Co6  1  0.279204  0.997527  0.277873  1
  Co  Co7  1  0.780347  0.498669  0.277873  1
  Si  Si8  1  0.069580  0.869096  0.799516  1
  Si  Si9  1  0.908628  0.113687  0.205058  1
  Si  Si10  1  0.591372  0.796431  0.205058  1
  Si  Si11  1  0.430420  0.229937  0.799516  1
