# generated using pymatgen
data_Ca7Tb2PrIr4
_symmetry_space_group_name_H-M   'P 1'
_cell_length_a   6.63007483
_cell_length_b   7.46160538
_cell_length_c   8.74293541
_cell_angle_alpha   97.06072923
_cell_angle_beta   112.95572654
_cell_angle_gamma   90.30350693
_symmetry_Int_Tables_number   1
_chemical_formula_structural   Ca7Tb2PrIr4
_chemical_formula_sum   'Ca7 Tb2 Pr1 Ir4'
_cell_volume   394.57722053
_cell_formula_units_Z   1
loop_
 _symmetry_equiv_pos_site_id
 _symmetry_equiv_pos_as_xyz
  1  'x, y, z'
loop_
 _atom_site_type_symbol
 _atom_site_label
 _atom_site_symmetry_multiplicity
 _atom_site_fract_x
 _atom_site_fract_y
 _atom_site_fract_z
 _atom_site_occupancy
  Ca  Ca0  1  0.799807  0.576156  0.821888  1
  Ca  Ca1  1  0.020708  0.082618  0.819178  1
  Ca  Ca2  1  0.194792  0.418990  0.173289  1
  Ca  Ca3  1  0.636470  0.818085  0.433387  1
  Ca  Ca4  1  0.203648  0.679604  0.565401  1
  Ca  Ca5  1  0.366578  0.180728  0.567835  1
  Ca  Ca6  1  0.799718  0.319430  0.433604  1
  Tb  Tb7  1  0.430144  0.747435  0.999267  1
  Tb  Tb8  1  0.562234  0.252153  0.000854  1
  Pr  Pr9  1  0.974935  0.919533  0.170538  1
  Ir  Ir10  1  0.810544  0.580919  0.209277  1
  Ir  Ir11  1  0.609125  0.926652  0.806147  1
  Ir  Ir12  1  0.194268  0.424039  0.789458  1
  Ir  Ir13  1  0.397030  0.073657  0.209877  1
