# generated using pymatgen
data_Y8In2PtRh
_symmetry_space_group_name_H-M   'P 1'
_cell_length_a   9.74078532
_cell_length_b   9.73028529
_cell_length_c   9.73028432
_cell_angle_alpha   60.03860911
_cell_angle_beta   59.96429583
_cell_angle_gamma   59.96429695
_symmetry_Int_Tables_number   1
_chemical_formula_structural   Y8In2PtRh
_chemical_formula_sum   'Y16 In4 Pt2 Rh2'
_cell_volume   651.96145596
_cell_formula_units_Z   2
loop_
 _symmetry_equiv_pos_site_id
 _symmetry_equiv_pos_as_xyz
  1  'x, y, z'
loop_
 _atom_site_type_symbol
 _atom_site_label
 _atom_site_symmetry_multiplicity
 _atom_site_fract_x
 _atom_site_fract_y
 _atom_site_fract_z
 _atom_site_occupancy
  Y  Y0  1  0.691034  0.308966  0.308966  1
  Y  Y1  1  0.687649  0.693179  0.309341  1
  Y  Y2  1  0.309831  0.693179  0.309341  1
  Y  Y3  1  0.938945  0.937120  0.561916  1
  Y  Y4  1  0.150047  0.145230  0.554675  1
  Y  Y5  1  0.562018  0.937120  0.561916  1
  Y  Y6  1  0.153141  0.149113  0.149113  1
  Y  Y7  1  0.309831  0.309341  0.693179  1
  Y  Y8  1  0.939572  0.560428  0.560428  1
  Y  Y9  1  0.562018  0.561916  0.937120  1
  Y  Y10  1  0.563177  0.936823  0.936823  1
  Y  Y11  1  0.938945  0.561916  0.937120  1
  Y  Y12  1  0.150047  0.554675  0.145230  1
  Y  Y13  1  0.310279  0.689721  0.689721  1
  Y  Y14  1  0.687649  0.309341  0.693179  1
  Y  Y15  1  0.548631  0.149113  0.149113  1
  In  In16  1  0.916562  0.917697  0.249179  1
  In  In17  1  0.249977  0.916847  0.916847  1
  In  In18  1  0.916562  0.249179  0.917697  1
  In  In19  1  0.916329  0.916847  0.916847  1
  Pt  Pt20  1  0.355397  0.358210  0.358210  1
  Pt  Pt21  1  0.928182  0.358210  0.358210  1
  Rh  Rh22  1  0.357088  0.359168  0.926658  1
  Rh  Rh23  1  0.357088  0.926658  0.359168  1
