# generated using pymatgen
data_TbDyThZnAu5
_symmetry_space_group_name_H-M   'P 1'
_cell_length_a   8.50530650
_cell_length_b   8.50530656
_cell_length_c   13.57586000
_cell_angle_alpha   90.00000000
_cell_angle_beta   90.00000000
_cell_angle_gamma   127.20381210
_symmetry_Int_Tables_number   1
_chemical_formula_structural   TbDyThZnAu5
_chemical_formula_sum   'Tb4 Dy4 Th4 Zn4 Au20'
_cell_volume   782.21735874
_cell_formula_units_Z   4
loop_
 _symmetry_equiv_pos_site_id
 _symmetry_equiv_pos_as_xyz
  1  'x, y, z'
loop_
 _atom_site_type_symbol
 _atom_site_label
 _atom_site_symmetry_multiplicity
 _atom_site_fract_x
 _atom_site_fract_y
 _atom_site_fract_z
 _atom_site_occupancy
  Tb  Tb0  1  0.882228  0.117772  0.951556  1
  Tb  Tb1  1  0.117772  0.882228  0.048444  1
  Tb  Tb2  1  0.882228  0.117772  0.548444  1
  Tb  Tb3  1  0.117772  0.882228  0.451556  1
  Dy  Dy4  1  0.630462  0.369538  0.460772  1
  Dy  Dy5  1  0.369538  0.630462  0.539228  1
  Dy  Dy6  1  0.630462  0.369538  0.039228  1
  Dy  Dy7  1  0.369538  0.630462  0.960772  1
  Th  Th8  1  0.931138  0.068862  0.250000  1
  Th  Th9  1  0.068862  0.931138  0.750000  1
  Th  Th10  1  0.319388  0.680612  0.250000  1
  Th  Th11  1  0.680612  0.319388  0.750000  1
  Zn  Zn12  1  0.718844  0.281156  0.250000  1
  Zn  Zn13  1  0.281156  0.718844  0.750000  1
  Zn  Zn14  1  0.534160  0.465840  0.250000  1
  Zn  Zn15  1  0.465840  0.534160  0.750000  1
  Au  Au16  1  0.318512  0.065023  0.250000  1
  Au  Au17  1  0.065023  0.318512  0.750000  1
  Au  Au18  1  0.681488  0.934977  0.750000  1
  Au  Au19  1  0.934977  0.681488  0.250000  1
  Au  Au20  1  0.569993  0.005120  0.398138  1
  Au  Au21  1  0.005120  0.569993  0.601862  1
  Au  Au22  1  0.569993  0.005120  0.101862  1
  Au  Au23  1  0.005120  0.569993  0.898138  1
  Au  Au24  1  0.430007  0.994880  0.601862  1
  Au  Au25  1  0.994880  0.430007  0.398138  1
  Au  Au26  1  0.430007  0.994880  0.898138  1
  Au  Au27  1  0.994880  0.430007  0.101862  1
  Au  Au28  1  0.683990  0.739426  0.396474  1
  Au  Au29  1  0.739426  0.683990  0.603526  1
  Au  Au30  1  0.683990  0.739426  0.103526  1
  Au  Au31  1  0.739426  0.683990  0.896474  1
  Au  Au32  1  0.316010  0.260574  0.603526  1
  Au  Au33  1  0.260574  0.316010  0.396474  1
  Au  Au34  1  0.316010  0.260574  0.896474  1
  Au  Au35  1  0.260574  0.316010  0.103526  1
