# generated using pymatgen
data_Na(Np5Se8)2
_symmetry_space_group_name_H-M   'P 1'
_cell_length_a   8.71418900
_cell_length_b   8.71418900
_cell_length_c   8.73667800
_cell_angle_alpha   90.00000000
_cell_angle_beta   90.00000000
_cell_angle_gamma   90.00000000
_symmetry_Int_Tables_number   1
_chemical_formula_structural   Na(Np5Se8)2
_chemical_formula_sum   'Na1 Np10 Se16'
_cell_volume   663.43790308
_cell_formula_units_Z   1
loop_
 _symmetry_equiv_pos_site_id
 _symmetry_equiv_pos_as_xyz
  1  'x, y, z'
loop_
 _atom_site_type_symbol
 _atom_site_label
 _atom_site_symmetry_multiplicity
 _atom_site_fract_x
 _atom_site_fract_y
 _atom_site_fract_z
 _atom_site_occupancy
  Na  Na0  1  0.000000  0.000000  0.500000  1
  Np  Np1  1  0.249992  0.624205  0.366931  1
  Np  Np2  1  0.000000  0.500000  0.747482  1
  Np  Np3  1  0.375795  0.249992  0.633069  1
  Np  Np4  1  0.750008  0.375795  0.366931  1
  Np  Np5  1  0.129861  0.255202  0.126302  1
  Np  Np6  1  0.744798  0.129861  0.873698  1
  Np  Np7  1  0.500000  0.000000  0.252518  1
  Np  Np8  1  0.870139  0.744798  0.126302  1
  Np  Np9  1  0.255202  0.870139  0.873698  1
  Np  Np10  1  0.624205  0.750008  0.633069  1
  Se  Se11  1  0.579678  0.678906  0.310509  1
  Se  Se12  1  0.172394  0.577842  0.044718  1
  Se  Se13  1  0.925125  0.670166  0.449751  1
  Se  Se14  1  0.074875  0.329834  0.449751  1
  Se  Se15  1  0.420322  0.321094  0.310509  1
  Se  Se16  1  0.321094  0.579678  0.689491  1
  Se  Se17  1  0.827606  0.422158  0.044718  1
  Se  Se18  1  0.075308  0.178473  0.807930  1
  Se  Se19  1  0.678906  0.420322  0.689491  1
  Se  Se20  1  0.670166  0.074875  0.550249  1
  Se  Se21  1  0.422158  0.172394  0.955282  1
  Se  Se22  1  0.577842  0.827606  0.955282  1
  Se  Se23  1  0.924692  0.821527  0.807930  1
  Se  Se24  1  0.821527  0.075308  0.192070  1
  Se  Se25  1  0.329834  0.925125  0.550249  1
  Se  Se26  1  0.178473  0.924692  0.192070  1
