# generated using pymatgen
data_Ho10In2Si3Ir
_symmetry_space_group_name_H-M   'P 1'
_cell_length_a   7.72621300
_cell_length_b   7.72403877
_cell_length_c   13.85734900
_cell_angle_alpha   90.09567550
_cell_angle_beta   90.00000000
_cell_angle_gamma   90.00000000
_symmetry_Int_Tables_number   1
_chemical_formula_structural   Ho10In2Si3Ir
_chemical_formula_sum   'Ho20 In4 Si6 Ir2'
_cell_volume   826.97174465
_cell_formula_units_Z   2
loop_
 _symmetry_equiv_pos_site_id
 _symmetry_equiv_pos_as_xyz
  1  'x, y, z'
loop_
 _atom_site_type_symbol
 _atom_site_label
 _atom_site_symmetry_multiplicity
 _atom_site_fract_x
 _atom_site_fract_y
 _atom_site_fract_z
 _atom_site_occupancy
  Ho  Ho0  1  0.994062  0.493452  0.752116  1
  Ho  Ho1  1  0.005938  0.493452  0.252116  1
  Ho  Ho2  1  0.491345  0.006885  0.247972  1
  Ho  Ho3  1  0.508655  0.006885  0.747972  1
  Ho  Ho4  1  0.662703  0.658440  0.613073  1
  Ho  Ho5  1  0.660167  0.339490  0.111934  1
  Ho  Ho6  1  0.831630  0.835294  0.391649  1
  Ho  Ho7  1  0.168370  0.835294  0.891649  1
  Ho  Ho8  1  0.339833  0.339490  0.611934  1
  Ho  Ho9  1  0.337297  0.658440  0.113073  1
  Ho  Ho10  1  0.170861  0.168511  0.387289  1
  Ho  Ho11  1  0.829139  0.168511  0.887289  1
  Ho  Ho12  1  0.657886  0.337742  0.388371  1
  Ho  Ho13  1  0.342114  0.337742  0.888371  1
  Ho  Ho14  1  0.166834  0.832877  0.608471  1
  Ho  Ho15  1  0.833166  0.832877  0.108471  1
  Ho  Ho16  1  0.339249  0.660816  0.386670  1
  Ho  Ho17  1  0.660751  0.660816  0.886670  1
  Ho  Ho18  1  0.832154  0.170667  0.612585  1
  Ho  Ho19  1  0.167846  0.170667  0.112585  1
  In  In20  1  0.999934  0.499020  0.499344  1
  In  In21  1  0.000066  0.499020  0.999344  1
  In  In22  1  0.499957  0.996693  0.500434  1
  In  In23  1  0.500043  0.996693  0.000434  1
  Si  Si24  1  0.876798  0.868725  0.749966  1
  Si  Si25  1  0.868352  0.123863  0.250096  1
  Si  Si26  1  0.632719  0.631304  0.250121  1
  Si  Si27  1  0.367281  0.631304  0.750121  1
  Si  Si28  1  0.131648  0.123863  0.750096  1
  Si  Si29  1  0.123202  0.868725  0.249966  1
  Ir  Ir30  1  0.378135  0.376222  0.249906  1
  Ir  Ir31  1  0.621865  0.376222  0.749906  1
