# generated using pymatgen
data_Tb5HoEr4(In2Pd)4
_symmetry_space_group_name_H-M   'P 1'
_cell_length_a   3.62253200
_cell_length_b   8.16370538
_cell_length_c   18.25401300
_cell_angle_alpha   89.96674002
_cell_angle_beta   90.00000000
_cell_angle_gamma   90.00000000
_symmetry_Int_Tables_number   1
_chemical_formula_structural   Tb5HoEr4(In2Pd)4
_chemical_formula_sum   'Tb5 Ho1 Er4 In8 Pd4'
_cell_volume   539.83101893
_cell_formula_units_Z   1
loop_
 _symmetry_equiv_pos_site_id
 _symmetry_equiv_pos_as_xyz
  1  'x, y, z'
loop_
 _atom_site_type_symbol
 _atom_site_label
 _atom_site_symmetry_multiplicity
 _atom_site_fract_x
 _atom_site_fract_y
 _atom_site_fract_z
 _atom_site_occupancy
  Tb  Tb0  1  0.000000  0.500217  0.499565  1
  Tb  Tb1  1  0.000000  0.999620  0.999933  1
  Tb  Tb2  1  0.000000  0.739231  0.281861  1
  Tb  Tb3  1  0.000000  0.261271  0.717845  1
  Tb  Tb4  1  0.000000  0.761322  0.782069  1
  Ho  Ho5  1  0.000000  0.239251  0.218495  1
  Er  Er6  1  0.000000  0.617862  0.084496  1
  Er  Er7  1  0.000000  0.381261  0.916305  1
  Er  Er8  1  0.000000  0.881399  0.583771  1
  Er  Er9  1  0.000000  0.118983  0.415589  1
  In  In10  1  0.500000  0.703743  0.934268  1
  In  In11  1  0.500000  0.294245  0.067069  1
  In  In12  1  0.500000  0.796533  0.433819  1
  In  In13  1  0.500000  0.204209  0.565819  1
  In  In14  1  0.500000  0.582181  0.650691  1
  In  In15  1  0.500000  0.417351  0.348825  1
  In  In16  1  0.500000  0.919694  0.150714  1
  In  In17  1  0.500000  0.082138  0.849316  1
  Pd  Pd18  1  0.500000  0.520759  0.195317  1
  Pd  Pd19  1  0.500000  0.475818  0.805311  1
  Pd  Pd20  1  0.500000  0.975868  0.694748  1
  Pd  Pd21  1  0.500000  0.027044  0.304173  1
