# generated using pymatgen
data_Dy6Fe7Co16
_symmetry_space_group_name_H-M   'P 1'
_cell_length_a   8.39760949
_cell_length_b   8.39761006
_cell_length_c   8.39760900
_cell_angle_alpha   60.00000025
_cell_angle_beta   59.99999798
_cell_angle_gamma   60.00000092
_symmetry_Int_Tables_number   1
_chemical_formula_structural   Dy6Fe7Co16
_chemical_formula_sum   'Dy6 Fe7 Co16'
_cell_volume   418.74730842
_cell_formula_units_Z   1
loop_
 _symmetry_equiv_pos_site_id
 _symmetry_equiv_pos_as_xyz
  1  'x, y, z'
loop_
 _atom_site_type_symbol
 _atom_site_label
 _atom_site_symmetry_multiplicity
 _atom_site_fract_x
 _atom_site_fract_y
 _atom_site_fract_z
 _atom_site_occupancy
  Dy  Dy0  1  0.714195  0.714195  0.285805  1
  Dy  Dy1  1  0.285805  0.714195  0.285805  1
  Dy  Dy2  1  0.714195  0.285805  0.285805  1
  Dy  Dy3  1  0.285805  0.285805  0.714195  1
  Dy  Dy4  1  0.714195  0.285805  0.714195  1
  Dy  Dy5  1  0.285805  0.714195  0.714195  1
  Fe  Fe6  1  0.000000  0.000000  0.000000  1
  Fe  Fe7  1  0.000000  0.000000  0.500000  1
  Fe  Fe8  1  0.500000  0.000000  0.500000  1
  Fe  Fe9  1  0.000000  0.500000  0.500000  1
  Fe  Fe10  1  0.500000  0.500000  0.000000  1
  Fe  Fe11  1  0.000000  0.500000  0.000000  1
  Fe  Fe12  1  0.500000  0.000000  0.000000  1
  Co  Co13  1  0.876578  0.876578  0.370267  1
  Co  Co14  1  0.876578  0.370267  0.876578  1
  Co  Co15  1  0.370267  0.876578  0.876578  1
  Co  Co16  1  0.876578  0.876578  0.876578  1
  Co  Co17  1  0.123422  0.123422  0.629733  1
  Co  Co18  1  0.123422  0.629733  0.123422  1
  Co  Co19  1  0.629733  0.123422  0.123422  1
  Co  Co20  1  0.123422  0.123422  0.123422  1
  Co  Co21  1  0.677061  0.677061  0.968817  1
  Co  Co22  1  0.677061  0.968817  0.677061  1
  Co  Co23  1  0.968817  0.677061  0.677061  1
  Co  Co24  1  0.677061  0.677061  0.677061  1
  Co  Co25  1  0.322939  0.322939  0.031183  1
  Co  Co26  1  0.322939  0.031183  0.322939  1
  Co  Co27  1  0.031183  0.322939  0.322939  1
  Co  Co28  1  0.322939  0.322939  0.322939  1
