# generated using pymatgen
data_Tb20CoTc(NiSb4)2
_symmetry_space_group_name_H-M   'P 1'
_cell_length_a   7.95677960
_cell_length_b   8.86224900
_cell_length_c   12.26841566
_cell_angle_alpha   90.00000000
_cell_angle_beta   90.20381943
_cell_angle_gamma   90.00000000
_symmetry_Int_Tables_number   1
_chemical_formula_structural   Tb20CoTc(NiSb4)2
_chemical_formula_sum   'Tb20 Co1 Tc1 Ni2 Sb8'
_cell_volume   865.10139093
_cell_formula_units_Z   1
loop_
 _symmetry_equiv_pos_site_id
 _symmetry_equiv_pos_as_xyz
  1  'x, y, z'
loop_
 _atom_site_type_symbol
 _atom_site_label
 _atom_site_symmetry_multiplicity
 _atom_site_fract_x
 _atom_site_fract_y
 _atom_site_fract_z
 _atom_site_occupancy
  Tb  Tb0  1  0.158787  0.750000  0.208807  1
  Tb  Tb1  1  0.654701  0.250000  0.294864  1
  Tb  Tb2  1  0.843062  0.250000  0.793593  1
  Tb  Tb3  1  0.344721  0.750000  0.707963  1
  Tb  Tb4  1  0.455190  0.750000  0.998216  1
  Tb  Tb5  1  0.956786  0.250000  0.502991  1
  Tb  Tb6  1  0.542651  0.250000  0.001098  1
  Tb  Tb7  1  0.044396  0.750000  0.497865  1
  Tb  Tb8  1  0.625585  0.750000  0.300780  1
  Tb  Tb9  1  0.126287  0.250000  0.196381  1
  Tb  Tb10  1  0.374661  0.250000  0.697703  1
  Tb  Tb11  1  0.877204  0.750000  0.806341  1
  Tb  Tb12  1  0.820595  0.960571  0.065360  1
  Tb  Tb13  1  0.317929  0.039894  0.433070  1
  Tb  Tb14  1  0.180532  0.467388  0.934845  1
  Tb  Tb15  1  0.680839  0.539091  0.564499  1
  Tb  Tb16  1  0.180532  0.032612  0.934845  1
  Tb  Tb17  1  0.680839  0.960909  0.564499  1
  Tb  Tb18  1  0.820595  0.539429  0.065360  1
  Tb  Tb19  1  0.317929  0.460106  0.433070  1
  Co  Co20  1  0.068328  0.750000  0.991915  1
  Tc  Tc21  1  0.420884  0.750000  0.484962  1
  Ni  Ni22  1  0.934612  0.250000  0.010289  1
  Ni  Ni23  1  0.573805  0.250000  0.513150  1
  Sb  Sb24  1  0.926858  0.993688  0.326184  1
  Sb  Sb25  1  0.427578  0.008975  0.171264  1
  Sb  Sb26  1  0.071339  0.491797  0.673977  1
  Sb  Sb27  1  0.573501  0.507394  0.827341  1
  Sb  Sb28  1  0.071339  0.008203  0.673977  1
  Sb  Sb29  1  0.573501  0.992606  0.827341  1
  Sb  Sb30  1  0.926858  0.506312  0.326184  1
  Sb  Sb31  1  0.427578  0.491025  0.171264  1
