# generated using pymatgen
data_Sc2TiBe2Ir3Rh2
_symmetry_space_group_name_H-M   'P 1'
_cell_length_a   9.47418800
_cell_length_b   9.51121500
_cell_length_c   3.14894800
_cell_angle_alpha   90.00000000
_cell_angle_beta   90.00000000
_cell_angle_gamma   89.99852119
_symmetry_Int_Tables_number   1
_chemical_formula_structural   Sc2TiBe2Ir3Rh2
_chemical_formula_sum   'Sc4 Ti2 Be4 Ir6 Rh4'
_cell_volume   283.75497605
_cell_formula_units_Z   2
loop_
 _symmetry_equiv_pos_site_id
 _symmetry_equiv_pos_as_xyz
  1  'x, y, z'
loop_
 _atom_site_type_symbol
 _atom_site_label
 _atom_site_symmetry_multiplicity
 _atom_site_fract_x
 _atom_site_fract_y
 _atom_site_fract_z
 _atom_site_occupancy
  Sc  Sc0  1  0.674798  0.175277  0.000000  1
  Sc  Sc1  1  0.326725  0.823175  0.000000  1
  Sc  Sc2  1  0.175647  0.325714  0.000000  1
  Sc  Sc3  1  0.824008  0.674318  0.000000  1
  Ti  Ti4  1  0.000176  0.999932  0.000000  1
  Ti  Ti5  1  0.500434  0.499716  0.000000  1
  Be  Be6  1  0.122581  0.623842  0.000000  1
  Be  Be7  1  0.876683  0.376937  0.000000  1
  Be  Be8  1  0.623299  0.877349  0.000000  1
  Be  Be9  1  0.376348  0.123101  0.000000  1
  Ir  Ir10  1  0.930358  0.210161  0.500000  1
  Ir  Ir11  1  0.289646  0.569590  0.500000  1
  Ir  Ir12  1  0.569935  0.710979  0.500000  1
  Ir  Ir13  1  0.430342  0.289415  0.500000  1
  Ir  Ir14  1  0.499719  0.000290  0.500000  1
  Ir  Ir15  1  0.999708  0.500251  0.500000  1
  Rh  Rh16  1  0.209560  0.069139  0.500000  1
  Rh  Rh17  1  0.790086  0.930487  0.500000  1
  Rh  Rh18  1  0.069493  0.789871  0.500000  1
  Rh  Rh19  1  0.710452  0.430455  0.500000  1
