# generated using pymatgen
data_In4Hg11(AsBr4)4
_symmetry_space_group_name_H-M   'P 1'
_cell_length_a   8.12110113
_cell_length_b   8.12110129
_cell_length_c   23.08340442
_cell_angle_alpha   81.83095070
_cell_angle_beta   81.83095129
_cell_angle_gamma   59.42967829
_symmetry_Int_Tables_number   1
_chemical_formula_structural   In4Hg11(AsBr4)4
_chemical_formula_sum   'In4 Hg11 As4 Br16'
_cell_volume   1293.13523618
_cell_formula_units_Z   1
loop_
 _symmetry_equiv_pos_site_id
 _symmetry_equiv_pos_as_xyz
  1  'x, y, z'
loop_
 _atom_site_type_symbol
 _atom_site_label
 _atom_site_symmetry_multiplicity
 _atom_site_fract_x
 _atom_site_fract_y
 _atom_site_fract_z
 _atom_site_occupancy
  In  In0  1  0.638854  0.638854  0.108277  1
  In  In1  1  0.361146  0.361146  0.891723  1
  In  In2  1  0.758810  0.758810  0.612357  1
  In  In3  1  0.241190  0.241190  0.387643  1
  Hg  Hg4  1  0.030991  0.030991  0.881196  1
  Hg  Hg5  1  0.764246  0.764246  0.283451  1
  Hg  Hg6  1  0.473994  0.473994  0.558482  1
  Hg  Hg7  1  0.734029  0.236062  0.721057  1
  Hg  Hg8  1  0.265971  0.763938  0.278943  1
  Hg  Hg9  1  0.763938  0.265971  0.278943  1
  Hg  Hg10  1  0.236062  0.734029  0.721057  1
  Hg  Hg11  1  0.526006  0.526006  0.441518  1
  Hg  Hg12  1  0.969009  0.969009  0.118804  1
  Hg  Hg13  1  0.000000  0.000000  0.000000  1
  Hg  Hg14  1  0.235754  0.235754  0.716549  1
  As  As15  1  0.941081  0.941081  0.235464  1
  As  As16  1  0.058919  0.058919  0.764536  1
  As  As17  1  0.584364  0.584364  0.327071  1
  As  As18  1  0.415636  0.415636  0.672929  1
  Br  Br19  1  0.540414  0.040876  0.845149  1
  Br  Br20  1  0.062141  0.062141  0.422844  1
  Br  Br21  1  0.538335  0.538335  0.844660  1
  Br  Br22  1  0.414518  0.931724  0.583880  1
  Br  Br23  1  0.737430  0.737430  0.723538  1
  Br  Br24  1  0.333292  0.333292  0.001385  1
  Br  Br25  1  0.459586  0.959124  0.154851  1
  Br  Br26  1  0.959124  0.459586  0.154851  1
  Br  Br27  1  0.461665  0.461665  0.155340  1
  Br  Br28  1  0.585482  0.068276  0.416120  1
  Br  Br29  1  0.666708  0.666708  0.998615  1
  Br  Br30  1  0.931724  0.414518  0.583880  1
  Br  Br31  1  0.262570  0.262570  0.276462  1
  Br  Br32  1  0.068276  0.585482  0.416120  1
  Br  Br33  1  0.937859  0.937859  0.577156  1
  Br  Br34  1  0.040876  0.540414  0.845149  1
