# generated using pymatgen
data_Lu3Sc2Tl2Bi
_symmetry_space_group_name_H-M   'P 1'
_cell_length_a   8.82331800
_cell_length_b   8.82782022
_cell_length_c   6.24735700
_cell_angle_alpha   90.00000000
_cell_angle_beta   90.00000000
_cell_angle_gamma   120.01687806
_symmetry_Int_Tables_number   1
_chemical_formula_structural   Lu3Sc2Tl2Bi
_chemical_formula_sum   'Lu6 Sc4 Tl4 Bi2'
_cell_volume   421.34561662
_cell_formula_units_Z   2
loop_
 _symmetry_equiv_pos_site_id
 _symmetry_equiv_pos_as_xyz
  1  'x, y, z'
loop_
 _atom_site_type_symbol
 _atom_site_label
 _atom_site_symmetry_multiplicity
 _atom_site_fract_x
 _atom_site_fract_y
 _atom_site_fract_z
 _atom_site_occupancy
  Lu  Lu0  1  0.231290  0.999542  0.250000  1
  Lu  Lu1  1  0.231290  0.231749  0.750000  1
  Lu  Lu2  1  0.007521  0.767219  0.750000  1
  Lu  Lu3  1  0.007521  0.240303  0.250000  1
  Lu  Lu4  1  0.766063  0.757631  0.250000  1
  Lu  Lu5  1  0.766063  0.008432  0.750000  1
  Sc  Sc6  1  0.326040  0.663020  0.000000  1
  Sc  Sc7  1  0.667549  0.333774  0.500000  1
  Sc  Sc8  1  0.667549  0.333774  0.000000  1
  Sc  Sc9  1  0.326040  0.663020  0.500000  1
  Tl  Tl10  1  0.997951  0.401591  0.750000  1
  Tl  Tl11  1  0.997951  0.596359  0.250000  1
  Tl  Tl12  1  0.400304  0.398413  0.250000  1
  Tl  Tl13  1  0.400304  0.001890  0.750000  1
  Bi  Bi14  1  0.603282  0.996644  0.250000  1
  Bi  Bi15  1  0.603282  0.606638  0.750000  1
