# generated using pymatgen
data_LaThNi7Ir3
_symmetry_space_group_name_H-M   'P 1'
_cell_length_a   4.05063700
_cell_length_b   5.12546207
_cell_length_c   8.82708285
_cell_angle_alpha   92.58262230
_cell_angle_beta   90.00000000
_cell_angle_gamma   90.00000000
_symmetry_Int_Tables_number   1
_chemical_formula_structural   LaThNi7Ir3
_chemical_formula_sum   'La1 Th1 Ni7 Ir3'
_cell_volume   183.07633404
_cell_formula_units_Z   1
loop_
 _symmetry_equiv_pos_site_id
 _symmetry_equiv_pos_as_xyz
  1  'x, y, z'
loop_
 _atom_site_type_symbol
 _atom_site_label
 _atom_site_symmetry_multiplicity
 _atom_site_fract_x
 _atom_site_fract_y
 _atom_site_fract_z
 _atom_site_occupancy
  La  La0  1  0.000000  0.000000  0.000000  1
  Th  Th1  1  0.000000  0.500000  0.500000  1
  Ni  Ni2  1  0.000000  0.991545  0.341812  1
  Ni  Ni3  1  0.000000  0.481560  0.827500  1
  Ni  Ni4  1  0.000000  0.518440  0.172500  1
  Ni  Ni5  1  0.000000  0.008455  0.658188  1
  Ni  Ni6  1  0.500000  0.000000  0.500000  1
  Ni  Ni7  1  0.500000  0.755647  0.254090  1
  Ni  Ni8  1  0.500000  0.244353  0.745910  1
  Ir  Ir9  1  0.500000  0.500000  0.000000  1
  Ir  Ir10  1  0.500000  0.253120  0.258371  1
  Ir  Ir11  1  0.500000  0.746880  0.741629  1
