# generated using pymatgen
data_Y2V3Si7Pt9
_symmetry_space_group_name_H-M   'P 1'
_cell_length_a   9.86892600
_cell_length_b   9.86892633
_cell_length_c   3.93328600
_cell_angle_alpha   90.00000000
_cell_angle_beta   90.00000000
_cell_angle_gamma   119.99999891
_symmetry_Int_Tables_number   1
_chemical_formula_structural   Y2V3Si7Pt9
_chemical_formula_sum   'Y2 V3 Si7 Pt9'
_cell_volume   331.76148182
_cell_formula_units_Z   1
loop_
 _symmetry_equiv_pos_site_id
 _symmetry_equiv_pos_as_xyz
  1  'x, y, z'
loop_
 _atom_site_type_symbol
 _atom_site_label
 _atom_site_symmetry_multiplicity
 _atom_site_fract_x
 _atom_site_fract_y
 _atom_site_fract_z
 _atom_site_occupancy
  Y  Y0  1  0.000000  0.000000  0.000000  1
  Y  Y1  1  0.333333  0.666667  0.500000  1
  V  V2  1  0.879142  0.448658  0.500000  1
  V  V3  1  0.569516  0.120858  0.500000  1
  V  V4  1  0.551342  0.430484  0.500000  1
  Si  Si5  1  0.259722  0.216076  0.500000  1
  Si  Si6  1  0.783924  0.043648  0.500000  1
  Si  Si7  1  0.956352  0.740278  0.500000  1
  Si  Si8  1  0.553370  0.631841  0.000000  1
  Si  Si9  1  0.368159  0.921528  0.000000  1
  Si  Si10  1  0.078472  0.446630  0.000000  1
  Si  Si11  1  0.666667  0.333333  0.000000  1
  Pt  Pt12  1  0.224931  0.946081  0.500000  1
  Pt  Pt13  1  0.053919  0.278852  0.500000  1
  Pt  Pt14  1  0.721148  0.775069  0.500000  1
  Pt  Pt15  1  0.303793  0.407640  0.000000  1
  Pt  Pt16  1  0.592360  0.896153  0.000000  1
  Pt  Pt17  1  0.103847  0.696207  0.000000  1
  Pt  Pt18  1  0.391606  0.178068  0.000000  1
  Pt  Pt19  1  0.821932  0.213537  0.000000  1
  Pt  Pt20  1  0.786463  0.608394  0.000000  1
