# generated using pymatgen
data_KH6F7
_symmetry_space_group_name_H-M   'P 1'
_cell_length_a   5.44555668
_cell_length_b   5.43216404
_cell_length_c   6.76849829
_cell_angle_alpha   64.99522584
_cell_angle_beta   109.98655579
_cell_angle_gamma   108.93116367
_symmetry_Int_Tables_number   1
_chemical_formula_structural   KH6F7
_chemical_formula_sum   'K1 H6 F7'
_cell_volume   166.67549627
_cell_formula_units_Z   1
loop_
 _symmetry_equiv_pos_site_id
 _symmetry_equiv_pos_as_xyz
  1  'x, y, z'
loop_
 _atom_site_type_symbol
 _atom_site_label
 _atom_site_symmetry_multiplicity
 _atom_site_fract_x
 _atom_site_fract_y
 _atom_site_fract_z
 _atom_site_occupancy
  K  K0  1  0.673961  0.986690  0.951599  1
  H  H1  1  0.021935  0.727728  0.766404  1
  H  H2  1  0.301257  0.447310  0.811494  1
  H  H3  1  0.960602  0.523352  0.514138  1
  H  H4  1  0.000645  0.407049  0.285145  1
  H  H5  1  0.489375  0.915926  0.396670  1
  H  H6  1  0.286158  0.179655  0.394247  1
  F  F7  1  0.917458  0.564292  0.331304  1
  F  F8  1  0.064247  0.274217  0.243569  1
  F  F9  1  0.019123  0.483561  0.710543  1
  F  F10  1  0.051641  0.887654  0.809167  1
  F  F11  1  0.491618  0.446137  0.879858  1
  F  F12  1  0.513334  0.802062  0.328805  1
  F  F13  1  0.443264  0.092323  0.499480  1
