# generated using pymatgen
data_Pr6Y10MgHg3Rh4
_symmetry_space_group_name_H-M   'P 1'
_cell_length_a   9.80754875
_cell_length_b   9.82665461
_cell_length_c   9.82584626
_cell_angle_alpha   59.66592830
_cell_angle_beta   59.75614903
_cell_angle_gamma   59.75586465
_symmetry_Int_Tables_number   1
_chemical_formula_structural   Pr6Y10MgHg3Rh4
_chemical_formula_sum   'Pr6 Y10 Mg1 Hg3 Rh4'
_cell_volume   665.44047485
_cell_formula_units_Z   1
loop_
 _symmetry_equiv_pos_site_id
 _symmetry_equiv_pos_as_xyz
  1  'x, y, z'
loop_
 _atom_site_type_symbol
 _atom_site_label
 _atom_site_symmetry_multiplicity
 _atom_site_fract_x
 _atom_site_fract_y
 _atom_site_fract_z
 _atom_site_occupancy
  Pr  Pr0  1  0.938867  0.560916  0.561019  1
  Pr  Pr1  1  0.558860  0.940022  0.940026  1
  Pr  Pr2  1  0.559586  0.938956  0.561298  1
  Pr  Pr3  1  0.940270  0.560161  0.939098  1
  Pr  Pr4  1  0.559649  0.561263  0.938928  1
  Pr  Pr5  1  0.940296  0.939041  0.560147  1
  Y  Y6  1  0.348220  0.347318  0.347249  1
  Y  Y7  1  0.349539  0.348902  0.956298  1
  Y  Y8  1  0.349507  0.956380  0.348869  1
  Y  Y9  1  0.947301  0.351802  0.351832  1
  Y  Y10  1  0.809955  0.188641  0.188659  1
  Y  Y11  1  0.182257  0.814294  0.814228  1
  Y  Y12  1  0.184857  0.812958  0.186720  1
  Y  Y13  1  0.810287  0.187298  0.811738  1
  Y  Y14  1  0.184840  0.186690  0.812989  1
  Y  Y15  1  0.810275  0.811780  0.187271  1
  Mg  Mg16  1  0.286982  0.570267  0.570322  1
  Hg  Hg17  1  0.580468  0.584364  0.584454  1
  Hg  Hg18  1  0.580843  0.584579  0.250486  1
  Hg  Hg19  1  0.580860  0.250433  0.584636  1
  Rh  Rh20  1  0.140211  0.142992  0.142875  1
  Rh  Rh21  1  0.141112  0.144034  0.573999  1
  Rh  Rh22  1  0.141117  0.573976  0.143971  1
  Rh  Rh23  1  0.573843  0.142936  0.142887  1
