# generated using pymatgen
data_Ac10Nd7Er3Sn16
_symmetry_space_group_name_H-M   'P 1'
_cell_length_a   8.51321003
_cell_length_b   8.65398322
_cell_length_c   16.52468900
_cell_angle_alpha   89.69800013
_cell_angle_beta   90.00463712
_cell_angle_gamma   90.00244763
_symmetry_Int_Tables_number   1
_chemical_formula_structural   Ac10Nd7Er3Sn16
_chemical_formula_sum   'Ac10 Nd7 Er3 Sn16'
_cell_volume   1217.40941678
_cell_formula_units_Z   1
loop_
 _symmetry_equiv_pos_site_id
 _symmetry_equiv_pos_as_xyz
  1  'x, y, z'
loop_
 _atom_site_type_symbol
 _atom_site_label
 _atom_site_symmetry_multiplicity
 _atom_site_fract_x
 _atom_site_fract_y
 _atom_site_fract_z
 _atom_site_occupancy
  Ac  Ac0  1  0.489576  0.820179  0.904835  1
  Ac  Ac1  1  0.987971  0.681388  0.595331  1
  Ac  Ac2  1  0.513059  0.177323  0.400348  1
  Ac  Ac3  1  0.013114  0.323220  0.099776  1
  Ac  Ac4  1  0.511679  0.181944  0.099473  1
  Ac  Ac5  1  0.012732  0.318895  0.400215  1
  Ac  Ac6  1  0.485321  0.818961  0.596220  1
  Ac  Ac7  1  0.984246  0.682233  0.903801  1
  Ac  Ac8  1  0.641677  0.339793  0.884126  1
  Ac  Ac9  1  0.140520  0.159517  0.615882  1
  Nd  Nd10  1  0.360153  0.659443  0.373370  1
  Nd  Nd11  1  0.860602  0.840069  0.126346  1
  Nd  Nd12  1  0.355543  0.659473  0.122775  1
  Nd  Nd13  1  0.856048  0.839752  0.377563  1
  Nd  Nd14  1  0.645548  0.337132  0.622436  1
  Nd  Nd15  1  0.143485  0.161458  0.877384  1
  Nd  Nd16  1  0.307923  0.498475  0.751445  1
  Er  Er17  1  0.805332  0.002872  0.748613  1
  Er  Er18  1  0.694421  0.502820  0.250269  1
  Er  Er19  1  0.194438  0.996980  0.250024  1
  Sn  Sn20  1  0.193306  0.960444  0.044735  1
  Sn  Sn21  1  0.693439  0.539109  0.454959  1
  Sn  Sn22  1  0.790795  0.038102  0.542723  1
  Sn  Sn23  1  0.290765  0.461182  0.958373  1
  Sn  Sn24  1  0.817087  0.034538  0.958902  1
  Sn  Sn25  1  0.316998  0.464719  0.540178  1
  Sn  Sn26  1  0.196367  0.951854  0.447636  1
  Sn  Sn27  1  0.696223  0.547828  0.052418  1
  Sn  Sn28  1  0.684224  0.647333  0.748607  1
  Sn  Sn29  1  0.182497  0.856959  0.751497  1
  Sn  Sn30  1  0.318450  0.356881  0.249576  1
  Sn  Sn31  1  0.818621  0.142275  0.250391  1
  Sn  Sn32  1  0.446629  0.119577  0.751583  1
  Sn  Sn33  1  0.942472  0.377186  0.748472  1
  Sn  Sn34  1  0.554453  0.871997  0.248515  1
  Sn  Sn35  1  0.054286  0.628090  0.251201  1
