# generated using pymatgen
data_Nb4Al4V3Zn
_symmetry_space_group_name_H-M   'P 1'
_cell_length_a   5.01667297
_cell_length_b   5.01705604
_cell_length_c   8.49334300
_cell_angle_alpha   90.00000000
_cell_angle_beta   90.00000000
_cell_angle_gamma   60.81429192
_symmetry_Int_Tables_number   1
_chemical_formula_structural   Nb4Al4V3Zn
_chemical_formula_sum   'Nb4 Al4 V3 Zn1'
_cell_volume   186.62912106
_cell_formula_units_Z   1
loop_
 _symmetry_equiv_pos_site_id
 _symmetry_equiv_pos_as_xyz
  1  'x, y, z'
loop_
 _atom_site_type_symbol
 _atom_site_label
 _atom_site_symmetry_multiplicity
 _atom_site_fract_x
 _atom_site_fract_y
 _atom_site_fract_z
 _atom_site_occupancy
  Nb  Nb0  1  0.333844  0.333821  0.556648  1
  Nb  Nb1  1  0.664302  0.664255  0.437788  1
  Nb  Nb2  1  0.664302  0.664255  0.062212  1
  Nb  Nb3  1  0.333844  0.333821  0.943352  1
  Al  Al4  1  0.997168  0.997356  0.496814  1
  Al  Al5  1  0.997168  0.997356  0.003186  1
  Al  Al6  1  0.833154  0.345382  0.750000  1
  Al  Al7  1  0.345346  0.833168  0.750000  1
  V  V8  1  0.173010  0.652134  0.250000  1
  V  V9  1  0.652179  0.172951  0.250000  1
  V  V10  1  0.172582  0.172426  0.250000  1
  Zn  Zn11  1  0.833103  0.833076  0.750000  1
