# generated using pymatgen
data_SrSb6(S2I)4
_symmetry_space_group_name_H-M   'P 1'
_cell_length_a   7.48357617
_cell_length_b   9.48768725
_cell_length_c   9.55813843
_cell_angle_alpha   96.55385923
_cell_angle_beta   107.08587471
_cell_angle_gamma   95.77186542
_symmetry_Int_Tables_number   1
_chemical_formula_structural   SrSb6(S2I)4
_chemical_formula_sum   'Sr1 Sb6 S8 I4'
_cell_volume   637.99618358
_cell_formula_units_Z   1
loop_
 _symmetry_equiv_pos_site_id
 _symmetry_equiv_pos_as_xyz
  1  'x, y, z'
loop_
 _atom_site_type_symbol
 _atom_site_label
 _atom_site_symmetry_multiplicity
 _atom_site_fract_x
 _atom_site_fract_y
 _atom_site_fract_z
 _atom_site_occupancy
  Sr  Sr0  1  0.000000  0.000000  0.000000  1
  Sb  Sb1  1  0.245119  0.646673  0.146188  1
  Sb  Sb2  1  0.240406  0.934382  0.436328  1
  Sb  Sb3  1  0.754881  0.353327  0.853812  1
  Sb  Sb4  1  0.208605  0.298131  0.775623  1
  Sb  Sb5  1  0.791395  0.701869  0.224377  1
  Sb  Sb6  1  0.759594  0.065618  0.563672  1
  S  S7  1  0.648645  0.084938  0.791748  1
  S  S8  1  0.083764  0.323229  0.001556  1
  S  S9  1  0.916236  0.676771  0.998444  1
  S  S10  1  0.913301  0.973288  0.290820  1
  S  S11  1  0.099886  0.653738  0.380940  1
  S  S12  1  0.900114  0.346262  0.619060  1
  S  S13  1  0.351355  0.915062  0.208252  1
  S  S14  1  0.086699  0.026712  0.709180  1
  I  I15  1  0.351526  0.665841  0.866588  1
  I  I16  1  0.649114  0.735424  0.539690  1
  I  I17  1  0.648474  0.334159  0.133412  1
  I  I18  1  0.350886  0.264576  0.460310  1
