# generated using pymatgen
data_Y12Er4Cd4Ir3Pt
_symmetry_space_group_name_H-M   'P 1'
_cell_length_a   9.65814238
_cell_length_b   9.65814249
_cell_length_c   9.65814273
_cell_angle_alpha   60.07027808
_cell_angle_beta   60.07027715
_cell_angle_gamma   60.07028320
_symmetry_Int_Tables_number   1
_chemical_formula_structural   Y12Er4Cd4Ir3Pt
_chemical_formula_sum   'Y12 Er4 Cd4 Ir3 Pt1'
_cell_volume   638.05333821
_cell_formula_units_Z   1
loop_
 _symmetry_equiv_pos_site_id
 _symmetry_equiv_pos_as_xyz
  1  'x, y, z'
loop_
 _atom_site_type_symbol
 _atom_site_label
 _atom_site_symmetry_multiplicity
 _atom_site_fract_x
 _atom_site_fract_y
 _atom_site_fract_z
 _atom_site_occupancy
  Y  Y0  1  0.805101  0.191419  0.191419  1
  Y  Y1  1  0.189052  0.809631  0.809631  1
  Y  Y2  1  0.191419  0.805101  0.191419  1
  Y  Y3  1  0.809631  0.189052  0.809631  1
  Y  Y4  1  0.191419  0.191419  0.805101  1
  Y  Y5  1  0.809631  0.809631  0.189052  1
  Y  Y6  1  0.938939  0.562010  0.562010  1
  Y  Y7  1  0.563269  0.937901  0.937901  1
  Y  Y8  1  0.562010  0.938939  0.562010  1
  Y  Y9  1  0.937901  0.563269  0.937901  1
  Y  Y10  1  0.562010  0.562010  0.938939  1
  Y  Y11  1  0.937901  0.937901  0.563269  1
  Er  Er12  1  0.347486  0.347486  0.347486  1
  Er  Er13  1  0.351187  0.351187  0.952009  1
  Er  Er14  1  0.351187  0.952009  0.351187  1
  Er  Er15  1  0.952009  0.351187  0.351187  1
  Cd  Cd16  1  0.580342  0.580342  0.580342  1
  Cd  Cd17  1  0.580841  0.580841  0.257086  1
  Cd  Cd18  1  0.580841  0.257086  0.580841  1
  Cd  Cd19  1  0.257086  0.580841  0.580841  1
  Ir  Ir20  1  0.142769  0.142769  0.571832  1
  Ir  Ir21  1  0.142769  0.571832  0.142769  1
  Ir  Ir22  1  0.571832  0.142769  0.142769  1
  Pt  Pt23  1  0.143373  0.143373  0.143373  1
