# generated using pymatgen
data_LiHo16Co4Ag3
_symmetry_space_group_name_H-M   'P 1'
_cell_length_a   9.40254500
_cell_length_b   9.40254497
_cell_length_c   9.40254503
_cell_angle_alpha   60.14328994
_cell_angle_beta   60.14329335
_cell_angle_gamma   60.14328903
_symmetry_Int_Tables_number   1
_chemical_formula_structural   LiHo16Co4Ag3
_chemical_formula_sum   'Li1 Ho16 Co4 Ag3'
_cell_volume   589.69659443
_cell_formula_units_Z   1
loop_
 _symmetry_equiv_pos_site_id
 _symmetry_equiv_pos_as_xyz
  1  'x, y, z'
loop_
 _atom_site_type_symbol
 _atom_site_label
 _atom_site_symmetry_multiplicity
 _atom_site_fract_x
 _atom_site_fract_y
 _atom_site_fract_z
 _atom_site_occupancy
  Li  Li0  1  0.568458  0.568458  0.568458  1
  Ho  Ho1  1  0.348820  0.348820  0.348820  1
  Ho  Ho2  1  0.346597  0.346597  0.962155  1
  Ho  Ho3  1  0.346597  0.962155  0.346597  1
  Ho  Ho4  1  0.962155  0.346597  0.346597  1
  Ho  Ho5  1  0.813135  0.187881  0.187881  1
  Ho  Ho6  1  0.185352  0.813712  0.813712  1
  Ho  Ho7  1  0.187881  0.813135  0.187881  1
  Ho  Ho8  1  0.813712  0.185352  0.813712  1
  Ho  Ho9  1  0.187881  0.187881  0.813135  1
  Ho  Ho10  1  0.813712  0.813712  0.185352  1
  Ho  Ho11  1  0.939168  0.562261  0.562261  1
  Ho  Ho12  1  0.563358  0.936649  0.936649  1
  Ho  Ho13  1  0.562261  0.939168  0.562261  1
  Ho  Ho14  1  0.936649  0.563358  0.936649  1
  Ho  Ho15  1  0.562261  0.562261  0.939168  1
  Ho  Ho16  1  0.936649  0.936649  0.563358  1
  Co  Co17  1  0.142221  0.142221  0.142221  1
  Co  Co18  1  0.143641  0.143641  0.577064  1
  Co  Co19  1  0.143641  0.577064  0.143641  1
  Co  Co20  1  0.577064  0.143641  0.143641  1
  Ag  Ag21  1  0.582554  0.582554  0.253683  1
  Ag  Ag22  1  0.582554  0.253683  0.582554  1
  Ag  Ag23  1  0.253683  0.582554  0.582554  1
