# generated using pymatgen
data_Tm9Mg(Co2Au)2
_symmetry_space_group_name_H-M   'P 1'
_cell_length_a   8.32673994
_cell_length_b   8.32673963
_cell_length_c   8.32674100
_cell_angle_alpha   127.48109550
_cell_angle_beta   127.48108514
_cell_angle_gamma   77.46715968
_symmetry_Int_Tables_number   1
_chemical_formula_structural   Tm9Mg(Co2Au)2
_chemical_formula_sum   'Tm9 Mg1 Co4 Au2'
_cell_volume   352.62851956
_cell_formula_units_Z   1
loop_
 _symmetry_equiv_pos_site_id
 _symmetry_equiv_pos_as_xyz
  1  'x, y, z'
loop_
 _atom_site_type_symbol
 _atom_site_label
 _atom_site_symmetry_multiplicity
 _atom_site_fract_x
 _atom_site_fract_y
 _atom_site_fract_z
 _atom_site_occupancy
  Tm  Tm0  1  0.000000  0.000000  0.000000  1
  Tm  Tm1  1  0.790455  0.308934  0.834029  1
  Tm  Tm2  1  0.209545  0.691066  0.165971  1
  Tm  Tm3  1  0.474944  0.956415  0.165987  1
  Tm  Tm4  1  0.308986  0.474835  0.518423  1
  Tm  Tm5  1  0.043587  0.209433  0.518402  1
  Tm  Tm6  1  0.525056  0.043585  0.834013  1
  Tm  Tm7  1  0.691014  0.525165  0.481577  1
  Tm  Tm8  1  0.956413  0.790567  0.481598  1
  Mg  Mg9  1  0.500000  0.500000  0.000000  1
  Co  Co10  1  0.123899  0.630129  0.754053  1
  Co  Co11  1  0.876101  0.369871  0.245947  1
  Co  Co12  1  0.630553  0.875686  0.506193  1
  Co  Co13  1  0.369447  0.124314  0.493807  1
  Au  Au14  1  0.243918  0.243904  0.000011  1
  Au  Au15  1  0.756082  0.756096  0.999989  1
