# generated using pymatgen
data_MgCoCu3SbO6
_symmetry_space_group_name_H-M   'P 1'
_cell_length_a   5.43372599
_cell_length_b   5.43372570
_cell_length_c   6.05917819
_cell_angle_alpha   81.37334122
_cell_angle_beta   81.37333163
_cell_angle_gamma   119.96690018
_symmetry_Int_Tables_number   1
_chemical_formula_structural   MgCoCu3SbO6
_chemical_formula_sum   'Mg1 Co1 Cu3 Sb1 O6'
_cell_volume   147.85227851
_cell_formula_units_Z   1
loop_
 _symmetry_equiv_pos_site_id
 _symmetry_equiv_pos_as_xyz
  1  'x, y, z'
loop_
 _atom_site_type_symbol
 _atom_site_label
 _atom_site_symmetry_multiplicity
 _atom_site_fract_x
 _atom_site_fract_y
 _atom_site_fract_z
 _atom_site_occupancy
  Mg  Mg0  1  0.333301  0.666698  0.000000  1
  Co  Co1  1  0.666643  0.333356  0.000000  1
  Cu  Cu2  1  0.841612  0.158387  0.500000  1
  Cu  Cu3  1  0.501236  0.498762  0.500000  1
  Cu  Cu4  1  0.157243  0.842756  0.500000  1
  Sb  Sb5  1  0.999989  0.000011  0.000000  1
  O  O6  1  0.617833  0.621388  0.179273  1
  O  O7  1  0.258226  0.935988  0.179317  1
  O  O8  1  0.943895  0.262605  0.179070  1
  O  O9  1  0.064013  0.741775  0.820684  1
  O  O10  1  0.737396  0.056106  0.820931  1
  O  O11  1  0.378613  0.382168  0.820727  1
