# generated using pymatgen
data_Ce5U3(P3Ru4)4
_symmetry_space_group_name_H-M   'P 1'
_cell_length_a   12.99609600
_cell_length_b   12.99609575
_cell_length_c   4.00609300
_cell_angle_alpha   90.00000000
_cell_angle_beta   90.00000000
_cell_angle_gamma   120.00000063
_symmetry_Int_Tables_number   1
_chemical_formula_structural   Ce5U3(P3Ru4)4
_chemical_formula_sum   'Ce5 U3 P12 Ru16'
_cell_volume   585.97281625
_cell_formula_units_Z   1
loop_
 _symmetry_equiv_pos_site_id
 _symmetry_equiv_pos_as_xyz
  1  'x, y, z'
loop_
 _atom_site_type_symbol
 _atom_site_label
 _atom_site_symmetry_multiplicity
 _atom_site_fract_x
 _atom_site_fract_y
 _atom_site_fract_z
 _atom_site_occupancy
  Ce  Ce0  1  0.182348  0.182348  0.500000  1
  Ce  Ce1  1  0.817652  0.000000  0.500000  1
  Ce  Ce2  1  0.000000  0.817652  0.500000  1
  Ce  Ce3  1  0.333333  0.666667  0.000000  1
  Ce  Ce4  1  0.666667  0.333333  0.000000  1
  U  U5  1  0.557171  0.557171  0.000000  1
  U  U6  1  0.442829  0.000000  0.000000  1
  U  U7  1  0.000000  0.442829  0.000000  1
  P  P8  1  0.816579  0.816579  0.000000  1
  P  P9  1  0.183421  0.000000  0.000000  1
  P  P10  1  0.000000  0.183421  0.000000  1
  P  P11  1  0.178881  0.477909  0.500000  1
  P  P12  1  0.522091  0.700972  0.500000  1
  P  P13  1  0.299028  0.821119  0.500000  1
  P  P14  1  0.700972  0.522091  0.500000  1
  P  P15  1  0.821119  0.299028  0.500000  1
  P  P16  1  0.477909  0.178881  0.500000  1
  P  P17  1  0.346714  0.346714  0.000000  1
  P  P18  1  0.653286  0.000000  0.000000  1
  P  P19  1  0.000000  0.653286  0.000000  1
  Ru  Ru20  1  0.721005  0.721005  0.500000  1
  Ru  Ru21  1  0.278995  0.000000  0.500000  1
  Ru  Ru22  1  0.000000  0.278995  0.500000  1
  Ru  Ru23  1  0.182025  0.376942  0.000000  1
  Ru  Ru24  1  0.623058  0.805082  0.000000  1
  Ru  Ru25  1  0.194918  0.817975  0.000000  1
  Ru  Ru26  1  0.805082  0.623058  0.000000  1
  Ru  Ru27  1  0.817975  0.194918  0.000000  1
  Ru  Ru28  1  0.376942  0.182025  0.000000  1
  Ru  Ru29  1  0.369436  0.492841  0.500000  1
  Ru  Ru30  1  0.507159  0.876595  0.500000  1
  Ru  Ru31  1  0.123405  0.630564  0.500000  1
  Ru  Ru32  1  0.876595  0.507159  0.500000  1
  Ru  Ru33  1  0.630564  0.123405  0.500000  1
  Ru  Ru34  1  0.492841  0.369436  0.500000  1
  Ru  Ru35  1  0.000000  0.000000  0.000000  1
