# generated using pymatgen
data_Ho2Er14Cd3InPd4
_symmetry_space_group_name_H-M   'P 1'
_cell_length_a   9.63710977
_cell_length_b   9.63710911
_cell_length_c   9.63686189
_cell_angle_alpha   59.88703440
_cell_angle_beta   59.88704234
_cell_angle_gamma   59.88428095
_symmetry_Int_Tables_number   1
_chemical_formula_structural   Ho2Er14Cd3InPd4
_chemical_formula_sum   'Ho2 Er14 Cd3 In1 Pd4'
_cell_volume   631.23436389
_cell_formula_units_Z   1
loop_
 _symmetry_equiv_pos_site_id
 _symmetry_equiv_pos_as_xyz
  1  'x, y, z'
loop_
 _atom_site_type_symbol
 _atom_site_label
 _atom_site_symmetry_multiplicity
 _atom_site_fract_x
 _atom_site_fract_y
 _atom_site_fract_z
 _atom_site_occupancy
  Ho  Ho0  1  0.352105  0.352105  0.352104  1
  Ho  Ho1  1  0.356638  0.356638  0.934064  1
  Er  Er2  1  0.356600  0.934355  0.356579  1
  Er  Er3  1  0.934355  0.356600  0.356579  1
  Er  Er4  1  0.811095  0.188844  0.188921  1
  Er  Er5  1  0.190099  0.810548  0.810445  1
  Er  Er6  1  0.188844  0.811095  0.188921  1
  Er  Er7  1  0.810548  0.190099  0.810445  1
  Er  Er8  1  0.188643  0.188643  0.811308  1
  Er  Er9  1  0.810349  0.810349  0.190221  1
  Er  Er10  1  0.935611  0.566876  0.566979  1
  Er  Er11  1  0.565272  0.935345  0.935479  1
  Er  Er12  1  0.566876  0.935611  0.566979  1
  Er  Er13  1  0.935345  0.565272  0.935479  1
  Er  Er14  1  0.567019  0.567019  0.935576  1
  Er  Er15  1  0.935534  0.935534  0.565172  1
  Cd  Cd16  1  0.581731  0.581731  0.250308  1
  Cd  Cd17  1  0.581931  0.250187  0.581423  1
  Cd  Cd18  1  0.250187  0.581931  0.581423  1
  In  In19  1  0.583198  0.583198  0.582880  1
  Pd  Pd20  1  0.145721  0.145721  0.146133  1
  Pd  Pd21  1  0.143042  0.143042  0.566072  1
  Pd  Pd22  1  0.142937  0.566318  0.143255  1
  Pd  Pd23  1  0.566318  0.142937  0.143255  1
