# generated using pymatgen
data_Y8Al2IrRh
_symmetry_space_group_name_H-M   'P 1'
_cell_length_a   9.58192259
_cell_length_b   9.60330326
_cell_length_c   9.58192220
_cell_angle_alpha   59.92615908
_cell_angle_beta   59.86187635
_cell_angle_gamma   59.92615881
_symmetry_Int_Tables_number   1
_chemical_formula_structural   Y8Al2IrRh
_chemical_formula_sum   'Y16 Al4 Ir2 Rh2'
_cell_volume   622.11537689
_cell_formula_units_Z   2
loop_
 _symmetry_equiv_pos_site_id
 _symmetry_equiv_pos_as_xyz
  1  'x, y, z'
loop_
 _atom_site_type_symbol
 _atom_site_label
 _atom_site_symmetry_multiplicity
 _atom_site_fract_x
 _atom_site_fract_y
 _atom_site_fract_z
 _atom_site_occupancy
  Y  Y0  1  0.806996  0.193004  0.806996  1
  Y  Y1  1  0.937929  0.562522  0.561436  1
  Y  Y2  1  0.563184  0.936816  0.563184  1
  Y  Y3  1  0.806328  0.194073  0.192385  1
  Y  Y4  1  0.193331  0.806669  0.193331  1
  Y  Y5  1  0.352726  0.943327  0.352726  1
  Y  Y6  1  0.937929  0.938113  0.561436  1
  Y  Y7  1  0.561436  0.938113  0.937929  1
  Y  Y8  1  0.192385  0.807215  0.806328  1
  Y  Y9  1  0.353831  0.352276  0.941618  1
  Y  Y10  1  0.561436  0.562522  0.937929  1
  Y  Y11  1  0.352726  0.351222  0.352726  1
  Y  Y12  1  0.192385  0.194073  0.806328  1
  Y  Y13  1  0.806328  0.807215  0.192385  1
  Y  Y14  1  0.938687  0.561313  0.938687  1
  Y  Y15  1  0.941618  0.352276  0.353831  1
  Al  Al16  1  0.577789  0.578265  0.577789  1
  Al  Al17  1  0.577789  0.266159  0.577789  1
  Al  Al18  1  0.577559  0.577791  0.266860  1
  Al  Al19  1  0.266860  0.577791  0.577559  1
  Ir  Ir20  1  0.142619  0.572605  0.142619  1
  Ir  Ir21  1  0.142619  0.142156  0.142619  1
  Rh  Rh22  1  0.142173  0.142244  0.573338  1
  Rh  Rh23  1  0.573338  0.142244  0.142173  1
