# generated using pymatgen
data_Er4Lu16(SiSb3)3
_symmetry_space_group_name_H-M   'P 1'
_cell_length_a   7.86493750
_cell_length_b   8.95846100
_cell_length_c   11.64623200
_cell_angle_alpha   90.00000000
_cell_angle_beta   89.91577851
_cell_angle_gamma   90.00000000
_symmetry_Int_Tables_number   1
_chemical_formula_structural   Er4Lu16(SiSb3)3
_chemical_formula_sum   'Er4 Lu16 Si3 Sb9'
_cell_volume   820.56625121
_cell_formula_units_Z   1
loop_
 _symmetry_equiv_pos_site_id
 _symmetry_equiv_pos_as_xyz
  1  'x, y, z'
loop_
 _atom_site_type_symbol
 _atom_site_label
 _atom_site_symmetry_multiplicity
 _atom_site_fract_x
 _atom_site_fract_y
 _atom_site_fract_z
 _atom_site_occupancy
  Er  Er0  1  0.677510  0.250000  0.271457  1
  Er  Er1  1  0.835248  0.250000  0.785885  1
  Er  Er2  1  0.142114  0.250000  0.207470  1
  Er  Er3  1  0.344072  0.250000  0.714141  1
  Lu  Lu4  1  0.815680  0.945463  0.063459  1
  Lu  Lu5  1  0.311067  0.044185  0.431262  1
  Lu  Lu6  1  0.180293  0.447030  0.938652  1
  Lu  Lu7  1  0.687131  0.565829  0.565560  1
  Lu  Lu8  1  0.180293  0.052970  0.938652  1
  Lu  Lu9  1  0.687131  0.934171  0.565560  1
  Lu  Lu10  1  0.815680  0.554537  0.063459  1
  Lu  Lu11  1  0.311067  0.455815  0.431262  1
  Lu  Lu12  1  0.535383  0.250000  0.996433  1
  Lu  Lu13  1  0.041083  0.750000  0.502295  1
  Lu  Lu14  1  0.460986  0.750000  0.001789  1
  Lu  Lu15  1  0.975400  0.250000  0.497361  1
  Lu  Lu16  1  0.165613  0.750000  0.213605  1
  Lu  Lu17  1  0.334843  0.750000  0.715988  1
  Lu  Lu18  1  0.641031  0.750000  0.293351  1
  Lu  Lu19  1  0.858067  0.750000  0.794944  1
  Si  Si20  1  0.907964  0.250000  0.025165  1
  Si  Si21  1  0.416281  0.750000  0.480582  1
  Si  Si22  1  0.087663  0.750000  0.978306  1
  Sb  Sb23  1  0.932389  0.987409  0.326843  1
  Sb  Sb24  1  0.432445  0.009781  0.172632  1
  Sb  Sb25  1  0.066957  0.492345  0.674163  1
  Sb  Sb26  1  0.566874  0.510891  0.826252  1
  Sb  Sb27  1  0.066957  0.007655  0.674163  1
  Sb  Sb28  1  0.566874  0.989109  0.826252  1
  Sb  Sb29  1  0.932389  0.512591  0.326843  1
  Sb  Sb30  1  0.432445  0.490219  0.172632  1
  Sb  Sb31  1  0.591069  0.250000  0.523580  1
