# generated using pymatgen
data_Y4ScInGa2
_symmetry_space_group_name_H-M   'P 1'
_cell_length_a   7.61789100
_cell_length_b   7.61789100
_cell_length_c   14.44486500
_cell_angle_alpha   90.00000000
_cell_angle_beta   90.00000000
_cell_angle_gamma   90.00000000
_symmetry_Int_Tables_number   1
_chemical_formula_structural   Y4ScInGa2
_chemical_formula_sum   'Y16 Sc4 In4 Ga8'
_cell_volume   838.26820884
_cell_formula_units_Z   4
loop_
 _symmetry_equiv_pos_site_id
 _symmetry_equiv_pos_as_xyz
  1  'x, y, z'
loop_
 _atom_site_type_symbol
 _atom_site_label
 _atom_site_symmetry_multiplicity
 _atom_site_fract_x
 _atom_site_fract_y
 _atom_site_fract_z
 _atom_site_occupancy
  Y  Y0  1  0.833093  0.830229  0.891627  1
  Y  Y1  1  0.169771  0.166907  0.608373  1
  Y  Y2  1  0.833093  0.169771  0.391627  1
  Y  Y3  1  0.166907  0.830229  0.391627  1
  Y  Y4  1  0.330229  0.333093  0.391627  1
  Y  Y5  1  0.830229  0.166907  0.108373  1
  Y  Y6  1  0.330229  0.666907  0.891627  1
  Y  Y7  1  0.169771  0.833093  0.108373  1
  Y  Y8  1  0.333093  0.669771  0.608373  1
  Y  Y9  1  0.666907  0.669771  0.108373  1
  Y  Y10  1  0.666907  0.330229  0.608373  1
  Y  Y11  1  0.830229  0.833093  0.608373  1
  Y  Y12  1  0.669771  0.333093  0.891627  1
  Y  Y13  1  0.166907  0.169771  0.891627  1
  Y  Y14  1  0.669771  0.666907  0.391627  1
  Y  Y15  1  0.333093  0.330229  0.108373  1
  Sc  Sc16  1  0.500000  0.000000  0.752349  1
  Sc  Sc17  1  0.000000  0.500000  0.247651  1
  Sc  Sc18  1  0.000000  0.500000  0.747651  1
  Sc  Sc19  1  0.500000  0.000000  0.252349  1
  In  In20  1  0.000000  0.500000  0.002174  1
  In  In21  1  0.500000  0.000000  0.997826  1
  In  In22  1  0.500000  0.000000  0.497826  1
  In  In23  1  0.000000  0.500000  0.502174  1
  Ga  Ga24  1  0.628730  0.371270  0.250000  1
  Ga  Ga25  1  0.371270  0.628730  0.250000  1
  Ga  Ga26  1  0.128730  0.128730  0.250000  1
  Ga  Ga27  1  0.371270  0.371270  0.750000  1
  Ga  Ga28  1  0.128730  0.871270  0.750000  1
  Ga  Ga29  1  0.871270  0.871270  0.250000  1
  Ga  Ga30  1  0.628730  0.628730  0.750000  1
  Ga  Ga31  1  0.871270  0.128730  0.750000  1
