# generated using pymatgen
data_Dy3Ho5(ErIn3)2
_symmetry_space_group_name_H-M   'P 1'
_cell_length_a   9.12879219
_cell_length_b   9.12879192
_cell_length_c   9.12713911
_cell_angle_alpha   96.39668040
_cell_angle_beta   96.41194034
_cell_angle_gamma   140.98244788
_symmetry_Int_Tables_number   1
_chemical_formula_structural   Dy3Ho5(ErIn3)2
_chemical_formula_sum   'Dy3 Ho5 Er2 In6'
_cell_volume   451.34685975
_cell_formula_units_Z   1
loop_
 _symmetry_equiv_pos_site_id
 _symmetry_equiv_pos_as_xyz
  1  'x, y, z'
loop_
 _atom_site_type_symbol
 _atom_site_label
 _atom_site_symmetry_multiplicity
 _atom_site_fract_x
 _atom_site_fract_y
 _atom_site_fract_z
 _atom_site_occupancy
  Dy  Dy0  1  0.781952  0.918307  0.700260  1
  Dy  Dy1  1  0.417808  0.282178  0.699987  1
  Dy  Dy2  1  0.082527  0.782278  0.864805  1
  Ho  Ho3  1  0.717703  0.418423  0.136126  1
  Ho  Ho4  1  0.282735  0.581980  0.864715  1
  Ho  Ho5  1  0.582054  0.717584  0.299638  1
  Ho  Ho6  1  0.217448  0.082015  0.299463  1
  Ho  Ho7  1  0.917856  0.217754  0.135609  1
  Er  Er8  1  0.749821  0.249678  0.499568  1
  Er  Er9  1  0.249890  0.749746  0.499568  1
  In  In10  1  0.838142  0.660722  0.498864  1
  In  In11  1  0.338773  0.838340  0.177113  1
  In  In12  1  0.750344  0.750664  0.000986  1
  In  In13  1  0.661739  0.161478  0.823218  1
  In  In14  1  0.160886  0.338211  0.499097  1
  In  In15  1  0.250322  0.250641  0.000986  1
