# generated using pymatgen
data_Pr4SmYTa2O14
_symmetry_space_group_name_H-M   'P 1'
_cell_length_a   6.67411977
_cell_length_b   6.67062282
_cell_length_c   7.72162500
_cell_angle_alpha   90.00000000
_cell_angle_beta   90.00000000
_cell_angle_gamma   108.80624961
_symmetry_Int_Tables_number   1
_chemical_formula_structural   Pr4SmYTa2O14
_chemical_formula_sum   'Pr4 Sm1 Y1 Ta2 O14'
_cell_volume   325.41836453
_cell_formula_units_Z   1
loop_
 _symmetry_equiv_pos_site_id
 _symmetry_equiv_pos_as_xyz
  1  'x, y, z'
loop_
 _atom_site_type_symbol
 _atom_site_label
 _atom_site_symmetry_multiplicity
 _atom_site_fract_x
 _atom_site_fract_y
 _atom_site_fract_z
 _atom_site_occupancy
  Pr  Pr0  1  0.469119  0.470352  0.500882  1
  Pr  Pr1  1  0.469119  0.470352  0.999118  1
  Pr  Pr2  1  0.539056  0.994797  0.750000  1
  Pr  Pr3  1  0.993691  0.536379  0.250000  1
  Sm  Sm4  1  0.466484  0.995939  0.250000  1
  Y  Y5  1  0.996612  0.471262  0.750000  1
  Ta  Ta6  1  0.999120  0.998793  0.501046  1
  Ta  Ta7  1  0.999120  0.998793  0.998954  1
  O  O8  1  0.695664  0.943920  0.463564  1
  O  O9  1  0.950703  0.697326  0.540166  1
  O  O10  1  0.695664  0.943920  0.036436  1
  O  O11  1  0.950703  0.697326  0.959834  1
  O  O12  1  0.320395  0.076662  0.524560  1
  O  O13  1  0.073077  0.320807  0.479052  1
  O  O14  1  0.320395  0.076662  0.975440  1
  O  O15  1  0.073077  0.320807  0.020948  1
  O  O16  1  0.942805  0.058495  0.750000  1
  O  O17  1  0.058475  0.942991  0.250000  1
  O  O18  1  0.355393  0.622791  0.750000  1
  O  O19  1  0.624927  0.361565  0.250000  1
  O  O20  1  0.644911  0.363548  0.750000  1
  O  O21  1  0.361490  0.636513  0.250000  1
