# generated using pymatgen
data_TbBi5SbWO14
_symmetry_space_group_name_H-M   'P 1'
_cell_length_a   6.58344060
_cell_length_b   6.96308470
_cell_length_c   7.66628681
_cell_angle_alpha   105.79567607
_cell_angle_beta   89.95522888
_cell_angle_gamma   101.94637677
_symmetry_Int_Tables_number   1
_chemical_formula_structural   TbBi5SbWO14
_chemical_formula_sum   'Tb1 Bi5 Sb1 W1 O14'
_cell_volume   330.25940137
_cell_formula_units_Z   1
loop_
 _symmetry_equiv_pos_site_id
 _symmetry_equiv_pos_as_xyz
  1  'x, y, z'
loop_
 _atom_site_type_symbol
 _atom_site_label
 _atom_site_symmetry_multiplicity
 _atom_site_fract_x
 _atom_site_fract_y
 _atom_site_fract_z
 _atom_site_occupancy
  Tb  Tb0  1  0.536720  0.006710  0.748850  1
  Bi  Bi1  1  0.475776  0.990492  0.249401  1
  Bi  Bi2  1  0.270265  0.504883  0.874428  1
  Bi  Bi3  1  0.742367  0.490535  0.125634  1
  Bi  Bi4  1  0.744603  0.527730  0.626407  1
  Bi  Bi5  1  0.259191  0.470757  0.378230  1
  Sb  Sb6  1  0.001373  0.000890  0.998601  1
  W  W7  1  0.000587  0.000419  0.500876  1
  O  O8  1  0.468374  0.632790  0.176757  1
  O  O9  1  0.539656  0.351085  0.815760  1
  O  O10  1  0.285472  0.957067  0.945748  1
  O  O11  1  0.709708  0.048597  0.041863  1
  O  O12  1  0.269127  0.948593  0.533132  1
  O  O13  1  0.718799  0.053432  0.483622  1
  O  O14  1  0.535511  0.341919  0.360154  1
  O  O15  1  0.470092  0.657793  0.639857  1
  O  O16  1  0.902988  0.698698  0.965833  1
  O  O17  1  0.092952  0.304106  0.030892  1
  O  O18  1  0.104880  0.311431  0.608716  1
  O  O19  1  0.893981  0.691115  0.391861  1
  O  O20  1  0.890458  0.933026  0.735020  1
  O  O21  1  0.087122  0.077930  0.268357  1
