# generated using pymatgen
data_Y4Lu8Tl2Fe2Tc
_symmetry_space_group_name_H-M   'P 1'
_cell_length_a   8.26894527
_cell_length_b   8.26894632
_cell_length_c   8.26894501
_cell_angle_alpha   108.71514419
_cell_angle_beta   108.71514740
_cell_angle_gamma   110.99418754
_symmetry_Int_Tables_number   1
_chemical_formula_structural   Y4Lu8Tl2Fe2Tc
_chemical_formula_sum   'Y4 Lu8 Tl2 Fe2 Tc1'
_cell_volume   435.00837971
_cell_formula_units_Z   1
loop_
 _symmetry_equiv_pos_site_id
 _symmetry_equiv_pos_as_xyz
  1  'x, y, z'
loop_
 _atom_site_type_symbol
 _atom_site_label
 _atom_site_symmetry_multiplicity
 _atom_site_fract_x
 _atom_site_fract_y
 _atom_site_fract_z
 _atom_site_occupancy
  Y  Y0  1  0.305432  0.305432  0.610865  1
  Y  Y1  1  0.694568  0.694568  0.389135  1
  Y  Y2  1  0.694568  0.305432  0.000000  1
  Y  Y3  1  0.305432  0.694568  0.000000  1
  Lu  Lu4  1  0.191353  0.428422  0.237068  1
  Lu  Lu5  1  0.808647  0.571578  0.762932  1
  Lu  Lu6  1  0.191353  0.954284  0.762932  1
  Lu  Lu7  1  0.954284  0.191353  0.762932  1
  Lu  Lu8  1  0.808647  0.045716  0.237068  1
  Lu  Lu9  1  0.045716  0.808647  0.237068  1
  Lu  Lu10  1  0.428422  0.191353  0.237068  1
  Lu  Lu11  1  0.571578  0.808647  0.762932  1
  Tl  Tl12  1  0.000000  0.500000  0.500000  1
  Tl  Tl13  1  0.500000  0.000000  0.500000  1
  Fe  Fe14  1  0.383224  0.383224  0.000000  1
  Fe  Fe15  1  0.616776  0.616776  0.000000  1
  Tc  Tc16  1  0.000000  0.000000  0.000000  1
