# generated using pymatgen
data_Y4Ru3PtF28
_symmetry_space_group_name_H-M   'P 1'
_cell_length_a   5.56615187
_cell_length_b   8.91901802
_cell_length_c   11.99795318
_cell_angle_alpha   63.23261761
_cell_angle_beta   90.02074678
_cell_angle_gamma   90.12473897
_symmetry_Int_Tables_number   1
_chemical_formula_structural   Y4Ru3PtF28
_chemical_formula_sum   'Y4 Ru3 Pt1 F28'
_cell_volume   531.80559818
_cell_formula_units_Z   1
loop_
 _symmetry_equiv_pos_site_id
 _symmetry_equiv_pos_as_xyz
  1  'x, y, z'
loop_
 _atom_site_type_symbol
 _atom_site_label
 _atom_site_symmetry_multiplicity
 _atom_site_fract_x
 _atom_site_fract_y
 _atom_site_fract_z
 _atom_site_occupancy
  Y  Y0  1  0.259788  0.811735  0.265950  1
  Y  Y1  1  0.741537  0.192271  0.730506  1
  Y  Y2  1  0.759369  0.186112  0.234410  1
  Y  Y3  1  0.240085  0.813259  0.768203  1
  Ru  Ru4  1  0.756001  0.726743  0.043738  1
  Ru  Ru5  1  0.243939  0.272890  0.956435  1
  Ru  Ru6  1  0.256278  0.273510  0.455092  1
  Pt  Pt7  1  0.742220  0.728445  0.543443  1
  F  F8  1  0.938352  0.701442  0.417432  1
  F  F9  1  0.057771  0.294343  0.582583  1
  F  F10  1  0.445599  0.292968  0.083274  1
  F  F11  1  0.554417  0.706803  0.916362  1
  F  F12  1  0.467995  0.729766  0.138381  1
  F  F13  1  0.530813  0.268103  0.862521  1
  F  F14  1  0.968657  0.273482  0.359781  1
  F  F15  1  0.034495  0.729658  0.635965  1
  F  F16  1  0.955150  0.747406  0.173047  1
  F  F17  1  0.045126  0.250185  0.828436  1
  F  F18  1  0.452471  0.254047  0.325099  1
  F  F19  1  0.549080  0.748343  0.674081  1
  F  F20  1  0.768844  0.487716  0.138465  1
  F  F21  1  0.230761  0.512250  0.860355  1
  F  F22  1  0.268191  0.513895  0.361107  1
  F  F23  1  0.729429  0.482563  0.642484  1
  F  F24  1  0.950542  0.279985  0.047202  1
  F  F25  1  0.050957  0.719120  0.953801  1
  F  F26  1  0.444382  0.718275  0.457780  1
  F  F27  1  0.551481  0.279334  0.544267  1
  F  F28  1  0.743580  0.974567  0.450499  1
  F  F29  1  0.256803  0.035236  0.547106  1
  F  F30  1  0.244148  0.034338  0.048891  1
  F  F31  1  0.755645  0.964579  0.952242  1
  F  F32  1  0.582809  0.968437  0.232605  1
  F  F33  1  0.420527  0.029158  0.767499  1
  F  F34  1  0.082610  0.026628  0.268869  1
  F  F35  1  0.920148  0.972406  0.732086  1
