# generated using pymatgen
data_Ta4MnCo5Os2
_symmetry_space_group_name_H-M   'P 1'
_cell_length_a   4.84470700
_cell_length_b   4.84470731
_cell_length_c   8.04986000
_cell_angle_alpha   90.00000000
_cell_angle_beta   90.00000000
_cell_angle_gamma   120.25566164
_symmetry_Int_Tables_number   1
_chemical_formula_structural   Ta4MnCo5Os2
_chemical_formula_sum   'Ta4 Mn1 Co5 Os2'
_cell_volume   163.20347795
_cell_formula_units_Z   1
loop_
 _symmetry_equiv_pos_site_id
 _symmetry_equiv_pos_as_xyz
  1  'x, y, z'
loop_
 _atom_site_type_symbol
 _atom_site_label
 _atom_site_symmetry_multiplicity
 _atom_site_fract_x
 _atom_site_fract_y
 _atom_site_fract_z
 _atom_site_occupancy
  Ta  Ta0  1  0.333942  0.666058  0.427125  1
  Ta  Ta1  1  0.668140  0.331860  0.569444  1
  Ta  Ta2  1  0.668140  0.331860  0.930556  1
  Ta  Ta3  1  0.333942  0.666058  0.072875  1
  Mn  Mn4  1  0.171576  0.828424  0.750000  1
  Co  Co5  1  0.166914  0.348556  0.750000  1
  Co  Co6  1  0.651444  0.833086  0.750000  1
  Co  Co7  1  0.829077  0.170923  0.250000  1
  Co  Co8  1  0.829616  0.656145  0.250000  1
  Co  Co9  1  0.343855  0.170384  0.250000  1
  Os  Os10  1  0.001677  0.998323  0.499997  1
  Os  Os11  1  0.001677  0.998323  0.000003  1
