# generated using pymatgen
data_Lu4Al4IrRh3
_symmetry_space_group_name_H-M   'P 1'
_cell_length_a   4.21110700
_cell_length_b   6.72517762
_cell_length_c   7.86900744
_cell_angle_alpha   90.10545415
_cell_angle_beta   90.00000000
_cell_angle_gamma   90.00000000
_symmetry_Int_Tables_number   1
_chemical_formula_structural   Lu4Al4IrRh3
_chemical_formula_sum   'Lu4 Al4 Ir1 Rh3'
_cell_volume   222.85339579
_cell_formula_units_Z   1
loop_
 _symmetry_equiv_pos_site_id
 _symmetry_equiv_pos_as_xyz
  1  'x, y, z'
loop_
 _atom_site_type_symbol
 _atom_site_label
 _atom_site_symmetry_multiplicity
 _atom_site_fract_x
 _atom_site_fract_y
 _atom_site_fract_z
 _atom_site_occupancy
  Lu  Lu0  1  0.250000  0.963290  0.320834  1
  Lu  Lu1  1  0.750000  0.535918  0.821567  1
  Lu  Lu2  1  0.250000  0.467044  0.178334  1
  Lu  Lu3  1  0.750000  0.035005  0.678346  1
  Al  Al4  1  0.750000  0.638344  0.439757  1
  Al  Al5  1  0.750000  0.139535  0.059251  1
  Al  Al6  1  0.250000  0.361218  0.559073  1
  Al  Al7  1  0.250000  0.860881  0.940599  1
  Ir  Ir8  1  0.750000  0.764138  0.123844  1
  Rh  Rh9  1  0.750000  0.261604  0.378359  1
  Rh  Rh10  1  0.250000  0.236389  0.877032  1
  Rh  Rh11  1  0.250000  0.736632  0.623005  1
