# generated using pymatgen
data_Eu2Tm3Ge4
_symmetry_space_group_name_H-M   'P 1'
_cell_length_a   7.58192105
_cell_length_b   7.89127989
_cell_length_c   14.97827900
_cell_angle_alpha   90.02013377
_cell_angle_beta   89.79181465
_cell_angle_gamma   90.06060476
_symmetry_Int_Tables_number   1
_chemical_formula_structural   Eu2Tm3Ge4
_chemical_formula_sum   'Eu8 Tm12 Ge16'
_cell_volume   896.15985504
_cell_formula_units_Z   4
loop_
 _symmetry_equiv_pos_site_id
 _symmetry_equiv_pos_as_xyz
  1  'x, y, z'
loop_
 _atom_site_type_symbol
 _atom_site_label
 _atom_site_symmetry_multiplicity
 _atom_site_fract_x
 _atom_site_fract_y
 _atom_site_fract_z
 _atom_site_occupancy
  Eu  Eu0  1  0.013177  0.176821  0.094793  1
  Eu  Eu1  1  0.986813  0.823233  0.905163  1
  Eu  Eu2  1  0.486944  0.676727  0.905176  1
  Eu  Eu3  1  0.987272  0.823223  0.595248  1
  Eu  Eu4  1  0.513021  0.323280  0.094726  1
  Eu  Eu5  1  0.012446  0.176770  0.405284  1
  Eu  Eu6  1  0.512698  0.323727  0.405182  1
  Eu  Eu7  1  0.487625  0.676644  0.595043  1
  Tm  Tm8  1  0.161274  0.514232  0.749906  1
  Tm  Tm9  1  0.838635  0.485929  0.249997  1
  Tm  Tm10  1  0.339011  0.014054  0.249936  1
  Tm  Tm11  1  0.661092  0.985817  0.749877  1
  Tm  Tm12  1  0.323183  0.170500  0.622764  1
  Tm  Tm13  1  0.676910  0.829206  0.377413  1
  Tm  Tm14  1  0.176533  0.670833  0.377462  1
  Tm  Tm15  1  0.677336  0.829441  0.122309  1
  Tm  Tm16  1  0.823443  0.329339  0.622697  1
  Tm  Tm17  1  0.322531  0.170467  0.877515  1
  Tm  Tm18  1  0.822606  0.329440  0.877531  1
  Tm  Tm19  1  0.177333  0.670514  0.122348  1
  Ge  Ge20  1  0.025998  0.125277  0.750122  1
  Ge  Ge21  1  0.973765  0.875035  0.249762  1
  Ge  Ge22  1  0.473477  0.625151  0.249695  1
  Ge  Ge23  1  0.526355  0.374900  0.750216  1
  Ge  Ge24  1  0.283913  0.876070  0.750058  1
  Ge  Ge25  1  0.716325  0.123273  0.249685  1
  Ge  Ge26  1  0.215613  0.376651  0.249772  1
  Ge  Ge27  1  0.784320  0.623611  0.750090  1
  Ge  Ge28  1  0.844896  0.536353  0.458419  1
  Ge  Ge29  1  0.344498  0.963671  0.458403  1
  Ge  Ge30  1  0.845333  0.535766  0.041918  1
  Ge  Ge31  1  0.655690  0.035650  0.541749  1
  Ge  Ge32  1  0.154661  0.464334  0.958042  1
  Ge  Ge33  1  0.654543  0.035658  0.958060  1
  Ge  Ge34  1  0.345354  0.964310  0.041903  1
  Ge  Ge35  1  0.155374  0.464092  0.541734  1
