# generated using pymatgen
data_TbCeTi3Si4
_symmetry_space_group_name_H-M   'P 1'
_cell_length_a   7.08762083
_cell_length_b   7.08672740
_cell_length_c   13.07627827
_cell_angle_alpha   90.18189901
_cell_angle_beta   90.05427340
_cell_angle_gamma   90.15572594
_symmetry_Int_Tables_number   1
_chemical_formula_structural   TbCeTi3Si4
_chemical_formula_sum   'Tb4 Ce4 Ti12 Si16'
_cell_volume   656.78974860
_cell_formula_units_Z   4
loop_
 _symmetry_equiv_pos_site_id
 _symmetry_equiv_pos_as_xyz
  1  'x, y, z'
loop_
 _atom_site_type_symbol
 _atom_site_label
 _atom_site_symmetry_multiplicity
 _atom_site_fract_x
 _atom_site_fract_y
 _atom_site_fract_z
 _atom_site_occupancy
  Tb  Tb0  1  0.161976  0.505646  0.783826  1
  Tb  Tb1  1  0.659878  0.997632  0.967153  1
  Tb  Tb2  1  0.003959  0.337113  0.532499  1
  Tb  Tb3  1  0.998615  0.661486  0.032184  1
  Ce  Ce4  1  0.337485  0.003731  0.467072  1
  Ce  Ce5  1  0.494132  0.838335  0.715550  1
  Ce  Ce6  1  0.512609  0.168730  0.217477  1
  Ce  Ce7  1  0.831878  0.488533  0.281898  1
  Ti  Ti8  1  0.326901  0.326512  0.001357  1
  Ti  Ti9  1  0.173520  0.826528  0.250797  1
  Ti  Ti10  1  0.824284  0.173100  0.750487  1
  Ti  Ti11  1  0.671505  0.674274  0.499948  1
  Ti  Ti12  1  0.155276  0.009471  0.878262  1
  Ti  Ti13  1  0.493703  0.654658  0.126252  1
  Ti  Ti14  1  0.509361  0.342031  0.628421  1
  Ti  Ti15  1  0.656036  0.495300  0.872240  1
  Ti  Ti16  1  0.342903  0.506368  0.372100  1
  Ti  Ti17  1  0.844254  0.990605  0.376462  1
  Ti  Ti18  1  0.008919  0.155789  0.121378  1
  Ti  Ti19  1  0.994900  0.844457  0.622989  1
  Si  Si20  1  0.198018  0.130427  0.688664  1
  Si  Si21  1  0.371679  0.701286  0.937244  1
  Si  Si22  1  0.627612  0.300375  0.439977  1
  Si  Si23  1  0.701485  0.373763  0.060161  1
  Si  Si24  1  0.298219  0.624767  0.563055  1
  Si  Si25  1  0.800617  0.869315  0.185323  1
  Si  Si26  1  0.128910  0.198815  0.312011  1
  Si  Si27  1  0.871701  0.800230  0.814430  1
  Si  Si28  1  0.292503  0.954141  0.067070  1
  Si  Si29  1  0.544627  0.790797  0.314378  1
  Si  Si30  1  0.453540  0.210983  0.817032  1
  Si  Si31  1  0.792959  0.545724  0.684854  1
  Si  Si32  1  0.207621  0.456977  0.184113  1
  Si  Si33  1  0.711616  0.044353  0.566139  1
  Si  Si34  1  0.953857  0.291944  0.933280  1
  Si  Si35  1  0.042943  0.705805  0.433922  1
