# generated using pymatgen
data_SmTm3Pd4F28
_symmetry_space_group_name_H-M   'P 1'
_cell_length_a   5.48582323
_cell_length_b   8.80858875
_cell_length_c   11.89664637
_cell_angle_alpha   62.54772684
_cell_angle_beta   90.10334151
_cell_angle_gamma   90.04164804
_symmetry_Int_Tables_number   1
_chemical_formula_structural   SmTm3Pd4F28
_chemical_formula_sum   'Sm1 Tm3 Pd4 F28'
_cell_volume   510.13960446
_cell_formula_units_Z   1
loop_
 _symmetry_equiv_pos_site_id
 _symmetry_equiv_pos_as_xyz
  1  'x, y, z'
loop_
 _atom_site_type_symbol
 _atom_site_label
 _atom_site_symmetry_multiplicity
 _atom_site_fract_x
 _atom_site_fract_y
 _atom_site_fract_z
 _atom_site_occupancy
  Sm  Sm0  1  0.738088  0.815340  0.264491  1
  Tm  Tm1  1  0.762226  0.816071  0.763679  1
  Tm  Tm2  1  0.262553  0.184636  0.736437  1
  Tm  Tm3  1  0.236501  0.190399  0.235515  1
  Pd  Pd4  1  0.759633  0.275324  0.955098  1
  Pd  Pd5  1  0.258268  0.726006  0.546676  1
  Pd  Pd6  1  0.242898  0.726565  0.039340  1
  Pd  Pd7  1  0.741333  0.268874  0.459007  1
  F  F8  1  0.436628  0.702912  0.911804  1
  F  F9  1  0.937707  0.294907  0.585341  1
  F  F10  1  0.564362  0.298118  0.082892  1
  F  F11  1  0.068440  0.701682  0.418084  1
  F  F12  1  0.440706  0.277323  0.544331  1
  F  F13  1  0.938431  0.720960  0.955540  1
  F  F14  1  0.558840  0.716668  0.463886  1
  F  F15  1  0.060347  0.281566  0.041468  1
  F  F16  1  0.773063  0.524130  0.856775  1
  F  F17  1  0.270704  0.476310  0.644503  1
  F  F18  1  0.227961  0.477852  0.140227  1
  F  F19  1  0.727087  0.516180  0.359590  1
  F  F20  1  0.755997  0.027685  0.046439  1
  F  F21  1  0.257280  0.974001  0.451946  1
  F  F22  1  0.245039  0.974904  0.948029  1
  F  F23  1  0.744127  0.020879  0.552001  1
  F  F24  1  0.962013  0.726562  0.636696  1
  F  F25  1  0.464937  0.274309  0.863440  1
  F  F26  1  0.036431  0.272828  0.366379  1
  F  F27  1  0.538516  0.723529  0.129867  1
  F  F28  1  0.060117  0.742120  0.173790  1
  F  F29  1  0.549932  0.252529  0.325837  1
  F  F30  1  0.950767  0.255953  0.823290  1
  F  F31  1  0.447356  0.745054  0.678643  1
  F  F32  1  0.399473  0.975620  0.230147  1
  F  F33  1  0.913123  0.041417  0.268710  1
  F  F34  1  0.584600  0.029514  0.767518  1
  F  F35  1  0.084517  0.971274  0.732583  1
