# generated using pymatgen
data_NaNd6PtCl12
_symmetry_space_group_name_H-M   'P 1'
_cell_length_a   9.33828964
_cell_length_b   9.32494247
_cell_length_c   9.25353570
_cell_angle_alpha   107.17302958
_cell_angle_beta   107.92016802
_cell_angle_gamma   107.60097538
_symmetry_Int_Tables_number   1
_chemical_formula_structural   NaNd6PtCl12
_chemical_formula_sum   'Na1 Nd6 Pt1 Cl12'
_cell_volume   660.43638470
_cell_formula_units_Z   1
loop_
 _symmetry_equiv_pos_site_id
 _symmetry_equiv_pos_as_xyz
  1  'x, y, z'
loop_
 _atom_site_type_symbol
 _atom_site_label
 _atom_site_symmetry_multiplicity
 _atom_site_fract_x
 _atom_site_fract_y
 _atom_site_fract_z
 _atom_site_occupancy
  Na  Na0  1  0.500000  0.500000  0.500000  1
  Nd  Nd1  1  0.124599  0.331922  0.025892  1
  Nd  Nd2  1  0.332455  0.028191  0.124181  1
  Nd  Nd3  1  0.026311  0.119167  0.325462  1
  Nd  Nd4  1  0.973690  0.880833  0.674539  1
  Nd  Nd5  1  0.667545  0.971810  0.875819  1
  Nd  Nd6  1  0.875401  0.668078  0.974108  1
  Pt  Pt7  1  0.000000  0.000000  0.000000  1
  Cl  Cl8  1  0.205624  0.684602  0.071314  1
  Cl  Cl9  1  0.451984  0.363344  0.165029  1
  Cl  Cl10  1  0.684592  0.072494  0.206034  1
  Cl  Cl11  1  0.930540  0.793613  0.318301  1
  Cl  Cl12  1  0.165392  0.448804  0.362279  1
  Cl  Cl13  1  0.363613  0.164267  0.452059  1
  Cl  Cl14  1  0.636387  0.835733  0.547942  1
  Cl  Cl15  1  0.834609  0.551196  0.637721  1
  Cl  Cl16  1  0.069461  0.206387  0.681700  1
  Cl  Cl17  1  0.315409  0.927507  0.793966  1
  Cl  Cl18  1  0.548016  0.636656  0.834972  1
  Cl  Cl19  1  0.794376  0.315398  0.928686  1
