# generated using pymatgen
data_DyEr3Ga18(RuPt2)2
_symmetry_space_group_name_H-M   'P 1'
_cell_length_a   7.63746378
_cell_length_b   7.63714717
_cell_length_c   9.49040208
_cell_angle_alpha   90.01419657
_cell_angle_beta   89.99057284
_cell_angle_gamma   119.90007772
_symmetry_Int_Tables_number   1
_chemical_formula_structural   DyEr3Ga18(RuPt2)2
_chemical_formula_sum   'Dy1 Er3 Ga18 Ru2 Pt4'
_cell_volume   479.87923477
_cell_formula_units_Z   1
loop_
 _symmetry_equiv_pos_site_id
 _symmetry_equiv_pos_as_xyz
  1  'x, y, z'
loop_
 _atom_site_type_symbol
 _atom_site_label
 _atom_site_symmetry_multiplicity
 _atom_site_fract_x
 _atom_site_fract_y
 _atom_site_fract_z
 _atom_site_occupancy
  Dy  Dy0  1  0.996778  0.671784  0.249957  1
  Er  Er1  1  0.328079  0.003618  0.750281  1
  Er  Er2  1  0.671782  0.996733  0.250124  1
  Er  Er3  1  0.003131  0.327773  0.749912  1
  Ga  Ga4  1  0.866264  0.866354  0.749722  1
  Ga  Ga5  1  0.133676  0.133800  0.249720  1
  Ga  Ga6  1  0.661556  0.668199  0.431419  1
  Ga  Ga7  1  0.337707  0.331757  0.930187  1
  Ga  Ga8  1  0.667462  0.661672  0.068678  1
  Ga  Ga9  1  0.331983  0.338003  0.569985  1
  Ga  Ga10  1  0.451594  0.662609  0.746743  1
  Ga  Ga11  1  0.547451  0.336639  0.246509  1
  Ga  Ga12  1  0.662537  0.451588  0.753326  1
  Ga  Ga13  1  0.337218  0.547905  0.253506  1
  Ga  Ga14  1  0.992588  0.334036  0.081726  1
  Ga  Ga15  1  0.007845  0.665380  0.583658  1
  Ga  Ga16  1  0.335457  0.993221  0.418407  1
  Ga  Ga17  1  0.665081  0.007425  0.916924  1
  Ga  Ga18  1  0.996594  0.658948  0.917492  1
  Ga  Ga19  1  0.003807  0.340339  0.419279  1
  Ga  Ga20  1  0.659245  0.996826  0.582235  1
  Ga  Ga21  1  0.341162  0.003985  0.080889  1
  Ru  Ru22  1  0.328683  0.671729  0.500277  1
  Ru  Ru23  1  0.671541  0.328413  0.999706  1
  Pt  Pt24  1  0.000655  0.999999  0.499678  1
  Pt  Pt25  1  0.999246  0.000067  0.999570  1
  Pt  Pt26  1  0.671470  0.329676  0.500064  1
  Pt  Pt27  1  0.329408  0.671523  0.000025  1
