# generated using pymatgen
data_Dy8Sc12Sn5Pb11
_symmetry_space_group_name_H-M   'P 1'
_cell_length_a   7.86154754
_cell_length_b   15.04848000
_cell_length_c   7.94371600
_cell_angle_alpha   90.00000000
_cell_angle_beta   90.06159178
_cell_angle_gamma   90.00000000
_symmetry_Int_Tables_number   1
_chemical_formula_structural   Dy8Sc12Sn5Pb11
_chemical_formula_sum   'Dy8 Sc12 Sn5 Pb11'
_cell_volume   939.77554316
_cell_formula_units_Z   1
loop_
 _symmetry_equiv_pos_site_id
 _symmetry_equiv_pos_as_xyz
  1  'x, y, z'
loop_
 _atom_site_type_symbol
 _atom_site_label
 _atom_site_symmetry_multiplicity
 _atom_site_fract_x
 _atom_site_fract_y
 _atom_site_fract_z
 _atom_site_occupancy
  Dy  Dy0  1  0.477962  0.598042  0.677135  1
  Dy  Dy1  1  0.973568  0.903159  0.824987  1
  Dy  Dy2  1  0.523628  0.095494  0.324943  1
  Dy  Dy3  1  0.024280  0.404203  0.174932  1
  Dy  Dy4  1  0.523628  0.404506  0.324943  1
  Dy  Dy5  1  0.024280  0.095797  0.174932  1
  Dy  Dy6  1  0.477962  0.901958  0.677135  1
  Dy  Dy7  1  0.973568  0.596841  0.824987  1
  Sc  Sc8  1  0.636032  0.627461  0.157770  1
  Sc  Sc9  1  0.135927  0.872693  0.339926  1
  Sc  Sc10  1  0.363671  0.126872  0.840291  1
  Sc  Sc11  1  0.864089  0.373137  0.659595  1
  Sc  Sc12  1  0.363671  0.373128  0.840291  1
  Sc  Sc13  1  0.864089  0.126863  0.659595  1
  Sc  Sc14  1  0.636032  0.872539  0.157770  1
  Sc  Sc15  1  0.135927  0.627307  0.339926  1
  Sc  Sc16  1  0.802562  0.750000  0.492135  1
  Sc  Sc17  1  0.306796  0.750000  0.009284  1
  Sc  Sc18  1  0.195776  0.250000  0.511051  1
  Sc  Sc19  1  0.695703  0.250000  0.989065  1
  Sn  Sn20  1  0.442857  0.750000  0.371076  1
  Sn  Sn21  1  0.942074  0.750000  0.126901  1
  Sn  Sn22  1  0.557020  0.250000  0.628368  1
  Sn  Sn23  1  0.057251  0.250000  0.871442  1
  Sn  Sn24  1  0.668329  0.750000  0.850605  1
  Pb  Pb25  1  0.699956  0.456952  0.956189  1
  Pb  Pb26  1  0.200288  0.042302  0.544095  1
  Pb  Pb27  1  0.299383  0.956970  0.043197  1
  Pb  Pb28  1  0.799846  0.543205  0.455704  1
  Pb  Pb29  1  0.299383  0.543030  0.043197  1
  Pb  Pb30  1  0.799846  0.956795  0.455704  1
  Pb  Pb31  1  0.699956  0.043048  0.956189  1
  Pb  Pb32  1  0.200288  0.457698  0.544095  1
  Pb  Pb33  1  0.165136  0.750000  0.652481  1
  Pb  Pb34  1  0.334704  0.250000  0.152798  1
  Pb  Pb35  1  0.834532  0.250000  0.347259  1
