# generated using pymatgen
data_Yb3YTh6(Pb3C)2
_symmetry_space_group_name_H-M   'P 1'
_cell_length_a   9.33930000
_cell_length_b   9.33929959
_cell_length_c   6.63382800
_cell_angle_alpha   90.00000000
_cell_angle_beta   90.00000000
_cell_angle_gamma   120.00000854
_symmetry_Int_Tables_number   1
_chemical_formula_structural   Yb3YTh6(Pb3C)2
_chemical_formula_sum   'Yb3 Y1 Th6 Pb6 C2'
_cell_volume   501.09888286
_cell_formula_units_Z   1
loop_
 _symmetry_equiv_pos_site_id
 _symmetry_equiv_pos_as_xyz
  1  'x, y, z'
loop_
 _atom_site_type_symbol
 _atom_site_label
 _atom_site_symmetry_multiplicity
 _atom_site_fract_x
 _atom_site_fract_y
 _atom_site_fract_z
 _atom_site_occupancy
  Yb  Yb0  1  0.666667  0.333333  0.000000  1
  Yb  Yb1  1  0.333333  0.666667  0.000000  1
  Yb  Yb2  1  0.333333  0.666667  0.500000  1
  Y  Y3  1  0.666667  0.333333  0.500000  1
  Th  Th4  1  0.782130  0.782270  0.749781  1
  Th  Th5  1  0.217730  0.999861  0.749781  1
  Th  Th6  1  0.000139  0.217870  0.749781  1
  Th  Th7  1  0.217730  0.217870  0.250219  1
  Th  Th8  1  0.782130  0.999861  0.250219  1
  Th  Th9  1  0.000139  0.782270  0.250219  1
  Pb  Pb10  1  0.408720  0.407219  0.747531  1
  Pb  Pb11  1  0.592781  0.001500  0.747531  1
  Pb  Pb12  1  0.998500  0.591280  0.747531  1
  Pb  Pb13  1  0.592781  0.591280  0.252469  1
  Pb  Pb14  1  0.408720  0.001500  0.252469  1
  Pb  Pb15  1  0.998500  0.407219  0.252469  1
  C  C16  1  0.000000  0.000000  0.000000  1
  C  C17  1  0.000000  0.000000  0.500000  1
