# generated using pymatgen
data_PrYNp6F30
_symmetry_space_group_name_H-M   'P 1'
_cell_length_a   8.67767398
_cell_length_b   8.67767371
_cell_length_c   8.68694719
_cell_angle_alpha   79.60056178
_cell_angle_beta   79.60055185
_cell_angle_gamma   100.36364655
_symmetry_Int_Tables_number   1
_chemical_formula_structural   PrYNp6F30
_chemical_formula_sum   'Pr1 Y1 Np6 F30'
_cell_volume   617.37782230
_cell_formula_units_Z   1
loop_
 _symmetry_equiv_pos_site_id
 _symmetry_equiv_pos_as_xyz
  1  'x, y, z'
loop_
 _atom_site_type_symbol
 _atom_site_label
 _atom_site_symmetry_multiplicity
 _atom_site_fract_x
 _atom_site_fract_y
 _atom_site_fract_z
 _atom_site_occupancy
  Pr  Pr0  1  0.177335  0.822665  0.250000  1
  Y  Y1  1  0.822845  0.177155  0.750000  1
  Np  Np2  1  0.749415  0.250585  0.250000  1
  Np  Np3  1  0.250831  0.749169  0.750000  1
  Np  Np4  1  0.753147  0.676677  0.678092  1
  Np  Np5  1  0.323323  0.246853  0.821908  1
  Np  Np6  1  0.244400  0.322198  0.325085  1
  Np  Np7  1  0.677802  0.755600  0.174915  1
  F  F8  1  0.322044  0.344893  0.050917  1
  F  F9  1  0.938811  0.814573  0.152735  1
  F  F10  1  0.840154  0.448548  0.683378  1
  F  F11  1  0.457588  0.846236  0.177075  1
  F  F12  1  0.812184  0.942225  0.661187  1
  F  F13  1  0.346081  0.323093  0.550315  1
  F  F14  1  0.676907  0.653919  0.949684  1
  F  F15  1  0.057775  0.187816  0.838813  1
  F  F16  1  0.153764  0.542412  0.322925  1
  F  F17  1  0.551452  0.159846  0.816622  1
  F  F18  1  0.185427  0.061189  0.347265  1
  F  F19  1  0.655107  0.677956  0.449083  1
  F  F20  1  0.778112  0.276232  0.993031  1
  F  F21  1  0.011765  0.278547  0.216631  1
  F  F22  1  0.779728  0.509833  0.221112  1
  F  F23  1  0.509474  0.779213  0.722166  1
  F  F24  1  0.279944  0.011548  0.716679  1
  F  F25  1  0.282621  0.776734  0.493974  1
  F  F26  1  0.223266  0.717379  0.006026  1
  F  F27  1  0.988452  0.720056  0.783321  1
  F  F28  1  0.220787  0.490526  0.777834  1
  F  F29  1  0.490167  0.220272  0.278888  1
  F  F30  1  0.721453  0.988235  0.283369  1
  F  F31  1  0.723768  0.221888  0.506969  1
  F  F32  1  0.465942  0.534058  0.250000  1
  F  F33  1  0.752035  0.964707  0.966859  1
  F  F34  1  0.035293  0.247965  0.533141  1
  F  F35  1  0.249837  0.041062  0.027103  1
  F  F36  1  0.958938  0.750163  0.472897  1
  F  F37  1  0.532029  0.467971  0.750000  1
