# generated using pymatgen
data_La2Pr2Nd2OsI10
_symmetry_space_group_name_H-M   'P 1'
_cell_length_a   8.10298378
_cell_length_b   10.18978393
_cell_length_c   10.01002566
_cell_angle_alpha   107.26776791
_cell_angle_beta   96.40261854
_cell_angle_gamma   105.71448005
_symmetry_Int_Tables_number   1
_chemical_formula_structural   La2Pr2Nd2OsI10
_chemical_formula_sum   'La2 Pr2 Nd2 Os1 I10'
_cell_volume   743.01077126
_cell_formula_units_Z   1
loop_
 _symmetry_equiv_pos_site_id
 _symmetry_equiv_pos_as_xyz
  1  'x, y, z'
loop_
 _atom_site_type_symbol
 _atom_site_label
 _atom_site_symmetry_multiplicity
 _atom_site_fract_x
 _atom_site_fract_y
 _atom_site_fract_z
 _atom_site_occupancy
  La  La0  1  0.386914  0.958356  0.727786  1
  La  La1  1  0.613086  0.041644  0.272214  1
  Pr  Pr2  1  0.469434  0.294119  0.589964  1
  Pr  Pr3  1  0.530566  0.705881  0.410036  1
  Nd  Nd4  1  0.858341  0.132869  0.675574  1
  Nd  Nd5  1  0.141659  0.867131  0.324426  1
  Os  Os6  1  0.500000  0.000000  0.500000  1
  I  I7  1  0.415128  0.630064  0.679611  1
  I  I8  1  0.584872  0.369936  0.320389  1
  I  I9  1  0.288825  0.261237  0.850629  1
  I  I10  1  0.711175  0.738763  0.149371  1
  I  I11  1  0.855709  0.453822  0.771133  1
  I  I12  1  0.144291  0.546178  0.228867  1
  I  I13  1  0.046546  0.178570  0.411618  1
  I  I14  1  0.238661  0.913132  0.041470  1
  I  I15  1  0.761339  0.086868  0.958530  1
  I  I16  1  0.953454  0.821430  0.588382  1
