# generated using pymatgen
data_Sm3CdPd3Au2
_symmetry_space_group_name_H-M   'P 1'
_cell_length_a   7.73673560
_cell_length_b   7.63883597
_cell_length_c   3.87514400
_cell_angle_alpha   90.00000000
_cell_angle_beta   90.00000000
_cell_angle_gamma   119.58229391
_symmetry_Int_Tables_number   1
_chemical_formula_structural   Sm3CdPd3Au2
_chemical_formula_sum   'Sm3 Cd1 Pd3 Au2'
_cell_volume   199.16639084
_cell_formula_units_Z   1
loop_
 _symmetry_equiv_pos_site_id
 _symmetry_equiv_pos_as_xyz
  1  'x, y, z'
loop_
 _atom_site_type_symbol
 _atom_site_label
 _atom_site_symmetry_multiplicity
 _atom_site_fract_x
 _atom_site_fract_y
 _atom_site_fract_z
 _atom_site_occupancy
  Sm  Sm0  1  0.410387  0.395197  0.500000  1
  Sm  Sm1  1  0.589613  0.984810  0.500000  1
  Sm  Sm2  1  0.000000  0.629760  0.500000  1
  Cd  Cd3  1  0.000000  0.262077  0.000000  1
  Pd  Pd4  1  0.676251  0.330212  0.000000  1
  Pd  Pd5  1  0.323749  0.653962  0.000000  1
  Pd  Pd6  1  0.000000  0.007264  0.500000  1
  Au  Au7  1  0.728705  0.732712  0.000000  1
  Au  Au8  1  0.271295  0.004007  0.000000  1
