# generated using pymatgen
data_Tb3Sb9O26
_symmetry_space_group_name_H-M   'P 1'
_cell_length_a   7.40872500
_cell_length_b   7.35528540
_cell_length_c   10.34129335
_cell_angle_alpha   89.24255611
_cell_angle_beta   90.00000000
_cell_angle_gamma   90.00000000
_symmetry_Int_Tables_number   1
_chemical_formula_structural   Tb3Sb9O26
_chemical_formula_sum   'Tb3 Sb9 O26'
_cell_volume   563.48182276
_cell_formula_units_Z   1
loop_
 _symmetry_equiv_pos_site_id
 _symmetry_equiv_pos_as_xyz
  1  'x, y, z'
loop_
 _atom_site_type_symbol
 _atom_site_label
 _atom_site_symmetry_multiplicity
 _atom_site_fract_x
 _atom_site_fract_y
 _atom_site_fract_z
 _atom_site_occupancy
  Tb  Tb0  1  0.250000  0.742177  0.749664  1
  Tb  Tb1  1  0.498218  0.495449  0.003166  1
  Tb  Tb2  1  0.001782  0.495449  0.003166  1
  Sb  Sb3  1  0.750000  0.272624  0.277948  1
  Sb  Sb4  1  0.500457  0.998554  0.997292  1
  Sb  Sb5  1  0.750000  0.756943  0.744932  1
  Sb  Sb6  1  0.250000  0.749394  0.252662  1
  Sb  Sb7  1  0.496246  0.504021  0.500819  1
  Sb  Sb8  1  0.003754  0.504021  0.500819  1
  Sb  Sb9  1  0.750000  0.253743  0.746567  1
  Sb  Sb10  1  0.250000  0.241348  0.252109  1
  Sb  Sb11  1  0.999543  0.998554  0.997292  1
  O  O12  1  0.451036  0.691079  0.369388  1
  O  O13  1  0.750000  0.450799  0.134708  1
  O  O14  1  0.250000  0.493167  0.165819  1
  O  O15  1  0.456095  0.309374  0.365671  1
  O  O16  1  0.557874  0.213942  0.884015  1
  O  O17  1  0.942126  0.213942  0.884015  1
  O  O18  1  0.442364  0.203024  0.117270  1
  O  O19  1  0.750000  0.989439  0.067259  1
  O  O20  1  0.250000  0.984875  0.914566  1
  O  O21  1  0.750000  0.005179  0.683970  1
  O  O22  1  0.544051  0.794039  0.871491  1
  O  O23  1  0.955949  0.794039  0.871491  1
  O  O24  1  0.440364  0.787321  0.113256  1
  O  O25  1  0.048964  0.691079  0.369388  1
  O  O26  1  0.541765  0.698352  0.632348  1
  O  O27  1  0.958235  0.698352  0.632348  1
  O  O28  1  0.250000  0.522014  0.576868  1
  O  O29  1  0.750000  0.507962  0.838120  1
  O  O30  1  0.750000  0.481446  0.422797  1
  O  O31  1  0.043905  0.309374  0.365671  1
  O  O32  1  0.550920  0.313462  0.628193  1
  O  O33  1  0.949080  0.313462  0.628193  1
  O  O34  1  0.057636  0.203024  0.117270  1
  O  O35  1  0.250000  0.996779  0.318653  1
  O  O36  1  0.059636  0.787321  0.113256  1
  O  O37  1  0.250000  0.534880  0.887539  1
