# generated using pymatgen
data_Th2Mn2Cr3(PRh)7
_symmetry_space_group_name_H-M   'P 1'
_cell_length_a   9.51615710
_cell_length_b   9.50297571
_cell_length_c   3.87178600
_cell_angle_alpha   90.00000000
_cell_angle_beta   90.00000000
_cell_angle_gamma   120.19740883
_symmetry_Int_Tables_number   1
_chemical_formula_structural   Th2Mn2Cr3(PRh)7
_chemical_formula_sum   'Th2 Mn2 Cr3 P7 Rh7'
_cell_volume   302.61876117
_cell_formula_units_Z   1
loop_
 _symmetry_equiv_pos_site_id
 _symmetry_equiv_pos_as_xyz
  1  'x, y, z'
loop_
 _atom_site_type_symbol
 _atom_site_label
 _atom_site_symmetry_multiplicity
 _atom_site_fract_x
 _atom_site_fract_y
 _atom_site_fract_z
 _atom_site_occupancy
  Th  Th0  1  0.334707  0.667819  0.000000  1
  Th  Th1  1  0.000609  0.998579  0.500000  1
  Mn  Mn2  1  0.933927  0.485008  0.000000  1
  Mn  Mn3  1  0.508777  0.447105  0.000000  1
  Cr  Cr4  1  0.553483  0.065630  0.000000  1
  Cr  Cr5  1  0.767962  0.553103  0.500000  1
  Cr  Cr6  1  0.446955  0.217359  0.500000  1
  P  P7  1  0.772155  0.035636  0.000000  1
  P  P8  1  0.957975  0.729325  0.000000  1
  P  P9  1  0.266318  0.226208  0.000000  1
  P  P10  1  0.389556  0.942500  0.500000  1
  P  P11  1  0.060474  0.450717  0.500000  1
  P  P12  1  0.554939  0.608692  0.500000  1
  P  P13  1  0.664837  0.338730  0.000000  1
  Rh  Rh14  1  0.033623  0.270704  0.000000  1
  Rh  Rh15  1  0.730370  0.761603  0.000000  1
  Rh  Rh16  1  0.233891  0.965731  0.000000  1
  Rh  Rh17  1  0.612588  0.892104  0.500000  1
  Rh  Rh18  1  0.105722  0.717657  0.500000  1
  Rh  Rh19  1  0.278414  0.387878  0.500000  1
  Rh  Rh20  1  0.792719  0.237913  0.500000  1
