# generated using pymatgen
data_Tb14Dy2MgHg3Ru3Rh
_symmetry_space_group_name_H-M   'P 1'
_cell_length_a   9.65630303
_cell_length_b   9.66056073
_cell_length_c   9.66227900
_cell_angle_alpha   59.94593326
_cell_angle_beta   59.90688315
_cell_angle_gamma   59.92379329
_symmetry_Int_Tables_number   1
_chemical_formula_structural   Tb14Dy2MgHg3Ru3Rh
_chemical_formula_sum   'Tb14 Dy2 Mg1 Hg3 Ru3 Rh1'
_cell_volume   636.27304447
_cell_formula_units_Z   1
loop_
 _symmetry_equiv_pos_site_id
 _symmetry_equiv_pos_as_xyz
  1  'x, y, z'
loop_
 _atom_site_type_symbol
 _atom_site_label
 _atom_site_symmetry_multiplicity
 _atom_site_fract_x
 _atom_site_fract_y
 _atom_site_fract_z
 _atom_site_occupancy
  Tb  Tb0  1  0.061878  0.438560  0.439045  1
  Tb  Tb1  1  0.651427  0.041191  0.652601  1
  Tb  Tb2  1  0.812807  0.812219  0.189976  1
  Tb  Tb3  1  0.436438  0.062224  0.061913  1
  Tb  Tb4  1  0.438686  0.437519  0.061395  1
  Tb  Tb5  1  0.190853  0.190010  0.809937  1
  Tb  Tb6  1  0.813487  0.187881  0.187581  1
  Tb  Tb7  1  0.062276  0.436258  0.061622  1
  Tb  Tb8  1  0.438447  0.061329  0.437763  1
  Tb  Tb9  1  0.052282  0.648831  0.648821  1
  Tb  Tb10  1  0.193627  0.809526  0.809206  1
  Tb  Tb11  1  0.651514  0.652621  0.041021  1
  Tb  Tb12  1  0.191202  0.810035  0.190155  1
  Tb  Tb13  1  0.061919  0.061697  0.436688  1
  Dy  Dy14  1  0.812795  0.190010  0.812030  1
  Dy  Dy15  1  0.652114  0.653019  0.653386  1
  Mg  Mg16  1  0.713146  0.429670  0.429853  1
  Hg  Hg17  1  0.418945  0.413992  0.754530  1
  Hg  Hg18  1  0.419138  0.413357  0.413300  1
  Hg  Hg19  1  0.418806  0.754523  0.414057  1
  Ru  Ru20  1  0.861731  0.420869  0.857305  1
  Ru  Ru21  1  0.421812  0.858687  0.858769  1
  Ru  Ru22  1  0.861775  0.857299  0.421054  1
  Rh  Rh23  1  0.862894  0.858675  0.857992  1
