# generated using pymatgen
data_Ba8Er3Lu(FeO5)4
_symmetry_space_group_name_H-M   'P 1'
_cell_length_a   6.11821704
_cell_length_b   7.90093745
_cell_length_c   12.69503925
_cell_angle_alpha   91.65410554
_cell_angle_beta   90.00371631
_cell_angle_gamma   89.98735035
_symmetry_Int_Tables_number   1
_chemical_formula_structural   Ba8Er3Lu(FeO5)4
_chemical_formula_sum   'Ba8 Er3 Lu1 Fe4 O20'
_cell_volume   613.41802397
_cell_formula_units_Z   1
loop_
 _symmetry_equiv_pos_site_id
 _symmetry_equiv_pos_as_xyz
  1  'x, y, z'
loop_
 _atom_site_type_symbol
 _atom_site_label
 _atom_site_symmetry_multiplicity
 _atom_site_fract_x
 _atom_site_fract_y
 _atom_site_fract_z
 _atom_site_occupancy
  Ba  Ba0  1  0.755979  0.488754  0.352196  1
  Ba  Ba1  1  0.744382  0.990220  0.852757  1
  Ba  Ba2  1  0.243878  0.510032  0.648289  1
  Ba  Ba3  1  0.255610  0.011197  0.146821  1
  Ba  Ba4  1  0.753366  0.994140  0.379268  1
  Ba  Ba5  1  0.747035  0.493225  0.879439  1
  Ba  Ba6  1  0.246477  0.006629  0.621807  1
  Ba  Ba7  1  0.253196  0.505421  0.119807  1
  Er  Er8  1  0.750828  0.263800  0.631596  1
  Er  Er9  1  0.749309  0.763848  0.130352  1
  Er  Er10  1  0.249233  0.736022  0.369343  1
  Lu  Lu11  1  0.250870  0.236968  0.869057  1
  Fe  Fe12  1  0.737598  0.743710  0.584528  1
  Fe  Fe13  1  0.762081  0.243528  0.082461  1
  Fe  Fe14  1  0.262200  0.256150  0.415978  1
  Fe  Fe15  1  0.237825  0.755940  0.915173  1
  O  O16  1  0.760412  0.972293  0.635871  1
  O  O17  1  0.740021  0.471506  0.134999  1
  O  O18  1  0.239566  0.028011  0.364277  1
  O  O19  1  0.259910  0.525917  0.865264  1
  O  O20  1  0.737423  0.057473  0.172777  1
  O  O21  1  0.763104  0.556606  0.673871  1
  O  O22  1  0.262562  0.946115  0.828096  1
  O  O23  1  0.236896  0.442854  0.326249  1
  O  O24  1  0.539314  0.747349  0.270316  1
  O  O25  1  0.965666  0.247284  0.770485  1
  O  O26  1  0.461796  0.252403  0.732027  1
  O  O27  1  0.038785  0.752765  0.229502  1
  O  O28  1  0.538716  0.227168  0.976980  1
  O  O29  1  0.957343  0.726521  0.477791  1
  O  O30  1  0.457527  0.773066  0.022051  1
  O  O31  1  0.041991  0.273426  0.522575  1
  O  O32  1  0.038835  0.232480  0.012769  1
  O  O33  1  0.460343  0.732453  0.516096  1
  O  O34  1  0.960794  0.767167  0.984058  1
  O  O35  1  0.539129  0.267559  0.485076  1
