# generated using pymatgen
data_Dy5P12Ru16Pt2Rh
_symmetry_space_group_name_H-M   'P 1'
_cell_length_a   12.61747970
_cell_length_b   12.60308932
_cell_length_c   3.97547700
_cell_angle_alpha   90.00000000
_cell_angle_beta   90.00000000
_cell_angle_gamma   120.24062898
_symmetry_Int_Tables_number   1
_chemical_formula_structural   Dy5P12Ru16Pt2Rh
_chemical_formula_sum   'Dy5 P12 Ru16 Pt2 Rh1'
_cell_volume   546.14924882
_cell_formula_units_Z   1
loop_
 _symmetry_equiv_pos_site_id
 _symmetry_equiv_pos_as_xyz
  1  'x, y, z'
loop_
 _atom_site_type_symbol
 _atom_site_label
 _atom_site_symmetry_multiplicity
 _atom_site_fract_x
 _atom_site_fract_y
 _atom_site_fract_z
 _atom_site_occupancy
  Dy  Dy0  1  0.670439  0.336146  0.000000  1
  Dy  Dy1  1  0.332347  0.666144  0.000000  1
  Dy  Dy2  1  0.814924  0.998925  0.500000  1
  Dy  Dy3  1  0.182937  0.183788  0.500000  1
  Dy  Dy4  1  0.000775  0.815984  0.500000  1
  P  P5  1  0.628032  0.987611  0.000000  1
  P  P6  1  0.358899  0.371429  0.000000  1
  P  P7  1  0.007666  0.635743  0.000000  1
  P  P8  1  0.701051  0.528930  0.500000  1
  P  P9  1  0.836177  0.311056  0.500000  1
  P  P10  1  0.307027  0.828378  0.500000  1
  P  P11  1  0.520319  0.691708  0.500000  1
  P  P12  1  0.184171  0.001059  0.000000  1
  P  P13  1  0.816116  0.816007  0.000000  1
  P  P14  1  0.996781  0.181174  0.000000  1
  P  P15  1  0.472338  0.167906  0.500000  1
  P  P16  1  0.170894  0.478204  0.500000  1
  Ru  Ru17  1  0.619928  0.799285  0.000000  1
  Ru  Ru18  1  0.178047  0.377826  0.000000  1
  Ru  Ru19  1  0.378753  0.188473  0.000000  1
  Ru  Ru20  1  0.198061  0.819642  0.000000  1
  Ru  Ru21  1  0.809576  0.623524  0.000000  1
  Ru  Ru22  1  0.126383  0.634473  0.500000  1
  Ru  Ru23  1  0.364136  0.489557  0.500000  1
  Ru  Ru24  1  0.509032  0.874179  0.500000  1
  Ru  Ru25  1  0.999947  0.999378  0.000000  1
  Ru  Ru26  1  0.715851  0.715259  0.500000  1
  Ru  Ru27  1  0.997737  0.281437  0.500000  1
  Ru  Ru28  1  0.453741  0.006314  0.000000  1
  Ru  Ru29  1  0.551604  0.546259  0.000000  1
  Ru  Ru30  1  0.993045  0.445209  0.000000  1
  Ru  Ru31  1  0.811227  0.189287  0.000000  1
  Ru  Ru32  1  0.284240  0.001125  0.500000  1
  Pt  Pt33  1  0.500194  0.367245  0.500000  1
  Pt  Pt34  1  0.635437  0.134302  0.500000  1
  Rh  Rh35  1  0.872168  0.507036  0.500000  1
