# generated using pymatgen
data_Pr8Ho8Sc4Si15As
_symmetry_space_group_name_H-M   'P 1'
_cell_length_a   7.43358861
_cell_length_b   7.74376083
_cell_length_c   14.68000867
_cell_angle_alpha   90.19880390
_cell_angle_beta   88.86780234
_cell_angle_gamma   90.30997652
_symmetry_Int_Tables_number   1
_chemical_formula_structural   Pr8Ho8Sc4Si15As
_chemical_formula_sum   'Pr8 Ho8 Sc4 Si15 As1'
_cell_volume   844.85690213
_cell_formula_units_Z   1
loop_
 _symmetry_equiv_pos_site_id
 _symmetry_equiv_pos_as_xyz
  1  'x, y, z'
loop_
 _atom_site_type_symbol
 _atom_site_label
 _atom_site_symmetry_multiplicity
 _atom_site_fract_x
 _atom_site_fract_y
 _atom_site_fract_z
 _atom_site_occupancy
  Pr  Pr0  1  0.015301  0.181286  0.402717  1
  Pr  Pr1  1  0.511512  0.320679  0.400079  1
  Pr  Pr2  1  0.480508  0.679043  0.900336  1
  Pr  Pr3  1  0.491445  0.677736  0.599700  1
  Pr  Pr4  1  0.984407  0.818127  0.596998  1
  Pr  Pr5  1  0.980015  0.820309  0.900700  1
  Pr  Pr6  1  0.520594  0.321798  0.099779  1
  Pr  Pr7  1  0.020551  0.180277  0.099254  1
  Ho  Ho8  1  0.329665  0.173095  0.627325  1
  Ho  Ho9  1  0.671741  0.825684  0.373184  1
  Ho  Ho10  1  0.167271  0.673323  0.378655  1
  Ho  Ho11  1  0.822934  0.322570  0.874941  1
  Ho  Ho12  1  0.830182  0.327413  0.621229  1
  Ho  Ho13  1  0.321072  0.176114  0.874790  1
  Ho  Ho14  1  0.176933  0.677458  0.124364  1
  Ho  Ho15  1  0.678681  0.823912  0.124588  1
  Sc  Sc16  1  0.656423  0.991215  0.749768  1
  Sc  Sc17  1  0.841723  0.491309  0.253620  1
  Sc  Sc18  1  0.343932  0.008475  0.250388  1
  Sc  Sc19  1  0.157787  0.510006  0.749937  1
  Si  Si20  1  0.280918  0.871307  0.750133  1
  Si  Si21  1  0.469361  0.611365  0.248427  1
  Si  Si22  1  0.022011  0.107854  0.748461  1
  Si  Si23  1  0.529348  0.389373  0.751197  1
  Si  Si24  1  0.977945  0.892341  0.250455  1
  Si  Si25  1  0.720179  0.127728  0.249561  1
  Si  Si26  1  0.854164  0.531941  0.040324  1
  Si  Si27  1  0.354973  0.969151  0.040623  1
  Si  Si28  1  0.145488  0.468876  0.958657  1
  Si  Si29  1  0.651764  0.033349  0.539550  1
  Si  Si30  1  0.348626  0.965628  0.461617  1
  Si  Si31  1  0.820037  0.535021  0.453293  1
  Si  Si32  1  0.782876  0.624783  0.749517  1
  Si  Si33  1  0.218314  0.376189  0.250435  1
  Si  Si34  1  0.644893  0.031669  0.959077  1
  As  As35  1  0.176423  0.463597  0.546320  1
