# generated using pymatgen
data_Nd6Co13Ni3(P6Ru)2
_symmetry_space_group_name_H-M   'P 1'
_cell_length_a   3.80059800
_cell_length_b   10.63522394
_cell_length_c   12.45397207
_cell_angle_alpha   89.95220239
_cell_angle_beta   90.00000000
_cell_angle_gamma   90.00000000
_symmetry_Int_Tables_number   1
_chemical_formula_structural   Nd6Co13Ni3(P6Ru)2
_chemical_formula_sum   'Nd6 Co13 Ni3 P12 Ru2'
_cell_volume   503.39200150
_cell_formula_units_Z   1
loop_
 _symmetry_equiv_pos_site_id
 _symmetry_equiv_pos_as_xyz
  1  'x, y, z'
loop_
 _atom_site_type_symbol
 _atom_site_label
 _atom_site_symmetry_multiplicity
 _atom_site_fract_x
 _atom_site_fract_y
 _atom_site_fract_z
 _atom_site_occupancy
  Nd  Nd0  1  0.000000  0.499989  0.521231  1
  Nd  Nd1  1  0.500000  0.000013  0.478728  1
  Nd  Nd2  1  0.500000  0.814888  0.206043  1
  Nd  Nd3  1  0.500000  0.185439  0.206297  1
  Nd  Nd4  1  0.000000  0.685441  0.793932  1
  Nd  Nd5  1  0.000000  0.314119  0.793407  1
  Co  Co6  1  0.000000  0.499123  0.986117  1
  Co  Co7  1  0.500000  0.999823  0.014364  1
  Co  Co8  1  0.500000  0.667443  0.992769  1
  Co  Co9  1  0.000000  0.168099  0.008793  1
  Co  Co10  1  0.000000  0.832856  0.007983  1
  Co  Co11  1  0.500000  0.300046  0.428967  1
  Co  Co12  1  0.500000  0.700694  0.429062  1
  Co  Co13  1  0.000000  0.199872  0.571382  1
  Co  Co14  1  0.000000  0.799559  0.570946  1
  Co  Co15  1  0.500000  0.881537  0.711737  1
  Co  Co16  1  0.500000  0.117432  0.711043  1
  Co  Co17  1  0.000000  0.618767  0.288044  1
  Co  Co18  1  0.000000  0.382694  0.289406  1
  Ni  Ni19  1  0.500000  0.500167  0.702723  1
  Ni  Ni20  1  0.000000  0.000674  0.296441  1
  Ni  Ni21  1  0.500000  0.330728  0.990386  1
  P  P22  1  0.500000  0.501621  0.884815  1
  P  P23  1  0.000000  0.000455  0.113847  1
  P  P24  1  0.500000  0.500550  0.343934  1
  P  P25  1  0.000000  0.999809  0.656130  1
  P  P26  1  0.500000  0.304746  0.612709  1
  P  P27  1  0.500000  0.695339  0.612956  1
  P  P28  1  0.000000  0.195630  0.387283  1
  P  P29  1  0.000000  0.804760  0.386746  1
  P  P30  1  0.500000  0.847696  0.897372  1
  P  P31  1  0.500000  0.148470  0.894901  1
  P  P32  1  0.000000  0.651709  0.102798  1
  P  P33  1  0.000000  0.350162  0.106385  1
  Ru  Ru34  1  0.500000  0.498664  0.156040  1
  Ru  Ru35  1  0.000000  0.000984  0.844284  1
