# generated using pymatgen
data_Ho4Sn10PdRh5
_symmetry_space_group_name_H-M   'P 1'
_cell_length_a   13.46860674
_cell_length_b   13.46860755
_cell_length_c   7.30368738
_cell_angle_alpha   89.85100956
_cell_angle_beta   90.14899010
_cell_angle_gamma   161.09905977
_symmetry_Int_Tables_number   1
_chemical_formula_structural   Ho4Sn10PdRh5
_chemical_formula_sum   'Ho4 Sn10 Pd1 Rh5'
_cell_volume   429.18165988
_cell_formula_units_Z   1
loop_
 _symmetry_equiv_pos_site_id
 _symmetry_equiv_pos_as_xyz
  1  'x, y, z'
loop_
 _atom_site_type_symbol
 _atom_site_label
 _atom_site_symmetry_multiplicity
 _atom_site_fract_x
 _atom_site_fract_y
 _atom_site_fract_z
 _atom_site_occupancy
  Ho  Ho0  1  0.172932  0.827068  0.743882  1
  Ho  Ho1  1  0.827445  0.172555  0.244057  1
  Ho  Ho2  1  0.475186  0.524814  0.759819  1
  Ho  Ho3  1  0.523640  0.476360  0.266973  1
  Sn  Sn4  1  0.880017  0.119983  0.769072  1
  Sn  Sn5  1  0.120726  0.879274  0.272111  1
  Sn  Sn6  1  0.704538  0.295462  0.452030  1
  Sn  Sn7  1  0.295662  0.704338  0.951577  1
  Sn  Sn8  1  0.597846  0.402154  0.883673  1
  Sn  Sn9  1  0.403100  0.596900  0.386933  1
  Sn  Sn10  1  0.951596  0.048404  0.103858  1
  Sn  Sn11  1  0.047336  0.952664  0.598116  1
  Sn  Sn12  1  0.290739  0.709261  0.521777  1
  Sn  Sn13  1  0.709436  0.290564  0.021725  1
  Pd  Pd14  1  0.049643  0.950357  0.983584  1
  Rh  Rh15  1  0.950175  0.049825  0.484040  1
  Rh  Rh16  1  0.776311  0.223689  0.733672  1
  Rh  Rh17  1  0.223453  0.776547  0.233656  1
  Rh  Rh18  1  0.394907  0.605093  0.017255  1
  Rh  Rh19  1  0.605313  0.394687  0.516191  1
