# generated using pymatgen
data_DyLu4P12Ir8Ru11
_symmetry_space_group_name_H-M   'P 1'
_cell_length_a   12.58771152
_cell_length_b   12.49749410
_cell_length_c   3.95009100
_cell_angle_alpha   90.00000000
_cell_angle_beta   90.00000000
_cell_angle_gamma   119.66600009
_symmetry_Int_Tables_number   1
_chemical_formula_structural   DyLu4P12Ir8Ru11
_chemical_formula_sum   'Dy1 Lu4 P12 Ir8 Ru11'
_cell_volume   539.95715595
_cell_formula_units_Z   1
loop_
 _symmetry_equiv_pos_site_id
 _symmetry_equiv_pos_as_xyz
  1  'x, y, z'
loop_
 _atom_site_type_symbol
 _atom_site_label
 _atom_site_symmetry_multiplicity
 _atom_site_fract_x
 _atom_site_fract_y
 _atom_site_fract_z
 _atom_site_occupancy
  Dy  Dy0  1  0.000318  0.814761  0.500000  1
  Lu  Lu1  1  0.666863  0.330843  0.000000  1
  Lu  Lu2  1  0.333494  0.667505  0.000000  1
  Lu  Lu3  1  0.813048  0.001100  0.500000  1
  Lu  Lu4  1  0.185395  0.187460  0.500000  1
  P  P5  1  0.631858  0.002056  0.000000  1
  P  P6  1  0.364951  0.370442  0.000000  1
  P  P7  1  0.005697  0.635088  0.000000  1
  P  P8  1  0.689764  0.518008  0.500000  1
  P  P9  1  0.826520  0.303647  0.500000  1
  P  P10  1  0.312905  0.830281  0.500000  1
  P  P11  1  0.516608  0.686187  0.500000  1
  P  P12  1  0.180813  0.003239  0.000000  1
  P  P13  1  0.817809  0.819470  0.000000  1
  P  P14  1  0.996976  0.182613  0.000000  1
  P  P15  1  0.483154  0.165324  0.500000  1
  P  P16  1  0.171505  0.484666  0.500000  1
  Ir  Ir17  1  0.624627  0.807020  0.000000  1
  Ir  Ir18  1  0.182191  0.376920  0.000000  1
  Ir  Ir19  1  0.372702  0.185603  0.000000  1
  Ir  Ir20  1  0.194927  0.821128  0.000000  1
  Ir  Ir21  1  0.809294  0.624326  0.000000  1
  Ir  Ir22  1  0.867963  0.503601  0.500000  1
  Ir  Ir23  1  0.495847  0.359715  0.500000  1
  Ir  Ir24  1  0.998483  0.001382  0.000000  1
  Ru  Ru25  1  0.637550  0.124163  0.500000  1
  Ru  Ru26  1  0.128411  0.640488  0.500000  1
  Ru  Ru27  1  0.361853  0.488040  0.500000  1
  Ru  Ru28  1  0.508095  0.868620  0.500000  1
  Ru  Ru29  1  0.715126  0.713980  0.500000  1
  Ru  Ru30  1  0.002267  0.286478  0.500000  1
  Ru  Ru31  1  0.448067  0.000626  0.000000  1
  Ru  Ru32  1  0.551705  0.547138  0.000000  1
  Ru  Ru33  1  0.999785  0.450332  0.000000  1
  Ru  Ru34  1  0.818218  0.194735  0.000000  1
  Ru  Ru35  1  0.285210  0.003014  0.500000  1
