# generated using pymatgen
data_Ta12Al8Re3NiC4
_symmetry_space_group_name_H-M   'P 1'
_cell_length_a   8.28901659
_cell_length_b   8.28901734
_cell_length_c   8.28901684
_cell_angle_alpha   60.39329651
_cell_angle_beta   60.39330140
_cell_angle_gamma   60.39329396
_symmetry_Int_Tables_number   1
_chemical_formula_structural   Ta12Al8Re3NiC4
_chemical_formula_sum   'Ta12 Al8 Re3 Ni1 C4'
_cell_volume   406.29352333
_cell_formula_units_Z   1
loop_
 _symmetry_equiv_pos_site_id
 _symmetry_equiv_pos_as_xyz
  1  'x, y, z'
loop_
 _atom_site_type_symbol
 _atom_site_label
 _atom_site_symmetry_multiplicity
 _atom_site_fract_x
 _atom_site_fract_y
 _atom_site_fract_z
 _atom_site_occupancy
  Ta  Ta0  1  0.556430  0.943387  0.556430  1
  Ta  Ta1  1  0.306613  0.693570  0.693570  1
  Ta  Ta2  1  0.683301  0.310557  0.310557  1
  Ta  Ta3  1  0.310557  0.683301  0.310557  1
  Ta  Ta4  1  0.693570  0.693570  0.306613  1
  Ta  Ta5  1  0.310557  0.310557  0.683301  1
  Ta  Ta6  1  0.556430  0.556430  0.943387  1
  Ta  Ta7  1  0.943387  0.556430  0.556430  1
  Ta  Ta8  1  0.566699  0.939443  0.939443  1
  Ta  Ta9  1  0.939443  0.939443  0.566699  1
  Ta  Ta10  1  0.693570  0.306613  0.693570  1
  Ta  Ta11  1  0.939443  0.566699  0.939443  1
  Al  Al12  1  0.917595  0.917595  0.917595  1
  Al  Al13  1  0.997116  0.329294  0.329294  1
  Al  Al14  1  0.329294  0.997116  0.329294  1
  Al  Al15  1  0.329294  0.329294  0.997116  1
  Al  Al16  1  0.920706  0.252884  0.920706  1
  Al  Al17  1  0.920706  0.920706  0.252884  1
  Al  Al18  1  0.252884  0.920706  0.920706  1
  Al  Al19  1  0.332405  0.332405  0.332405  1
  Re  Re20  1  0.625000  0.125000  0.125000  1
  Re  Re21  1  0.125000  0.625000  0.125000  1
  Re  Re22  1  0.125000  0.125000  0.625000  1
  Ni  Ni23  1  0.125000  0.125000  0.125000  1
  C  C24  1  0.625000  0.625000  0.625000  1
  C  C25  1  0.125000  0.625000  0.625000  1
  C  C26  1  0.625000  0.125000  0.625000  1
  C  C27  1  0.625000  0.625000  0.125000  1
