# generated using pymatgen
data_Pr2GaBiO6
_symmetry_space_group_name_H-M   'P 1'
_cell_length_a   7.52993972
_cell_length_b   7.52993983
_cell_length_c   5.65346708
_cell_angle_alpha   90.73885579
_cell_angle_beta   90.73885651
_cell_angle_gamma   102.20827263
_symmetry_Int_Tables_number   1
_chemical_formula_structural   Pr2GaBiO6
_chemical_formula_sum   'Pr4 Ga2 Bi2 O12'
_cell_volume   313.23631471
_cell_formula_units_Z   2
loop_
 _symmetry_equiv_pos_site_id
 _symmetry_equiv_pos_as_xyz
  1  'x, y, z'
loop_
 _atom_site_type_symbol
 _atom_site_label
 _atom_site_symmetry_multiplicity
 _atom_site_fract_x
 _atom_site_fract_y
 _atom_site_fract_z
 _atom_site_occupancy
  Pr  Pr0  1  0.610921  0.401222  0.436247  1
  Pr  Pr1  1  0.401222  0.610921  0.936247  1
  Pr  Pr2  1  0.709303  0.916606  0.472777  1
  Pr  Pr3  1  0.916606  0.709303  0.972777  1
  Ga  Ga4  1  0.806562  0.191658  0.004356  1
  Ga  Ga5  1  0.191658  0.806562  0.504356  1
  Bi  Bi6  1  0.094898  0.313931  0.467524  1
  Bi  Bi7  1  0.313931  0.094898  0.967524  1
  O  O8  1  0.323785  0.365692  0.216202  1
  O  O9  1  0.365692  0.323785  0.716202  1
  O  O10  1  0.578267  0.118223  0.161839  1
  O  O11  1  0.118223  0.578267  0.661839  1
  O  O12  1  0.923081  0.018849  0.131584  1
  O  O13  1  0.778810  0.219438  0.682201  1
  O  O14  1  0.018849  0.923081  0.631584  1
  O  O15  1  0.219438  0.778810  0.182201  1
  O  O16  1  0.899321  0.409541  0.180820  1
  O  O17  1  0.409541  0.899321  0.680820  1
  O  O18  1  0.650847  0.669042  0.205250  1
  O  O19  1  0.669042  0.650847  0.705250  1
