# generated using pymatgen
data_TaMo3F20
_symmetry_space_group_name_H-M   'P 1'
_cell_length_a   8.89126113
_cell_length_b   8.89126702
_cell_length_c   5.49323504
_cell_angle_alpha   88.99086326
_cell_angle_beta   88.99045963
_cell_angle_gamma   111.36745545
_symmetry_Int_Tables_number   1
_chemical_formula_structural   TaMo3F20
_chemical_formula_sum   'Ta1 Mo3 F20'
_cell_volume   404.21776955
_cell_formula_units_Z   1
loop_
 _symmetry_equiv_pos_site_id
 _symmetry_equiv_pos_as_xyz
  1  'x, y, z'
loop_
 _atom_site_type_symbol
 _atom_site_label
 _atom_site_symmetry_multiplicity
 _atom_site_fract_x
 _atom_site_fract_y
 _atom_site_fract_z
 _atom_site_occupancy
  Ta  Ta0  1  0.796746  0.203253  0.000001  1
  Mo  Mo1  1  0.202144  0.797858  0.999998  1
  Mo  Mo2  1  0.745685  0.747065  0.741053  1
  Mo  Mo3  1  0.252935  0.254315  0.258946  1
  F  F4  1  0.862422  0.861554  0.470925  1
  F  F5  1  0.138447  0.137579  0.529075  1
  F  F6  1  0.672930  0.674601  0.056391  1
  F  F7  1  0.325396  0.327070  0.943607  1
  F  F8  1  0.542585  0.730900  0.628106  1
  F  F9  1  0.269101  0.457418  0.371887  1
  F  F10  1  0.457149  0.274602  0.372590  1
  F  F11  1  0.725398  0.542849  0.627416  1
  F  F12  1  0.779183  0.977211  0.875336  1
  F  F13  1  0.022787  0.220815  0.124667  1
  F  F14  1  0.224290  0.026045  0.126309  1
  F  F15  1  0.973956  0.775710  0.873688  1
  F  F16  1  0.912767  0.277401  0.703661  1
  F  F17  1  0.722597  0.087234  0.296340  1
  F  F18  1  0.091706  0.722277  0.293727  1
  F  F19  1  0.277723  0.908293  0.706273  1
  F  F20  1  0.593078  0.169887  0.878955  1
  F  F21  1  0.830113  0.406922  0.121047  1
  F  F22  1  0.407757  0.826898  0.117496  1
  F  F23  1  0.173104  0.592244  0.882506  1
