# generated using pymatgen
data_Ni10P5Ir2
_symmetry_space_group_name_H-M   'P 1'
_cell_length_a   6.69029535
_cell_length_b   6.69029501
_cell_length_c   6.73086780
_cell_angle_alpha   99.29913107
_cell_angle_beta   98.16818214
_cell_angle_gamma   133.98661294
_symmetry_Int_Tables_number   1
_chemical_formula_structural   Ni10P5Ir2
_chemical_formula_sum   'Ni10 P5 Ir2'
_cell_volume   199.72828024
_cell_formula_units_Z   1
loop_
 _symmetry_equiv_pos_site_id
 _symmetry_equiv_pos_as_xyz
  1  'x, y, z'
loop_
 _atom_site_type_symbol
 _atom_site_label
 _atom_site_symmetry_multiplicity
 _atom_site_fract_x
 _atom_site_fract_y
 _atom_site_fract_z
 _atom_site_occupancy
  Ni  Ni0  1  0.927009  0.629838  0.049145  1
  Ni  Ni1  1  0.126518  0.695743  0.695784  1
  Ni  Ni2  1  0.309861  0.998710  0.426234  1
  Ni  Ni3  1  0.572476  0.883627  0.573766  1
  Ni  Ni4  1  0.999959  0.430734  0.304216  1
  Ni  Ni5  1  0.580693  0.877863  0.950855  1
  Ni  Ni6  1  0.049309  0.360276  0.914986  1
  Ni  Ni7  1  0.141877  0.088884  0.722498  1
  Ni  Ni8  1  0.366385  0.419379  0.277502  1
  Ni  Ni9  1  0.445290  0.134323  0.085014  1
  P  P10  1  0.999479  0.999479  0.000000  1
  P  P11  1  0.580507  0.186410  0.784925  1
  P  P12  1  0.802660  0.578296  0.390413  1
  P  P13  1  0.187883  0.412248  0.609587  1
  P  P14  1  0.401485  0.795581  0.215075  1
  Ir  Ir15  1  0.638657  0.557626  0.687672  1
  Ir  Ir16  1  0.869954  0.950984  0.312328  1
