# generated using pymatgen
data_Tb16InHg3(IrRu)2
_symmetry_space_group_name_H-M   'P 1'
_cell_length_a   9.67974363
_cell_length_b   9.67974373
_cell_length_c   9.67375887
_cell_angle_alpha   59.70479505
_cell_angle_beta   59.70479649
_cell_angle_gamma   59.71011397
_symmetry_Int_Tables_number   1
_chemical_formula_structural   Tb16InHg3(IrRu)2
_chemical_formula_sum   'Tb16 In1 Hg3 Ir2 Ru2'
_cell_volume   636.65435212
_cell_formula_units_Z   1
loop_
 _symmetry_equiv_pos_site_id
 _symmetry_equiv_pos_as_xyz
  1  'x, y, z'
loop_
 _atom_site_type_symbol
 _atom_site_label
 _atom_site_symmetry_multiplicity
 _atom_site_fract_x
 _atom_site_fract_y
 _atom_site_fract_z
 _atom_site_occupancy
  Tb  Tb0  1  0.098996  0.704436  0.098626  1
  Tb  Tb1  1  0.939607  0.939607  0.560034  1
  Tb  Tb2  1  0.941607  0.560503  0.939583  1
  Tb  Tb3  1  0.309119  0.689953  0.310188  1
  Tb  Tb4  1  0.937208  0.560831  0.558558  1
  Tb  Tb5  1  0.311406  0.311406  0.688081  1
  Tb  Tb6  1  0.099911  0.099911  0.100831  1
  Tb  Tb7  1  0.557225  0.557225  0.939473  1
  Tb  Tb8  1  0.100944  0.100944  0.700964  1
  Tb  Tb9  1  0.690910  0.309105  0.686908  1
  Tb  Tb10  1  0.689923  0.689923  0.307856  1
  Tb  Tb11  1  0.689953  0.309119  0.310188  1
  Tb  Tb12  1  0.309105  0.690910  0.686908  1
  Tb  Tb13  1  0.560831  0.937208  0.558558  1
  Tb  Tb14  1  0.704436  0.098996  0.098626  1
  Tb  Tb15  1  0.560503  0.941607  0.939583  1
  In  In16  1  0.329655  0.329655  0.008625  1
  Hg  Hg17  1  0.333867  0.333867  0.335589  1
  Hg  Hg18  1  0.994114  0.334704  0.334748  1
  Hg  Hg19  1  0.334704  0.994114  0.334748  1
  Ir  Ir20  1  0.327258  0.893643  0.892465  1
  Ir  Ir21  1  0.893643  0.327258  0.892465  1
  Ru  Ru22  1  0.891374  0.891374  0.888397  1
  Ru  Ru23  1  0.893700  0.893700  0.327999  1
