# generated using pymatgen
data_Tb12Th4Mg4Ru3Pt
_symmetry_space_group_name_H-M   'P 1'
_cell_length_a   9.81249842
_cell_length_b   9.81249914
_cell_length_c   9.81249804
_cell_angle_alpha   60.04300317
_cell_angle_beta   60.04300226
_cell_angle_gamma   60.04300125
_symmetry_Int_Tables_number   1
_chemical_formula_structural   Tb12Th4Mg4Ru3Pt
_chemical_formula_sum   'Tb12 Th4 Mg4 Ru3 Pt1'
_cell_volume   668.72401290
_cell_formula_units_Z   1
loop_
 _symmetry_equiv_pos_site_id
 _symmetry_equiv_pos_as_xyz
  1  'x, y, z'
loop_
 _atom_site_type_symbol
 _atom_site_label
 _atom_site_symmetry_multiplicity
 _atom_site_fract_x
 _atom_site_fract_y
 _atom_site_fract_z
 _atom_site_occupancy
  Tb  Tb0  1  0.056705  0.438600  0.438600  1
  Tb  Tb1  1  0.436056  0.063322  0.063322  1
  Tb  Tb2  1  0.438600  0.056705  0.438600  1
  Tb  Tb3  1  0.063322  0.436056  0.063322  1
  Tb  Tb4  1  0.438600  0.438600  0.056705  1
  Tb  Tb5  1  0.063322  0.063322  0.436056  1
  Tb  Tb6  1  0.186909  0.815196  0.815196  1
  Tb  Tb7  1  0.815541  0.186529  0.186529  1
  Tb  Tb8  1  0.815196  0.186909  0.815196  1
  Tb  Tb9  1  0.186529  0.815541  0.186529  1
  Tb  Tb10  1  0.815196  0.815196  0.186909  1
  Tb  Tb11  1  0.186529  0.186529  0.815541  1
  Th  Th12  1  0.594633  0.594633  0.594633  1
  Th  Th13  1  0.600994  0.600994  0.207010  1
  Th  Th14  1  0.600994  0.207010  0.600994  1
  Th  Th15  1  0.207010  0.600994  0.600994  1
  Mg  Mg16  1  0.830470  0.830470  0.830470  1
  Mg  Mg17  1  0.829940  0.829940  0.509711  1
  Mg  Mg18  1  0.829940  0.509711  0.829940  1
  Mg  Mg19  1  0.509711  0.829940  0.829940  1
  Ru  Ru20  1  0.393409  0.393409  0.815171  1
  Ru  Ru21  1  0.393409  0.815171  0.393409  1
  Ru  Ru22  1  0.815171  0.393409  0.393409  1
  Pt  Pt23  1  0.391815  0.391815  0.391815  1
