# generated using pymatgen
data_Tb5Dy5(Tl3S)2
_symmetry_space_group_name_H-M   'P 1'
_cell_length_a   9.14018600
_cell_length_b   9.13769553
_cell_length_c   6.74009300
_cell_angle_alpha   90.00000000
_cell_angle_beta   90.00000000
_cell_angle_gamma   119.99098795
_symmetry_Int_Tables_number   1
_chemical_formula_structural   Tb5Dy5(Tl3S)2
_chemical_formula_sum   'Tb5 Dy5 Tl6 S2'
_cell_volume   487.55955201
_cell_formula_units_Z   1
loop_
 _symmetry_equiv_pos_site_id
 _symmetry_equiv_pos_as_xyz
  1  'x, y, z'
loop_
 _atom_site_type_symbol
 _atom_site_label
 _atom_site_symmetry_multiplicity
 _atom_site_fract_x
 _atom_site_fract_y
 _atom_site_fract_z
 _atom_site_occupancy
  Tb  Tb0  1  0.758373  0.758283  0.750000  1
  Tb  Tb1  1  0.241627  0.999910  0.750000  1
  Tb  Tb2  1  0.000000  0.241211  0.750000  1
  Tb  Tb3  1  0.241639  0.241634  0.250000  1
  Tb  Tb4  1  0.758361  0.999996  0.250000  1
  Dy  Dy5  1  0.666740  0.333515  0.000090  1
  Dy  Dy6  1  0.333260  0.666776  0.000090  1
  Dy  Dy7  1  0.333260  0.666776  0.499910  1
  Dy  Dy8  1  0.666740  0.333515  0.499910  1
  Dy  Dy9  1  0.000000  0.759241  0.250000  1
  Tl  Tl10  1  0.402596  0.402571  0.750000  1
  Tl  Tl11  1  0.597404  0.999975  0.750000  1
  Tl  Tl12  1  0.000000  0.597341  0.750000  1
  Tl  Tl13  1  0.597977  0.597651  0.250000  1
  Tl  Tl14  1  0.402023  0.999674  0.250000  1
  Tl  Tl15  1  0.000000  0.402939  0.250000  1
  S  S16  1  0.000000  0.999494  0.000437  1
  S  S17  1  0.000000  0.999494  0.499563  1
