# generated using pymatgen
data_Tb6Dy(ErSn2)3
_symmetry_space_group_name_H-M   'P 1'
_cell_length_a   8.98930300
_cell_length_b   8.98930209
_cell_length_c   6.54357000
_cell_angle_alpha   90.00000000
_cell_angle_beta   90.00000000
_cell_angle_gamma   119.99999966
_symmetry_Int_Tables_number   1
_chemical_formula_structural   Tb6Dy(ErSn2)3
_chemical_formula_sum   'Tb6 Dy1 Er3 Sn6'
_cell_volume   457.92819117
_cell_formula_units_Z   1
loop_
 _symmetry_equiv_pos_site_id
 _symmetry_equiv_pos_as_xyz
  1  'x, y, z'
loop_
 _atom_site_type_symbol
 _atom_site_label
 _atom_site_symmetry_multiplicity
 _atom_site_fract_x
 _atom_site_fract_y
 _atom_site_fract_z
 _atom_site_occupancy
  Tb  Tb0  1  0.999931  0.761316  0.750057  1
  Tb  Tb1  1  0.999931  0.238616  0.249943  1
  Tb  Tb2  1  0.761384  0.761316  0.249943  1
  Tb  Tb3  1  0.761384  0.000069  0.750057  1
  Tb  Tb4  1  0.238684  0.238616  0.750057  1
  Tb  Tb5  1  0.238684  0.000069  0.249943  1
  Dy  Dy6  1  0.333333  0.666667  0.500000  1
  Er  Er7  1  0.666667  0.333333  0.000000  1
  Er  Er8  1  0.666667  0.333333  0.500000  1
  Er  Er9  1  0.333333  0.666667  0.000000  1
  Sn  Sn10  1  0.395787  0.000373  0.750283  1
  Sn  Sn11  1  0.395787  0.395414  0.249717  1
  Sn  Sn12  1  0.999627  0.604213  0.249717  1
  Sn  Sn13  1  0.999627  0.395414  0.750283  1
  Sn  Sn14  1  0.604586  0.604213  0.750283  1
  Sn  Sn15  1  0.604586  0.000373  0.249717  1
