# generated using pymatgen
data_Tb3HoZrPd15
_symmetry_space_group_name_H-M   'P 1'
_cell_length_a   4.11071000
_cell_length_b   4.11071000
_cell_length_c   20.54592100
_cell_angle_alpha   90.00000000
_cell_angle_beta   90.00000000
_cell_angle_gamma   90.00000000
_symmetry_Int_Tables_number   1
_chemical_formula_structural   Tb3HoZrPd15
_chemical_formula_sum   'Tb3 Ho1 Zr1 Pd15'
_cell_volume   347.18367259
_cell_formula_units_Z   1
loop_
 _symmetry_equiv_pos_site_id
 _symmetry_equiv_pos_as_xyz
  1  'x, y, z'
loop_
 _atom_site_type_symbol
 _atom_site_label
 _atom_site_symmetry_multiplicity
 _atom_site_fract_x
 _atom_site_fract_y
 _atom_site_fract_z
 _atom_site_occupancy
  Tb  Tb0  1  0.000000  0.000000  0.198030  1
  Tb  Tb1  1  0.000000  0.000000  0.398670  1
  Tb  Tb2  1  0.000000  0.000000  0.601385  1
  Ho  Ho3  1  0.000000  0.000000  0.802014  1
  Zr  Zr4  1  0.000000  0.000000  0.999806  1
  Pd  Pd5  1  0.500000  0.500000  0.999977  1
  Pd  Pd6  1  0.500000  0.500000  0.196711  1
  Pd  Pd7  1  0.500000  0.500000  0.399123  1
  Pd  Pd8  1  0.500000  0.500000  0.600895  1
  Pd  Pd9  1  0.500000  0.500000  0.803266  1
  Pd  Pd10  1  0.500000  0.000000  0.094832  1
  Pd  Pd11  1  0.500000  0.000000  0.297893  1
  Pd  Pd12  1  0.500000  0.000000  0.499960  1
  Pd  Pd13  1  0.500000  0.000000  0.702605  1
  Pd  Pd14  1  0.500000  0.000000  0.904773  1
  Pd  Pd15  1  0.000000  0.500000  0.094832  1
  Pd  Pd16  1  0.000000  0.500000  0.297893  1
  Pd  Pd17  1  0.000000  0.500000  0.499960  1
  Pd  Pd18  1  0.000000  0.500000  0.702605  1
  Pd  Pd19  1  0.000000  0.500000  0.904773  1
