# generated using pymatgen
data_Yb2Dy2Al15(SiIr2)3
_symmetry_space_group_name_H-M   'P 1'
_cell_length_a   7.52320249
_cell_length_b   7.51961266
_cell_length_c   9.35014742
_cell_angle_alpha   89.96635172
_cell_angle_beta   89.92766399
_cell_angle_gamma   119.75725624
_symmetry_Int_Tables_number   1
_chemical_formula_structural   Yb2Dy2Al15(SiIr2)3
_chemical_formula_sum   'Yb2 Dy2 Al15 Si3 Ir6'
_cell_volume   459.20187993
_cell_formula_units_Z   1
loop_
 _symmetry_equiv_pos_site_id
 _symmetry_equiv_pos_as_xyz
  1  'x, y, z'
loop_
 _atom_site_type_symbol
 _atom_site_label
 _atom_site_symmetry_multiplicity
 _atom_site_fract_x
 _atom_site_fract_y
 _atom_site_fract_z
 _atom_site_occupancy
  Yb  Yb0  1  0.994543  0.668587  0.748008  1
  Yb  Yb1  1  0.004731  0.325738  0.253537  1
  Dy  Dy2  1  0.680361  0.002281  0.747552  1
  Dy  Dy3  1  0.324586  0.004143  0.249869  1
  Al  Al4  1  0.997382  0.667355  0.422915  1
  Al  Al5  1  0.998696  0.663543  0.074674  1
  Al  Al6  1  0.334819  0.999173  0.923439  1
  Al  Al7  1  0.002088  0.337185  0.928856  1
  Al  Al8  1  0.664515  0.999576  0.076257  1
  Al  Al9  1  0.660387  0.994822  0.421651  1
  Al  Al10  1  0.334670  0.999465  0.576796  1
  Al  Al11  1  0.335675  0.335816  0.057078  1
  Al  Al12  1  0.665406  0.665240  0.943219  1
  Al  Al13  1  0.664969  0.664976  0.558092  1
  Al  Al14  1  0.338014  0.335661  0.442843  1
  Al  Al15  1  0.334090  0.546399  0.750184  1
  Al  Al16  1  0.665180  0.451581  0.250423  1
  Al  Al17  1  0.545816  0.335187  0.750019  1
  Al  Al18  1  0.450811  0.663453  0.249593  1
  Si  Si19  1  0.131735  0.128346  0.750621  1
  Si  Si20  1  0.871038  0.871841  0.249957  1
  Si  Si21  1  0.002092  0.338539  0.573213  1
  Ir  Ir22  1  0.677443  0.327602  0.501905  1
  Ir  Ir23  1  0.321852  0.664722  0.499986  1
  Ir  Ir24  1  0.329690  0.672015  0.999387  1
  Ir  Ir25  1  0.670310  0.327767  0.999043  1
  Ir  Ir26  1  0.999312  0.008252  0.501645  1
  Ir  Ir27  1  0.999791  0.000737  0.999234  1
