# generated using pymatgen
data_CeHo4HgPd14
_symmetry_space_group_name_H-M   'P 1'
_cell_length_a   4.17157000
_cell_length_b   4.10051400
_cell_length_c   20.80689600
_cell_angle_alpha   90.00000000
_cell_angle_beta   90.00000000
_cell_angle_gamma   90.00000000
_symmetry_Int_Tables_number   1
_chemical_formula_structural   CeHo4HgPd14
_chemical_formula_sum   'Ce1 Ho4 Hg1 Pd14'
_cell_volume   355.91404878
_cell_formula_units_Z   1
loop_
 _symmetry_equiv_pos_site_id
 _symmetry_equiv_pos_as_xyz
  1  'x, y, z'
loop_
 _atom_site_type_symbol
 _atom_site_label
 _atom_site_symmetry_multiplicity
 _atom_site_fract_x
 _atom_site_fract_y
 _atom_site_fract_z
 _atom_site_occupancy
  Ce  Ce0  1  0.000000  0.000000  0.000000  1
  Ho  Ho1  1  0.000000  0.000000  0.198614  1
  Ho  Ho2  1  0.000000  0.000000  0.389865  1
  Ho  Ho3  1  0.000000  0.000000  0.610135  1
  Ho  Ho4  1  0.000000  0.000000  0.801386  1
  Hg  Hg5  1  0.500000  0.000000  0.500000  1
  Pd  Pd6  1  0.500000  0.500000  0.000000  1
  Pd  Pd7  1  0.500000  0.500000  0.200624  1
  Pd  Pd8  1  0.500000  0.500000  0.397621  1
  Pd  Pd9  1  0.500000  0.500000  0.602379  1
  Pd  Pd10  1  0.500000  0.500000  0.799376  1
  Pd  Pd11  1  0.500000  0.000000  0.099909  1
  Pd  Pd12  1  0.500000  0.000000  0.298344  1
  Pd  Pd13  1  0.500000  0.000000  0.701656  1
  Pd  Pd14  1  0.500000  0.000000  0.900091  1
  Pd  Pd15  1  0.000000  0.500000  0.099695  1
  Pd  Pd16  1  0.000000  0.500000  0.297745  1
  Pd  Pd17  1  0.000000  0.500000  0.500000  1
  Pd  Pd18  1  0.000000  0.500000  0.702255  1
  Pd  Pd19  1  0.000000  0.500000  0.900305  1
