# generated using pymatgen
data_YbDy(TaSe2)8
_symmetry_space_group_name_H-M   'P 1'
_cell_length_a   7.00933200
_cell_length_b   7.00933064
_cell_length_c   14.64769600
_cell_angle_alpha   90.00000000
_cell_angle_beta   90.00000000
_cell_angle_gamma   120.00000644
_symmetry_Int_Tables_number   1
_chemical_formula_structural   YbDy(TaSe2)8
_chemical_formula_sum   'Yb1 Dy1 Ta8 Se16'
_cell_volume   623.23681430
_cell_formula_units_Z   1
loop_
 _symmetry_equiv_pos_site_id
 _symmetry_equiv_pos_as_xyz
  1  'x, y, z'
loop_
 _atom_site_type_symbol
 _atom_site_label
 _atom_site_symmetry_multiplicity
 _atom_site_fract_x
 _atom_site_fract_y
 _atom_site_fract_z
 _atom_site_occupancy
  Yb  Yb0  1  0.000000  0.000000  0.000000  1
  Dy  Dy1  1  0.000000  0.000000  0.500000  1
  Ta  Ta2  1  0.508497  0.491503  0.747243  1
  Ta  Ta3  1  0.016990  0.508497  0.252757  1
  Ta  Ta4  1  0.491503  0.983010  0.252757  1
  Ta  Ta5  1  0.508497  0.016990  0.747243  1
  Ta  Ta6  1  0.983010  0.491503  0.747243  1
  Ta  Ta7  1  0.491503  0.508497  0.252757  1
  Ta  Ta8  1  0.000000  0.000000  0.746673  1
  Ta  Ta9  1  0.000000  0.000000  0.253327  1
  Se  Se10  1  0.830281  0.169719  0.365376  1
  Se  Se11  1  0.830281  0.660560  0.365376  1
  Se  Se12  1  0.339440  0.169719  0.365376  1
  Se  Se13  1  0.662371  0.831185  0.858935  1
  Se  Se14  1  0.169719  0.339440  0.634624  1
  Se  Se15  1  0.168815  0.831185  0.858935  1
  Se  Se16  1  0.168815  0.337629  0.858935  1
  Se  Se17  1  0.831185  0.168815  0.141065  1
  Se  Se18  1  0.337629  0.168815  0.141065  1
  Se  Se19  1  0.660560  0.830281  0.634624  1
  Se  Se20  1  0.333333  0.666667  0.134010  1
  Se  Se21  1  0.666667  0.333333  0.628321  1
  Se  Se22  1  0.666667  0.333333  0.865990  1
  Se  Se23  1  0.333333  0.666667  0.371679  1
  Se  Se24  1  0.831185  0.662371  0.141065  1
  Se  Se25  1  0.169719  0.830281  0.634624  1
