# generated using pymatgen
data_Dy4Er5Lu3Co5Sn
_symmetry_space_group_name_H-M   'P 1'
_cell_length_a   8.20313351
_cell_length_b   8.20675752
_cell_length_c   8.20313174
_cell_angle_alpha   106.75370953
_cell_angle_beta   110.60201542
_cell_angle_gamma   111.07446068
_symmetry_Int_Tables_number   1
_chemical_formula_structural   Dy4Er5Lu3Co5Sn
_chemical_formula_sum   'Dy4 Er5 Lu3 Co5 Sn1'
_cell_volume   424.49141875
_cell_formula_units_Z   1
loop_
 _symmetry_equiv_pos_site_id
 _symmetry_equiv_pos_as_xyz
  1  'x, y, z'
loop_
 _atom_site_type_symbol
 _atom_site_label
 _atom_site_symmetry_multiplicity
 _atom_site_fract_x
 _atom_site_fract_y
 _atom_site_fract_z
 _atom_site_occupancy
  Dy  Dy0  1  0.194100  0.210246  0.405397  1
  Dy  Dy1  1  0.806462  0.789373  0.595465  1
  Dy  Dy2  1  0.193908  0.789373  0.982910  1
  Dy  Dy3  1  0.804849  0.210246  0.016146  1
  Er  Er4  1  0.476414  0.289892  0.185143  1
  Er  Er5  1  0.104749  0.289892  0.813479  1
  Er  Er6  1  0.893793  0.709389  0.185413  1
  Er  Er7  1  0.523976  0.709389  0.815597  1
  Er  Er8  1  0.306561  0.620975  0.314415  1
  Lu  Lu9  1  0.307150  0.992135  0.684985  1
  Lu  Lu10  1  0.692729  0.377626  0.684897  1
  Lu  Lu11  1  0.692640  0.007884  0.315246  1
  Co  Co12  1  0.500222  0.612269  0.112046  1
  Co  Co13  1  0.499503  0.385889  0.886385  1
  Co  Co14  1  0.378258  0.001453  0.377991  1
  Co  Co15  1  0.623461  0.001453  0.623195  1
  Co  Co16  1  0.000323  0.000593  0.000269  1
  Sn  Sn17  1  0.000902  0.501922  0.501020  1
