# generated using pymatgen
data_Y5Mn3(Fe4P3)4
_symmetry_space_group_name_H-M   'P 1'
_cell_length_a   12.05719700
_cell_length_b   12.05719647
_cell_length_c   3.71307000
_cell_angle_alpha   90.00000000
_cell_angle_beta   90.00000000
_cell_angle_gamma   120.00000420
_symmetry_Int_Tables_number   1
_chemical_formula_structural   Y5Mn3(Fe4P3)4
_chemical_formula_sum   'Y5 Mn3 Fe16 P12'
_cell_volume   467.47290571
_cell_formula_units_Z   1
loop_
 _symmetry_equiv_pos_site_id
 _symmetry_equiv_pos_as_xyz
  1  'x, y, z'
loop_
 _atom_site_type_symbol
 _atom_site_label
 _atom_site_symmetry_multiplicity
 _atom_site_fract_x
 _atom_site_fract_y
 _atom_site_fract_z
 _atom_site_occupancy
  Y  Y0  1  0.185235  0.185235  0.500000  1
  Y  Y1  1  0.814765  0.000000  0.500000  1
  Y  Y2  1  0.000000  0.814765  0.500000  1
  Y  Y3  1  0.333333  0.666667  0.000000  1
  Y  Y4  1  0.666667  0.333333  0.000000  1
  Mn  Mn5  1  0.561389  0.561389  0.000000  1
  Mn  Mn6  1  0.438611  0.000000  0.000000  1
  Mn  Mn7  1  0.000000  0.438611  0.000000  1
  Fe  Fe8  1  0.714893  0.714893  0.500000  1
  Fe  Fe9  1  0.285107  0.000000  0.500000  1
  Fe  Fe10  1  0.000000  0.285107  0.500000  1
  Fe  Fe11  1  0.181433  0.379807  0.000000  1
  Fe  Fe12  1  0.620193  0.801627  0.000000  1
  Fe  Fe13  1  0.198373  0.818567  0.000000  1
  Fe  Fe14  1  0.801627  0.620193  0.000000  1
  Fe  Fe15  1  0.818567  0.198373  0.000000  1
  Fe  Fe16  1  0.379807  0.181433  0.000000  1
  Fe  Fe17  1  0.363724  0.483727  0.500000  1
  Fe  Fe18  1  0.516273  0.879998  0.500000  1
  Fe  Fe19  1  0.120002  0.636276  0.500000  1
  Fe  Fe20  1  0.879998  0.516273  0.500000  1
  Fe  Fe21  1  0.636276  0.120002  0.500000  1
  Fe  Fe22  1  0.483727  0.363724  0.500000  1
  Fe  Fe23  1  0.000000  0.000000  0.000000  1
  P  P24  1  0.814128  0.814128  0.000000  1
  P  P25  1  0.185872  0.000000  0.000000  1
  P  P26  1  0.000000  0.185872  0.000000  1
  P  P27  1  0.170201  0.477997  0.500000  1
  P  P28  1  0.522003  0.692204  0.500000  1
  P  P29  1  0.307796  0.829799  0.500000  1
  P  P30  1  0.692204  0.522003  0.500000  1
  P  P31  1  0.829799  0.307796  0.500000  1
  P  P32  1  0.477997  0.170201  0.500000  1
  P  P33  1  0.366837  0.366837  0.000000  1
  P  P34  1  0.633163  0.000000  0.000000  1
  P  P35  1  0.000000  0.633163  0.000000  1
