# generated using pymatgen
data_KTm(PS3)2
_symmetry_space_group_name_H-M   'P 1'
_cell_length_a   7.32957200
_cell_length_b   6.52035498
_cell_length_c   10.20105612
_cell_angle_alpha   86.58134658
_cell_angle_beta   90.00000000
_cell_angle_gamma   90.00000000
_symmetry_Int_Tables_number   1
_chemical_formula_structural   KTm(PS3)2
_chemical_formula_sum   'K2 Tm2 P4 S12'
_cell_volume   486.65530568
_cell_formula_units_Z   2
loop_
 _symmetry_equiv_pos_site_id
 _symmetry_equiv_pos_as_xyz
  1  'x, y, z'
loop_
 _atom_site_type_symbol
 _atom_site_label
 _atom_site_symmetry_multiplicity
 _atom_site_fract_x
 _atom_site_fract_y
 _atom_site_fract_z
 _atom_site_occupancy
  K  K0  1  0.475299  0.692312  0.501927  1
  K  K1  1  0.975299  0.307688  0.498073  1
  Tm  Tm2  1  0.203522  0.217385  0.997860  1
  Tm  Tm3  1  0.703522  0.782615  0.002140  1
  P  P4  1  0.687344  0.329895  0.834815  1
  P  P5  1  0.962007  0.800499  0.283832  1
  P  P6  1  0.187344  0.670105  0.165185  1
  P  P7  1  0.462007  0.199501  0.716168  1
  S  S8  1  0.775987  0.601748  0.754986  1
  S  S9  1  0.547133  0.169269  0.533512  1
  S  S10  1  0.755420  0.600721  0.261132  1
  S  S11  1  0.564004  0.377763  0.012378  1
  S  S12  1  0.397211  0.945991  0.839400  1
  S  S13  1  0.255420  0.399279  0.738868  1
  S  S14  1  0.064004  0.622237  0.987622  1
  S  S15  1  0.897211  0.054009  0.160600  1
  S  S16  1  0.047133  0.830731  0.466488  1
  S  S17  1  0.380964  0.900346  0.155718  1
  S  S18  1  0.880964  0.099654  0.844282  1
  S  S19  1  0.275987  0.398252  0.245014  1
