# generated using pymatgen
data_Co(OsCl6)5
_symmetry_space_group_name_H-M   'P 1'
_cell_length_a   13.17780610
_cell_length_b   13.17780614
_cell_length_c   6.19996037
_cell_angle_alpha   89.11529633
_cell_angle_beta   89.11529739
_cell_angle_gamma   86.64376317
_symmetry_Int_Tables_number   1
_chemical_formula_structural   Co(OsCl6)5
_chemical_formula_sum   'Co1 Os5 Cl30'
_cell_volume   1074.56274984
_cell_formula_units_Z   1
loop_
 _symmetry_equiv_pos_site_id
 _symmetry_equiv_pos_as_xyz
  1  'x, y, z'
loop_
 _atom_site_type_symbol
 _atom_site_label
 _atom_site_symmetry_multiplicity
 _atom_site_fract_x
 _atom_site_fract_y
 _atom_site_fract_z
 _atom_site_occupancy
  Co  Co0  1  0.897831  0.102169  0.000000  1
  Os  Os1  1  0.770105  0.563333  0.524599  1
  Os  Os2  1  0.436667  0.229895  0.475401  1
  Os  Os3  1  0.229756  0.435472  0.475324  1
  Os  Os4  1  0.564528  0.770244  0.524676  1
  Os  Os5  1  0.098138  0.901862  0.000000  1
  Cl  Cl6  1  0.668595  0.472300  0.747918  1
  Cl  Cl7  1  0.527700  0.331405  0.252082  1
  Cl  Cl8  1  0.331577  0.527110  0.252454  1
  Cl  Cl9  1  0.472890  0.668423  0.747546  1
  Cl  Cl10  1  0.800103  0.429719  0.307673  1
  Cl  Cl11  1  0.570281  0.199897  0.692327  1
  Cl  Cl12  1  0.950753  0.952348  0.208650  1
  Cl  Cl13  1  0.047652  0.049247  0.791350  1
  Cl  Cl14  1  0.770142  0.131610  0.214507  1
  Cl  Cl15  1  0.868390  0.229858  0.785493  1
  Cl  Cl16  1  0.233757  0.869832  0.776447  1
  Cl  Cl17  1  0.130168  0.766243  0.223553  1
  Cl  Cl18  1  0.814468  0.002524  0.800665  1
  Cl  Cl19  1  0.997476  0.185532  0.199335  1
  Cl  Cl20  1  0.189530  0.003055  0.210288  1
  Cl  Cl21  1  0.996945  0.810470  0.789712  1
  Cl  Cl22  1  0.716359  0.715983  0.730308  1
  Cl  Cl23  1  0.284017  0.283641  0.269692  1
  Cl  Cl24  1  0.535061  0.903800  0.742642  1
  Cl  Cl25  1  0.096200  0.464939  0.257358  1
  Cl  Cl26  1  0.466439  0.096231  0.257814  1
  Cl  Cl27  1  0.903769  0.533561  0.742186  1
  Cl  Cl28  1  0.666176  0.861275  0.302180  1
  Cl  Cl29  1  0.138725  0.333824  0.697820  1
  Cl  Cl30  1  0.334358  0.138867  0.697789  1
  Cl  Cl31  1  0.861133  0.665642  0.302211  1
  Cl  Cl32  1  0.617915  0.617695  0.319263  1
  Cl  Cl33  1  0.382305  0.382085  0.680737  1
  Cl  Cl34  1  0.430499  0.800406  0.307427  1
  Cl  Cl35  1  0.199594  0.569501  0.692573  1
