# generated using pymatgen
data_Ho7Er3(Zn2Bi)2
_symmetry_space_group_name_H-M   'P 1'
_cell_length_a   8.58150477
_cell_length_b   8.58193302
_cell_length_c   8.58422966
_cell_angle_alpha   123.50827380
_cell_angle_beta   123.50724834
_cell_angle_gamma   84.00461471
_symmetry_Int_Tables_number   1
_chemical_formula_structural   Ho7Er3(Zn2Bi)2
_chemical_formula_sum   'Ho7 Er3 Zn4 Bi2'
_cell_volume   420.88858437
_cell_formula_units_Z   1
loop_
 _symmetry_equiv_pos_site_id
 _symmetry_equiv_pos_as_xyz
  1  'x, y, z'
loop_
 _atom_site_type_symbol
 _atom_site_label
 _atom_site_symmetry_multiplicity
 _atom_site_fract_x
 _atom_site_fract_y
 _atom_site_fract_z
 _atom_site_occupancy
  Ho  Ho0  1  0.510315  0.010272  0.804682  1
  Ho  Ho1  1  0.205653  0.705589  0.195333  1
  Ho  Ho2  1  0.010310  0.205648  0.499993  1
  Ho  Ho3  1  0.705606  0.510262  0.499998  1
  Ho  Ho4  1  0.489670  0.989666  0.195372  1
  Ho  Ho5  1  0.794283  0.294281  0.804611  1
  Ho  Ho6  1  0.989790  0.794254  0.500005  1
  Er  Er7  1  0.499931  0.499990  0.999860  1
  Er  Er8  1  0.000079  0.000125  0.000146  1
  Er  Er9  1  0.294047  0.489739  0.500011  1
  Zn  Zn10  1  0.139352  0.639228  0.778414  1
  Zn  Zn11  1  0.860942  0.360803  0.221576  1
  Zn  Zn12  1  0.639260  0.860732  0.499991  1
  Zn  Zn13  1  0.360738  0.139413  0.500008  1
  Bi  Bi14  1  0.250035  0.250012  0.000036  1
  Bi  Bi15  1  0.749989  0.749985  0.999965  1
