# generated using pymatgen
data_ErCr3P4Rh3
_symmetry_space_group_name_H-M   'P 1'
_cell_length_a   6.98129200
_cell_length_b   6.98129354
_cell_length_c   3.60191100
_cell_angle_alpha   90.00000000
_cell_angle_beta   90.00000000
_cell_angle_gamma   119.99999271
_symmetry_Int_Tables_number   1
_chemical_formula_structural   ErCr3P4Rh3
_chemical_formula_sum   'Er1 Cr3 P4 Rh3'
_cell_volume   152.03211713
_cell_formula_units_Z   1
loop_
 _symmetry_equiv_pos_site_id
 _symmetry_equiv_pos_as_xyz
  1  'x, y, z'
loop_
 _atom_site_type_symbol
 _atom_site_label
 _atom_site_symmetry_multiplicity
 _atom_site_fract_x
 _atom_site_fract_y
 _atom_site_fract_z
 _atom_site_occupancy
  Er  Er0  1  0.333333  0.666667  0.000000  1
  Cr  Cr1  1  0.251641  0.125820  0.000000  1
  Cr  Cr2  1  0.874180  0.748359  0.000000  1
  Cr  Cr3  1  0.874180  0.125820  0.000000  1
  P  P4  1  0.666667  0.333333  0.000000  1
  P  P5  1  0.718222  0.859112  0.500000  1
  P  P6  1  0.140888  0.281778  0.500000  1
  P  P7  1  0.140888  0.859112  0.500000  1
  Rh  Rh8  1  0.938638  0.469319  0.500000  1
  Rh  Rh9  1  0.530681  0.061362  0.500000  1
  Rh  Rh10  1  0.530681  0.469319  0.500000  1
