# generated using pymatgen
data_Ba6Er2Mn3WO18
_symmetry_space_group_name_H-M   'P 1'
_cell_length_a   5.91212900
_cell_length_b   5.91231014
_cell_length_c   14.61473333
_cell_angle_alpha   89.97854216
_cell_angle_beta   89.99937621
_cell_angle_gamma   60.00066554
_symmetry_Int_Tables_number   1
_chemical_formula_structural   Ba6Er2Mn3WO18
_chemical_formula_sum   'Ba6 Er2 Mn3 W1 O18'
_cell_volume   442.41058532
_cell_formula_units_Z   1
loop_
 _symmetry_equiv_pos_site_id
 _symmetry_equiv_pos_as_xyz
  1  'x, y, z'
loop_
 _atom_site_type_symbol
 _atom_site_label
 _atom_site_symmetry_multiplicity
 _atom_site_fract_x
 _atom_site_fract_y
 _atom_site_fract_z
 _atom_site_occupancy
  Ba  Ba0  1  0.334331  0.331342  0.082681  1
  Ba  Ba1  1  0.000006  0.999996  0.263942  1
  Ba  Ba2  1  0.332488  0.335029  0.421830  1
  Ba  Ba3  1  0.665875  0.668260  0.604433  1
  Ba  Ba4  1  0.999763  0.000468  0.751056  1
  Ba  Ba5  1  0.667032  0.665931  0.890720  1
  Er  Er6  1  0.000966  0.998064  0.996139  1
  Er  Er7  1  0.998983  0.002040  0.510054  1
  Mn  Mn8  1  0.665949  0.668117  0.354494  1
  Mn  Mn9  1  0.332606  0.334780  0.665103  1
  Mn  Mn10  1  0.333881  0.332233  0.844892  1
  W  W11  1  0.667530  0.664938  0.166228  1
  O  O12  1  0.349801  0.822912  0.095919  1
  O  O13  1  0.827282  0.822917  0.095920  1
  O  O14  1  0.827460  0.345078  0.096930  1
  O  O15  1  0.520041  0.959910  0.254821  1
  O  O16  1  0.520037  0.519971  0.255856  1
  O  O17  1  0.959992  0.519965  0.255854  1
  O  O18  1  0.351274  0.826080  0.417777  1
  O  O19  1  0.822662  0.826087  0.417768  1
  O  O20  1  0.822722  0.354573  0.418238  1
  O  O21  1  0.175258  0.178915  0.594440  1
  O  O22  1  0.645820  0.178913  0.594437  1
  O  O23  1  0.175227  0.649531  0.595003  1
  O  O24  1  0.478111  0.043776  0.756104  1
  O  O25  1  0.043721  0.478224  0.756688  1
  O  O26  1  0.478050  0.478226  0.756686  1
  O  O27  1  0.178944  0.175892  0.919241  1
  O  O28  1  0.645164  0.175887  0.919238  1
  O  O29  1  0.179026  0.641944  0.919708  1
