# generated using pymatgen
data_HoTm(Si7Rh3)2
_symmetry_space_group_name_H-M   'P 1'
_cell_length_a   7.97826381
_cell_length_b   7.97826330
_cell_length_c   7.97826506
_cell_angle_alpha   57.11388457
_cell_angle_beta   57.11388569
_cell_angle_gamma   57.11387883
_symmetry_Int_Tables_number   1
_chemical_formula_structural   HoTm(Si7Rh3)2
_chemical_formula_sum   'Ho1 Tm1 Si14 Rh6'
_cell_volume   335.21241758
_cell_formula_units_Z   1
loop_
 _symmetry_equiv_pos_site_id
 _symmetry_equiv_pos_as_xyz
  1  'x, y, z'
loop_
 _atom_site_type_symbol
 _atom_site_label
 _atom_site_symmetry_multiplicity
 _atom_site_fract_x
 _atom_site_fract_y
 _atom_site_fract_z
 _atom_site_occupancy
  Ho  Ho0  1  0.000000  0.000000  0.000000  1
  Tm  Tm1  1  0.500000  0.500000  0.500000  1
  Si  Si2  1  0.749901  0.749901  0.749901  1
  Si  Si3  1  0.250099  0.250099  0.250099  1
  Si  Si4  1  0.851786  0.065448  0.671987  1
  Si  Si5  1  0.671987  0.851786  0.065448  1
  Si  Si6  1  0.065448  0.671987  0.851786  1
  Si  Si7  1  0.648359  0.827965  0.434317  1
  Si  Si8  1  0.434317  0.648359  0.827965  1
  Si  Si9  1  0.827965  0.434317  0.648359  1
  Si  Si10  1  0.172035  0.565683  0.351641  1
  Si  Si11  1  0.565683  0.351641  0.172035  1
  Si  Si12  1  0.351641  0.172035  0.565683  1
  Si  Si13  1  0.934552  0.328013  0.148214  1
  Si  Si14  1  0.328013  0.148214  0.934552  1
  Si  Si15  1  0.148214  0.934552  0.328013  1
  Rh  Rh16  1  0.070784  0.430041  0.749711  1
  Rh  Rh17  1  0.250289  0.929216  0.569959  1
  Rh  Rh18  1  0.569959  0.250289  0.929216  1
  Rh  Rh19  1  0.929216  0.569959  0.250289  1
  Rh  Rh20  1  0.430041  0.749711  0.070784  1
  Rh  Rh21  1  0.749711  0.070784  0.430041  1
