# generated using pymatgen
data_HoHf2Fe9
_symmetry_space_group_name_H-M   'P 1'
_cell_length_a   8.42220953
_cell_length_b   8.42220918
_cell_length_c   8.42221027
_cell_angle_alpha   34.29941850
_cell_angle_beta   34.29942367
_cell_angle_gamma   34.29941871
_symmetry_Int_Tables_number   1
_chemical_formula_structural   HoHf2Fe9
_chemical_formula_sum   'Ho1 Hf2 Fe9'
_cell_volume   169.18877165
_cell_formula_units_Z   1
loop_
 _symmetry_equiv_pos_site_id
 _symmetry_equiv_pos_as_xyz
  1  'x, y, z'
loop_
 _atom_site_type_symbol
 _atom_site_label
 _atom_site_symmetry_multiplicity
 _atom_site_fract_x
 _atom_site_fract_y
 _atom_site_fract_z
 _atom_site_occupancy
  Ho  Ho0  1  0.000000  0.000000  0.000000  1
  Hf  Hf1  1  0.142881  0.142881  0.142881  1
  Hf  Hf2  1  0.857119  0.857119  0.857119  1
  Fe  Fe3  1  0.500000  0.500000  0.500000  1
  Fe  Fe4  1  0.333112  0.333112  0.333112  1
  Fe  Fe5  1  0.666888  0.666888  0.666888  1
  Fe  Fe6  1  0.082153  0.586257  0.586257  1
  Fe  Fe7  1  0.586257  0.586257  0.082153  1
  Fe  Fe8  1  0.586257  0.082153  0.586257  1
  Fe  Fe9  1  0.413743  0.917847  0.413743  1
  Fe  Fe10  1  0.917847  0.413743  0.413743  1
  Fe  Fe11  1  0.413743  0.413743  0.917847  1
