# generated using pymatgen
data_Er3Al12(RePt)2
_symmetry_space_group_name_H-M   'P 1'
_cell_length_a   8.84770015
_cell_length_b   8.84770021
_cell_length_c   9.59645171
_cell_angle_alpha   89.37200423
_cell_angle_beta   90.62799255
_cell_angle_gamma   119.47977353
_symmetry_Int_Tables_number   1
_chemical_formula_structural   Er3Al12(RePt)2
_chemical_formula_sum   'Er6 Al24 Re4 Pt4'
_cell_volume   653.91302852
_cell_formula_units_Z   2
loop_
 _symmetry_equiv_pos_site_id
 _symmetry_equiv_pos_as_xyz
  1  'x, y, z'
loop_
 _atom_site_type_symbol
 _atom_site_label
 _atom_site_symmetry_multiplicity
 _atom_site_fract_x
 _atom_site_fract_y
 _atom_site_fract_z
 _atom_site_occupancy
  Er  Er0  1  0.193507  0.806493  0.243996  1
  Er  Er1  1  0.186683  0.384776  0.245994  1
  Er  Er2  1  0.615224  0.813317  0.245994  1
  Er  Er3  1  0.806493  0.193507  0.756004  1
  Er  Er4  1  0.813317  0.615224  0.754006  1
  Er  Er5  1  0.384776  0.186683  0.754006  1
  Al  Al6  1  0.562309  0.437691  0.252591  1
  Al  Al7  1  0.562821  0.128191  0.249058  1
  Al  Al8  1  0.871809  0.437179  0.249058  1
  Al  Al9  1  0.437691  0.562309  0.747409  1
  Al  Al10  1  0.437179  0.871809  0.750942  1
  Al  Al11  1  0.128191  0.562821  0.750942  1
  Al  Al12  1  0.323082  0.162926  0.421407  1
  Al  Al13  1  0.837195  0.162805  0.422467  1
  Al  Al14  1  0.837074  0.676918  0.421407  1
  Al  Al15  1  0.676918  0.837074  0.578593  1
  Al  Al16  1  0.162805  0.837195  0.577533  1
  Al  Al17  1  0.162926  0.323082  0.578593  1
  Al  Al18  1  0.674637  0.839782  0.922233  1
  Al  Al19  1  0.164080  0.835920  0.922675  1
  Al  Al20  1  0.160218  0.325363  0.922233  1
  Al  Al21  1  0.325363  0.160218  0.077767  1
  Al  Al22  1  0.835920  0.164080  0.077325  1
  Al  Al23  1  0.839782  0.674637  0.077767  1
  Al  Al24  1  0.666373  0.333627  0.532140  1
  Al  Al25  1  0.333627  0.666373  0.467860  1
  Al  Al26  1  0.331277  0.668723  0.022845  1
  Al  Al27  1  0.668723  0.331277  0.977155  1
  Al  Al28  1  0.998880  0.001120  0.249813  1
  Al  Al29  1  0.001120  0.998880  0.750187  1
  Re  Re30  1  0.000000  0.000000  0.500000  1
  Re  Re31  1  0.000000  0.000000  0.000000  1
  Re  Re32  1  0.500000  0.000000  0.000000  1
  Re  Re33  1  0.000000  0.500000  0.000000  1
  Pt  Pt34  1  0.500000  0.500000  0.500000  1
  Pt  Pt35  1  0.500000  0.000000  0.500000  1
  Pt  Pt36  1  0.000000  0.500000  0.500000  1
  Pt  Pt37  1  0.500000  0.500000  0.000000  1
