# generated using pymatgen
data_Rb3AgSe13
_symmetry_space_group_name_H-M   'P 1'
_cell_length_a   5.33782500
_cell_length_b   14.03672300
_cell_length_c   15.59593095
_cell_angle_alpha   85.32915331
_cell_angle_beta   90.00000000
_cell_angle_gamma   90.00000000
_symmetry_Int_Tables_number   1
_chemical_formula_structural   Rb3AgSe13
_chemical_formula_sum   'Rb6 Ag2 Se26'
_cell_volume   1164.65327078
_cell_formula_units_Z   2
loop_
 _symmetry_equiv_pos_site_id
 _symmetry_equiv_pos_as_xyz
  1  'x, y, z'
loop_
 _atom_site_type_symbol
 _atom_site_label
 _atom_site_symmetry_multiplicity
 _atom_site_fract_x
 _atom_site_fract_y
 _atom_site_fract_z
 _atom_site_occupancy
  Rb  Rb0  1  0.204490  0.162509  0.720665  1
  Rb  Rb1  1  0.204490  0.337491  0.279335  1
  Rb  Rb2  1  0.169682  0.250000  0.000000  1
  Rb  Rb3  1  0.830318  0.750000  0.000000  1
  Rb  Rb4  1  0.795510  0.837491  0.279335  1
  Rb  Rb5  1  0.795510  0.662509  0.720665  1
  Ag  Ag6  1  0.000000  0.500000  0.500000  1
  Ag  Ag7  1  0.000000  0.000000  0.500000  1
  Se  Se8  1  0.294533  0.547802  0.618771  1
  Se  Se9  1  0.649252  0.574421  0.268958  1
  Se  Se10  1  0.350748  0.074421  0.268958  1
  Se  Se11  1  0.350748  0.425579  0.731042  1
  Se  Se12  1  0.915209  0.533486  0.152072  1
  Se  Se13  1  0.915209  0.966514  0.847928  1
  Se  Se14  1  0.084791  0.466514  0.847928  1
  Se  Se15  1  0.084791  0.033486  0.152072  1
  Se  Se16  1  0.682365  0.421111  0.076080  1
  Se  Se17  1  0.649252  0.925579  0.731042  1
  Se  Se18  1  0.317635  0.578889  0.923920  1
  Se  Se19  1  0.317635  0.921111  0.076080  1
  Se  Se20  1  0.692894  0.267327  0.149712  1
  Se  Se21  1  0.692894  0.232673  0.850288  1
  Se  Se22  1  0.307106  0.732673  0.850288  1
  Se  Se23  1  0.307106  0.767327  0.149712  1
  Se  Se24  1  0.098537  0.658243  0.415190  1
  Se  Se25  1  0.098537  0.841757  0.584810  1
  Se  Se26  1  0.901463  0.341757  0.584810  1
  Se  Se27  1  0.901463  0.158243  0.415190  1
  Se  Se28  1  0.640715  0.250000  0.500000  1
  Se  Se29  1  0.359285  0.750000  0.500000  1
  Se  Se30  1  0.705467  0.452198  0.381229  1
  Se  Se31  1  0.705467  0.047802  0.618771  1
  Se  Se32  1  0.682365  0.078889  0.923920  1
  Se  Se33  1  0.294533  0.952198  0.381229  1
