# generated using pymatgen
data_Dy10InSb5
_symmetry_space_group_name_H-M   'P 1'
_cell_length_a   6.39547000
_cell_length_b   8.98557681
_cell_length_c   8.98041068
_cell_angle_alpha   120.01904354
_cell_angle_beta   90.00001534
_cell_angle_gamma   89.99997501
_symmetry_Int_Tables_number   1
_chemical_formula_structural   Dy10InSb5
_chemical_formula_sum   'Dy10 In1 Sb5'
_cell_volume   446.85012665
_cell_formula_units_Z   1
loop_
 _symmetry_equiv_pos_site_id
 _symmetry_equiv_pos_as_xyz
  1  'x, y, z'
loop_
 _atom_site_type_symbol
 _atom_site_label
 _atom_site_symmetry_multiplicity
 _atom_site_fract_x
 _atom_site_fract_y
 _atom_site_fract_z
 _atom_site_occupancy
  Dy  Dy0  1  0.498793  0.334973  0.668863  1
  Dy  Dy1  1  0.498793  0.666110  0.331137  1
  Dy  Dy2  1  0.001206  0.666111  0.331137  1
  Dy  Dy3  1  0.001206  0.334974  0.668863  1
  Dy  Dy4  1  0.750001  0.244779  0.000000  1
  Dy  Dy5  1  0.750001  0.754169  0.757289  1
  Dy  Dy6  1  0.750001  0.996880  0.242711  1
  Dy  Dy7  1  0.249999  0.756346  0.000000  1
  Dy  Dy8  1  0.250001  0.246121  0.244562  1
  Dy  Dy9  1  0.250001  0.001559  0.755438  1
  In  In10  1  0.749999  0.607137  0.000000  1
  Sb  Sb11  1  0.750001  0.388765  0.389413  1
  Sb  Sb12  1  0.750001  0.999351  0.610587  1
  Sb  Sb13  1  0.250000  0.390349  0.000000  1
  Sb  Sb14  1  0.250000  0.611401  0.610427  1
  Sb  Sb15  1  0.250000  0.000974  0.389573  1
