# generated using pymatgen
data_Be6Si5Ru12W
_symmetry_space_group_name_H-M   'P 1'
_cell_length_a   4.08986000
_cell_length_b   5.78791100
_cell_length_c   12.23440700
_cell_angle_alpha   90.00063523
_cell_angle_beta   89.99868592
_cell_angle_gamma   89.99994229
_symmetry_Int_Tables_number   1
_chemical_formula_structural   Be6Si5Ru12W
_chemical_formula_sum   'Be6 Si5 Ru12 W1'
_cell_volume   289.60977103
_cell_formula_units_Z   1
loop_
 _symmetry_equiv_pos_site_id
 _symmetry_equiv_pos_as_xyz
  1  'x, y, z'
loop_
 _atom_site_type_symbol
 _atom_site_label
 _atom_site_symmetry_multiplicity
 _atom_site_fract_x
 _atom_site_fract_y
 _atom_site_fract_z
 _atom_site_occupancy
  Be  Be0  1  0.000073  0.500010  0.994386  1
  Be  Be1  1  0.499720  0.999947  0.173239  1
  Be  Be2  1  0.999631  0.500059  0.333407  1
  Be  Be3  1  0.500008  0.999938  0.493461  1
  Be  Be4  1  0.000267  0.500014  0.672216  1
  Be  Be5  1  0.500255  0.999998  0.833308  1
  Si  Si6  1  0.000029  0.999980  0.005636  1
  Si  Si7  1  0.499799  0.500048  0.168674  1
  Si  Si8  1  0.999734  0.999946  0.333442  1
  Si  Si9  1  0.500007  0.500056  0.498064  1
  Si  Si10  1  0.000191  0.999980  0.660928  1
  Ru  Ru11  1  0.500023  0.244738  0.005765  1
  Ru  Ru12  1  0.500020  0.755271  0.005756  1
  Ru  Ru13  1  0.999851  0.252006  0.168236  1
  Ru  Ru14  1  0.999852  0.747997  0.168228  1
  Ru  Ru15  1  0.499805  0.250815  0.333297  1
  Ru  Ru16  1  0.499801  0.749196  0.333296  1
  Ru  Ru17  1  0.000000  0.251982  0.498389  1
  Ru  Ru18  1  0.999996  0.748022  0.498397  1
  Ru  Ru19  1  0.500165  0.244727  0.660928  1
  Ru  Ru20  1  0.500161  0.755284  0.660944  1
  Ru  Ru21  1  0.000203  0.235660  0.833336  1
  Ru  Ru22  1  0.000204  0.764341  0.833335  1
  W  W23  1  0.500207  0.499979  0.833335  1
