# generated using pymatgen
data_CsNb8VS16
_symmetry_space_group_name_H-M   'P 1'
_cell_length_a   6.73213400
_cell_length_b   6.73213344
_cell_length_c   14.88278000
_cell_angle_alpha   90.00000000
_cell_angle_beta   90.00000000
_cell_angle_gamma   119.99999291
_symmetry_Int_Tables_number   1
_chemical_formula_structural   CsNb8VS16
_chemical_formula_sum   'Cs1 Nb8 V1 S16'
_cell_volume   584.14436612
_cell_formula_units_Z   1
loop_
 _symmetry_equiv_pos_site_id
 _symmetry_equiv_pos_as_xyz
  1  'x, y, z'
loop_
 _atom_site_type_symbol
 _atom_site_label
 _atom_site_symmetry_multiplicity
 _atom_site_fract_x
 _atom_site_fract_y
 _atom_site_fract_z
 _atom_site_occupancy
  Cs  Cs0  1  0.000000  0.000000  0.500000  1
  Nb  Nb1  1  0.504376  0.008752  0.797543  1
  Nb  Nb2  1  0.495624  0.504376  0.202457  1
  Nb  Nb3  1  0.008752  0.504376  0.202457  1
  Nb  Nb4  1  0.991248  0.495624  0.797543  1
  Nb  Nb5  1  0.504376  0.495624  0.797543  1
  Nb  Nb6  1  0.495624  0.991248  0.202457  1
  Nb  Nb7  1  0.000000  0.000000  0.794578  1
  Nb  Nb8  1  0.000000  0.000000  0.205422  1
  V  V9  1  0.000000  0.000000  0.000000  1
  S  S10  1  0.835346  0.164654  0.098485  1
  S  S11  1  0.835346  0.670692  0.098485  1
  S  S12  1  0.329308  0.164654  0.098485  1
  S  S13  1  0.662734  0.831367  0.692591  1
  S  S14  1  0.164654  0.329308  0.901515  1
  S  S15  1  0.168633  0.831367  0.692591  1
  S  S16  1  0.168633  0.337266  0.692591  1
  S  S17  1  0.831367  0.168633  0.307409  1
  S  S18  1  0.337266  0.168633  0.307409  1
  S  S19  1  0.670692  0.835346  0.901515  1
  S  S20  1  0.333333  0.666667  0.097404  1
  S  S21  1  0.666667  0.333333  0.690659  1
  S  S22  1  0.666667  0.333333  0.902596  1
  S  S23  1  0.333333  0.666667  0.309341  1
  S  S24  1  0.831367  0.662734  0.307409  1
  S  S25  1  0.164654  0.835346  0.901515  1
