# generated using pymatgen
data_La2Y8Ho10Si15Pd
_symmetry_space_group_name_H-M   'P 1'
_cell_length_a   7.43793531
_cell_length_b   7.77664383
_cell_length_c   14.68734944
_cell_angle_alpha   89.61651304
_cell_angle_beta   89.97217769
_cell_angle_gamma   89.87111681
_symmetry_Int_Tables_number   1
_chemical_formula_structural   La2Y8Ho10Si15Pd
_chemical_formula_sum   'La2 Y8 Ho10 Si15 Pd1'
_cell_volume   849.52694626
_cell_formula_units_Z   1
loop_
 _symmetry_equiv_pos_site_id
 _symmetry_equiv_pos_as_xyz
  1  'x, y, z'
loop_
 _atom_site_type_symbol
 _atom_site_label
 _atom_site_symmetry_multiplicity
 _atom_site_fract_x
 _atom_site_fract_y
 _atom_site_fract_z
 _atom_site_occupancy
  La  La0  1  0.522696  0.571225  0.341724  1
  La  La1  1  0.022908  0.428679  0.657382  1
  Y  Y2  1  0.351535  0.262590  0.500023  1
  Y  Y3  1  0.850501  0.736506  0.499914  1
  Y  Y4  1  0.474916  0.934079  0.845608  1
  Y  Y5  1  0.973409  0.066402  0.152530  1
  Y  Y6  1  0.472995  0.934878  0.153328  1
  Y  Y7  1  0.971932  0.066863  0.848704  1
  Y  Y8  1  0.527053  0.566430  0.652525  1
  Y  Y9  1  0.027576  0.434051  0.347487  1
  Ho  Ho10  1  0.811178  0.576067  0.875110  1
  Ho  Ho11  1  0.315795  0.423784  0.125454  1
  Ho  Ho12  1  0.182330  0.928096  0.373257  1
  Ho  Ho13  1  0.682349  0.069956  0.626973  1
  Ho  Ho14  1  0.182731  0.927951  0.628442  1
  Ho  Ho15  1  0.682857  0.070933  0.371439  1
  Ho  Ho16  1  0.815927  0.571989  0.125998  1
  Ho  Ho17  1  0.319242  0.428012  0.873360  1
  Ho  Ho18  1  0.644244  0.232690  0.999354  1
  Ho  Ho19  1  0.155822  0.758422  0.000720  1
  Si  Si20  1  0.018631  0.352546  0.999977  1
  Si  Si21  1  0.476452  0.859826  0.501153  1
  Si  Si22  1  0.977206  0.139804  0.499008  1
  Si  Si23  1  0.650072  0.277548  0.790789  1
  Si  Si24  1  0.151720  0.721376  0.208948  1
  Si  Si25  1  0.351413  0.215845  0.288118  1
  Si  Si26  1  0.851351  0.784018  0.712657  1
  Si  Si27  1  0.361208  0.219684  0.710326  1
  Si  Si28  1  0.860580  0.780657  0.288896  1
  Si  Si29  1  0.645681  0.270460  0.206137  1
  Si  Si30  1  0.147173  0.727420  0.793556  1
  Si  Si31  1  0.773049  0.880441  0.000817  1
  Si  Si32  1  0.260140  0.124815  0.999519  1
  Si  Si33  1  0.234446  0.628222  0.501851  1
  Si  Si34  1  0.733458  0.372521  0.498431  1
  Pd  Pd35  1  0.519422  0.655213  0.000486  1
