# generated using pymatgen
data_PrY2Ga9Pd2
_symmetry_space_group_name_H-M   'P 1'
_cell_length_a   8.23810316
_cell_length_b   8.23810359
_cell_length_c   8.23810297
_cell_angle_alpha   149.53423349
_cell_angle_beta   109.37416945
_cell_angle_gamma   78.83307225
_symmetry_Int_Tables_number   1
_chemical_formula_structural   PrY2Ga9Pd2
_chemical_formula_sum   'Pr1 Y2 Ga9 Pd2'
_cell_volume   262.39688441
_cell_formula_units_Z   1
loop_
 _symmetry_equiv_pos_site_id
 _symmetry_equiv_pos_as_xyz
  1  'x, y, z'
loop_
 _atom_site_type_symbol
 _atom_site_label
 _atom_site_symmetry_multiplicity
 _atom_site_fract_x
 _atom_site_fract_y
 _atom_site_fract_z
 _atom_site_occupancy
  Pr  Pr0  1  0.500000  0.500000  0.000000  1
  Y  Y1  1  0.198279  0.198279  0.000000  1
  Y  Y2  1  0.801721  0.801721  0.000000  1
  Ga  Ga3  1  0.644475  0.360370  0.284105  1
  Ga  Ga4  1  0.355525  0.639630  0.715895  1
  Ga  Ga5  1  0.076264  0.360370  0.715895  1
  Ga  Ga6  1  0.923736  0.639630  0.284105  1
  Ga  Ga7  1  0.523150  0.158315  0.364835  1
  Ga  Ga8  1  0.476850  0.841685  0.635165  1
  Ga  Ga9  1  0.793480  0.158315  0.635165  1
  Ga  Ga10  1  0.206520  0.841685  0.364835  1
  Ga  Ga11  1  0.000000  0.500000  0.500000  1
  Pd  Pd12  1  0.185178  0.000000  0.185178  1
  Pd  Pd13  1  0.814822  0.000000  0.814822  1
