# generated using pymatgen
data_Tb11Lu(ThSn2)8
_symmetry_space_group_name_H-M   'P 1'
_cell_length_a   8.14664100
_cell_length_b   8.27151236
_cell_length_c   15.63028100
_cell_angle_alpha   90.00000000
_cell_angle_beta   90.00000000
_cell_angle_gamma   89.98312612
_symmetry_Int_Tables_number   1
_chemical_formula_structural   Tb11Lu(ThSn2)8
_chemical_formula_sum   'Tb11 Lu1 Th8 Sn16'
_cell_volume   1053.24709150
_cell_formula_units_Z   1
loop_
 _symmetry_equiv_pos_site_id
 _symmetry_equiv_pos_as_xyz
  1  'x, y, z'
loop_
 _atom_site_type_symbol
 _atom_site_label
 _atom_site_symmetry_multiplicity
 _atom_site_fract_x
 _atom_site_fract_y
 _atom_site_fract_z
 _atom_site_occupancy
  Tb  Tb0  1  0.361363  0.836927  0.876679  1
  Tb  Tb1  1  0.861333  0.663112  0.623521  1
  Tb  Tb2  1  0.638477  0.162887  0.376191  1
  Tb  Tb3  1  0.139078  0.336818  0.123773  1
  Tb  Tb4  1  0.638477  0.162887  0.123809  1
  Tb  Tb5  1  0.139078  0.336818  0.376227  1
  Tb  Tb6  1  0.361363  0.836927  0.623321  1
  Tb  Tb7  1  0.861333  0.663112  0.876479  1
  Tb  Tb8  1  0.190654  0.497283  0.750000  1
  Tb  Tb9  1  0.690788  0.002755  0.750000  1
  Tb  Tb10  1  0.809244  0.502805  0.250000  1
  Lu  Lu11  1  0.308657  0.997611  0.250000  1
  Th  Th12  1  0.518318  0.321085  0.903766  1
  Th  Th13  1  0.018231  0.178740  0.596267  1
  Th  Th14  1  0.481620  0.678689  0.403621  1
  Th  Th15  1  0.981593  0.821509  0.096434  1
  Th  Th16  1  0.481620  0.678689  0.096379  1
  Th  Th17  1  0.981593  0.821509  0.403566  1
  Th  Th18  1  0.518318  0.321085  0.596234  1
  Th  Th19  1  0.018231  0.178740  0.903733  1
  Sn  Sn20  1  0.298343  0.038565  0.043253  1
  Sn  Sn21  1  0.798343  0.461149  0.457616  1
  Sn  Sn22  1  0.701850  0.960999  0.541842  1
  Sn  Sn23  1  0.201771  0.538933  0.958198  1
  Sn  Sn24  1  0.701850  0.960999  0.958158  1
  Sn  Sn25  1  0.201771  0.538933  0.541802  1
  Sn  Sn26  1  0.298343  0.038565  0.456747  1
  Sn  Sn27  1  0.798343  0.461149  0.042384  1
  Sn  Sn28  1  0.557165  0.620118  0.750000  1
  Sn  Sn29  1  0.057393  0.879812  0.750000  1
  Sn  Sn30  1  0.442630  0.378877  0.250000  1
  Sn  Sn31  1  0.944552  0.119606  0.250000  1
  Sn  Sn32  1  0.324210  0.143289  0.750000  1
  Sn  Sn33  1  0.824279  0.356592  0.750000  1
  Sn  Sn34  1  0.673612  0.856805  0.250000  1
  Sn  Sn35  1  0.176174  0.645625  0.250000  1
