# generated using pymatgen
data_CaNd(SiPd2)2
_symmetry_space_group_name_H-M   'P 1'
_cell_length_a   5.63312307
_cell_length_b   6.99201400
_cell_length_c   7.49026542
_cell_angle_alpha   90.00000000
_cell_angle_beta   89.42601959
_cell_angle_gamma   90.00000000
_symmetry_Int_Tables_number   1
_chemical_formula_structural   CaNd(SiPd2)2
_chemical_formula_sum   'Ca2 Nd2 Si4 Pd8'
_cell_volume   295.00334734
_cell_formula_units_Z   2
loop_
 _symmetry_equiv_pos_site_id
 _symmetry_equiv_pos_as_xyz
  1  'x, y, z'
loop_
 _atom_site_type_symbol
 _atom_site_label
 _atom_site_symmetry_multiplicity
 _atom_site_fract_x
 _atom_site_fract_y
 _atom_site_fract_z
 _atom_site_occupancy
  Ca  Ca0  1  0.135020  0.750000  0.526603  1
  Ca  Ca1  1  0.864980  0.250000  0.473397  1
  Nd  Nd2  1  0.642665  0.250000  0.970914  1
  Nd  Nd3  1  0.357335  0.750000  0.029086  1
  Si  Si4  1  0.858246  0.750000  0.871647  1
  Si  Si5  1  0.141754  0.250000  0.128353  1
  Si  Si6  1  0.361070  0.250000  0.620692  1
  Si  Si7  1  0.638930  0.750000  0.379308  1
  Pd  Pd8  1  0.592876  0.552833  0.671297  1
  Pd  Pd9  1  0.407124  0.447167  0.328703  1
  Pd  Pd10  1  0.099846  0.446156  0.826293  1
  Pd  Pd11  1  0.407124  0.052833  0.328703  1
  Pd  Pd12  1  0.900154  0.553844  0.173707  1
  Pd  Pd13  1  0.592876  0.947167  0.671297  1
  Pd  Pd14  1  0.900154  0.946156  0.173707  1
  Pd  Pd15  1  0.099846  0.053844  0.826293  1
