# generated using pymatgen
data_La7Lu(CuP)12
_symmetry_space_group_name_H-M   'P 1'
_cell_length_a   4.04537500
_cell_length_b   11.01008386
_cell_length_c   13.17672379
_cell_angle_alpha   89.89244689
_cell_angle_beta   90.00000000
_cell_angle_gamma   90.00000000
_symmetry_Int_Tables_number   1
_chemical_formula_structural   La7Lu(CuP)12
_chemical_formula_sum   'La7 Lu1 Cu12 P12'
_cell_volume   586.88916310
_cell_formula_units_Z   1
loop_
 _symmetry_equiv_pos_site_id
 _symmetry_equiv_pos_as_xyz
  1  'x, y, z'
loop_
 _atom_site_type_symbol
 _atom_site_label
 _atom_site_symmetry_multiplicity
 _atom_site_fract_x
 _atom_site_fract_y
 _atom_site_fract_z
 _atom_site_occupancy
  La  La0  1  0.250000  0.933263  0.795160  1
  La  La1  1  0.750000  0.433242  0.700532  1
  La  La2  1  0.250000  0.563343  0.297471  1
  La  La3  1  0.750000  0.067305  0.213220  1
  La  La4  1  0.250000  0.846040  0.499670  1
  La  La5  1  0.750000  0.342217  0.000024  1
  La  La6  1  0.250000  0.657503  0.998865  1
  Lu  Lu7  1  0.750000  0.157479  0.501560  1
  Cu  Cu8  1  0.250000  0.388803  0.512092  1
  Cu  Cu9  1  0.750000  0.900508  0.991313  1
  Cu  Cu10  1  0.250000  0.101862  0.011962  1
  Cu  Cu11  1  0.750000  0.603780  0.489121  1
  Cu  Cu12  1  0.250000  0.271186  0.337860  1
  Cu  Cu13  1  0.750000  0.770492  0.167475  1
  Cu  Cu14  1  0.250000  0.228885  0.827253  1
  Cu  Cu15  1  0.750000  0.732537  0.665655  1
  Cu  Cu16  1  0.250000  0.854002  0.272079  1
  Cu  Cu17  1  0.750000  0.355746  0.229112  1
  Cu  Cu18  1  0.250000  0.643130  0.769349  1
  Cu  Cu19  1  0.750000  0.142448  0.721260  1
  P  P20  1  0.250000  0.230534  0.641568  1
  P  P21  1  0.750000  0.734663  0.847554  1
  P  P22  1  0.250000  0.264827  0.152968  1
  P  P23  1  0.750000  0.768114  0.349499  1
  P  P24  1  0.250000  0.599561  0.591545  1
  P  P25  1  0.750000  0.101884  0.902489  1
  P  P26  1  0.250000  0.901450  0.096156  1
  P  P27  1  0.750000  0.391865  0.408844  1
  P  P28  1  0.250000  0.065963  0.378119  1
  P  P29  1  0.750000  0.558581  0.135361  1
  P  P30  1  0.250000  0.440369  0.863194  1
  P  P31  1  0.750000  0.948420  0.631667  1
