# generated using pymatgen
data_LuU(WC2)2
_symmetry_space_group_name_H-M   'P 1'
_cell_length_a   3.25940200
_cell_length_b   5.65953900
_cell_length_c   10.87401300
_cell_angle_alpha   90.00000000
_cell_angle_beta   90.00000000
_cell_angle_gamma   90.00000000
_symmetry_Int_Tables_number   1
_chemical_formula_structural   LuU(WC2)2
_chemical_formula_sum   'Lu2 U2 W4 C8'
_cell_volume   200.58979410
_cell_formula_units_Z   2
loop_
 _symmetry_equiv_pos_site_id
 _symmetry_equiv_pos_as_xyz
  1  'x, y, z'
loop_
 _atom_site_type_symbol
 _atom_site_label
 _atom_site_symmetry_multiplicity
 _atom_site_fract_x
 _atom_site_fract_y
 _atom_site_fract_z
 _atom_site_occupancy
  Lu  Lu0  1  0.250000  0.084823  0.860338  1
  Lu  Lu1  1  0.250000  0.584823  0.639662  1
  U  U2  1  0.750000  0.918101  0.137043  1
  U  U3  1  0.750000  0.418101  0.362957  1
  W  W4  1  0.250000  0.414409  0.102685  1
  W  W5  1  0.250000  0.914409  0.397315  1
  W  W6  1  0.750000  0.591188  0.887396  1
  W  W7  1  0.750000  0.091188  0.612604  1
  C  C8  1  0.250000  0.161917  0.244940  1
  C  C9  1  0.250000  0.661917  0.255060  1
  C  C10  1  0.750000  0.834169  0.751380  1
  C  C11  1  0.750000  0.334169  0.748620  1
  C  C12  1  0.250000  0.740723  0.991529  1
  C  C13  1  0.250000  0.240723  0.508471  1
  C  C14  1  0.750000  0.254669  0.010662  1
  C  C15  1  0.750000  0.754669  0.489338  1
