# generated using pymatgen
data_Tb5YAl24Ru7Rh
_symmetry_space_group_name_H-M   'P 1'
_cell_length_a   8.81554875
_cell_length_b   8.81187485
_cell_length_c   9.59236947
_cell_angle_alpha   89.99999908
_cell_angle_beta   89.89777965
_cell_angle_gamma   119.98621415
_symmetry_Int_Tables_number   1
_chemical_formula_structural   Tb5YAl24Ru7Rh
_chemical_formula_sum   'Tb5 Y1 Al24 Ru7 Rh1'
_cell_volume   645.40688491
_cell_formula_units_Z   1
loop_
 _symmetry_equiv_pos_site_id
 _symmetry_equiv_pos_as_xyz
  1  'x, y, z'
loop_
 _atom_site_type_symbol
 _atom_site_label
 _atom_site_symmetry_multiplicity
 _atom_site_fract_x
 _atom_site_fract_y
 _atom_site_fract_z
 _atom_site_occupancy
  Tb  Tb0  1  0.806407  0.192006  0.249054  1
  Tb  Tb1  1  0.806407  0.614400  0.249054  1
  Tb  Tb2  1  0.613392  0.806696  0.750783  1
  Tb  Tb3  1  0.193787  0.808162  0.750931  1
  Tb  Tb4  1  0.193787  0.385625  0.750931  1
  Y  Y5  1  0.386816  0.193409  0.249304  1
  Al  Al6  1  0.437825  0.876759  0.250239  1
  Al  Al7  1  0.122878  0.561440  0.249241  1
  Al  Al8  1  0.437825  0.561066  0.250239  1
  Al  Al9  1  0.562190  0.123476  0.749741  1
  Al  Al10  1  0.877350  0.438674  0.750798  1
  Al  Al11  1  0.562190  0.438713  0.749741  1
  Al  Al12  1  0.164572  0.839037  0.422753  1
  Al  Al13  1  0.164572  0.325536  0.422753  1
  Al  Al14  1  0.674192  0.837096  0.422475  1
  Al  Al15  1  0.835489  0.161030  0.577250  1
  Al  Al16  1  0.835489  0.674458  0.577250  1
  Al  Al17  1  0.325749  0.162874  0.577384  1
  Al  Al18  1  0.837225  0.163064  0.922986  1
  Al  Al19  1  0.837225  0.674160  0.922986  1
  Al  Al20  1  0.326280  0.163140  0.922967  1
  Al  Al21  1  0.162849  0.837021  0.077000  1
  Al  Al22  1  0.162849  0.325828  0.077000  1
  Al  Al23  1  0.673680  0.836840  0.077170  1
  Al  Al24  1  0.334981  0.667490  0.516092  1
  Al  Al25  1  0.664816  0.332408  0.483776  1
  Al  Al26  1  0.666553  0.333277  0.015672  1
  Al  Al27  1  0.333261  0.666630  0.984466  1
  Al  Al28  1  0.999365  0.999682  0.249960  1
  Al  Al29  1  0.000515  0.000258  0.750053  1
  Ru  Ru30  1  0.000083  0.000042  0.499929  1
  Ru  Ru31  1  0.000086  0.000043  0.000066  1
  Ru  Ru32  1  0.499887  0.000091  0.499889  1
  Ru  Ru33  1  0.499887  0.499796  0.499889  1
  Ru  Ru34  1  0.499892  0.000082  0.000077  1
  Ru  Ru35  1  0.999893  0.499946  0.000087  1
  Ru  Ru36  1  0.499892  0.499809  0.000077  1
  Rh  Rh37  1  0.999866  0.499933  0.499938  1
