# generated using pymatgen
data_TbYbEr8(In2Pt)4
_symmetry_space_group_name_H-M   'P 1'
_cell_length_a   3.63259900
_cell_length_b   8.10675093
_cell_length_c   18.17703405
_cell_angle_alpha   89.89732388
_cell_angle_beta   90.00000000
_cell_angle_gamma   90.00000000
_symmetry_Int_Tables_number   1
_chemical_formula_structural   TbYbEr8(In2Pt)4
_chemical_formula_sum   'Tb1 Yb1 Er8 In8 Pt4'
_cell_volume   535.28689706
_cell_formula_units_Z   1
loop_
 _symmetry_equiv_pos_site_id
 _symmetry_equiv_pos_as_xyz
  1  'x, y, z'
loop_
 _atom_site_type_symbol
 _atom_site_label
 _atom_site_symmetry_multiplicity
 _atom_site_fract_x
 _atom_site_fract_y
 _atom_site_fract_z
 _atom_site_occupancy
  Tb  Tb0  1  0.000000  0.500000  0.500000  1
  Yb  Yb1  1  0.000000  0.000000  0.000000  1
  Er  Er2  1  0.000000  0.117041  0.413644  1
  Er  Er3  1  0.000000  0.882959  0.586356  1
  Er  Er4  1  0.000000  0.381406  0.913814  1
  Er  Er5  1  0.000000  0.618594  0.086186  1
  Er  Er6  1  0.000000  0.243229  0.221089  1
  Er  Er7  1  0.000000  0.756771  0.778911  1
  Er  Er8  1  0.000000  0.256892  0.721412  1
  Er  Er9  1  0.000000  0.743108  0.278588  1
  In  In10  1  0.500000  0.423980  0.351150  1
  In  In11  1  0.500000  0.576020  0.648850  1
  In  In12  1  0.500000  0.072376  0.852016  1
  In  In13  1  0.500000  0.927624  0.147984  1
  In  In14  1  0.500000  0.294567  0.067190  1
  In  In15  1  0.500000  0.705433  0.932810  1
  In  In16  1  0.500000  0.206007  0.567144  1
  In  In17  1  0.500000  0.793993  0.432856  1
  Pt  Pt18  1  0.500000  0.023237  0.303990  1
  Pt  Pt19  1  0.500000  0.976763  0.696010  1
  Pt  Pt20  1  0.500000  0.477713  0.803167  1
  Pt  Pt21  1  0.500000  0.522287  0.196833  1
