# generated using pymatgen
data_Ce3Pr6Dy2Ho5(CdRu)4
_symmetry_space_group_name_H-M   'P 1'
_cell_length_a   9.76197028
_cell_length_b   9.75735027
_cell_length_c   9.68786262
_cell_angle_alpha   59.70043612
_cell_angle_beta   59.74662310
_cell_angle_gamma   59.98432570
_symmetry_Int_Tables_number   1
_chemical_formula_structural   Ce3Pr6Dy2Ho5(CdRu)4
_chemical_formula_sum   'Ce3 Pr6 Dy2 Ho5 Cd4 Ru4'
_cell_volume   649.68617316
_cell_formula_units_Z   1
loop_
 _symmetry_equiv_pos_site_id
 _symmetry_equiv_pos_as_xyz
  1  'x, y, z'
loop_
 _atom_site_type_symbol
 _atom_site_label
 _atom_site_symmetry_multiplicity
 _atom_site_fract_x
 _atom_site_fract_y
 _atom_site_fract_z
 _atom_site_occupancy
  Ce  Ce0  1  0.346074  0.966543  0.341311  1
  Ce  Ce1  1  0.968595  0.345495  0.341633  1
  Ce  Ce2  1  0.344279  0.345495  0.341633  1
  Pr  Pr3  1  0.558549  0.556942  0.943621  1
  Pr  Pr4  1  0.940888  0.556942  0.943621  1
  Pr  Pr5  1  0.557494  0.941283  0.943729  1
  Pr  Pr6  1  0.942612  0.941846  0.557960  1
  Pr  Pr7  1  0.557582  0.941846  0.557960  1
  Pr  Pr8  1  0.941225  0.558590  0.558961  1
  Dy  Dy9  1  0.813629  0.184825  0.187918  1
  Dy  Dy10  1  0.349940  0.350362  0.949758  1
  Ho  Ho11  1  0.186471  0.186765  0.813646  1
  Ho  Ho12  1  0.813117  0.186765  0.813646  1
  Ho  Ho13  1  0.185886  0.813083  0.815144  1
  Ho  Ho14  1  0.813346  0.813047  0.188178  1
  Ho  Ho15  1  0.185429  0.813046  0.188177  1
  Cd  Cd16  1  0.579196  0.579063  0.262546  1
  Cd  Cd17  1  0.579961  0.262073  0.578005  1
  Cd  Cd18  1  0.262445  0.579942  0.577965  1
  Cd  Cd19  1  0.579648  0.579942  0.577965  1
  Ru  Ru20  1  0.143675  0.145358  0.567291  1
  Ru  Ru21  1  0.139324  0.570328  0.151024  1
  Ru  Ru22  1  0.571053  0.140212  0.149155  1
  Ru  Ru23  1  0.139580  0.140212  0.149155  1
