# generated using pymatgen
data_NaDy4Si6P6Ir19
_symmetry_space_group_name_H-M   'P 1'
_cell_length_a   12.77594239
_cell_length_b   12.80109759
_cell_length_c   3.94871700
_cell_angle_alpha   90.00000000
_cell_angle_beta   90.00000000
_cell_angle_gamma   119.88161967
_symmetry_Int_Tables_number   1
_chemical_formula_structural   NaDy4Si6P6Ir19
_chemical_formula_sum   'Na1 Dy4 Si6 P6 Ir19'
_cell_volume   559.94274264
_cell_formula_units_Z   1
loop_
 _symmetry_equiv_pos_site_id
 _symmetry_equiv_pos_as_xyz
  1  'x, y, z'
loop_
 _atom_site_type_symbol
 _atom_site_label
 _atom_site_symmetry_multiplicity
 _atom_site_fract_x
 _atom_site_fract_y
 _atom_site_fract_z
 _atom_site_occupancy
  Na  Na0  1  0.001447  0.816045  0.000000  1
  Dy  Dy1  1  0.333598  0.666766  0.500000  1
  Dy  Dy2  1  0.665649  0.332060  0.500000  1
  Dy  Dy3  1  0.183287  0.183782  0.000000  1
  Dy  Dy4  1  0.815492  0.997751  0.000000  1
  Si  Si5  1  0.000777  0.637850  0.500000  1
  Si  Si6  1  0.364065  0.364967  0.500000  1
  Si  Si7  1  0.635072  0.999061  0.500000  1
  Si  Si8  1  0.520063  0.682758  0.000000  1
  Si  Si9  1  0.315423  0.836762  0.000000  1
  Si  Si10  1  0.162440  0.480506  0.000000  1
  P  P11  1  0.482931  0.177558  0.000000  1
  P  P12  1  0.695604  0.517607  0.000000  1
  P  P13  1  0.822469  0.305701  0.000000  1
  P  P14  1  0.996640  0.177106  0.500000  1
  P  P15  1  0.824968  0.818726  0.500000  1
  P  P16  1  0.177520  0.998172  0.500000  1
  Ir  Ir17  1  0.514329  0.869314  0.000000  1
  Ir  Ir18  1  0.129297  0.645058  0.000000  1
  Ir  Ir19  1  0.353604  0.484902  0.000000  1
  Ir  Ir20  1  0.495875  0.369636  0.000000  1
  Ir  Ir21  1  0.873468  0.503976  0.000000  1
  Ir  Ir22  1  0.631950  0.126762  0.000000  1
  Ir  Ir23  1  0.013894  0.458016  0.500000  1
  Ir  Ir24  1  0.541440  0.557754  0.500000  1
  Ir  Ir25  1  0.446375  0.991390  0.500000  1
  Ir  Ir26  1  0.993838  0.277902  0.000000  1
  Ir  Ir27  1  0.721723  0.716045  0.000000  1
  Ir  Ir28  1  0.285702  0.008315  0.000000  1
  Ir  Ir29  1  0.633226  0.809557  0.500000  1
  Ir  Ir30  1  0.193265  0.822056  0.500000  1
  Ir  Ir31  1  0.176085  0.367509  0.500000  1
  Ir  Ir32  1  0.382519  0.182980  0.500000  1
  Ir  Ir33  1  0.798781  0.614158  0.500000  1
  Ir  Ir34  1  0.817104  0.199429  0.500000  1
  Ir  Ir35  1  0.000078  0.002066  0.500000  1
