# generated using pymatgen
data_Tb15HoMgIn3Rh4
_symmetry_space_group_name_H-M   'P 1'
_cell_length_a   9.70226492
_cell_length_b   9.70226460
_cell_length_c   9.70226544
_cell_angle_alpha   60.06710161
_cell_angle_beta   60.06710085
_cell_angle_gamma   60.06710223
_symmetry_Int_Tables_number   1
_chemical_formula_structural   Tb15HoMgIn3Rh4
_chemical_formula_sum   'Tb15 Ho1 Mg1 In3 Rh4'
_cell_volume   646.79154566
_cell_formula_units_Z   1
loop_
 _symmetry_equiv_pos_site_id
 _symmetry_equiv_pos_as_xyz
  1  'x, y, z'
loop_
 _atom_site_type_symbol
 _atom_site_label
 _atom_site_symmetry_multiplicity
 _atom_site_fract_x
 _atom_site_fract_y
 _atom_site_fract_z
 _atom_site_occupancy
  Tb  Tb0  1  0.188456  0.188456  0.811653  1
  Tb  Tb1  1  0.599964  0.599964  0.202264  1
  Tb  Tb2  1  0.440206  0.059039  0.440206  1
  Tb  Tb3  1  0.440206  0.440206  0.059039  1
  Tb  Tb4  1  0.813950  0.186783  0.813950  1
  Tb  Tb5  1  0.188456  0.811653  0.188456  1
  Tb  Tb6  1  0.436231  0.062474  0.062474  1
  Tb  Tb7  1  0.186783  0.813950  0.813950  1
  Tb  Tb8  1  0.062474  0.436231  0.062474  1
  Tb  Tb9  1  0.813950  0.813950  0.186783  1
  Tb  Tb10  1  0.202264  0.599964  0.599964  1
  Tb  Tb11  1  0.059039  0.440206  0.440206  1
  Tb  Tb12  1  0.062474  0.062474  0.436231  1
  Tb  Tb13  1  0.811653  0.188456  0.188456  1
  Tb  Tb14  1  0.599964  0.202264  0.599964  1
  Ho  Ho15  1  0.598396  0.598396  0.598396  1
  Mg  Mg16  1  0.827526  0.827526  0.827526  1
  In  In17  1  0.831894  0.831894  0.503240  1
  In  In18  1  0.503240  0.831894  0.831894  1
  In  In19  1  0.831894  0.503240  0.831894  1
  Rh  Rh20  1  0.392437  0.823105  0.392437  1
  Rh  Rh21  1  0.393002  0.393002  0.393002  1
  Rh  Rh22  1  0.823105  0.392437  0.392437  1
  Rh  Rh23  1  0.392437  0.392437  0.823105  1
