# generated using pymatgen
data_Te12AsPtBr6
_symmetry_space_group_name_H-M   'P 1'
_cell_length_a   9.47286732
_cell_length_b   9.47286808
_cell_length_c   9.47286685
_cell_angle_alpha   108.69554987
_cell_angle_beta   108.69555150
_cell_angle_gamma   108.69553984
_symmetry_Int_Tables_number   1
_chemical_formula_structural   Te12AsPtBr6
_chemical_formula_sum   'Te12 As1 Pt1 Br6'
_cell_volume   672.50469164
_cell_formula_units_Z   1
loop_
 _symmetry_equiv_pos_site_id
 _symmetry_equiv_pos_as_xyz
  1  'x, y, z'
loop_
 _atom_site_type_symbol
 _atom_site_label
 _atom_site_symmetry_multiplicity
 _atom_site_fract_x
 _atom_site_fract_y
 _atom_site_fract_z
 _atom_site_occupancy
  Te  Te0  1  0.903372  0.164694  0.188177  1
  Te  Te1  1  0.188177  0.903372  0.164694  1
  Te  Te2  1  0.164694  0.188177  0.903372  1
  Te  Te3  1  0.683309  0.664972  0.421085  1
  Te  Te4  1  0.421085  0.683309  0.664972  1
  Te  Te5  1  0.664972  0.421085  0.683309  1
  Te  Te6  1  0.078915  0.835028  0.816691  1
  Te  Te7  1  0.816691  0.078915  0.835028  1
  Te  Te8  1  0.835028  0.816691  0.078915  1
  Te  Te9  1  0.311823  0.335306  0.596628  1
  Te  Te10  1  0.596628  0.311823  0.335306  1
  Te  Te11  1  0.335306  0.596628  0.311823  1
  As  As12  1  0.250000  0.250000  0.250000  1
  Pt  Pt13  1  0.750000  0.750000  0.750000  1
  Br  Br14  1  0.981799  0.518201  0.250000  1
  Br  Br15  1  0.250000  0.981799  0.518201  1
  Br  Br16  1  0.518201  0.250000  0.981799  1
  Br  Br17  1  0.750000  0.014508  0.485492  1
  Br  Br18  1  0.485492  0.750000  0.014508  1
  Br  Br19  1  0.014508  0.485492  0.750000  1
