# generated using pymatgen
data_Tb4Ga10Co5Ni
_symmetry_space_group_name_H-M   'P 1'
_cell_length_a   8.34845823
_cell_length_b   8.35378418
_cell_length_c   5.53005036
_cell_angle_alpha   70.65461790
_cell_angle_beta   70.64534865
_cell_angle_gamma   96.12978443
_symmetry_Int_Tables_number   1
_chemical_formula_structural   Tb4Ga10Co5Ni
_chemical_formula_sum   'Tb4 Ga10 Co5 Ni1'
_cell_volume   333.01693189
_cell_formula_units_Z   1
loop_
 _symmetry_equiv_pos_site_id
 _symmetry_equiv_pos_as_xyz
  1  'x, y, z'
loop_
 _atom_site_type_symbol
 _atom_site_label
 _atom_site_symmetry_multiplicity
 _atom_site_fract_x
 _atom_site_fract_y
 _atom_site_fract_z
 _atom_site_occupancy
  Tb  Tb0  1  0.581467  0.864560  0.777834  1
  Tb  Tb1  1  0.133288  0.420603  0.722283  1
  Tb  Tb2  1  0.418073  0.131957  0.224332  1
  Tb  Tb3  1  0.868297  0.581898  0.275577  1
  Ga  Ga4  1  0.500257  0.502141  0.749971  1
  Ga  Ga5  1  0.500699  0.501717  0.247629  1
  Ga  Ga6  1  0.257737  0.091496  0.824946  1
  Ga  Ga7  1  0.907148  0.737554  0.678160  1
  Ga  Ga8  1  0.737647  0.907043  0.178296  1
  Ga  Ga9  1  0.093772  0.262872  0.321037  1
  Ga  Ga10  1  0.796925  0.205957  0.749750  1
  Ga  Ga11  1  0.205595  0.794517  0.249684  1
  Ga  Ga12  1  0.206031  0.794064  0.750155  1
  Ga  Ga13  1  0.796495  0.206237  0.247446  1
  Co  Co14  1  0.735548  0.437701  0.912599  1
  Co  Co15  1  0.439221  0.736905  0.411121  1
  Co  Co16  1  0.264064  0.561336  0.088004  1
  Co  Co17  1  0.999358  0.999704  0.749798  1
  Co  Co18  1  0.999165  0.999914  0.251113  1
  Ni  Ni19  1  0.559211  0.261824  0.590264  1
