# generated using pymatgen
data_NaY4Si12Ir19
_symmetry_space_group_name_H-M   'P 1'
_cell_length_a   12.79992000
_cell_length_b   12.82794498
_cell_length_c   3.99592400
_cell_angle_alpha   90.00000000
_cell_angle_beta   90.00000000
_cell_angle_gamma   119.92776272
_symmetry_Int_Tables_number   1
_chemical_formula_structural   NaY4Si12Ir19
_chemical_formula_sum   'Na1 Y4 Si12 Ir19'
_cell_volume   568.62750476
_cell_formula_units_Z   1
loop_
 _symmetry_equiv_pos_site_id
 _symmetry_equiv_pos_as_xyz
  1  'x, y, z'
loop_
 _atom_site_type_symbol
 _atom_site_label
 _atom_site_symmetry_multiplicity
 _atom_site_fract_x
 _atom_site_fract_y
 _atom_site_fract_z
 _atom_site_occupancy
  Na  Na0  1  0.814947  0.000000  0.500000  1
  Y  Y1  1  0.999412  0.817233  0.500000  1
  Y  Y2  1  0.182180  0.182767  0.500000  1
  Y  Y3  1  0.332679  0.665738  0.000000  1
  Y  Y4  1  0.666942  0.334262  0.000000  1
  Si  Si5  1  0.997785  0.181040  0.000000  1
  Si  Si6  1  0.816745  0.818960  0.000000  1
  Si  Si7  1  0.181358  0.000000  0.000000  1
  Si  Si8  1  0.521339  0.689703  0.500000  1
  Si  Si9  1  0.311984  0.831918  0.500000  1
  Si  Si10  1  0.166950  0.479120  0.500000  1
  Si  Si11  1  0.480066  0.168082  0.500000  1
  Si  Si12  1  0.687831  0.520880  0.500000  1
  Si  Si13  1  0.831636  0.310297  0.500000  1
  Si  Si14  1  0.000398  0.631713  0.000000  1
  Si  Si15  1  0.368685  0.368287  0.000000  1
  Si  Si16  1  0.632538  0.000000  0.000000  1
  Ir  Ir17  1  0.001186  0.282266  0.500000  1
  Ir  Ir18  1  0.718919  0.717734  0.500000  1
  Ir  Ir19  1  0.282776  0.000000  0.500000  1
  Ir  Ir20  1  0.619797  0.804643  0.000000  1
  Ir  Ir21  1  0.193688  0.817547  0.000000  1
  Ir  Ir22  1  0.183913  0.376962  0.000000  1
  Ir  Ir23  1  0.376141  0.182453  0.000000  1
  Ir  Ir24  1  0.806951  0.623038  0.000000  1
  Ir  Ir25  1  0.815154  0.195357  0.000000  1
  Ir  Ir26  1  0.511672  0.874066  0.500000  1
  Ir  Ir27  1  0.127075  0.639131  0.500000  1
  Ir  Ir28  1  0.362593  0.489308  0.500000  1
  Ir  Ir29  1  0.487943  0.360869  0.500000  1
  Ir  Ir30  1  0.873283  0.510692  0.500000  1
  Ir  Ir31  1  0.637605  0.125934  0.500000  1
  Ir  Ir32  1  0.001471  0.000000  0.000000  1
  Ir  Ir33  1  0.004737  0.450097  0.000000  1
  Ir  Ir34  1  0.554640  0.549903  0.000000  1
  Ir  Ir35  1  0.446980  0.000000  0.000000  1
