# generated using pymatgen
data_Zr12Si11Ge
_symmetry_space_group_name_H-M   'P 1'
_cell_length_a   3.78088500
_cell_length_b   5.34478704
_cell_length_c   21.37319900
_cell_angle_alpha   82.90191826
_cell_angle_beta   90.00000000
_cell_angle_gamma   90.00000000
_symmetry_Int_Tables_number   1
_chemical_formula_structural   Zr12Si11Ge
_chemical_formula_sum   'Zr12 Si11 Ge1'
_cell_volume   428.60001650
_cell_formula_units_Z   1
loop_
 _symmetry_equiv_pos_site_id
 _symmetry_equiv_pos_as_xyz
  1  'x, y, z'
loop_
 _atom_site_type_symbol
 _atom_site_label
 _atom_site_symmetry_multiplicity
 _atom_site_fract_x
 _atom_site_fract_y
 _atom_site_fract_z
 _atom_site_occupancy
  Zr  Zr0  1  0.750000  0.353928  0.057110  1
  Zr  Zr1  1  0.250000  0.653112  0.940950  1
  Zr  Zr2  1  0.750000  0.515452  0.227545  1
  Zr  Zr3  1  0.250000  0.483894  0.774413  1
  Zr  Zr4  1  0.750000  0.177187  0.391948  1
  Zr  Zr5  1  0.250000  0.818302  0.607941  1
  Zr  Zr6  1  0.750000  0.342864  0.558618  1
  Zr  Zr7  1  0.250000  0.651958  0.441596  1
  Zr  Zr8  1  0.750000  0.007533  0.725020  1
  Zr  Zr9  1  0.250000  0.989436  0.275857  1
  Zr  Zr10  1  0.750000  0.182277  0.891497  1
  Zr  Zr11  1  0.250000  0.827246  0.107144  1
  Si  Si12  1  0.750000  0.860359  0.012961  1
  Si  Si13  1  0.250000  0.146527  0.985855  1
  Si  Si14  1  0.750000  0.016002  0.181636  1
  Si  Si15  1  0.250000  0.975938  0.819716  1
  Si  Si16  1  0.750000  0.714443  0.348108  1
  Si  Si17  1  0.250000  0.281526  0.652308  1
  Si  Si18  1  0.750000  0.851992  0.514095  1
  Si  Si19  1  0.250000  0.142636  0.485663  1
  Si  Si20  1  0.750000  0.543494  0.680750  1
  Si  Si21  1  0.250000  0.453724  0.320043  1
  Si  Si22  1  0.750000  0.688001  0.847149  1
  Ge  Ge23  1  0.250000  0.322170  0.152072  1
