# generated using pymatgen
data_Ho(FeB)4
_symmetry_space_group_name_H-M   'P 1'
_cell_length_a   6.93661300
_cell_length_b   6.93661300
_cell_length_c   3.82201300
_cell_angle_alpha   90.00000000
_cell_angle_beta   90.00000000
_cell_angle_gamma   90.00000000
_symmetry_Int_Tables_number   1
_chemical_formula_structural   Ho(FeB)4
_chemical_formula_sum   'Ho2 Fe8 B8'
_cell_volume   183.90227038
_cell_formula_units_Z   2
loop_
 _symmetry_equiv_pos_site_id
 _symmetry_equiv_pos_as_xyz
  1  'x, y, z'
loop_
 _atom_site_type_symbol
 _atom_site_label
 _atom_site_symmetry_multiplicity
 _atom_site_fract_x
 _atom_site_fract_y
 _atom_site_fract_z
 _atom_site_occupancy
  Ho  Ho0  1  0.000000  0.000000  0.000000  1
  Ho  Ho1  1  0.500000  0.500000  0.500000  1
  Fe  Fe2  1  0.868088  0.385001  0.110004  1
  Fe  Fe3  1  0.131912  0.614999  0.110004  1
  Fe  Fe4  1  0.885001  0.631912  0.610004  1
  Fe  Fe5  1  0.114999  0.368088  0.610004  1
  Fe  Fe6  1  0.631912  0.114999  0.389996  1
  Fe  Fe7  1  0.368088  0.885001  0.389996  1
  Fe  Fe8  1  0.614999  0.868088  0.889996  1
  Fe  Fe9  1  0.385001  0.131912  0.889996  1
  B  B10  1  0.333049  0.801109  0.892915  1
  B  B11  1  0.666951  0.198891  0.892915  1
  B  B12  1  0.301109  0.166951  0.392915  1
  B  B13  1  0.698891  0.833049  0.392915  1
  B  B14  1  0.166951  0.698891  0.607085  1
  B  B15  1  0.833049  0.301109  0.607085  1
  B  B16  1  0.198891  0.333049  0.107085  1
  B  B17  1  0.801109  0.666951  0.107085  1
