# generated using pymatgen
data_La12Pr4Cd4CoPt3
_symmetry_space_group_name_H-M   'P 1'
_cell_length_a   10.09083687
_cell_length_b   10.10592403
_cell_length_c   10.10592389
_cell_angle_alpha   60.22177079
_cell_angle_beta   60.36268646
_cell_angle_gamma   60.36268994
_symmetry_Int_Tables_number   1
_chemical_formula_structural   La12Pr4Cd4CoPt3
_chemical_formula_sum   'La12 Pr4 Cd4 Co1 Pt3'
_cell_volume   733.92881308
_cell_formula_units_Z   1
loop_
 _symmetry_equiv_pos_site_id
 _symmetry_equiv_pos_as_xyz
  1  'x, y, z'
loop_
 _atom_site_type_symbol
 _atom_site_label
 _atom_site_symmetry_multiplicity
 _atom_site_fract_x
 _atom_site_fract_y
 _atom_site_fract_z
 _atom_site_occupancy
  La  La0  1  0.350489  0.349931  0.349931  1
  La  La1  1  0.343172  0.343684  0.956764  1
  La  La2  1  0.343172  0.956764  0.343684  1
  La  La3  1  0.956848  0.342999  0.342999  1
  La  La4  1  0.820056  0.190317  0.190317  1
  La  La5  1  0.193696  0.806393  0.806393  1
  La  La6  1  0.190392  0.820408  0.190136  1
  La  La7  1  0.806628  0.193747  0.806617  1
  La  La8  1  0.190392  0.190136  0.820408  1
  La  La9  1  0.806628  0.806617  0.193747  1
  La  La10  1  0.937163  0.563849  0.563849  1
  La  La11  1  0.564347  0.933645  0.933645  1
  Pr  Pr12  1  0.562359  0.938208  0.562316  1
  Pr  Pr13  1  0.934771  0.563248  0.935212  1
  Pr  Pr14  1  0.562359  0.562316  0.938208  1
  Pr  Pr15  1  0.934771  0.935212  0.563248  1
  Cd  Cd16  1  0.579303  0.579853  0.579853  1
  Cd  Cd17  1  0.580916  0.580365  0.259354  1
  Cd  Cd18  1  0.580916  0.259354  0.580365  1
  Cd  Cd19  1  0.259408  0.580944  0.580944  1
  Co  Co20  1  0.141531  0.141671  0.141671  1
  Pt  Pt21  1  0.143136  0.143121  0.574063  1
  Pt  Pt22  1  0.143136  0.574063  0.143121  1
  Pt  Pt23  1  0.574410  0.143153  0.143153  1
