# generated using pymatgen
data_Ac4Zn3Au5
_symmetry_space_group_name_H-M   'P 1'
_cell_length_a   4.69455700
_cell_length_b   7.98624092
_cell_length_c   8.32959014
_cell_angle_alpha   89.75333301
_cell_angle_beta   90.00000000
_cell_angle_gamma   90.00000000
_symmetry_Int_Tables_number   1
_chemical_formula_structural   Ac4Zn3Au5
_chemical_formula_sum   'Ac4 Zn3 Au5'
_cell_volume   312.28895997
_cell_formula_units_Z   1
loop_
 _symmetry_equiv_pos_site_id
 _symmetry_equiv_pos_as_xyz
  1  'x, y, z'
loop_
 _atom_site_type_symbol
 _atom_site_label
 _atom_site_symmetry_multiplicity
 _atom_site_fract_x
 _atom_site_fract_y
 _atom_site_fract_z
 _atom_site_occupancy
  Ac  Ac0  1  0.500000  0.502533  0.757432  1
  Ac  Ac1  1  0.500000  0.001991  0.750438  1
  Ac  Ac2  1  0.000000  0.494208  0.241886  1
  Ac  Ac3  1  0.000000  0.999710  0.249897  1
  Zn  Zn4  1  0.500000  0.741810  0.416364  1
  Zn  Zn5  1  0.000000  0.755030  0.916917  1
  Zn  Zn6  1  0.000000  0.257300  0.579021  1
  Au  Au7  1  0.500000  0.751846  0.084710  1
  Au  Au8  1  0.500000  0.255431  0.432695  1
  Au  Au9  1  0.000000  0.248052  0.895854  1
  Au  Au10  1  0.000000  0.747568  0.584360  1
  Au  Au11  1  0.500000  0.244522  0.090427  1
