# generated using pymatgen
data_NdYSi4OsPt3
_symmetry_space_group_name_H-M   'P 1'
_cell_length_a   4.17710500
_cell_length_b   4.19988600
_cell_length_c   9.99171600
_cell_angle_alpha   90.00000000
_cell_angle_beta   90.00000000
_cell_angle_gamma   90.00000000
_symmetry_Int_Tables_number   1
_chemical_formula_structural   NdYSi4OsPt3
_chemical_formula_sum   'Nd1 Y1 Si4 Os1 Pt3'
_cell_volume   175.28831887
_cell_formula_units_Z   1
loop_
 _symmetry_equiv_pos_site_id
 _symmetry_equiv_pos_as_xyz
  1  'x, y, z'
loop_
 _atom_site_type_symbol
 _atom_site_label
 _atom_site_symmetry_multiplicity
 _atom_site_fract_x
 _atom_site_fract_y
 _atom_site_fract_z
 _atom_site_occupancy
  Nd  Nd0  1  0.500000  0.000000  0.745995  1
  Y  Y1  1  0.000000  0.500000  0.252515  1
  Si  Si2  1  0.000000  0.000000  0.498725  1
  Si  Si3  1  0.500000  0.500000  0.496408  1
  Si  Si4  1  0.000000  0.500000  0.872010  1
  Si  Si5  1  0.500000  0.000000  0.131386  1
  Os  Os6  1  0.000000  0.000000  0.002455  1
  Pt  Pt7  1  0.500000  0.500000  0.002913  1
  Pt  Pt8  1  0.000000  0.500000  0.624107  1
  Pt  Pt9  1  0.500000  0.000000  0.373487  1
