# generated using pymatgen
data_Tm2ThIr4Rh5
_symmetry_space_group_name_H-M   'P 1'
_cell_length_a   5.27850500
_cell_length_b   5.27850475
_cell_length_c   17.45224000
_cell_angle_alpha   90.00000000
_cell_angle_beta   90.00000000
_cell_angle_gamma   119.99998277
_symmetry_Int_Tables_number   1
_chemical_formula_structural   Tm2ThIr4Rh5
_chemical_formula_sum   'Tm4 Th2 Ir8 Rh10'
_cell_volume   421.11793467
_cell_formula_units_Z   2
loop_
 _symmetry_equiv_pos_site_id
 _symmetry_equiv_pos_as_xyz
  1  'x, y, z'
loop_
 _atom_site_type_symbol
 _atom_site_label
 _atom_site_symmetry_multiplicity
 _atom_site_fract_x
 _atom_site_fract_y
 _atom_site_fract_z
 _atom_site_occupancy
  Tm  Tm0  1  0.333333  0.666667  0.960092  1
  Tm  Tm1  1  0.666667  0.333333  0.039908  1
  Tm  Tm2  1  0.666667  0.333333  0.461185  1
  Tm  Tm3  1  0.333333  0.666667  0.538815  1
  Th  Th4  1  0.333333  0.666667  0.748257  1
  Th  Th5  1  0.666667  0.333333  0.251743  1
  Ir  Ir6  1  0.167778  0.832222  0.375344  1
  Ir  Ir7  1  0.167778  0.335557  0.375344  1
  Ir  Ir8  1  0.664443  0.832222  0.375344  1
  Ir  Ir9  1  0.832222  0.167778  0.624656  1
  Ir  Ir10  1  0.832222  0.664443  0.624656  1
  Ir  Ir11  1  0.335557  0.167778  0.624656  1
  Ir  Ir12  1  0.000000  0.000000  0.500000  1
  Ir  Ir13  1  0.000000  0.000000  0.000000  1
  Rh  Rh14  1  0.832666  0.167334  0.876938  1
  Rh  Rh15  1  0.832666  0.665332  0.876938  1
  Rh  Rh16  1  0.334668  0.167334  0.876938  1
  Rh  Rh17  1  0.167334  0.832666  0.123062  1
  Rh  Rh18  1  0.167334  0.334668  0.123062  1
  Rh  Rh19  1  0.665332  0.832666  0.123062  1
  Rh  Rh20  1  0.333333  0.666667  0.249111  1
  Rh  Rh21  1  0.666667  0.333333  0.750889  1
  Rh  Rh22  1  0.000000  0.000000  0.249566  1
  Rh  Rh23  1  0.000000  0.000000  0.750434  1
