# generated using pymatgen
data_Tb9Ho11FeCo3Bi8
_symmetry_space_group_name_H-M   'P 1'
_cell_length_a   7.99173231
_cell_length_b   8.89918100
_cell_length_c   12.38511108
_cell_angle_alpha   90.00000000
_cell_angle_beta   89.96063506
_cell_angle_gamma   90.00000000
_symmetry_Int_Tables_number   1
_chemical_formula_structural   Tb9Ho11FeCo3Bi8
_chemical_formula_sum   'Tb9 Ho11 Fe1 Co3 Bi8'
_cell_volume   880.82731106
_cell_formula_units_Z   1
loop_
 _symmetry_equiv_pos_site_id
 _symmetry_equiv_pos_as_xyz
  1  'x, y, z'
loop_
 _atom_site_type_symbol
 _atom_site_label
 _atom_site_symmetry_multiplicity
 _atom_site_fract_x
 _atom_site_fract_y
 _atom_site_fract_z
 _atom_site_occupancy
  Tb  Tb0  1  0.348189  0.750000  0.700991  1
  Tb  Tb1  1  0.651174  0.250000  0.300363  1
  Tb  Tb2  1  0.848997  0.250000  0.801239  1
  Tb  Tb3  1  0.150216  0.750000  0.197959  1
  Tb  Tb4  1  0.886194  0.750000  0.811642  1
  Tb  Tb5  1  0.115824  0.250000  0.188910  1
  Tb  Tb6  1  0.384221  0.250000  0.689087  1
  Tb  Tb7  1  0.614804  0.750000  0.312241  1
  Tb  Tb8  1  0.051304  0.750000  0.496354  1
  Ho  Ho9  1  0.675439  0.535381  0.563519  1
  Ho  Ho10  1  0.324614  0.461827  0.436728  1
  Ho  Ho11  1  0.174707  0.464937  0.937467  1
  Ho  Ho12  1  0.324614  0.038173  0.436728  1
  Ho  Ho13  1  0.823640  0.537633  0.062576  1
  Ho  Ho14  1  0.675439  0.964619  0.563519  1
  Ho  Ho15  1  0.823640  0.962367  0.062576  1
  Ho  Ho16  1  0.174707  0.035063  0.937467  1
  Ho  Ho17  1  0.948449  0.250000  0.502880  1
  Ho  Ho18  1  0.552991  0.250000  0.003281  1
  Ho  Ho19  1  0.446403  0.750000  0.995966  1
  Fe  Fe20  1  0.068393  0.750000  0.991011  1
  Co  Co21  1  0.933683  0.250000  0.008464  1
  Co  Co22  1  0.564754  0.250000  0.507996  1
  Co  Co23  1  0.436680  0.750000  0.493180  1
  Bi  Bi24  1  0.572546  0.508293  0.827936  1
  Bi  Bi25  1  0.428766  0.491832  0.171614  1
  Bi  Bi26  1  0.072191  0.490963  0.672321  1
  Bi  Bi27  1  0.428766  0.008168  0.171614  1
  Bi  Bi28  1  0.926959  0.507766  0.327056  1
  Bi  Bi29  1  0.572546  0.991707  0.827936  1
  Bi  Bi30  1  0.926959  0.992234  0.327056  1
  Bi  Bi31  1  0.072191  0.009037  0.672321  1
