# generated using pymatgen
data_Tb2CeIn3Ir2Pt
_symmetry_space_group_name_H-M   'P 1'
_cell_length_a   7.57966195
_cell_length_b   7.57966366
_cell_length_c   3.92485600
_cell_angle_alpha   90.00000000
_cell_angle_beta   90.00000000
_cell_angle_gamma   118.43786068
_symmetry_Int_Tables_number   1
_chemical_formula_structural   Tb2CeIn3Ir2Pt
_chemical_formula_sum   'Tb2 Ce1 In3 Ir2 Pt1'
_cell_volume   198.27931498
_cell_formula_units_Z   1
loop_
 _symmetry_equiv_pos_site_id
 _symmetry_equiv_pos_as_xyz
  1  'x, y, z'
loop_
 _atom_site_type_symbol
 _atom_site_label
 _atom_site_symmetry_multiplicity
 _atom_site_fract_x
 _atom_site_fract_y
 _atom_site_fract_z
 _atom_site_occupancy
  Tb  Tb0  1  0.591735  0.999986  0.000000  1
  Tb  Tb1  1  0.999986  0.591735  0.000000  1
  Ce  Ce2  1  0.417990  0.417990  0.000000  1
  In  In3  1  0.993998  0.259521  0.500000  1
  In  In4  1  0.748827  0.748827  0.500000  1
  In  In5  1  0.259521  0.993998  0.500000  1
  Ir  Ir6  1  0.334552  0.650611  0.500000  1
  Ir  Ir7  1  0.650611  0.334552  0.500000  1
  Pt  Pt8  1  0.002778  0.002778  0.000000  1
