# generated using pymatgen
data_Cs3Li2P3W
_symmetry_space_group_name_H-M   'P 1'
_cell_length_a   9.61651517
_cell_length_b   9.61651572
_cell_length_c   22.56007700
_cell_angle_alpha   90.00000000
_cell_angle_beta   90.00000000
_cell_angle_gamma   142.46264685
_symmetry_Int_Tables_number   1
_chemical_formula_structural   Cs3Li2P3W
_chemical_formula_sum   'Cs12 Li8 P12 W4'
_cell_volume   1271.13567719
_cell_formula_units_Z   4
loop_
 _symmetry_equiv_pos_site_id
 _symmetry_equiv_pos_as_xyz
  1  'x, y, z'
loop_
 _atom_site_type_symbol
 _atom_site_label
 _atom_site_symmetry_multiplicity
 _atom_site_fract_x
 _atom_site_fract_y
 _atom_site_fract_z
 _atom_site_occupancy
  Cs  Cs0  1  0.940113  0.603966  0.858403  1
  Cs  Cs1  1  0.559887  0.896034  0.358403  1
  Cs  Cs2  1  0.396034  0.059887  0.141597  1
  Cs  Cs3  1  0.059887  0.396034  0.141597  1
  Cs  Cs4  1  0.896034  0.559887  0.358403  1
  Cs  Cs5  1  0.440113  0.103966  0.641597  1
  Cs  Cs6  1  0.603966  0.940113  0.858403  1
  Cs  Cs7  1  0.257205  0.257205  0.347454  1
  Cs  Cs8  1  0.757205  0.757205  0.152546  1
  Cs  Cs9  1  0.242795  0.242795  0.847454  1
  Cs  Cs10  1  0.742795  0.742795  0.652546  1
  Cs  Cs11  1  0.103966  0.440113  0.641597  1
  Li  Li12  1  0.920953  0.079047  0.000000  1
  Li  Li13  1  0.579047  0.420953  0.500000  1
  Li  Li14  1  0.079047  0.920953  0.000000  1
  Li  Li15  1  0.420953  0.579047  0.500000  1
  Li  Li16  1  0.750372  0.249628  0.000000  1
  Li  Li17  1  0.749628  0.250372  0.500000  1
  Li  Li18  1  0.249628  0.750372  0.000000  1
  Li  Li19  1  0.250372  0.749628  0.500000  1
  P  P20  1  0.880382  0.567746  0.056097  1
  P  P21  1  0.432254  0.119618  0.943903  1
  P  P22  1  0.619618  0.932254  0.556097  1
  P  P23  1  0.932254  0.619618  0.556097  1
  P  P24  1  0.119618  0.432254  0.943903  1
  P  P25  1  0.567746  0.880382  0.056097  1
  P  P26  1  0.380382  0.067746  0.443903  1
  P  P27  1  0.209936  0.209936  0.559116  1
  P  P28  1  0.709936  0.709936  0.940884  1
  P  P29  1  0.290064  0.290064  0.059116  1
  P  P30  1  0.067746  0.380382  0.443903  1
  P  P31  1  0.790064  0.790064  0.440884  1
  W  W32  1  0.582692  0.417308  0.000000  1
  W  W33  1  0.917308  0.082692  0.500000  1
  W  W34  1  0.417308  0.582692  0.000000  1
  W  W35  1  0.082692  0.917308  0.500000  1
