# generated using pymatgen
data_Tm4Lu4Mn2FeCoB24
_symmetry_space_group_name_H-M   'P 1'
_cell_length_a   3.49093100
_cell_length_b   8.98495124
_cell_length_c   11.36300900
_cell_angle_alpha   90.15109350
_cell_angle_beta   90.00000000
_cell_angle_gamma   90.00000000
_symmetry_Int_Tables_number   1
_chemical_formula_structural   Tm4Lu4Mn2FeCoB24
_chemical_formula_sum   'Tm4 Lu4 Mn2 Fe1 Co1 B24'
_cell_volume   356.40913774
_cell_formula_units_Z   1
loop_
 _symmetry_equiv_pos_site_id
 _symmetry_equiv_pos_as_xyz
  1  'x, y, z'
loop_
 _atom_site_type_symbol
 _atom_site_label
 _atom_site_symmetry_multiplicity
 _atom_site_fract_x
 _atom_site_fract_y
 _atom_site_fract_z
 _atom_site_occupancy
  Tm  Tm0  1  0.000000  0.826406  0.082487  1
  Tm  Tm1  1  0.000000  0.174784  0.915722  1
  Tm  Tm2  1  0.000000  0.320789  0.414307  1
  Tm  Tm3  1  0.000000  0.677892  0.587827  1
  Lu  Lu4  1  0.000000  0.441007  0.130058  1
  Lu  Lu5  1  0.000000  0.557967  0.869645  1
  Lu  Lu6  1  0.000000  0.943840  0.368575  1
  Lu  Lu7  1  0.000000  0.056666  0.631144  1
  Mn  Mn8  1  0.000000  0.139241  0.180972  1
  Mn  Mn9  1  0.000000  0.860959  0.819386  1
  Fe  Fe10  1  0.000000  0.361220  0.679568  1
  Co  Co11  1  0.000000  0.638490  0.320540  1
  B  B12  1  0.500000  0.053975  0.067825  1
  B  B13  1  0.500000  0.946174  0.931993  1
  B  B14  1  0.500000  0.554108  0.433513  1
  B  B15  1  0.500000  0.445254  0.567696  1
  B  B16  1  0.500000  0.247480  0.082530  1
  B  B17  1  0.500000  0.752619  0.917448  1
  B  B18  1  0.500000  0.747614  0.418468  1
  B  B19  1  0.500000  0.251991  0.582249  1
  B  B20  1  0.500000  0.291138  0.235207  1
  B  B21  1  0.500000  0.708871  0.765073  1
  B  B22  1  0.500000  0.790543  0.264077  1
  B  B23  1  0.500000  0.209696  0.734889  1
  B  B24  1  0.500000  0.131431  0.314576  1
  B  B25  1  0.500000  0.868644  0.685589  1
  B  B26  1  0.500000  0.631966  0.183910  1
  B  B27  1  0.500000  0.368940  0.814447  1
  B  B28  1  0.500000  0.485123  0.288895  1
  B  B29  1  0.500000  0.515441  0.711610  1
  B  B30  1  0.500000  0.984474  0.211498  1
  B  B31  1  0.500000  0.015896  0.788335  1
  B  B32  1  0.500000  0.102781  0.472035  1
  B  B33  1  0.500000  0.896474  0.527721  1
  B  B34  1  0.500000  0.603262  0.028561  1
  B  B35  1  0.500000  0.396844  0.971622  1
