# generated using pymatgen
data_Th4Ga16Ru3
_symmetry_space_group_name_H-M   'P 1'
_cell_length_a   6.26454800
_cell_length_b   6.26454800
_cell_length_c   11.44778500
_cell_angle_alpha   90.00000000
_cell_angle_beta   90.00000000
_cell_angle_gamma   90.00000000
_symmetry_Int_Tables_number   1
_chemical_formula_structural   Th4Ga16Ru3
_chemical_formula_sum   'Th4 Ga16 Ru3'
_cell_volume   449.26330412
_cell_formula_units_Z   1
loop_
 _symmetry_equiv_pos_site_id
 _symmetry_equiv_pos_as_xyz
  1  'x, y, z'
loop_
 _atom_site_type_symbol
 _atom_site_label
 _atom_site_symmetry_multiplicity
 _atom_site_fract_x
 _atom_site_fract_y
 _atom_site_fract_z
 _atom_site_occupancy
  Th  Th0  1  0.500000  0.000000  0.802478  1
  Th  Th1  1  0.000000  0.500000  0.802478  1
  Th  Th2  1  0.500000  0.000000  0.197522  1
  Th  Th3  1  0.000000  0.500000  0.197522  1
  Ga  Ga4  1  0.248497  0.248497  0.613735  1
  Ga  Ga5  1  0.751503  0.751503  0.613735  1
  Ga  Ga6  1  0.751503  0.248497  0.613735  1
  Ga  Ga7  1  0.248497  0.751503  0.613735  1
  Ga  Ga8  1  0.751503  0.751503  0.386265  1
  Ga  Ga9  1  0.248497  0.248497  0.386265  1
  Ga  Ga10  1  0.248497  0.751503  0.386265  1
  Ga  Ga11  1  0.751503  0.248497  0.386265  1
  Ga  Ga12  1  0.287572  0.287572  0.000000  1
  Ga  Ga13  1  0.712428  0.712428  0.000000  1
  Ga  Ga14  1  0.712428  0.287572  0.000000  1
  Ga  Ga15  1  0.287572  0.712428  0.000000  1
  Ga  Ga16  1  0.500000  0.500000  0.804324  1
  Ga  Ga17  1  0.500000  0.500000  0.195676  1
  Ga  Ga18  1  0.000000  0.000000  0.775095  1
  Ga  Ga19  1  0.000000  0.000000  0.224905  1
  Ru  Ru20  1  0.500000  0.000000  0.500000  1
  Ru  Ru21  1  0.000000  0.500000  0.500000  1
  Ru  Ru22  1  0.000000  0.000000  0.000000  1
