# generated using pymatgen
data_ErTmVOs3
_symmetry_space_group_name_H-M   'P 1'
_cell_length_a   5.43661201
_cell_length_b   5.43661259
_cell_length_c   8.30372000
_cell_angle_alpha   90.00069708
_cell_angle_beta   89.99930033
_cell_angle_gamma   120.01162359
_symmetry_Int_Tables_number   1
_chemical_formula_structural   ErTmVOs3
_chemical_formula_sum   'Er2 Tm2 V2 Os6'
_cell_volume   212.52458402
_cell_formula_units_Z   2
loop_
 _symmetry_equiv_pos_site_id
 _symmetry_equiv_pos_as_xyz
  1  'x, y, z'
loop_
 _atom_site_type_symbol
 _atom_site_label
 _atom_site_symmetry_multiplicity
 _atom_site_fract_x
 _atom_site_fract_y
 _atom_site_fract_z
 _atom_site_occupancy
  Er  Er0  1  0.666662  0.333338  0.564583  1
  Er  Er1  1  0.333338  0.666662  0.435417  1
  Tm  Tm2  1  0.333325  0.666675  0.064285  1
  Tm  Tm3  1  0.666675  0.333325  0.935715  1
  V  V4  1  0.000000  0.000000  0.500000  1
  V  V5  1  0.000000  0.000000  0.000000  1
  Os  Os6  1  0.170088  0.340129  0.750423  1
  Os  Os7  1  0.170005  0.829995  0.750428  1
  Os  Os8  1  0.659871  0.829912  0.750423  1
  Os  Os9  1  0.829912  0.659871  0.249577  1
  Os  Os10  1  0.829995  0.170005  0.249572  1
  Os  Os11  1  0.340129  0.170088  0.249577  1
