# generated using pymatgen
data_TbHo2Si2Ag3Ge
_symmetry_space_group_name_H-M   'P 1'
_cell_length_a   7.09815423
_cell_length_b   7.09221174
_cell_length_c   4.20419200
_cell_angle_alpha   90.00000000
_cell_angle_beta   90.00000000
_cell_angle_gamma   119.99963650
_symmetry_Int_Tables_number   1
_chemical_formula_structural   TbHo2Si2Ag3Ge
_chemical_formula_sum   'Tb1 Ho2 Si2 Ag3 Ge1'
_cell_volume   183.29131562
_cell_formula_units_Z   1
loop_
 _symmetry_equiv_pos_site_id
 _symmetry_equiv_pos_as_xyz
  1  'x, y, z'
loop_
 _atom_site_type_symbol
 _atom_site_label
 _atom_site_symmetry_multiplicity
 _atom_site_fract_x
 _atom_site_fract_y
 _atom_site_fract_z
 _atom_site_occupancy
  Tb  Tb0  1  0.999104  0.582535  0.000000  1
  Ho  Ho1  1  0.416808  0.415889  0.000000  1
  Ho  Ho2  1  0.584424  0.001370  0.000000  1
  Si  Si3  1  0.665765  0.333065  0.500000  1
  Si  Si4  1  0.000024  0.999936  0.000000  1
  Ag  Ag5  1  0.753705  0.747844  0.500000  1
  Ag  Ag6  1  0.253712  0.009269  0.500000  1
  Ag  Ag7  1  0.992527  0.242800  0.500000  1
  Ge  Ge8  1  0.333934  0.667290  0.500000  1
