# generated using pymatgen
data_DyHo9(In2Pt)4
_symmetry_space_group_name_H-M   'P 1'
_cell_length_a   3.60988000
_cell_length_b   8.16181403
_cell_length_c   18.23497606
_cell_angle_alpha   90.00917316
_cell_angle_beta   90.00000000
_cell_angle_gamma   90.00000000
_symmetry_Int_Tables_number   1
_chemical_formula_structural   DyHo9(In2Pt)4
_chemical_formula_sum   'Dy1 Ho9 In8 Pt4'
_cell_volume   537.26017839
_cell_formula_units_Z   1
loop_
 _symmetry_equiv_pos_site_id
 _symmetry_equiv_pos_as_xyz
  1  'x, y, z'
loop_
 _atom_site_type_symbol
 _atom_site_label
 _atom_site_symmetry_multiplicity
 _atom_site_fract_x
 _atom_site_fract_y
 _atom_site_fract_z
 _atom_site_occupancy
  Dy  Dy0  1  0.000000  0.500000  0.500000  1
  Ho  Ho1  1  0.000000  0.116702  0.414447  1
  Ho  Ho2  1  0.000000  0.883298  0.585553  1
  Ho  Ho3  1  0.000000  0.383439  0.914526  1
  Ho  Ho4  1  0.000000  0.616561  0.085474  1
  Ho  Ho5  1  0.000000  0.244098  0.220548  1
  Ho  Ho6  1  0.000000  0.755902  0.779452  1
  Ho  Ho7  1  0.000000  0.255876  0.720657  1
  Ho  Ho8  1  0.000000  0.744124  0.279343  1
  Ho  Ho9  1  0.000000  0.000000  0.000000  1
  In  In10  1  0.500000  0.424666  0.351331  1
  In  In11  1  0.500000  0.575334  0.648669  1
  In  In12  1  0.500000  0.075223  0.851574  1
  In  In13  1  0.500000  0.924777  0.148426  1
  In  In14  1  0.500000  0.291937  0.067119  1
  In  In15  1  0.500000  0.708063  0.932881  1
  In  In16  1  0.500000  0.207479  0.567244  1
  In  In17  1  0.500000  0.792521  0.432756  1
  Pt  Pt18  1  0.500000  0.025571  0.302871  1
  Pt  Pt19  1  0.500000  0.974429  0.697129  1
  Pt  Pt20  1  0.500000  0.474407  0.802947  1
  Pt  Pt21  1  0.500000  0.525593  0.197053  1
