# generated using pymatgen
data_MnNb2FeOs2
_symmetry_space_group_name_H-M   'P 1'
_cell_length_a   4.99107593
_cell_length_b   4.90947449
_cell_length_c   8.25793700
_cell_angle_alpha   90.00000000
_cell_angle_beta   90.00000000
_cell_angle_gamma   119.46063586
_symmetry_Int_Tables_number   1
_chemical_formula_structural   MnNb2FeOs2
_chemical_formula_sum   'Mn2 Nb4 Fe2 Os4'
_cell_volume   176.18389345
_cell_formula_units_Z   2
loop_
 _symmetry_equiv_pos_site_id
 _symmetry_equiv_pos_as_xyz
  1  'x, y, z'
loop_
 _atom_site_type_symbol
 _atom_site_label
 _atom_site_symmetry_multiplicity
 _atom_site_fract_x
 _atom_site_fract_y
 _atom_site_fract_z
 _atom_site_occupancy
  Mn  Mn0  1  0.834122  0.659722  0.250000  1
  Mn  Mn1  1  0.165878  0.825599  0.750000  1
  Nb  Nb2  1  0.330964  0.663014  0.433190  1
  Nb  Nb3  1  0.669036  0.332049  0.933190  1
  Nb  Nb4  1  0.669036  0.332049  0.566810  1
  Nb  Nb5  1  0.330964  0.663014  0.066810  1
  Fe  Fe6  1  0.163591  0.343346  0.750000  1
  Fe  Fe7  1  0.836409  0.179754  0.250000  1
  Os  Os8  1  0.358843  0.183555  0.250000  1
  Os  Os9  1  0.641157  0.824712  0.750000  1
  Os  Os10  1  0.000000  0.996592  0.000000  1
  Os  Os11  1  0.000000  0.996592  0.500000  1
