# generated using pymatgen
data_Zr16Co3Pd5C4
_symmetry_space_group_name_H-M   'P 1'
_cell_length_a   8.83811778
_cell_length_b   8.83811823
_cell_length_c   8.83811741
_cell_angle_alpha   60.18566613
_cell_angle_beta   60.18566376
_cell_angle_gamma   60.18566154
_symmetry_Int_Tables_number   1
_chemical_formula_structural   Zr16Co3Pd5C4
_chemical_formula_sum   'Zr16 Co3 Pd5 C4'
_cell_volume   490.21492243
_cell_formula_units_Z   1
loop_
 _symmetry_equiv_pos_site_id
 _symmetry_equiv_pos_as_xyz
  1  'x, y, z'
loop_
 _atom_site_type_symbol
 _atom_site_label
 _atom_site_symmetry_multiplicity
 _atom_site_fract_x
 _atom_site_fract_y
 _atom_site_fract_z
 _atom_site_occupancy
  Zr  Zr0  1  0.155287  0.620838  0.620838  1
  Zr  Zr1  1  0.620838  0.155287  0.620838  1
  Zr  Zr2  1  0.620838  0.620838  0.155287  1
  Zr  Zr3  1  0.605306  0.605306  0.605306  1
  Zr  Zr4  1  0.817281  0.817281  0.184757  1
  Zr  Zr5  1  0.185155  0.185155  0.816379  1
  Zr  Zr6  1  0.817281  0.184757  0.817281  1
  Zr  Zr7  1  0.185155  0.816379  0.185155  1
  Zr  Zr8  1  0.184757  0.817281  0.817281  1
  Zr  Zr9  1  0.816379  0.185155  0.185155  1
  Zr  Zr10  1  0.432633  0.432633  0.058820  1
  Zr  Zr11  1  0.066259  0.066259  0.432628  1
  Zr  Zr12  1  0.432633  0.058820  0.432633  1
  Zr  Zr13  1  0.066259  0.432628  0.066259  1
  Zr  Zr14  1  0.058820  0.432633  0.432633  1
  Zr  Zr15  1  0.432628  0.066259  0.066259  1
  Co  Co16  1  0.800443  0.396862  0.396862  1
  Co  Co17  1  0.396862  0.800443  0.396862  1
  Co  Co18  1  0.396862  0.396862  0.800443  1
  Pd  Pd19  1  0.406643  0.406643  0.406643  1
  Pd  Pd20  1  0.501474  0.831583  0.831583  1
  Pd  Pd21  1  0.831583  0.501474  0.831583  1
  Pd  Pd22  1  0.831583  0.831583  0.501474  1
  Pd  Pd23  1  0.835146  0.835146  0.835146  1
  C  C24  1  0.628447  0.125277  0.125277  1
  C  C25  1  0.125277  0.628447  0.125277  1
  C  C26  1  0.125277  0.125277  0.628447  1
  C  C27  1  0.122893  0.122893  0.122893  1
