# generated using pymatgen
data_Dy4YEr7Co5Hg
_symmetry_space_group_name_H-M   'P 1'
_cell_length_a   8.18636888
_cell_length_b   8.19829313
_cell_length_c   8.19829353
_cell_angle_alpha   107.70517593
_cell_angle_beta   110.06195094
_cell_angle_gamma   110.72351180
_symmetry_Int_Tables_number   1
_chemical_formula_structural   Dy4YEr7Co5Hg
_chemical_formula_sum   'Dy4 Y1 Er7 Co5 Hg1'
_cell_volume   422.91670193
_cell_formula_units_Z   1
loop_
 _symmetry_equiv_pos_site_id
 _symmetry_equiv_pos_as_xyz
  1  'x, y, z'
loop_
 _atom_site_type_symbol
 _atom_site_label
 _atom_site_symmetry_multiplicity
 _atom_site_fract_x
 _atom_site_fract_y
 _atom_site_fract_z
 _atom_site_occupancy
  Dy  Dy0  1  0.192876  0.211595  0.405686  1
  Dy  Dy1  1  0.808075  0.789727  0.596988  1
  Dy  Dy2  1  0.192876  0.787191  0.981280  1
  Dy  Dy3  1  0.808075  0.211086  0.018350  1
  Y  Y4  1  0.475542  0.290368  0.185174  1
  Er  Er5  1  0.107126  0.291515  0.815612  1
  Er  Er6  1  0.893183  0.709554  0.183628  1
  Er  Er7  1  0.525853  0.709628  0.816225  1
  Er  Er8  1  0.302971  0.619810  0.316327  1
  Er  Er9  1  0.302971  0.986644  0.683161  1
  Er  Er10  1  0.697283  0.380697  0.684980  1
  Er  Er11  1  0.697283  0.012301  0.316586  1
  Co  Co12  1  0.498815  0.615215  0.112187  1
  Co  Co13  1  0.498815  0.386627  0.883601  1
  Co  Co14  1  0.377302  0.999395  0.377906  1
  Co  Co15  1  0.622059  0.000141  0.621919  1
  Co  Co16  1  0.999256  0.998504  0.000752  1
  Hg  Hg17  1  0.999641  0.500003  0.499638  1
