# generated using pymatgen
data_Sc4Mn5SiOs2
_symmetry_space_group_name_H-M   'P 1'
_cell_length_a   4.89643127
_cell_length_b   4.97959246
_cell_length_c   8.36870101
_cell_angle_alpha   89.99551358
_cell_angle_beta   90.00109018
_cell_angle_gamma   119.78258287
_symmetry_Int_Tables_number   1
_chemical_formula_structural   Sc4Mn5SiOs2
_chemical_formula_sum   'Sc4 Mn5 Si1 Os2'
_cell_volume   177.09628528
_cell_formula_units_Z   1
loop_
 _symmetry_equiv_pos_site_id
 _symmetry_equiv_pos_as_xyz
  1  'x, y, z'
loop_
 _atom_site_type_symbol
 _atom_site_label
 _atom_site_symmetry_multiplicity
 _atom_site_fract_x
 _atom_site_fract_y
 _atom_site_fract_z
 _atom_site_occupancy
  Sc  Sc0  1  0.665036  0.330596  0.060437  1
  Sc  Sc1  1  0.665051  0.330613  0.439572  1
  Sc  Sc2  1  0.332856  0.665626  0.565822  1
  Sc  Sc3  1  0.332835  0.665610  0.934162  1
  Mn  Mn4  1  0.187098  0.835060  0.249987  1
  Mn  Mn5  1  0.647735  0.835561  0.249988  1
  Mn  Mn6  1  0.355365  0.179657  0.750006  1
  Mn  Mn7  1  0.824919  0.176887  0.750001  1
  Mn  Mn8  1  0.829206  0.659420  0.750004  1
  Si  Si9  1  0.170197  0.341080  0.250020  1
  Os  Os10  1  0.994834  0.989929  0.000514  1
  Os  Os11  1  0.994868  0.989961  0.499486  1
