# generated using pymatgen
data_ZrPa8Ti7(NbGe4)4
_symmetry_space_group_name_H-M   'P 1'
_cell_length_a   7.09255223
_cell_length_b   7.13971754
_cell_length_c   13.60672051
_cell_angle_alpha   90.03112077
_cell_angle_beta   90.00521442
_cell_angle_gamma   90.09114111
_symmetry_Int_Tables_number   1
_chemical_formula_structural   ZrPa8Ti7(NbGe4)4
_chemical_formula_sum   'Zr1 Pa8 Ti7 Nb4 Ge16'
_cell_volume   689.02728897
_cell_formula_units_Z   1
loop_
 _symmetry_equiv_pos_site_id
 _symmetry_equiv_pos_as_xyz
  1  'x, y, z'
loop_
 _atom_site_type_symbol
 _atom_site_label
 _atom_site_symmetry_multiplicity
 _atom_site_fract_x
 _atom_site_fract_y
 _atom_site_fract_z
 _atom_site_occupancy
  Zr  Zr0  1  0.843473  0.668158  0.377163  1
  Pa  Pa1  1  0.008723  0.171017  0.092485  1
  Pa  Pa2  1  0.507793  0.329857  0.404519  1
  Pa  Pa3  1  0.492340  0.670754  0.905468  1
  Pa  Pa4  1  0.993221  0.829554  0.596563  1
  Pa  Pa5  1  0.992382  0.829081  0.905460  1
  Pa  Pa6  1  0.494289  0.670653  0.595780  1
  Pa  Pa7  1  0.506808  0.328182  0.093609  1
  Pa  Pa8  1  0.007917  0.171563  0.405293  1
  Ti  Ti9  1  0.844063  0.665385  0.123257  1
  Ti  Ti10  1  0.344727  0.832580  0.375139  1
  Ti  Ti11  1  0.655123  0.166600  0.875753  1
  Ti  Ti12  1  0.156431  0.331999  0.624926  1
  Ti  Ti13  1  0.154916  0.333398  0.875817  1
  Ti  Ti14  1  0.653032  0.166516  0.626990  1
  Ti  Ti15  1  0.345289  0.834485  0.122236  1
  Nb  Nb16  1  0.673524  0.001939  0.248965  1
  Nb  Nb17  1  0.174493  0.496783  0.248570  1
  Nb  Nb18  1  0.825395  0.502047  0.751262  1
  Nb  Nb19  1  0.325127  0.997761  0.750160  1
  Ge  Ge20  1  0.809456  0.364978  0.247270  1
  Ge  Ge21  1  0.309451  0.129933  0.249587  1
  Ge  Ge22  1  0.690450  0.870492  0.750827  1
  Ge  Ge23  1  0.190863  0.628758  0.750541  1
  Ge  Ge24  1  0.048142  0.869405  0.245639  1
  Ge  Ge25  1  0.539635  0.633890  0.246865  1
  Ge  Ge26  1  0.454745  0.365598  0.750802  1
  Ge  Ge27  1  0.955280  0.134738  0.750703  1
  Ge  Ge28  1  0.822737  0.452047  0.956787  1
  Ge  Ge29  1  0.322747  0.047427  0.542960  1
  Ge  Ge30  1  0.677426  0.952041  0.042493  1
  Ge  Ge31  1  0.184736  0.546356  0.459491  1
  Ge  Ge32  1  0.176772  0.548233  0.042326  1
  Ge  Ge33  1  0.671864  0.962141  0.460682  1
  Ge  Ge34  1  0.323418  0.047834  0.956237  1
  Ge  Ge35  1  0.823214  0.447819  0.547376  1
