# generated using pymatgen
data_TbGd3(SeO4)6
_symmetry_space_group_name_H-M   'P 1'
_cell_length_a   10.10496289
_cell_length_b   10.10496290
_cell_length_c   10.10496222
_cell_angle_alpha   57.74798538
_cell_angle_beta   57.74798792
_cell_angle_gamma   57.74798332
_symmetry_Int_Tables_number   1
_chemical_formula_structural   TbGd3(SeO4)6
_chemical_formula_sum   'Tb1 Gd3 Se6 O24'
_cell_volume   691.86605018
_cell_formula_units_Z   1
loop_
 _symmetry_equiv_pos_site_id
 _symmetry_equiv_pos_as_xyz
  1  'x, y, z'
loop_
 _atom_site_type_symbol
 _atom_site_label
 _atom_site_symmetry_multiplicity
 _atom_site_fract_x
 _atom_site_fract_y
 _atom_site_fract_z
 _atom_site_occupancy
  Tb  Tb0  1  0.144159  0.144159  0.144159  1
  Gd  Gd1  1  0.855929  0.855929  0.855929  1
  Gd  Gd2  1  0.356003  0.356003  0.356003  1
  Gd  Gd3  1  0.644056  0.644056  0.644056  1
  Se  Se4  1  0.036500  0.462821  0.751122  1
  Se  Se5  1  0.462821  0.751122  0.036500  1
  Se  Se6  1  0.751122  0.036500  0.462821  1
  Se  Se7  1  0.964146  0.535289  0.249818  1
  Se  Se8  1  0.249818  0.964146  0.535289  1
  Se  Se9  1  0.535289  0.249818  0.964146  1
  O  O10  1  0.226788  0.993308  0.369265  1
  O  O11  1  0.369265  0.226788  0.993308  1
  O  O12  1  0.993308  0.369265  0.226788  1
  O  O13  1  0.772882  0.008117  0.629173  1
  O  O14  1  0.629173  0.772882  0.008117  1
  O  O15  1  0.008117  0.629173  0.772882  1
  O  O16  1  0.272495  0.129585  0.507730  1
  O  O17  1  0.507730  0.272495  0.129585  1
  O  O18  1  0.129585  0.507730  0.272495  1
  O  O19  1  0.728286  0.870724  0.491154  1
  O  O20  1  0.064509  0.294434  0.918465  1
  O  O21  1  0.294434  0.918465  0.064509  1
  O  O22  1  0.918465  0.064509  0.294434  1
  O  O23  1  0.936330  0.704399  0.083060  1
  O  O24  1  0.704399  0.083060  0.936330  1
  O  O25  1  0.083060  0.936330  0.704399  1
  O  O26  1  0.205013  0.435597  0.583729  1
  O  O27  1  0.435597  0.583729  0.205013  1
  O  O28  1  0.583729  0.205013  0.435597  1
  O  O29  1  0.795250  0.563000  0.416864  1
  O  O30  1  0.563000  0.416864  0.795250  1
  O  O31  1  0.416864  0.795250  0.563000  1
  O  O32  1  0.870724  0.491154  0.728286  1
  O  O33  1  0.491154  0.728286  0.870724  1
