# generated using pymatgen
data_Ca20SnBi7As4
_symmetry_space_group_name_H-M   'P 1'
_cell_length_a   8.21950747
_cell_length_b   9.51348697
_cell_length_c   12.69679715
_cell_angle_alpha   89.93393675
_cell_angle_beta   89.92025777
_cell_angle_gamma   90.15320909
_symmetry_Int_Tables_number   1
_chemical_formula_structural   Ca20SnBi7As4
_chemical_formula_sum   'Ca20 Sn1 Bi7 As4'
_cell_volume   992.83582483
_cell_formula_units_Z   1
loop_
 _symmetry_equiv_pos_site_id
 _symmetry_equiv_pos_as_xyz
  1  'x, y, z'
loop_
 _atom_site_type_symbol
 _atom_site_label
 _atom_site_symmetry_multiplicity
 _atom_site_fract_x
 _atom_site_fract_y
 _atom_site_fract_z
 _atom_site_occupancy
  Ca  Ca0  1  0.046424  0.750221  0.503257  1
  Ca  Ca1  1  0.953913  0.249944  0.497713  1
  Ca  Ca2  1  0.550657  0.253943  0.996599  1
  Ca  Ca3  1  0.456540  0.746487  0.000194  1
  Ca  Ca4  1  0.857376  0.744928  0.799689  1
  Ca  Ca5  1  0.135776  0.250211  0.203661  1
  Ca  Ca6  1  0.369704  0.255145  0.701757  1
  Ca  Ca7  1  0.635855  0.749239  0.297299  1
  Ca  Ca8  1  0.680645  0.535935  0.577935  1
  Ca  Ca9  1  0.315696  0.462895  0.427547  1
  Ca  Ca10  1  0.186074  0.468057  0.924962  1
  Ca  Ca11  1  0.315781  0.037826  0.427389  1
  Ca  Ca12  1  0.814278  0.537423  0.069098  1
  Ca  Ca13  1  0.683804  0.962096  0.573904  1
  Ca  Ca14  1  0.814828  0.962350  0.072988  1
  Ca  Ca15  1  0.183292  0.034077  0.926116  1
  Ca  Ca16  1  0.338793  0.745189  0.715932  1
  Ca  Ca17  1  0.664235  0.250105  0.285003  1
  Ca  Ca18  1  0.831668  0.255543  0.785566  1
  Ca  Ca19  1  0.165777  0.749918  0.214545  1
  Sn  Sn20  1  0.562368  0.508062  0.830648  1
  Bi  Bi21  1  0.432677  0.488047  0.172497  1
  Bi  Bi22  1  0.067485  0.488496  0.669224  1
  Bi  Bi23  1  0.432966  0.012065  0.169277  1
  Bi  Bi24  1  0.932659  0.511557  0.328432  1
  Bi  Bi25  1  0.565107  0.990849  0.829787  1
  Bi  Bi26  1  0.932512  0.988275  0.329392  1
  Bi  Bi27  1  0.066857  0.011875  0.672212  1
  As  As28  1  0.071641  0.751008  0.987059  1
  As  As29  1  0.934793  0.248835  0.012671  1
  As  As30  1  0.573351  0.248719  0.512039  1
  As  As31  1  0.426469  0.750680  0.485610  1
