# generated using pymatgen
data_Fe6Re5Mo2
_symmetry_space_group_name_H-M   'P 1'
_cell_length_a   4.74360104
_cell_length_b   4.74360033
_cell_length_c   9.15634479
_cell_angle_alpha   74.98728616
_cell_angle_beta   74.98728829
_cell_angle_gamma   59.99999683
_symmetry_Int_Tables_number   1
_chemical_formula_structural   Fe6Re5Mo2
_chemical_formula_sum   'Fe6 Re5 Mo2'
_cell_volume   170.26189958
_cell_formula_units_Z   1
loop_
 _symmetry_equiv_pos_site_id
 _symmetry_equiv_pos_as_xyz
  1  'x, y, z'
loop_
 _atom_site_type_symbol
 _atom_site_label
 _atom_site_symmetry_multiplicity
 _atom_site_fract_x
 _atom_site_fract_y
 _atom_site_fract_z
 _atom_site_occupancy
  Fe  Fe0  1  0.906846  0.906846  0.766071  1
  Fe  Fe1  1  0.420235  0.906846  0.766071  1
  Fe  Fe2  1  0.906846  0.420235  0.766071  1
  Fe  Fe3  1  0.093154  0.093154  0.233929  1
  Fe  Fe4  1  0.579765  0.093154  0.233929  1
  Fe  Fe5  1  0.093154  0.579765  0.233929  1
  Re  Re6  1  0.000000  0.000000  0.000000  1
  Re  Re7  1  0.650238  0.650238  0.049287  1
  Re  Re8  1  0.349762  0.349762  0.950713  1
  Re  Re9  1  0.548190  0.548190  0.355432  1
  Re  Re10  1  0.451810  0.451810  0.644568  1
  Mo  Mo11  1  0.836594  0.836594  0.490217  1
  Mo  Mo12  1  0.163406  0.163406  0.509783  1
