# generated using pymatgen
data_Tb8Lu4InCo4Cu
_symmetry_space_group_name_H-M   'P 1'
_cell_length_a   8.27886270
_cell_length_b   8.27886271
_cell_length_c   8.27886333
_cell_angle_alpha   111.13939272
_cell_angle_beta   110.40621091
_cell_angle_gamma   106.89916541
_symmetry_Int_Tables_number   1
_chemical_formula_structural   Tb8Lu4InCo4Cu
_chemical_formula_sum   'Tb8 Lu4 In1 Co4 Cu1'
_cell_volume   436.13237680
_cell_formula_units_Z   1
loop_
 _symmetry_equiv_pos_site_id
 _symmetry_equiv_pos_as_xyz
  1  'x, y, z'
loop_
 _atom_site_type_symbol
 _atom_site_label
 _atom_site_symmetry_multiplicity
 _atom_site_fract_x
 _atom_site_fract_y
 _atom_site_fract_z
 _atom_site_occupancy
  Tb  Tb0  1  0.417157  0.218187  0.198971  1
  Tb  Tb1  1  0.582843  0.781813  0.801029  1
  Tb  Tb2  1  0.019216  0.218187  0.801029  1
  Tb  Tb3  1  0.980784  0.781813  0.198971  1
  Tb  Tb4  1  0.185277  0.290266  0.475543  1
  Tb  Tb5  1  0.814723  0.709734  0.524457  1
  Tb  Tb6  1  0.185277  0.709734  0.895011  1
  Tb  Tb7  1  0.814723  0.290266  0.104989  1
  Lu  Lu8  1  0.317321  0.625649  0.308330  1
  Lu  Lu9  1  0.682679  0.374351  0.691670  1
  Lu  Lu10  1  0.317321  0.008991  0.691670  1
  Lu  Lu11  1  0.682679  0.991009  0.308330  1
  In  In12  1  0.500000  0.500000  0.000000  1
  Co  Co13  1  0.378626  0.000000  0.378626  1
  Co  Co14  1  0.621374  0.000000  0.621374  1
  Co  Co15  1  0.113586  0.613586  0.500000  1
  Co  Co16  1  0.886414  0.386414  0.500000  1
  Cu  Cu17  1  0.000000  0.000000  0.000000  1
