# generated using pymatgen
data_Zn3Cd(In2Ir)4
_symmetry_space_group_name_H-M   'P 1'
_cell_length_a   6.88051009
_cell_length_b   7.00376559
_cell_length_c   7.33319200
_cell_angle_alpha   90.00000000
_cell_angle_beta   90.00000000
_cell_angle_gamma   89.01658323
_symmetry_Int_Tables_number   1
_chemical_formula_structural   Zn3Cd(In2Ir)4
_chemical_formula_sum   'Zn3 Cd1 In8 Ir4'
_cell_volume   353.33065628
_cell_formula_units_Z   1
loop_
 _symmetry_equiv_pos_site_id
 _symmetry_equiv_pos_as_xyz
  1  'x, y, z'
loop_
 _atom_site_type_symbol
 _atom_site_label
 _atom_site_symmetry_multiplicity
 _atom_site_fract_x
 _atom_site_fract_y
 _atom_site_fract_z
 _atom_site_occupancy
  Zn  Zn0  1  0.000000  0.500000  0.000000  1
  Zn  Zn1  1  0.500000  0.000000  0.000000  1
  Zn  Zn2  1  0.000000  0.500000  0.500000  1
  Cd  Cd3  1  0.500000  0.000000  0.500000  1
  In  In4  1  0.336091  0.340828  0.266111  1
  In  In5  1  0.161113  0.833246  0.770898  1
  In  In6  1  0.161113  0.833246  0.229102  1
  In  In7  1  0.838887  0.166754  0.229102  1
  In  In8  1  0.838887  0.166754  0.770898  1
  In  In9  1  0.663909  0.659172  0.266111  1
  In  In10  1  0.663909  0.659172  0.733889  1
  In  In11  1  0.336091  0.340828  0.733889  1
  Ir  Ir12  1  0.158421  0.156147  0.000000  1
  Ir  Ir13  1  0.663591  0.352485  0.500000  1
  Ir  Ir14  1  0.336409  0.647515  0.500000  1
  Ir  Ir15  1  0.841579  0.843853  0.000000  1
