# generated using pymatgen
data_Sr2LaPr(Ga3O7)2
_symmetry_space_group_name_H-M   'P 1'
_cell_length_a   8.11980729
_cell_length_b   8.11980798
_cell_length_c   5.38285499
_cell_angle_alpha   90.06943376
_cell_angle_beta   90.06942567
_cell_angle_gamma   90.23816468
_symmetry_Int_Tables_number   1
_chemical_formula_structural   Sr2LaPr(Ga3O7)2
_chemical_formula_sum   'Sr2 La1 Pr1 Ga6 O14'
_cell_volume   354.89490860
_cell_formula_units_Z   1
loop_
 _symmetry_equiv_pos_site_id
 _symmetry_equiv_pos_as_xyz
  1  'x, y, z'
loop_
 _atom_site_type_symbol
 _atom_site_label
 _atom_site_symmetry_multiplicity
 _atom_site_fract_x
 _atom_site_fract_y
 _atom_site_fract_z
 _atom_site_occupancy
  Sr  Sr0  1  0.161493  0.838137  0.490094  1
  Sr  Sr1  1  0.838137  0.161493  0.490094  1
  La  La2  1  0.336840  0.336840  0.510015  1
  Pr  Pr3  1  0.662316  0.662316  0.512446  1
  Ga  Ga4  1  0.357964  0.643159  0.033246  1
  Ga  Ga5  1  0.854556  0.854556  0.966713  1
  Ga  Ga6  1  0.643159  0.357964  0.033246  1
  Ga  Ga7  1  0.144590  0.144590  0.966499  1
  Ga  Ga8  1  0.500412  0.999107  0.999082  1
  Ga  Ga9  1  0.999107  0.500412  0.999082  1
  O  O10  1  0.999590  0.999590  0.817501  1
  O  O11  1  0.501431  0.501431  0.203247  1
  O  O12  1  0.370938  0.631332  0.694838  1
  O  O13  1  0.848901  0.848901  0.303167  1
  O  O14  1  0.631332  0.370938  0.694838  1
  O  O15  1  0.150067  0.150067  0.303365  1
  O  O16  1  0.417830  0.835294  0.203857  1
  O  O17  1  0.904706  0.658507  0.792142  1
  O  O18  1  0.583458  0.164940  0.201223  1
  O  O19  1  0.093594  0.340840  0.794044  1
  O  O20  1  0.340840  0.093594  0.794044  1
  O  O21  1  0.835294  0.417830  0.203857  1
  O  O22  1  0.658507  0.904706  0.792142  1
  O  O23  1  0.164940  0.583458  0.201223  1
