# generated using pymatgen
data_Tb6Er4(GaSb)3
_symmetry_space_group_name_H-M   'P 1'
_cell_length_a   8.77479800
_cell_length_b   8.78535215
_cell_length_c   6.45864100
_cell_angle_alpha   90.00000000
_cell_angle_beta   90.00000000
_cell_angle_gamma   119.96026059
_symmetry_Int_Tables_number   1
_chemical_formula_structural   Tb6Er4(GaSb)3
_chemical_formula_sum   'Tb6 Er4 Ga3 Sb3'
_cell_volume   431.36196482
_cell_formula_units_Z   1
loop_
 _symmetry_equiv_pos_site_id
 _symmetry_equiv_pos_as_xyz
  1  'x, y, z'
loop_
 _atom_site_type_symbol
 _atom_site_label
 _atom_site_symmetry_multiplicity
 _atom_site_fract_x
 _atom_site_fract_y
 _atom_site_fract_z
 _atom_site_occupancy
  Tb  Tb0  1  0.011145  0.767949  0.750000  1
  Tb  Tb1  1  0.012460  0.249316  0.250000  1
  Tb  Tb2  1  0.763143  0.750684  0.250000  1
  Tb  Tb3  1  0.754238  0.000000  0.750000  1
  Tb  Tb4  1  0.243196  0.232051  0.750000  1
  Tb  Tb5  1  0.235968  0.000000  0.250000  1
  Er  Er6  1  0.327176  0.666788  0.497094  1
  Er  Er7  1  0.660390  0.333212  0.002906  1
  Er  Er8  1  0.660390  0.333212  0.497094  1
  Er  Er9  1  0.327176  0.666788  0.002906  1
  Ga  Ga10  1  0.398120  0.000000  0.750000  1
  Ga  Ga11  1  0.396269  0.397114  0.250000  1
  Ga  Ga12  1  0.999155  0.602886  0.250000  1
  Sb  Sb13  1  0.997645  0.393353  0.750000  1
  Sb  Sb14  1  0.604292  0.606647  0.750000  1
  Sb  Sb15  1  0.609237  0.000000  0.250000  1
