# generated using pymatgen
data_Yb11Mg3(SnN4)2
_symmetry_space_group_name_H-M   'P 1'
_cell_length_a   3.35862901
_cell_length_b   11.19654980
_cell_length_c   11.00405300
_cell_angle_alpha   92.72747616
_cell_angle_beta   89.99559871
_cell_angle_gamma   89.99744099
_symmetry_Int_Tables_number   1
_chemical_formula_structural   Yb11Mg3(SnN4)2
_chemical_formula_sum   'Yb11 Mg3 Sn2 N8'
_cell_volume   413.33926411
_cell_formula_units_Z   1
loop_
 _symmetry_equiv_pos_site_id
 _symmetry_equiv_pos_as_xyz
  1  'x, y, z'
loop_
 _atom_site_type_symbol
 _atom_site_label
 _atom_site_symmetry_multiplicity
 _atom_site_fract_x
 _atom_site_fract_y
 _atom_site_fract_z
 _atom_site_occupancy
  Yb  Yb0  1  0.500424  0.814072  0.717688  1
  Yb  Yb1  1  0.499994  0.489738  0.009725  1
  Yb  Yb2  1  0.500265  0.010102  0.490484  1
  Yb  Yb3  1  0.000076  0.940093  0.239414  1
  Yb  Yb4  1  0.000333  0.072828  0.741147  1
  Yb  Yb5  1  0.999698  0.435222  0.258332  1
  Yb  Yb6  1  0.999929  0.548728  0.761588  1
  Yb  Yb7  1  0.999940  0.760672  0.453997  1
  Yb  Yb8  1  0.000155  0.261245  0.533608  1
  Yb  Yb9  1  0.999935  0.241289  0.036730  1
  Yb  Yb10  1  0.000013  0.738486  0.979936  1
  Mg  Mg11  1  0.499977  0.681472  0.221761  1
  Mg  Mg12  1  0.500308  0.308289  0.788615  1
  Mg  Mg13  1  0.499964  0.188508  0.280547  1
  Sn  Sn14  1  0.498202  0.517402  0.506946  1
  Sn  Sn15  1  0.499820  0.992152  0.985456  1
  N  N16  1  0.000012  0.604881  0.139571  1
  N  N17  1  0.000286  0.375805  0.876661  1
  N  N18  1  0.000001  0.120571  0.363160  1
  N  N19  1  0.000494  0.901873  0.613987  1
  N  N20  1  0.500022  0.835555  0.333608  1
  N  N21  1  0.500290  0.179724  0.648411  1
  N  N22  1  0.499846  0.325238  0.158535  1
  N  N23  1  0.500016  0.656053  0.860094  1
