# generated using pymatgen
data_CrSi12(P4Ir)3
_symmetry_space_group_name_H-M   'P 1'
_cell_length_a   5.92385600
_cell_length_b   6.12324425
_cell_length_c   13.09109891
_cell_angle_alpha   89.73826225
_cell_angle_beta   90.20308586
_cell_angle_gamma   90.33704310
_symmetry_Int_Tables_number   1
_chemical_formula_structural   CrSi12(P4Ir)3
_chemical_formula_sum   'Cr1 Si12 P12 Ir3'
_cell_volume   474.84016559
_cell_formula_units_Z   1
loop_
 _symmetry_equiv_pos_site_id
 _symmetry_equiv_pos_as_xyz
  1  'x, y, z'
loop_
 _atom_site_type_symbol
 _atom_site_label
 _atom_site_symmetry_multiplicity
 _atom_site_fract_x
 _atom_site_fract_y
 _atom_site_fract_z
 _atom_site_occupancy
  Cr  Cr0  1  0.026931  0.517767  0.388455  1
  Si  Si1  1  0.973869  0.159235  0.313661  1
  Si  Si2  1  0.466497  0.840520  0.682183  1
  Si  Si3  1  0.932640  0.623034  0.213518  1
  Si  Si4  1  0.431437  0.370155  0.787148  1
  Si  Si5  1  0.340125  0.916165  0.950141  1
  Si  Si6  1  0.840587  0.081555  0.048319  1
  Si  Si7  1  0.917352  0.529105  0.673709  1
  Si  Si8  1  0.415235  0.470938  0.325329  1
  Si  Si9  1  0.997978  0.064283  0.570033  1
  Si  Si10  1  0.495168  0.941990  0.429120  1
  Si  Si11  1  0.907233  0.622356  0.927143  1
  Si  Si12  1  0.406479  0.375623  0.072264  1
  P  P13  1  0.579086  0.027913  0.825641  1
  P  P14  1  0.080717  0.965572  0.172270  1
  P  P15  1  0.516908  0.560986  0.929920  1
  P  P16  1  0.016825  0.436646  0.069355  1
  P  P17  1  0.611135  0.114915  0.573541  1
  P  P18  1  0.108986  0.889796  0.426033  1
  P  P19  1  0.546590  0.645201  0.179706  1
  P  P20  1  0.045272  0.354517  0.819588  1
  P  P21  1  0.582548  0.133480  0.288073  1
  P  P22  1  0.079513  0.868375  0.710350  1
  P  P23  1  0.157307  0.403847  0.555932  1
  P  P24  1  0.647586  0.602932  0.448296  1
  Ir  Ir25  1  0.965736  0.985017  0.878666  1
  Ir  Ir26  1  0.466662  0.012998  0.120268  1
  Ir  Ir27  1  0.537401  0.485082  0.621336  1
