# generated using pymatgen
data_Ca4YbPd2
_symmetry_space_group_name_H-M   'P 1'
_cell_length_a   8.87462962
_cell_length_b   8.87463032
_cell_length_c   7.69129358
_cell_angle_alpha   83.28064819
_cell_angle_beta   83.28064547
_cell_angle_gamma   44.16359605
_symmetry_Int_Tables_number   1
_chemical_formula_structural   Ca4YbPd2
_chemical_formula_sum   'Ca8 Yb2 Pd4'
_cell_volume   418.66011227
_cell_formula_units_Z   2
loop_
 _symmetry_equiv_pos_site_id
 _symmetry_equiv_pos_as_xyz
  1  'x, y, z'
loop_
 _atom_site_type_symbol
 _atom_site_label
 _atom_site_symmetry_multiplicity
 _atom_site_fract_x
 _atom_site_fract_y
 _atom_site_fract_z
 _atom_site_occupancy
  Ca  Ca0  1  0.020617  0.797573  0.920096  1
  Ca  Ca1  1  0.202427  0.979383  0.579904  1
  Ca  Ca2  1  0.979383  0.202427  0.079904  1
  Ca  Ca3  1  0.797573  0.020617  0.420096  1
  Ca  Ca4  1  0.363657  0.201400  0.819176  1
  Ca  Ca5  1  0.798600  0.636343  0.680824  1
  Ca  Ca6  1  0.636343  0.798600  0.180824  1
  Ca  Ca7  1  0.201400  0.363657  0.319176  1
  Yb  Yb8  1  0.577552  0.422448  0.750000  1
  Yb  Yb9  1  0.422448  0.577552  0.250000  1
  Pd  Pd10  1  0.190234  0.595324  0.579684  1
  Pd  Pd11  1  0.404676  0.809766  0.920316  1
  Pd  Pd12  1  0.809766  0.404676  0.420316  1
  Pd  Pd13  1  0.595324  0.190235  0.079684  1
