# generated using pymatgen
data_Tm4Al14Ga3GeIr6
_symmetry_space_group_name_H-M   'P 1'
_cell_length_a   7.52694934
_cell_length_b   7.52694776
_cell_length_c   9.46752500
_cell_angle_alpha   90.00000000
_cell_angle_beta   90.00000000
_cell_angle_gamma   119.72491146
_symmetry_Int_Tables_number   1
_chemical_formula_structural   Tm4Al14Ga3GeIr6
_chemical_formula_sum   'Tm4 Al14 Ga3 Ge1 Ir6'
_cell_volume   465.80289017
_cell_formula_units_Z   1
loop_
 _symmetry_equiv_pos_site_id
 _symmetry_equiv_pos_as_xyz
  1  'x, y, z'
loop_
 _atom_site_type_symbol
 _atom_site_label
 _atom_site_symmetry_multiplicity
 _atom_site_fract_x
 _atom_site_fract_y
 _atom_site_fract_z
 _atom_site_occupancy
  Tm  Tm0  1  0.996870  0.676905  0.250000  1
  Tm  Tm1  1  0.003159  0.329845  0.750000  1
  Tm  Tm2  1  0.676905  0.996870  0.250000  1
  Tm  Tm3  1  0.329845  0.003159  0.750000  1
  Al  Al4  1  0.999284  0.337468  0.074583  1
  Al  Al5  1  0.997090  0.665190  0.926057  1
  Al  Al6  1  0.997090  0.665190  0.573943  1
  Al  Al7  1  0.337468  0.999284  0.425417  1
  Al  Al8  1  0.999284  0.337468  0.425417  1
  Al  Al9  1  0.665190  0.997090  0.573943  1
  Al  Al10  1  0.665190  0.997090  0.926057  1
  Al  Al11  1  0.337468  0.999284  0.074583  1
  Al  Al12  1  0.332918  0.332918  0.556605  1
  Al  Al13  1  0.663873  0.663873  0.438431  1
  Al  Al14  1  0.663873  0.663873  0.061569  1
  Al  Al15  1  0.332918  0.332918  0.943395  1
  Al  Al16  1  0.335969  0.554502  0.250000  1
  Al  Al17  1  0.554502  0.335969  0.250000  1
  Ga  Ga18  1  0.873900  0.873900  0.750000  1
  Ga  Ga19  1  0.660099  0.450923  0.750000  1
  Ga  Ga20  1  0.450923  0.660099  0.750000  1
  Ge  Ge21  1  0.136652  0.136652  0.250000  1
  Ir  Ir22  1  0.669573  0.326076  0.001950  1
  Ir  Ir23  1  0.326076  0.669573  0.001950  1
  Ir  Ir24  1  0.326076  0.669573  0.498050  1
  Ir  Ir25  1  0.669573  0.326076  0.498050  1
  Ir  Ir26  1  0.999114  0.999114  0.004223  1
  Ir  Ir27  1  0.999114  0.999114  0.495777  1
