# generated using pymatgen
data_LiV9S16
_symmetry_space_group_name_H-M   'P 1'
_cell_length_a   6.38122100
_cell_length_b   6.38122205
_cell_length_c   12.52173500
_cell_angle_alpha   90.00000000
_cell_angle_beta   90.00000000
_cell_angle_gamma   119.99998935
_symmetry_Int_Tables_number   1
_chemical_formula_structural   LiV9S16
_chemical_formula_sum   'Li1 V9 S16'
_cell_volume   441.57332487
_cell_formula_units_Z   1
loop_
 _symmetry_equiv_pos_site_id
 _symmetry_equiv_pos_as_xyz
  1  'x, y, z'
loop_
 _atom_site_type_symbol
 _atom_site_label
 _atom_site_symmetry_multiplicity
 _atom_site_fract_x
 _atom_site_fract_y
 _atom_site_fract_z
 _atom_site_occupancy
  Li  Li0  1  0.000000  0.000000  0.500000  1
  V  V1  1  0.000000  0.000000  0.239070  1
  V  V2  1  0.000000  0.000000  0.760930  1
  V  V3  1  0.506858  0.493142  0.237776  1
  V  V4  1  0.506858  0.013716  0.237776  1
  V  V5  1  0.986284  0.493142  0.237776  1
  V  V6  1  0.493142  0.506858  0.762224  1
  V  V7  1  0.493142  0.986284  0.762224  1
  V  V8  1  0.013716  0.506858  0.762224  1
  V  V9  1  0.000000  0.000000  0.000000  1
  S  S10  1  0.333333  0.666667  0.882640  1
  S  S11  1  0.666667  0.333333  0.117360  1
  S  S12  1  0.666667  0.333333  0.358976  1
  S  S13  1  0.333333  0.666667  0.641024  1
  S  S14  1  0.167795  0.832205  0.355420  1
  S  S15  1  0.167795  0.335590  0.355420  1
  S  S16  1  0.664410  0.832205  0.355420  1
  S  S17  1  0.832205  0.167795  0.644580  1
  S  S18  1  0.832205  0.664410  0.644580  1
  S  S19  1  0.335590  0.167795  0.644580  1
  S  S20  1  0.833539  0.166461  0.878308  1
  S  S21  1  0.833539  0.667076  0.878308  1
  S  S22  1  0.332924  0.166461  0.878308  1
  S  S23  1  0.166461  0.833539  0.121692  1
  S  S24  1  0.166461  0.332924  0.121692  1
  S  S25  1  0.667076  0.833539  0.121692  1
