# generated using pymatgen
data_Li5RhF8
_symmetry_space_group_name_H-M   'P 1'
_cell_length_a   5.99504929
_cell_length_b   5.99504926
_cell_length_c   5.99504967
_cell_angle_alpha   58.63845563
_cell_angle_beta   58.63845303
_cell_angle_gamma   58.63845527
_symmetry_Int_Tables_number   1
_chemical_formula_structural   Li5RhF8
_chemical_formula_sum   'Li5 Rh1 F8'
_cell_volume   147.61561846
_cell_formula_units_Z   1
loop_
 _symmetry_equiv_pos_site_id
 _symmetry_equiv_pos_as_xyz
  1  'x, y, z'
loop_
 _atom_site_type_symbol
 _atom_site_label
 _atom_site_symmetry_multiplicity
 _atom_site_fract_x
 _atom_site_fract_y
 _atom_site_fract_z
 _atom_site_occupancy
  Li  Li0  1  0.140588  0.140588  0.140588  1
  Li  Li1  1  0.000000  0.500000  0.500000  1
  Li  Li2  1  0.500000  0.000000  0.500000  1
  Li  Li3  1  0.859412  0.859412  0.859412  1
  Li  Li4  1  0.500000  0.500000  0.000000  1
  Rh  Rh5  1  0.500000  0.500000  0.500000  1
  F  F6  1  0.739967  0.262526  0.739967  1
  F  F7  1  0.265163  0.265163  0.265163  1
  F  F8  1  0.739967  0.739967  0.262526  1
  F  F9  1  0.262526  0.739967  0.739967  1
  F  F10  1  0.737474  0.260033  0.260033  1
  F  F11  1  0.260033  0.260033  0.737474  1
  F  F12  1  0.734837  0.734837  0.734837  1
  F  F13  1  0.260033  0.737474  0.260033  1
