# generated using pymatgen
data_Y9ErPd18
_symmetry_space_group_name_H-M   'P 1'
_cell_length_a   9.81222300
_cell_length_b   9.81222382
_cell_length_c   5.78416300
_cell_angle_alpha   90.00000000
_cell_angle_beta   90.00000000
_cell_angle_gamma   89.91895153
_symmetry_Int_Tables_number   1
_chemical_formula_structural   Y9ErPd18
_chemical_formula_sum   'Y9 Er1 Pd18'
_cell_volume   556.89708444
_cell_formula_units_Z   1
loop_
 _symmetry_equiv_pos_site_id
 _symmetry_equiv_pos_as_xyz
  1  'x, y, z'
loop_
 _atom_site_type_symbol
 _atom_site_label
 _atom_site_symmetry_multiplicity
 _atom_site_fract_x
 _atom_site_fract_y
 _atom_site_fract_z
 _atom_site_occupancy
  Y  Y0  1  0.453326  0.808194  0.000000  1
  Y  Y1  1  0.546674  0.191806  0.000000  1
  Y  Y2  1  0.191795  0.546691  0.000000  1
  Y  Y3  1  0.808205  0.453309  0.000000  1
  Y  Y4  1  0.500000  0.500000  0.500000  1
  Y  Y5  1  0.307680  0.046850  0.500000  1
  Y  Y6  1  0.692320  0.953150  0.500000  1
  Y  Y7  1  0.953148  0.692324  0.500000  1
  Y  Y8  1  0.046852  0.307676  0.500000  1
  Er  Er9  1  0.000000  0.000000  0.000000  1
  Pd  Pd10  1  0.190411  0.809591  0.250913  1
  Pd  Pd11  1  0.809589  0.190409  0.749087  1
  Pd  Pd12  1  0.809589  0.190409  0.250913  1
  Pd  Pd13  1  0.190411  0.809591  0.749087  1
  Pd  Pd14  1  0.438951  0.780935  0.500000  1
  Pd  Pd15  1  0.561049  0.219065  0.500000  1
  Pd  Pd16  1  0.219070  0.561051  0.500000  1
  Pd  Pd17  1  0.780930  0.438949  0.500000  1
  Pd  Pd18  1  0.308817  0.308816  0.248590  1
  Pd  Pd19  1  0.691183  0.691184  0.751410  1
  Pd  Pd20  1  0.691183  0.691184  0.248590  1
  Pd  Pd21  1  0.308817  0.308816  0.751410  1
  Pd  Pd22  1  0.278565  0.060346  0.000000  1
  Pd  Pd23  1  0.721435  0.939654  0.000000  1
  Pd  Pd24  1  0.939659  0.721429  0.000000  1
  Pd  Pd25  1  0.060341  0.278571  0.000000  1
  Pd  Pd26  1  0.000000  0.000000  0.500000  1
  Pd  Pd27  1  0.500000  0.500000  0.000000  1
