# generated using pymatgen
data_Hf7U(TcRu)4
_symmetry_space_group_name_H-M   'P 1'
_cell_length_a   6.53176753
_cell_length_b   6.52874537
_cell_length_c   6.54596800
_cell_angle_alpha   89.99762450
_cell_angle_beta   89.99817953
_cell_angle_gamma   91.06956242
_symmetry_Int_Tables_number   1
_chemical_formula_structural   Hf7U(TcRu)4
_chemical_formula_sum   'Hf7 U1 Tc4 Ru4'
_cell_volume   279.09924003
_cell_formula_units_Z   1
loop_
 _symmetry_equiv_pos_site_id
 _symmetry_equiv_pos_as_xyz
  1  'x, y, z'
loop_
 _atom_site_type_symbol
 _atom_site_label
 _atom_site_symmetry_multiplicity
 _atom_site_fract_x
 _atom_site_fract_y
 _atom_site_fract_z
 _atom_site_occupancy
  Hf  Hf0  1  0.499957  0.499996  0.250001  1
  Hf  Hf1  1  0.999966  0.000016  0.250002  1
  Hf  Hf2  1  0.999956  0.500008  0.250003  1
  Hf  Hf3  1  0.000035  0.999994  0.749999  1
  Hf  Hf4  1  0.000049  0.499987  0.750002  1
  Hf  Hf5  1  0.500037  0.999997  0.749996  1
  Hf  Hf6  1  0.500044  0.499991  0.750000  1
  U  U7  1  0.499953  0.000003  0.249996  1
  Tc  Tc8  1  0.743452  0.243432  0.004553  1
  Tc  Tc9  1  0.256543  0.756568  0.495448  1
  Tc  Tc10  1  0.743489  0.243472  0.495493  1
  Tc  Tc11  1  0.256517  0.756541  0.004515  1
  Ru  Ru12  1  0.248830  0.251134  0.000254  1
  Ru  Ru13  1  0.751161  0.748848  0.000244  1
  Ru  Ru14  1  0.751166  0.748868  0.499745  1
  Ru  Ru15  1  0.248844  0.251142  0.499751  1
