# generated using pymatgen
data_Lu3Zr3Zn23C
_symmetry_space_group_name_H-M   'P 1'
_cell_length_a   8.79994061
_cell_length_b   8.78503204
_cell_length_c   8.76548576
_cell_angle_alpha   60.18604040
_cell_angle_beta   60.01708497
_cell_angle_gamma   59.79685977
_symmetry_Int_Tables_number   1
_chemical_formula_structural   Lu3Zr3Zn23C
_chemical_formula_sum   'Lu3 Zr3 Zn23 C1'
_cell_volume   479.15272336
_cell_formula_units_Z   1
loop_
 _symmetry_equiv_pos_site_id
 _symmetry_equiv_pos_as_xyz
  1  'x, y, z'
loop_
 _atom_site_type_symbol
 _atom_site_label
 _atom_site_symmetry_multiplicity
 _atom_site_fract_x
 _atom_site_fract_y
 _atom_site_fract_z
 _atom_site_occupancy
  Lu  Lu0  1  0.696854  0.303146  0.305138  1
  Lu  Lu1  1  0.305138  0.694862  0.696854  1
  Lu  Lu2  1  0.307830  0.692170  0.307830  1
  Zr  Zr3  1  0.690284  0.309716  0.690284  1
  Zr  Zr4  1  0.317756  0.313194  0.686806  1
  Zr  Zr5  1  0.686806  0.682244  0.317756  1
  Zn  Zn6  1  0.123087  0.123428  0.117864  1
  Zn  Zn7  1  0.875379  0.880497  0.879991  1
  Zn  Zn8  1  0.119503  0.124621  0.635869  1
  Zn  Zn9  1  0.117864  0.635623  0.123087  1
  Zn  Zn10  1  0.876572  0.876913  0.364377  1
  Zn  Zn11  1  0.879991  0.364131  0.875379  1
  Zn  Zn12  1  0.635869  0.120009  0.119503  1
  Zn  Zn13  1  0.364377  0.882136  0.876572  1
  Zn  Zn14  1  0.500830  0.001024  0.998976  1
  Zn  Zn15  1  0.998976  0.499170  0.500830  1
  Zn  Zn16  1  0.000210  0.499790  0.000210  1
  Zn  Zn17  1  0.500210  0.999790  0.500210  1
  Zn  Zn18  1  0.998957  0.001043  0.501151  1
  Zn  Zn19  1  0.501151  0.498849  0.998957  1
  Zn  Zn20  1  0.330164  0.329271  0.331469  1
  Zn  Zn21  1  0.669999  0.668171  0.668891  1
  Zn  Zn22  1  0.331829  0.330001  0.007062  1
  Zn  Zn23  1  0.331469  0.009096  0.330164  1
  Zn  Zn24  1  0.670729  0.669836  0.990904  1
  Zn  Zn25  1  0.668891  0.992938  0.669999  1
  Zn  Zn26  1  0.007062  0.331109  0.331829  1
  Zn  Zn27  1  0.990904  0.668531  0.670729  1
  Zn  Zn28  1  0.000021  0.999979  0.000021  1
  C  C29  1  0.501285  0.498715  0.501285  1
