# generated using pymatgen
data_Tm3InNi3Sn2
_symmetry_space_group_name_H-M   'P 1'
_cell_length_a   3.68027600
_cell_length_b   7.41625054
_cell_length_c   7.40413491
_cell_angle_alpha   119.94701145
_cell_angle_beta   90.00000000
_cell_angle_gamma   90.00000000
_symmetry_Int_Tables_number   1
_chemical_formula_structural   Tm3InNi3Sn2
_chemical_formula_sum   'Tm3 In1 Ni3 Sn2'
_cell_volume   175.10614254
_cell_formula_units_Z   1
loop_
 _symmetry_equiv_pos_site_id
 _symmetry_equiv_pos_as_xyz
  1  'x, y, z'
loop_
 _atom_site_type_symbol
 _atom_site_label
 _atom_site_symmetry_multiplicity
 _atom_site_fract_x
 _atom_site_fract_y
 _atom_site_fract_z
 _atom_site_occupancy
  Tm  Tm0  1  0.500000  0.402978  0.996590  1
  Tm  Tm1  1  0.500000  0.597061  0.593681  1
  Tm  Tm2  1  0.500000  0.000091  0.408859  1
  In  In3  1  0.000000  0.999985  0.739250  1
  Ni  Ni4  1  0.000000  0.663439  0.329097  1
  Ni  Ni5  1  0.000000  0.336612  0.665538  1
  Ni  Ni6  1  0.500000  0.999866  0.007182  1
  Sn  Sn7  1  0.000000  0.738036  0.998942  1
  Sn  Sn8  1  0.000000  0.262033  0.260860  1
