# generated using pymatgen
data_LuSn2Rh3
_symmetry_space_group_name_H-M   'P 1'
_cell_length_a   4.53235300
_cell_length_b   4.53235339
_cell_length_c   12.33754400
_cell_angle_alpha   90.00000000
_cell_angle_beta   90.00000000
_cell_angle_gamma   120.00000444
_symmetry_Int_Tables_number   1
_chemical_formula_structural   LuSn2Rh3
_chemical_formula_sum   'Lu2 Sn4 Rh6'
_cell_volume   219.48599751
_cell_formula_units_Z   2
loop_
 _symmetry_equiv_pos_site_id
 _symmetry_equiv_pos_as_xyz
  1  'x, y, z'
loop_
 _atom_site_type_symbol
 _atom_site_label
 _atom_site_symmetry_multiplicity
 _atom_site_fract_x
 _atom_site_fract_y
 _atom_site_fract_z
 _atom_site_occupancy
  Lu  Lu0  1  0.000000  0.000000  0.250000  1
  Lu  Lu1  1  0.000000  0.000000  0.750000  1
  Sn  Sn2  1  0.333333  0.666667  0.091278  1
  Sn  Sn3  1  0.333333  0.666667  0.408722  1
  Sn  Sn4  1  0.666667  0.333333  0.591278  1
  Sn  Sn5  1  0.666667  0.333333  0.908722  1
  Rh  Rh6  1  0.000000  0.000000  0.000000  1
  Rh  Rh7  1  0.666667  0.333333  0.129996  1
  Rh  Rh8  1  0.666667  0.333333  0.370005  1
  Rh  Rh9  1  0.000000  0.000000  0.500000  1
  Rh  Rh10  1  0.333333  0.666667  0.629996  1
  Rh  Rh11  1  0.333333  0.666667  0.870004  1
