# generated using pymatgen
data_Er7Sn23(IrOs)3
_symmetry_space_group_name_H-M   'P 1'
_cell_length_a   9.85792667
_cell_length_b   9.86294666
_cell_length_c   10.07396911
_cell_angle_alpha   89.91849794
_cell_angle_beta   90.07408855
_cell_angle_gamma   120.02329349
_symmetry_Int_Tables_number   1
_chemical_formula_structural   Er7Sn23(IrOs)3
_chemical_formula_sum   'Er7 Sn23 Ir3 Os3'
_cell_volume   848.04908841
_cell_formula_units_Z   1
loop_
 _symmetry_equiv_pos_site_id
 _symmetry_equiv_pos_as_xyz
  1  'x, y, z'
loop_
 _atom_site_type_symbol
 _atom_site_label
 _atom_site_symmetry_multiplicity
 _atom_site_fract_x
 _atom_site_fract_y
 _atom_site_fract_z
 _atom_site_occupancy
  Er  Er0  1  0.481851  0.514262  0.304349  1
  Er  Er1  1  0.515653  0.484577  0.696647  1
  Er  Er2  1  0.481471  0.967400  0.304507  1
  Er  Er3  1  0.517630  0.031807  0.695494  1
  Er  Er4  1  0.033978  0.517174  0.305345  1
  Er  Er5  1  0.967953  0.482436  0.695477  1
  Er  Er6  1  0.003597  0.007851  0.995360  1
  Sn  Sn7  1  0.117294  0.882556  0.281714  1
  Sn  Sn8  1  0.882254  0.117697  0.718948  1
  Sn  Sn9  1  0.117727  0.235742  0.281790  1
  Sn  Sn10  1  0.882646  0.765245  0.718150  1
  Sn  Sn11  1  0.764747  0.882233  0.283043  1
  Sn  Sn12  1  0.235548  0.117944  0.717597  1
  Sn  Sn13  1  0.777721  0.222609  0.459760  1
  Sn  Sn14  1  0.222595  0.776352  0.540235  1
  Sn  Sn15  1  0.777809  0.553857  0.460315  1
  Sn  Sn16  1  0.221022  0.443529  0.540864  1
  Sn  Sn17  1  0.444688  0.221832  0.460312  1
  Sn  Sn18  1  0.554339  0.777026  0.539904  1
  Sn  Sn19  1  0.352891  0.003024  0.999876  1
  Sn  Sn20  1  0.647106  0.997085  0.999873  1
  Sn  Sn21  1  0.001439  0.352657  0.999889  1
  Sn  Sn22  1  0.999821  0.648276  0.000363  1
  Sn  Sn23  1  0.647904  0.650208  0.000301  1
  Sn  Sn24  1  0.351511  0.350803  0.000173  1
  Sn  Sn25  1  0.333648  0.667520  0.129001  1
  Sn  Sn26  1  0.667601  0.333761  0.870965  1
  Sn  Sn27  1  0.334239  0.665187  0.824885  1
  Sn  Sn28  1  0.664544  0.332052  0.174963  1
  Sn  Sn29  1  0.000246  0.000260  0.499056  1
  Ir  Ir30  1  0.829870  0.170100  0.199657  1
  Ir  Ir31  1  0.170093  0.830184  0.800032  1
  Ir  Ir32  1  0.829435  0.658880  0.200670  1
  Os  Os33  1  0.168687  0.337531  0.800621  1
  Os  Os34  1  0.338698  0.169516  0.201127  1
  Os  Os35  1  0.661745  0.830826  0.798741  1
