# generated using pymatgen
data_Tb5YCo2
_symmetry_space_group_name_H-M   'P 1'
_cell_length_a   6.21725700
_cell_length_b   6.98279200
_cell_length_c   9.60543600
_cell_angle_alpha   90.00000000
_cell_angle_beta   90.00000000
_cell_angle_gamma   90.00000000
_symmetry_Int_Tables_number   1
_chemical_formula_structural   Tb5YCo2
_chemical_formula_sum   'Tb10 Y2 Co4'
_cell_volume   417.00859692
_cell_formula_units_Z   2
loop_
 _symmetry_equiv_pos_site_id
 _symmetry_equiv_pos_as_xyz
  1  'x, y, z'
loop_
 _atom_site_type_symbol
 _atom_site_label
 _atom_site_symmetry_multiplicity
 _atom_site_fract_x
 _atom_site_fract_y
 _atom_site_fract_z
 _atom_site_occupancy
  Tb  Tb0  1  0.324396  0.673954  0.068935  1
  Tb  Tb1  1  0.175604  0.173954  0.431065  1
  Tb  Tb2  1  0.675099  0.326023  0.569290  1
  Tb  Tb3  1  0.824901  0.826023  0.930710  1
  Tb  Tb4  1  0.675099  0.326023  0.930710  1
  Tb  Tb5  1  0.824901  0.826023  0.569290  1
  Tb  Tb6  1  0.324396  0.673954  0.431065  1
  Tb  Tb7  1  0.175604  0.173954  0.068935  1
  Tb  Tb8  1  0.144123  0.457041  0.750000  1
  Tb  Tb9  1  0.355877  0.957041  0.750000  1
  Y  Y10  1  0.856184  0.541956  0.250000  1
  Y  Y11  1  0.643816  0.041956  0.250000  1
  Co  Co12  1  0.055864  0.886108  0.250000  1
  Co  Co13  1  0.444136  0.386108  0.250000  1
  Co  Co14  1  0.947976  0.114943  0.750000  1
  Co  Co15  1  0.552024  0.614943  0.750000  1
