# generated using pymatgen
data_Li4Pr4ZnBi3
_symmetry_space_group_name_H-M   'P 1'
_cell_length_a   9.69655800
_cell_length_b   9.69655888
_cell_length_c   7.67830000
_cell_angle_alpha   90.00000000
_cell_angle_beta   90.00000000
_cell_angle_gamma   120.00000381
_symmetry_Int_Tables_number   1
_chemical_formula_structural   Li4Pr4ZnBi3
_chemical_formula_sum   'Li8 Pr8 Zn2 Bi6'
_cell_volume   625.21721874
_cell_formula_units_Z   2
loop_
 _symmetry_equiv_pos_site_id
 _symmetry_equiv_pos_as_xyz
  1  'x, y, z'
loop_
 _atom_site_type_symbol
 _atom_site_label
 _atom_site_symmetry_multiplicity
 _atom_site_fract_x
 _atom_site_fract_y
 _atom_site_fract_z
 _atom_site_occupancy
  Li  Li0  1  0.826952  0.173048  0.714898  1
  Li  Li1  1  0.826952  0.653902  0.714898  1
  Li  Li2  1  0.346098  0.173048  0.714898  1
  Li  Li3  1  0.173048  0.826952  0.214898  1
  Li  Li4  1  0.173048  0.346098  0.214898  1
  Li  Li5  1  0.653902  0.826952  0.214898  1
  Li  Li6  1  0.666667  0.333333  0.331958  1
  Li  Li7  1  0.333333  0.666667  0.831958  1
  Pr  Pr8  1  0.483316  0.516684  0.498653  1
  Pr  Pr9  1  0.483316  0.966632  0.498653  1
  Pr  Pr10  1  0.033368  0.516684  0.498653  1
  Pr  Pr11  1  0.516684  0.483316  0.998653  1
  Pr  Pr12  1  0.516684  0.033368  0.998653  1
  Pr  Pr13  1  0.966632  0.483316  0.998653  1
  Pr  Pr14  1  0.000000  0.000000  0.500996  1
  Pr  Pr15  1  0.000000  0.000000  0.000996  1
  Zn  Zn16  1  0.666667  0.333333  0.746079  1
  Zn  Zn17  1  0.333333  0.666667  0.246079  1
  Bi  Bi18  1  0.833694  0.166306  0.269772  1
  Bi  Bi19  1  0.833694  0.667389  0.269772  1
  Bi  Bi20  1  0.332611  0.166306  0.269772  1
  Bi  Bi21  1  0.166306  0.833694  0.769772  1
  Bi  Bi22  1  0.166306  0.332611  0.769772  1
  Bi  Bi23  1  0.667389  0.833694  0.769772  1
