# generated using pymatgen
data_Sr6CaCo2PbO12
_symmetry_space_group_name_H-M   'P 1'
_cell_length_a   6.77346784
_cell_length_b   6.77366557
_cell_length_c   6.77358326
_cell_angle_alpha   91.74516827
_cell_angle_beta   91.70980472
_cell_angle_gamma   91.71213850
_symmetry_Int_Tables_number   1
_chemical_formula_structural   Sr6CaCo2PbO12
_chemical_formula_sum   'Sr6 Ca1 Co2 Pb1 O12'
_cell_volume   310.35026113
_cell_formula_units_Z   1
loop_
 _symmetry_equiv_pos_site_id
 _symmetry_equiv_pos_as_xyz
  1  'x, y, z'
loop_
 _atom_site_type_symbol
 _atom_site_label
 _atom_site_symmetry_multiplicity
 _atom_site_fract_x
 _atom_site_fract_y
 _atom_site_fract_z
 _atom_site_occupancy
  Sr  Sr0  1  0.877154  0.250250  0.622775  1
  Sr  Sr1  1  0.249990  0.622858  0.877120  1
  Sr  Sr2  1  0.622872  0.877215  0.249701  1
  Sr  Sr3  1  0.750021  0.386847  0.113180  1
  Sr  Sr4  1  0.386650  0.113166  0.749949  1
  Sr  Sr5  1  0.113314  0.750024  0.386821  1
  Ca  Ca6  1  0.749961  0.750074  0.749958  1
  Co  Co7  1  0.997253  0.997375  0.997401  1
  Co  Co8  1  0.502736  0.502559  0.502683  1
  Pb  Pb9  1  0.250092  0.250134  0.249855  1
  O  O10  1  0.219997  0.410270  0.542567  1
  O  O11  1  0.410157  0.542586  0.219937  1
  O  O12  1  0.542343  0.219676  0.409960  1
  O  O13  1  0.919714  0.722253  0.051167  1
  O  O14  1  0.721882  0.051106  0.920488  1
  O  O15  1  0.050885  0.919933  0.722113  1
  O  O16  1  0.778112  0.579545  0.448978  1
  O  O17  1  0.580196  0.448824  0.777831  1
  O  O18  1  0.448988  0.777787  0.580209  1
  O  O19  1  0.089883  0.280121  0.957437  1
  O  O20  1  0.280025  0.957394  0.089589  1
  O  O21  1  0.957772  0.090006  0.280283  1
