# generated using pymatgen
data_Tb5NdDyFeI12
_symmetry_space_group_name_H-M   'P 1'
_cell_length_a   9.84374230
_cell_length_b   9.77356994
_cell_length_c   9.83693034
_cell_angle_alpha   106.80983664
_cell_angle_beta   106.89135697
_cell_angle_gamma   107.20705594
_symmetry_Int_Tables_number   1
_chemical_formula_structural   Tb5NdDyFeI12
_chemical_formula_sum   'Tb5 Nd1 Dy1 Fe1 I12'
_cell_volume   788.81637624
_cell_formula_units_Z   1
loop_
 _symmetry_equiv_pos_site_id
 _symmetry_equiv_pos_as_xyz
  1  'x, y, z'
loop_
 _atom_site_type_symbol
 _atom_site_label
 _atom_site_symmetry_multiplicity
 _atom_site_fract_x
 _atom_site_fract_y
 _atom_site_fract_z
 _atom_site_occupancy
  Tb  Tb0  1  0.022176  0.092320  0.292578  1
  Tb  Tb1  1  0.292817  0.022424  0.093804  1
  Tb  Tb2  1  0.910069  0.721196  0.978276  1
  Tb  Tb3  1  0.977024  0.904847  0.706782  1
  Tb  Tb4  1  0.706629  0.977231  0.906057  1
  Nd  Nd5  1  0.092093  0.286827  0.021986  1
  Dy  Dy6  1  0.499921  0.499316  0.500304  1
  Fe  Fe7  1  0.000498  0.001900  0.999681  1
  I  I8  1  0.469511  0.387129  0.165674  1
  I  I9  1  0.163755  0.464385  0.392064  1
  I  I10  1  0.385657  0.159859  0.462642  1
  I  I11  1  0.538790  0.613553  0.838612  1
  I  I12  1  0.837600  0.536685  0.616028  1
  I  I13  1  0.614385  0.838783  0.537078  1
  I  I14  1  0.768499  0.317617  0.926150  1
  I  I15  1  0.927368  0.772731  0.317734  1
  I  I16  1  0.319883  0.927896  0.775325  1
  I  I17  1  0.222956  0.682857  0.071530  1
  I  I18  1  0.070535  0.221215  0.673151  1
  I  I19  1  0.679834  0.071231  0.224545  1
