# generated using pymatgen
data_TmZr3(CuS4)2
_symmetry_space_group_name_H-M   'P 1'
_cell_length_a   7.51806691
_cell_length_b   7.51806672
_cell_length_c   7.51806829
_cell_angle_alpha   58.79315460
_cell_angle_beta   58.79315385
_cell_angle_gamma   58.79315228
_symmetry_Int_Tables_number   1
_chemical_formula_structural   TmZr3(CuS4)2
_chemical_formula_sum   'Tm1 Zr3 Cu2 S8'
_cell_volume   292.19021783
_cell_formula_units_Z   1
loop_
 _symmetry_equiv_pos_site_id
 _symmetry_equiv_pos_as_xyz
  1  'x, y, z'
loop_
 _atom_site_type_symbol
 _atom_site_label
 _atom_site_symmetry_multiplicity
 _atom_site_fract_x
 _atom_site_fract_y
 _atom_site_fract_z
 _atom_site_occupancy
  Tm  Tm0  1  0.500000  0.500000  0.500000  1
  Zr  Zr1  1  0.000000  0.500000  0.500000  1
  Zr  Zr2  1  0.500000  0.500000  0.000000  1
  Zr  Zr3  1  0.500000  0.000000  0.500000  1
  Cu  Cu4  1  0.124500  0.124500  0.124500  1
  Cu  Cu5  1  0.875500  0.875500  0.875500  1
  S  S6  1  0.749092  0.749092  0.749092  1
  S  S7  1  0.255952  0.753544  0.753544  1
  S  S8  1  0.753544  0.753544  0.255952  1
  S  S9  1  0.753544  0.255952  0.753544  1
  S  S10  1  0.250908  0.250908  0.250908  1
  S  S11  1  0.744048  0.246456  0.246456  1
  S  S12  1  0.246456  0.246456  0.744048  1
  S  S13  1  0.246456  0.744048  0.246456  1
