# generated using pymatgen
data_TmGePRu2
_symmetry_space_group_name_H-M   'P 1'
_cell_length_a   5.64764273
_cell_length_b   5.64764216
_cell_length_c   5.64764200
_cell_angle_alpha   136.92274130
_cell_angle_beta   136.92272773
_cell_angle_gamma   62.55695254
_symmetry_Int_Tables_number   1
_chemical_formula_structural   TmGePRu2
_chemical_formula_sum   'Tm1 Ge1 P1 Ru2'
_cell_volume   83.00189730
_cell_formula_units_Z   1
loop_
 _symmetry_equiv_pos_site_id
 _symmetry_equiv_pos_as_xyz
  1  'x, y, z'
loop_
 _atom_site_type_symbol
 _atom_site_label
 _atom_site_symmetry_multiplicity
 _atom_site_fract_x
 _atom_site_fract_y
 _atom_site_fract_z
 _atom_site_occupancy
  Tm  Tm0  1  0.998357  0.998357  0.000000  1
  Ge  Ge1  1  0.620373  0.620373  0.000000  1
  P  P2  1  0.365871  0.365871  0.000000  1
  Ru  Ru3  1  0.257699  0.757699  0.500000  1
  Ru  Ru4  1  0.757699  0.257699  0.500000  1
