# generated using pymatgen
data_Lu8Sc2(InBi)3
_symmetry_space_group_name_H-M   'P 1'
_cell_length_a   6.34053102
_cell_length_b   8.82070304
_cell_length_c   8.82000300
_cell_angle_alpha   119.99951165
_cell_angle_beta   90.00011004
_cell_angle_gamma   89.99361708
_symmetry_Int_Tables_number   1
_chemical_formula_structural   Lu8Sc2(InBi)3
_chemical_formula_sum   'Lu8 Sc2 In3 Bi3'
_cell_volume   427.19910208
_cell_formula_units_Z   1
loop_
 _symmetry_equiv_pos_site_id
 _symmetry_equiv_pos_as_xyz
  1  'x, y, z'
loop_
 _atom_site_type_symbol
 _atom_site_label
 _atom_site_symmetry_multiplicity
 _atom_site_fract_x
 _atom_site_fract_y
 _atom_site_fract_z
 _atom_site_occupancy
  Lu  Lu0  1  0.010055  0.666657  0.333220  1
  Lu  Lu1  1  0.009637  0.333347  0.666722  1
  Lu  Lu2  1  0.748901  0.234339  0.999951  1
  Lu  Lu3  1  0.748936  0.765434  0.765516  1
  Lu  Lu4  1  0.748945  0.999833  0.234377  1
  Lu  Lu5  1  0.249751  0.763157  0.000053  1
  Lu  Lu6  1  0.249882  0.236698  0.236710  1
  Lu  Lu7  1  0.249793  0.000141  0.763335  1
  Sc  Sc8  1  0.492320  0.332951  0.665701  1
  Sc  Sc9  1  0.493455  0.666757  0.334036  1
  In  In10  1  0.257537  0.395185  0.999937  1
  In  In11  1  0.256456  0.605483  0.605247  1
  In  In12  1  0.256846  0.000248  0.395321  1
  Bi  Bi13  1  0.742152  0.600203  0.999926  1
  Bi  Bi14  1  0.742776  0.399516  0.399534  1
  Bi  Bi15  1  0.742558  0.000057  0.600413  1
