# generated using pymatgen
data_Ho5ErCo14(P3Ir)4
_symmetry_space_group_name_H-M   'P 1'
_cell_length_a   3.73574100
_cell_length_b   10.67907307
_cell_length_c   12.40502908
_cell_angle_alpha   89.98722688
_cell_angle_beta   90.00000000
_cell_angle_gamma   90.00000000
_symmetry_Int_Tables_number   1
_chemical_formula_structural   Ho5ErCo14(P3Ir)4
_chemical_formula_sum   'Ho5 Er1 Co14 P12 Ir4'
_cell_volume   494.88933255
_cell_formula_units_Z   1
loop_
 _symmetry_equiv_pos_site_id
 _symmetry_equiv_pos_as_xyz
  1  'x, y, z'
loop_
 _atom_site_type_symbol
 _atom_site_label
 _atom_site_symmetry_multiplicity
 _atom_site_fract_x
 _atom_site_fract_y
 _atom_site_fract_z
 _atom_site_occupancy
  Ho  Ho0  1  0.750000  0.249967  0.479814  1
  Ho  Ho1  1  0.250000  0.750043  0.520121  1
  Ho  Ho2  1  0.250000  0.936611  0.793944  1
  Ho  Ho3  1  0.250000  0.563396  0.793922  1
  Ho  Ho4  1  0.750000  0.063333  0.206122  1
  Er  Er5  1  0.750000  0.436652  0.206193  1
  Co  Co6  1  0.750000  0.250109  0.011847  1
  Co  Co7  1  0.250000  0.749856  0.988328  1
  Co  Co8  1  0.250000  0.417613  0.006979  1
  Co  Co9  1  0.250000  0.082492  0.006803  1
  Co  Co10  1  0.750000  0.582296  0.993399  1
  Co  Co11  1  0.750000  0.917578  0.993268  1
  Co  Co12  1  0.250000  0.450093  0.570925  1
  Co  Co13  1  0.250000  0.049939  0.570989  1
  Co  Co14  1  0.750000  0.549827  0.428812  1
  Co  Co15  1  0.750000  0.950081  0.428957  1
  Co  Co16  1  0.250000  0.869286  0.288931  1
  Co  Co17  1  0.250000  0.630373  0.288772  1
  Co  Co18  1  0.750000  0.130692  0.711052  1
  Co  Co19  1  0.750000  0.369338  0.711019  1
  P  P20  1  0.250000  0.250154  0.110602  1
  P  P21  1  0.750000  0.749972  0.889458  1
  P  P22  1  0.250000  0.250030  0.649068  1
  P  P23  1  0.750000  0.750070  0.350886  1
  P  P24  1  0.250000  0.447585  0.386585  1
  P  P25  1  0.250000  0.052560  0.386758  1
  P  P26  1  0.750000  0.552398  0.613139  1
  P  P27  1  0.750000  0.947567  0.613163  1
  P  P28  1  0.250000  0.905182  0.105423  1
  P  P29  1  0.250000  0.594519  0.105670  1
  P  P30  1  0.750000  0.094822  0.894632  1
  P  P31  1  0.750000  0.405168  0.894542  1
  Ir  Ir32  1  0.250000  0.250089  0.839219  1
  Ir  Ir33  1  0.750000  0.749939  0.160826  1
  Ir  Ir34  1  0.250000  0.250398  0.296872  1
  Ir  Ir35  1  0.750000  0.749973  0.702959  1
