# generated using pymatgen
data_Tm4Al5Fe2Mo
_symmetry_space_group_name_H-M   'P 1'
_cell_length_a   5.49107600
_cell_length_b   5.47345069
_cell_length_c   8.51090500
_cell_angle_alpha   90.00000000
_cell_angle_beta   90.00000000
_cell_angle_gamma   120.10656676
_symmetry_Int_Tables_number   1
_chemical_formula_structural   Tm4Al5Fe2Mo
_chemical_formula_sum   'Tm4 Al5 Fe2 Mo1'
_cell_volume   221.28790395
_cell_formula_units_Z   1
loop_
 _symmetry_equiv_pos_site_id
 _symmetry_equiv_pos_as_xyz
  1  'x, y, z'
loop_
 _atom_site_type_symbol
 _atom_site_label
 _atom_site_symmetry_multiplicity
 _atom_site_fract_x
 _atom_site_fract_y
 _atom_site_fract_z
 _atom_site_occupancy
  Tm  Tm0  1  0.666647  0.333297  0.057067  1
  Tm  Tm1  1  0.666647  0.333297  0.442934  1
  Tm  Tm2  1  0.329653  0.659305  0.556957  1
  Tm  Tm3  1  0.329653  0.659305  0.943043  1
  Al  Al4  1  0.157932  0.823210  0.250000  1
  Al  Al5  1  0.665279  0.823210  0.250000  1
  Al  Al6  1  0.321554  0.159435  0.750000  1
  Al  Al7  1  0.837880  0.159435  0.750000  1
  Al  Al8  1  0.838477  0.676956  0.750000  1
  Fe  Fe9  1  0.013579  0.027159  0.008553  1
  Fe  Fe10  1  0.013579  0.027159  0.491447  1
  Mo  Mo11  1  0.159116  0.318232  0.250000  1
