# generated using pymatgen
data_K4Sb2MoF14
_symmetry_space_group_name_H-M   'P 1'
_cell_length_a   6.79868998
_cell_length_b   7.61532102
_cell_length_c   7.82385479
_cell_angle_alpha   92.03472040
_cell_angle_beta   91.22008515
_cell_angle_gamma   114.82704965
_symmetry_Int_Tables_number   1
_chemical_formula_structural   K4Sb2MoF14
_chemical_formula_sum   'K4 Sb2 Mo1 F14'
_cell_volume   367.11213417
_cell_formula_units_Z   1
loop_
 _symmetry_equiv_pos_site_id
 _symmetry_equiv_pos_as_xyz
  1  'x, y, z'
loop_
 _atom_site_type_symbol
 _atom_site_label
 _atom_site_symmetry_multiplicity
 _atom_site_fract_x
 _atom_site_fract_y
 _atom_site_fract_z
 _atom_site_occupancy
  K  K0  1  0.277039  0.545981  0.137748  1
  K  K1  1  0.852412  0.731522  0.404365  1
  K  K2  1  0.722961  0.454019  0.862252  1
  K  K3  1  0.147588  0.268478  0.595635  1
  Sb  Sb4  1  0.391436  0.809784  0.679330  1
  Sb  Sb5  1  0.608564  0.190216  0.320670  1
  Mo  Mo6  1  0.000000  0.000000  0.000000  1
  F  F7  1  0.922091  0.374804  0.333638  1
  F  F8  1  0.279027  0.116075  0.880503  1
  F  F9  1  0.428062  0.661089  0.478213  1
  F  F10  1  0.720973  0.883925  0.119497  1
  F  F11  1  0.941035  0.235570  0.944849  1
  F  F12  1  0.273899  0.940200  0.492696  1
  F  F13  1  0.058965  0.764430  0.055151  1
  F  F14  1  0.853669  0.867809  0.779862  1
  F  F15  1  0.077909  0.625196  0.666362  1
  F  F16  1  0.146331  0.132191  0.220138  1
  F  F17  1  0.403944  0.576702  0.809680  1
  F  F18  1  0.596056  0.423298  0.190320  1
  F  F19  1  0.726101  0.059800  0.507304  1
  F  F20  1  0.571938  0.338911  0.521787  1
