# generated using pymatgen
data_Dy5Ni7Mo2(P6Ru5)2
_symmetry_space_group_name_H-M   'P 1'
_cell_length_a   12.42746743
_cell_length_b   12.33232850
_cell_length_c   3.88112600
_cell_angle_alpha   90.00000000
_cell_angle_beta   90.00000000
_cell_angle_gamma   119.59712862
_symmetry_Int_Tables_number   1
_chemical_formula_structural   Dy5Ni7Mo2(P6Ru5)2
_chemical_formula_sum   'Dy5 Ni7 Mo2 P12 Ru10'
_cell_volume   517.20757597
_cell_formula_units_Z   1
loop_
 _symmetry_equiv_pos_site_id
 _symmetry_equiv_pos_as_xyz
  1  'x, y, z'
loop_
 _atom_site_type_symbol
 _atom_site_label
 _atom_site_symmetry_multiplicity
 _atom_site_fract_x
 _atom_site_fract_y
 _atom_site_fract_z
 _atom_site_occupancy
  Dy  Dy0  1  0.664424  0.332556  0.000000  1
  Dy  Dy1  1  0.335320  0.668247  0.000000  1
  Dy  Dy2  1  0.815833  0.001284  0.500000  1
  Dy  Dy3  1  0.185382  0.184557  0.500000  1
  Dy  Dy4  1  0.997749  0.815556  0.500000  1
  Ni  Ni5  1  0.631682  0.805621  0.000000  1
  Ni  Ni6  1  0.179227  0.370863  0.000000  1
  Ni  Ni7  1  0.366364  0.172764  0.000000  1
  Ni  Ni8  1  0.192133  0.824611  0.000000  1
  Ni  Ni9  1  0.805747  0.624039  0.000000  1
  Ni  Ni10  1  0.868624  0.514313  0.500000  1
  Ni  Ni11  1  0.998304  0.000352  0.000000  1
  Mo  Mo12  1  0.442439  0.996246  0.000000  1
  Mo  Mo13  1  0.554202  0.552233  0.000000  1
  P  P14  1  0.636653  0.001886  0.000000  1
  P  P15  1  0.364700  0.364027  0.000000  1
  P  P16  1  0.000243  0.639163  0.000000  1
  P  P17  1  0.682266  0.515963  0.500000  1
  P  P18  1  0.835165  0.315836  0.500000  1
  P  P19  1  0.320749  0.836147  0.500000  1
  P  P20  1  0.516479  0.676133  0.500000  1
  P  P21  1  0.171834  0.999919  0.000000  1
  P  P22  1  0.824706  0.825186  0.000000  1
  P  P23  1  0.002523  0.178271  0.000000  1
  P  P24  1  0.480536  0.159869  0.500000  1
  P  P25  1  0.164911  0.488770  0.500000  1
  Ru  Ru26  1  0.480779  0.348594  0.500000  1
  Ru  Ru27  1  0.643572  0.125183  0.500000  1
  Ru  Ru28  1  0.124937  0.652632  0.500000  1
  Ru  Ru29  1  0.347835  0.477038  0.500000  1
  Ru  Ru30  1  0.519072  0.866560  0.500000  1
  Ru  Ru31  1  0.722671  0.720770  0.500000  1
  Ru  Ru32  1  0.009926  0.288353  0.500000  1
  Ru  Ru33  1  0.008090  0.455901  0.000000  1
  Ru  Ru34  1  0.827989  0.202790  0.000000  1
  Ru  Ru35  1  0.276935  0.997768  0.500000  1
