# generated using pymatgen
data_Gd4Hf3AlPt4
_symmetry_space_group_name_H-M   'P 1'
_cell_length_a   4.65121900
_cell_length_b   7.11543450
_cell_length_c   8.33776000
_cell_angle_alpha   87.25785384
_cell_angle_beta   90.00000000
_cell_angle_gamma   90.00000000
_symmetry_Int_Tables_number   1
_chemical_formula_structural   Gd4Hf3AlPt4
_chemical_formula_sum   'Gd4 Hf3 Al1 Pt4'
_cell_volume   275.62590419
_cell_formula_units_Z   1
loop_
 _symmetry_equiv_pos_site_id
 _symmetry_equiv_pos_as_xyz
  1  'x, y, z'
loop_
 _atom_site_type_symbol
 _atom_site_label
 _atom_site_symmetry_multiplicity
 _atom_site_fract_x
 _atom_site_fract_y
 _atom_site_fract_z
 _atom_site_occupancy
  Gd  Gd0  1  0.250000  0.511696  0.162418  1
  Gd  Gd1  1  0.750000  0.458867  0.828530  1
  Gd  Gd2  1  0.750000  0.981948  0.685509  1
  Gd  Gd3  1  0.250000  0.026830  0.312056  1
  Hf  Hf4  1  0.250000  0.644808  0.576628  1
  Hf  Hf5  1  0.750000  0.363106  0.429354  1
  Hf  Hf6  1  0.750000  0.860873  0.063391  1
  Al  Al7  1  0.250000  0.140015  0.927353  1
  Pt  Pt8  1  0.250000  0.776717  0.890665  1
  Pt  Pt9  1  0.750000  0.228427  0.121259  1
  Pt  Pt10  1  0.750000  0.731399  0.400055  1
  Pt  Pt11  1  0.250000  0.275313  0.602782  1
