# generated using pymatgen
data_Er2Co12AsP6
_symmetry_space_group_name_H-M   'P 1'
_cell_length_a   9.06550400
_cell_length_b   9.06550371
_cell_length_c   3.56874500
_cell_angle_alpha   90.00000000
_cell_angle_beta   90.00000000
_cell_angle_gamma   119.99999377
_symmetry_Int_Tables_number   1
_chemical_formula_structural   Er2Co12AsP6
_chemical_formula_sum   'Er2 Co12 As1 P6'
_cell_volume   253.99786708
_cell_formula_units_Z   1
loop_
 _symmetry_equiv_pos_site_id
 _symmetry_equiv_pos_as_xyz
  1  'x, y, z'
loop_
 _atom_site_type_symbol
 _atom_site_label
 _atom_site_symmetry_multiplicity
 _atom_site_fract_x
 _atom_site_fract_y
 _atom_site_fract_z
 _atom_site_occupancy
  Er  Er0  1  0.666667  0.333333  0.500000  1
  Er  Er1  1  0.333333  0.666667  0.000000  1
  Co  Co2  1  0.123837  0.840321  0.000000  1
  Co  Co3  1  0.385466  0.438404  0.500000  1
  Co  Co4  1  0.716484  0.876163  0.000000  1
  Co  Co5  1  0.561596  0.947062  0.500000  1
  Co  Co6  1  0.248585  0.109401  0.500000  1
  Co  Co7  1  0.860816  0.751415  0.500000  1
  Co  Co8  1  0.890599  0.139184  0.500000  1
  Co  Co9  1  0.938661  0.374909  0.000000  1
  Co  Co10  1  0.625091  0.563752  0.000000  1
  Co  Co11  1  0.436248  0.061339  0.000000  1
  Co  Co12  1  0.052938  0.614534  0.500000  1
  Co  Co13  1  0.159679  0.283516  0.000000  1
  As  As14  1  0.000000  0.000000  0.000000  1
  P  P15  1  0.595355  0.708124  0.500000  1
  P  P16  1  0.705687  0.113563  0.000000  1
  P  P17  1  0.886437  0.592123  0.000000  1
  P  P18  1  0.407877  0.294313  0.000000  1
  P  P19  1  0.291876  0.887232  0.500000  1
  P  P20  1  0.112768  0.404645  0.500000  1
