# generated using pymatgen
data_Sc5Ta3(FeB6)4
_symmetry_space_group_name_H-M   'P 1'
_cell_length_a   3.31476200
_cell_length_b   8.75269107
_cell_length_c   11.04217282
_cell_angle_alpha   90.02558759
_cell_angle_beta   90.00000000
_cell_angle_gamma   90.00000000
_symmetry_Int_Tables_number   1
_chemical_formula_structural   Sc5Ta3(FeB6)4
_chemical_formula_sum   'Sc5 Ta3 Fe4 B24'
_cell_volume   320.36749721
_cell_formula_units_Z   1
loop_
 _symmetry_equiv_pos_site_id
 _symmetry_equiv_pos_as_xyz
  1  'x, y, z'
loop_
 _atom_site_type_symbol
 _atom_site_label
 _atom_site_symmetry_multiplicity
 _atom_site_fract_x
 _atom_site_fract_y
 _atom_site_fract_z
 _atom_site_occupancy
  Sc  Sc0  1  0.000000  0.176437  0.912209  1
  Sc  Sc1  1  0.000000  0.823632  0.085652  1
  Sc  Sc2  1  0.000000  0.676298  0.587567  1
  Sc  Sc3  1  0.000000  0.323321  0.415285  1
  Sc  Sc4  1  0.000000  0.444265  0.129169  1
  Ta  Ta5  1  0.000000  0.944784  0.372682  1
  Ta  Ta6  1  0.000000  0.054834  0.627651  1
  Ta  Ta7  1  0.000000  0.555323  0.871016  1
  Fe  Fe8  1  0.000000  0.142360  0.184004  1
  Fe  Fe9  1  0.000000  0.355144  0.680360  1
  Fe  Fe10  1  0.000000  0.857062  0.817370  1
  Fe  Fe11  1  0.000000  0.645289  0.319089  1
  B  B12  1  0.500000  0.368131  0.817580  1
  B  B13  1  0.500000  0.981915  0.211215  1
  B  B14  1  0.500000  0.554141  0.434662  1
  B  B15  1  0.500000  0.296071  0.237491  1
  B  B16  1  0.500000  0.203109  0.737942  1
  B  B17  1  0.500000  0.102469  0.472793  1
  B  B18  1  0.500000  0.796180  0.262212  1
  B  B19  1  0.500000  0.446411  0.564965  1
  B  B20  1  0.500000  0.249266  0.580690  1
  B  B21  1  0.500000  0.483997  0.288897  1
  B  B22  1  0.500000  0.703296  0.761817  1
  B  B23  1  0.500000  0.750511  0.419480  1
  B  B24  1  0.500000  0.517436  0.710555  1
  B  B25  1  0.500000  0.897690  0.527290  1
  B  B26  1  0.500000  0.053880  0.065534  1
  B  B27  1  0.500000  0.602516  0.025880  1
  B  B28  1  0.500000  0.748899  0.918982  1
  B  B29  1  0.500000  0.018285  0.789137  1
  B  B30  1  0.500000  0.398290  0.971701  1
  B  B31  1  0.500000  0.946077  0.934830  1
  B  B32  1  0.500000  0.632392  0.182840  1
  B  B33  1  0.500000  0.250077  0.081681  1
  B  B34  1  0.500000  0.868029  0.682492  1
  B  B35  1  0.500000  0.132184  0.317282  1
