# generated using pymatgen
data_Sc2P7(Ru5Rh)2
_symmetry_space_group_name_H-M   'P 1'
_cell_length_a   9.35692079
_cell_length_b   9.42588169
_cell_length_c   3.90278600
_cell_angle_alpha   90.00000000
_cell_angle_beta   90.00000000
_cell_angle_gamma   120.20568224
_symmetry_Int_Tables_number   1
_chemical_formula_structural   Sc2P7(Ru5Rh)2
_chemical_formula_sum   'Sc2 P7 Ru10 Rh2'
_cell_volume   297.47909811
_cell_formula_units_Z   1
loop_
 _symmetry_equiv_pos_site_id
 _symmetry_equiv_pos_as_xyz
  1  'x, y, z'
loop_
 _atom_site_type_symbol
 _atom_site_label
 _atom_site_symmetry_multiplicity
 _atom_site_fract_x
 _atom_site_fract_y
 _atom_site_fract_z
 _atom_site_occupancy
  Sc  Sc0  1  0.669206  0.333786  0.500000  1
  Sc  Sc1  1  0.327017  0.664273  0.000000  1
  P  P2  1  0.598624  0.716531  0.500000  1
  P  P3  1  0.000338  0.002187  0.000000  1
  P  P4  1  0.279101  0.878312  0.500000  1
  P  P5  1  0.117880  0.404661  0.500000  1
  P  P6  1  0.881869  0.574278  0.000000  1
  P  P7  1  0.426672  0.302193  0.000000  1
  P  P8  1  0.697809  0.121152  0.000000  1
  Ru  Ru9  1  0.913965  0.126548  0.500000  1
  Ru  Ru10  1  0.214525  0.087660  0.500000  1
  Ru  Ru11  1  0.875110  0.790153  0.500000  1
  Ru  Ru12  1  0.723254  0.889133  0.000000  1
  Ru  Ru13  1  0.109237  0.837439  0.000000  1
  Ru  Ru14  1  0.167231  0.275988  0.000000  1
  Ru  Ru15  1  0.432352  0.066429  0.000000  1
  Ru  Ru16  1  0.933950  0.362859  0.000000  1
  Ru  Ru17  1  0.637317  0.568427  0.000000  1
  Ru  Ru18  1  0.053726  0.609036  0.500000  1
  Rh  Rh19  1  0.548786  0.940253  0.500000  1
  Rh  Rh20  1  0.392033  0.448700  0.500000  1
