# generated using pymatgen
data_SmCo4As3Ru
_symmetry_space_group_name_H-M   'P 1'
_cell_length_a   3.85500900
_cell_length_b   10.83426900
_cell_length_c   12.29393900
_cell_angle_alpha   90.00000000
_cell_angle_beta   90.00000000
_cell_angle_gamma   90.00000000
_symmetry_Int_Tables_number   1
_chemical_formula_structural   SmCo4As3Ru
_chemical_formula_sum   'Sm4 Co16 As12 Ru4'
_cell_volume   513.47117043
_cell_formula_units_Z   4
loop_
 _symmetry_equiv_pos_site_id
 _symmetry_equiv_pos_as_xyz
  1  'x, y, z'
loop_
 _atom_site_type_symbol
 _atom_site_label
 _atom_site_symmetry_multiplicity
 _atom_site_fract_x
 _atom_site_fract_y
 _atom_site_fract_z
 _atom_site_occupancy
  Sm  Sm0  1  0.250000  0.583644  0.702793  1
  Sm  Sm1  1  0.250000  0.916356  0.202793  1
  Sm  Sm2  1  0.750000  0.416356  0.297207  1
  Sm  Sm3  1  0.750000  0.083644  0.797207  1
  Co  Co4  1  0.250000  0.405835  0.489142  1
  Co  Co5  1  0.250000  0.094165  0.989142  1
  Co  Co6  1  0.750000  0.594165  0.510858  1
  Co  Co7  1  0.750000  0.905835  0.010858  1
  Co  Co8  1  0.250000  0.217577  0.175346  1
  Co  Co9  1  0.250000  0.282423  0.675346  1
  Co  Co10  1  0.750000  0.782423  0.824654  1
  Co  Co11  1  0.750000  0.717577  0.324654  1
  Co  Co12  1  0.250000  0.884522  0.699968  1
  Co  Co13  1  0.250000  0.615478  0.199968  1
  Co  Co14  1  0.750000  0.115478  0.300032  1
  Co  Co15  1  0.750000  0.384522  0.800032  1
  Co  Co16  1  0.250000  0.465866  0.931910  1
  Co  Co17  1  0.250000  0.034134  0.431910  1
  Co  Co18  1  0.750000  0.534134  0.068090  1
  Co  Co19  1  0.750000  0.965866  0.568090  1
  As  As20  1  0.250000  0.418537  0.113507  1
  As  As21  1  0.250000  0.081463  0.613507  1
  As  As22  1  0.750000  0.581463  0.886493  1
  As  As23  1  0.750000  0.918537  0.386493  1
  As  As24  1  0.250000  0.270587  0.866873  1
  As  As25  1  0.250000  0.229413  0.366873  1
  As  As26  1  0.750000  0.729413  0.133127  1
  As  As27  1  0.750000  0.770587  0.633127  1
  As  As28  1  0.250000  0.597866  0.391351  1
  As  As29  1  0.250000  0.902134  0.891351  1
  As  As30  1  0.750000  0.402134  0.608649  1
  As  As31  1  0.750000  0.097866  0.108649  1
  Ru  Ru32  1  0.250000  0.708252  0.989380  1
  Ru  Ru33  1  0.250000  0.791748  0.489380  1
  Ru  Ru34  1  0.750000  0.291748  0.010620  1
  Ru  Ru35  1  0.750000  0.208252  0.510620  1
