# generated using pymatgen
data_HfSc2As2PRu3
_symmetry_space_group_name_H-M   'P 1'
_cell_length_a   7.63454377
_cell_length_b   7.63454401
_cell_length_c   7.63454461
_cell_angle_alpha   127.79288152
_cell_angle_beta   122.12745974
_cell_angle_gamma   81.68511136
_symmetry_Int_Tables_number   1
_chemical_formula_structural   HfSc2As2PRu3
_chemical_formula_sum   'Hf2 Sc4 As4 P2 Ru6'
_cell_volume   286.66193859
_cell_formula_units_Z   2
loop_
 _symmetry_equiv_pos_site_id
 _symmetry_equiv_pos_as_xyz
  1  'x, y, z'
loop_
 _atom_site_type_symbol
 _atom_site_label
 _atom_site_symmetry_multiplicity
 _atom_site_fract_x
 _atom_site_fract_y
 _atom_site_fract_z
 _atom_site_occupancy
  Hf  Hf0  1  0.052383  0.256585  0.704202  1
  Hf  Hf1  1  0.947617  0.651819  0.204202  1
  Sc  Sc2  1  0.462779  0.680898  0.718119  1
  Sc  Sc3  1  0.537221  0.255340  0.218119  1
  Sc  Sc4  1  0.749321  0.842191  0.592870  1
  Sc  Sc5  1  0.250679  0.843550  0.092870  1
  As  As6  1  0.332704  0.588760  0.253236  1
  As  As7  1  0.667296  0.920532  0.256056  1
  As  As8  1  0.164475  0.920532  0.753236  1
  As  As9  1  0.835525  0.588760  0.756056  1
  P  P10  1  0.271885  0.266661  0.494778  1
  P  P11  1  0.728115  0.222894  0.994778  1
  Ru  Ru12  1  0.500000  0.489544  0.989544  1
  Ru  Ru13  1  0.000000  0.489544  0.489544  1
  Ru  Ru14  1  0.092941  0.255215  0.108722  1
  Ru  Ru15  1  0.907059  0.015781  0.162274  1
  Ru  Ru16  1  0.353507  0.015781  0.608722  1
  Ru  Ru17  1  0.646493  0.255215  0.662274  1
