# generated using pymatgen
data_In2Co2NiS2
_symmetry_space_group_name_H-M   'P 1'
_cell_length_a   5.56097815
_cell_length_b   5.48043087
_cell_length_c   5.48042941
_cell_angle_alpha   58.43017506
_cell_angle_beta   57.80590349
_cell_angle_gamma   57.80589843
_symmetry_Int_Tables_number   1
_chemical_formula_structural   In2Co2NiS2
_chemical_formula_sum   'In2 Co2 Ni1 S2'
_cell_volume   112.71467277
_cell_formula_units_Z   1
loop_
 _symmetry_equiv_pos_site_id
 _symmetry_equiv_pos_as_xyz
  1  'x, y, z'
loop_
 _atom_site_type_symbol
 _atom_site_label
 _atom_site_symmetry_multiplicity
 _atom_site_fract_x
 _atom_site_fract_y
 _atom_site_fract_z
 _atom_site_occupancy
  In  In0  1  0.500000  0.500000  0.500000  1
  In  In1  1  0.000000  0.000000  0.000000  1
  Co  Co2  1  0.000000  0.000000  0.500000  1
  Co  Co3  1  0.000000  0.500000  0.000000  1
  Ni  Ni4  1  0.500000  0.000000  0.000000  1
  S  S5  1  0.730529  0.719739  0.719739  1
  S  S6  1  0.269471  0.280261  0.280261  1
