# generated using pymatgen
data_CsHo10(C2I9)2
_symmetry_space_group_name_H-M   'P 1'
_cell_length_a   11.48671679
_cell_length_b   11.48922488
_cell_length_c   11.47815590
_cell_angle_alpha   113.21662487
_cell_angle_beta   86.68105313
_cell_angle_gamma   120.15993228
_symmetry_Int_Tables_number   1
_chemical_formula_structural   CsHo10(C2I9)2
_chemical_formula_sum   'Cs1 Ho10 C4 I18'
_cell_volume   1184.81085881
_cell_formula_units_Z   1
loop_
 _symmetry_equiv_pos_site_id
 _symmetry_equiv_pos_as_xyz
  1  'x, y, z'
loop_
 _atom_site_type_symbol
 _atom_site_label
 _atom_site_symmetry_multiplicity
 _atom_site_fract_x
 _atom_site_fract_y
 _atom_site_fract_z
 _atom_site_occupancy
  Cs  Cs0  1  0.500000  0.000000  0.500000  1
  Ho  Ho1  1  0.681798  0.726723  0.714073  1
  Ho  Ho2  1  0.275530  0.350598  0.015203  1
  Ho  Ho3  1  0.093153  0.386366  0.288892  1
  Ho  Ho4  1  0.964650  0.037634  0.322216  1
  Ho  Ho5  1  0.906847  0.613634  0.711108  1
  Ho  Ho6  1  0.103144  0.945328  0.000686  1
  Ho  Ho7  1  0.035350  0.962366  0.677784  1
  Ho  Ho8  1  0.318202  0.273277  0.285927  1
  Ho  Ho9  1  0.724470  0.649402  0.984797  1
  Ho  Ho10  1  0.896856  0.054672  0.999314  1
  C  C11  1  0.151056  0.218270  0.119024  1
  C  C12  1  0.848944  0.781730  0.880976  1
  C  C13  1  0.925248  0.858245  0.804581  1
  C  C14  1  0.074752  0.141755  0.195419  1
  I  I15  1  0.452383  0.531358  0.832632  1
  I  I16  1  0.381088  0.041218  0.157432  1
  I  I17  1  0.779719  0.855637  0.502738  1
  I  I18  1  0.839799  0.308109  0.152552  1
  I  I19  1  0.547617  0.468642  0.167368  1
  I  I20  1  0.220281  0.144363  0.497262  1
  I  I21  1  0.315320  0.096501  0.830399  1
  I  I22  1  0.684680  0.903499  0.169601  1
  I  I23  1  0.973941  0.757482  0.169042  1
  I  I24  1  0.935258  0.297414  0.498763  1
  I  I25  1  0.026059  0.242518  0.830958  1
  I  I26  1  0.064742  0.702586  0.501237  1
  I  I27  1  0.259046  0.618073  0.181850  1
  I  I28  1  0.740954  0.381927  0.818150  1
  I  I29  1  0.644708  0.438682  0.503619  1
  I  I30  1  0.160201  0.691891  0.847448  1
  I  I31  1  0.618912  0.958782  0.842568  1
  I  I32  1  0.355292  0.561318  0.496381  1
