# generated using pymatgen
data_Na12GeAs7Pt8
_symmetry_space_group_name_H-M   'P 1'
_cell_length_a   5.84565700
_cell_length_b   7.80314892
_cell_length_c   13.14461602
_cell_angle_alpha   90.09438248
_cell_angle_beta   90.00000000
_cell_angle_gamma   90.00000000
_symmetry_Int_Tables_number   1
_chemical_formula_structural   Na12GeAs7Pt8
_chemical_formula_sum   'Na12 Ge1 As7 Pt8'
_cell_volume   599.58469602
_cell_formula_units_Z   1
loop_
 _symmetry_equiv_pos_site_id
 _symmetry_equiv_pos_as_xyz
  1  'x, y, z'
loop_
 _atom_site_type_symbol
 _atom_site_label
 _atom_site_symmetry_multiplicity
 _atom_site_fract_x
 _atom_site_fract_y
 _atom_site_fract_z
 _atom_site_occupancy
  Na  Na0  1  0.648540  0.224256  0.250754  1
  Na  Na1  1  0.350578  0.776154  0.749021  1
  Na  Na2  1  0.350578  0.723846  0.250979  1
  Na  Na3  1  0.648540  0.275744  0.749246  1
  Na  Na4  1  0.127402  0.379621  0.103648  1
  Na  Na5  1  0.873965  0.621475  0.895286  1
  Na  Na6  1  0.874127  0.621421  0.604217  1
  Na  Na7  1  0.874127  0.878579  0.395783  1
  Na  Na8  1  0.126470  0.379572  0.397426  1
  Na  Na9  1  0.126470  0.120428  0.602574  1
  Na  Na10  1  0.127402  0.120379  0.896352  1
  Na  Na11  1  0.873965  0.878525  0.104714  1
  Ge  Ge12  1  0.605703  0.250000  0.500000  1
  As  As13  1  0.157713  0.077004  0.249025  1
  As  As14  1  0.842567  0.930194  0.749530  1
  As  As15  1  0.842567  0.569806  0.250470  1
  As  As16  1  0.157713  0.422996  0.750975  1
  As  As17  1  0.617957  0.250000  0.000000  1
  As  As18  1  0.384580  0.750000  0.000000  1
  As  As19  1  0.384676  0.750000  0.500000  1
  Pt  Pt20  1  0.382735  0.036613  0.092441  1
  Pt  Pt21  1  0.619250  0.962549  0.906635  1
  Pt  Pt22  1  0.622916  0.967561  0.590909  1
  Pt  Pt23  1  0.622916  0.532439  0.409091  1
  Pt  Pt24  1  0.377279  0.030980  0.405174  1
  Pt  Pt25  1  0.377279  0.469020  0.594826  1
  Pt  Pt26  1  0.382735  0.463387  0.907559  1
  Pt  Pt27  1  0.619250  0.537451  0.093365  1
