# generated using pymatgen
data_Pr6Nd6Ir3Pd
_symmetry_space_group_name_H-M   'P 1'
_cell_length_a   6.60728877
_cell_length_b   7.39731869
_cell_length_c   9.94363024
_cell_angle_alpha   90.01445640
_cell_angle_beta   90.13727514
_cell_angle_gamma   90.21408852
_symmetry_Int_Tables_number   1
_chemical_formula_structural   Pr6Nd6Ir3Pd
_chemical_formula_sum   'Pr6 Nd6 Ir3 Pd1'
_cell_volume   486.00226160
_cell_formula_units_Z   1
loop_
 _symmetry_equiv_pos_site_id
 _symmetry_equiv_pos_as_xyz
  1  'x, y, z'
loop_
 _atom_site_type_symbol
 _atom_site_label
 _atom_site_symmetry_multiplicity
 _atom_site_fract_x
 _atom_site_fract_y
 _atom_site_fract_z
 _atom_site_occupancy
  Pr  Pr0  1  0.335457  0.671482  0.062504  1
  Pr  Pr1  1  0.170642  0.181323  0.437971  1
  Pr  Pr2  1  0.856280  0.524411  0.250067  1
  Pr  Pr3  1  0.630941  0.036486  0.249836  1
  Pr  Pr4  1  0.138647  0.465057  0.749999  1
  Pr  Pr5  1  0.361645  0.965581  0.750032  1
  Nd  Nd6  1  0.672521  0.324754  0.566280  1
  Nd  Nd7  1  0.829241  0.825125  0.931551  1
  Nd  Nd8  1  0.672635  0.324611  0.933768  1
  Nd  Nd9  1  0.829085  0.824901  0.568319  1
  Nd  Nd10  1  0.335498  0.671332  0.437213  1
  Nd  Nd11  1  0.170789  0.181428  0.062478  1
  Ir  Ir12  1  0.432948  0.382036  0.250186  1
  Ir  Ir13  1  0.933678  0.118545  0.750519  1
  Ir  Ir14  1  0.562561  0.618106  0.749397  1
  Pd  Pd15  1  0.067431  0.884821  0.249879  1
