# generated using pymatgen
data_CsTc12Br25
_symmetry_space_group_name_H-M   'P 1'
_cell_length_a   10.44762810
_cell_length_b   11.25714595
_cell_length_c   12.01684390
_cell_angle_alpha   81.09805676
_cell_angle_beta   72.49452478
_cell_angle_gamma   86.33813468
_symmetry_Int_Tables_number   1
_chemical_formula_structural   CsTc12Br25
_chemical_formula_sum   'Cs1 Tc12 Br25'
_cell_volume   1331.39348309
_cell_formula_units_Z   1
loop_
 _symmetry_equiv_pos_site_id
 _symmetry_equiv_pos_as_xyz
  1  'x, y, z'
loop_
 _atom_site_type_symbol
 _atom_site_label
 _atom_site_symmetry_multiplicity
 _atom_site_fract_x
 _atom_site_fract_y
 _atom_site_fract_z
 _atom_site_occupancy
  Cs  Cs0  1  0.500000  0.000000  0.000000  1
  Tc  Tc1  1  0.838056  0.262503  0.130310  1
  Tc  Tc2  1  0.161944  0.737497  0.869690  1
  Tc  Tc3  1  0.767124  0.127953  0.287891  1
  Tc  Tc4  1  0.232876  0.872047  0.712109  1
  Tc  Tc5  1  0.062908  0.282289  0.192255  1
  Tc  Tc6  1  0.937092  0.717711  0.807745  1
  Tc  Tc7  1  0.848786  0.427805  0.266607  1
  Tc  Tc8  1  0.151214  0.572195  0.733393  1
  Tc  Tc9  1  0.777048  0.294362  0.425680  1
  Tc  Tc10  1  0.222952  0.705638  0.574320  1
  Tc  Tc11  1  0.990715  0.148586  0.350819  1
  Tc  Tc12  1  0.009285  0.851414  0.649181  1
  Br  Br13  1  0.948331  0.971218  0.265871  1
  Br  Br14  1  0.051669  0.028782  0.734129  1
  Br  Br15  1  0.966365  0.270309  0.513170  1
  Br  Br16  1  0.033635  0.729691  0.486830  1
  Br  Br17  1  0.662826  0.424966  0.174333  1
  Br  Br18  1  0.337174  0.575034  0.825667  1
  Br  Br19  1  0.078375  0.468217  0.276666  1
  Br  Br20  1  0.921625  0.531783  0.723334  1
  Br  Br21  1  0.000000  0.500000  0.000000  1
  Br  Br22  1  0.618670  0.975515  0.258294  1
  Br  Br23  1  0.381330  0.024485  0.741706  1
  Br  Br24  1  0.190764  0.039092  0.399341  1
  Br  Br25  1  0.809236  0.960908  0.600659  1
  Br  Br26  1  0.563028  0.221151  0.412411  1
  Br  Br27  1  0.436972  0.778849  0.587589  1
  Br  Br28  1  0.059721  0.172299  0.027778  1
  Br  Br29  1  0.940279  0.827701  0.972222  1
  Br  Br30  1  0.776500  0.634635  0.311004  1
  Br  Br31  1  0.223500  0.365365  0.688996  1
  Br  Br32  1  0.753368  0.225580  0.962538  1
  Br  Br33  1  0.246632  0.774420  0.037462  1
  Br  Br34  1  0.315105  0.275841  0.119568  1
  Br  Br35  1  0.684895  0.724159  0.880432  1
  Br  Br36  1  0.646291  0.396574  0.594348  1
  Br  Br37  1  0.353709  0.603426  0.405652  1
