# generated using pymatgen
data_CaEu(Sn2Pd)2
_symmetry_space_group_name_H-M   'P 1'
_cell_length_a   6.11569148
_cell_length_b   6.11569135
_cell_length_c   7.61479300
_cell_angle_alpha   90.00000000
_cell_angle_beta   90.00000000
_cell_angle_gamma   136.76259670
_symmetry_Int_Tables_number   1
_chemical_formula_structural   CaEu(Sn2Pd)2
_chemical_formula_sum   'Ca1 Eu1 Sn4 Pd2'
_cell_volume   195.09865736
_cell_formula_units_Z   1
loop_
 _symmetry_equiv_pos_site_id
 _symmetry_equiv_pos_as_xyz
  1  'x, y, z'
loop_
 _atom_site_type_symbol
 _atom_site_label
 _atom_site_symmetry_multiplicity
 _atom_site_fract_x
 _atom_site_fract_y
 _atom_site_fract_z
 _atom_site_occupancy
  Ca  Ca0  1  0.069753  0.930247  0.250000  1
  Eu  Eu1  1  0.930610  0.069390  0.750000  1
  Sn  Sn2  1  0.642567  0.357433  0.954434  1
  Sn  Sn3  1  0.356532  0.643468  0.046791  1
  Sn  Sn4  1  0.356532  0.643468  0.453209  1
  Sn  Sn5  1  0.642567  0.357433  0.545566  1
  Pd  Pd6  1  0.205192  0.794808  0.750000  1
  Pd  Pd7  1  0.796248  0.203752  0.250000  1
