# generated using pymatgen
data_PrTh(Co5P3)2
_symmetry_space_group_name_H-M   'P 1'
_cell_length_a   3.71587000
_cell_length_b   10.42564200
_cell_length_c   11.81500800
_cell_angle_alpha   90.00000000
_cell_angle_beta   90.00000000
_cell_angle_gamma   90.00000000
_symmetry_Int_Tables_number   1
_chemical_formula_structural   PrTh(Co5P3)2
_chemical_formula_sum   'Pr2 Th2 Co20 P12'
_cell_volume   457.71731287
_cell_formula_units_Z   2
loop_
 _symmetry_equiv_pos_site_id
 _symmetry_equiv_pos_as_xyz
  1  'x, y, z'
loop_
 _atom_site_type_symbol
 _atom_site_label
 _atom_site_symmetry_multiplicity
 _atom_site_fract_x
 _atom_site_fract_y
 _atom_site_fract_z
 _atom_site_occupancy
  Pr  Pr0  1  0.750000  0.416383  0.299165  1
  Pr  Pr1  1  0.750000  0.083617  0.799165  1
  Th  Th2  1  0.250000  0.583417  0.701330  1
  Th  Th3  1  0.250000  0.916583  0.201330  1
  Co  Co4  1  0.250000  0.714586  0.989534  1
  Co  Co5  1  0.250000  0.785414  0.489534  1
  Co  Co6  1  0.750000  0.286027  0.006821  1
  Co  Co7  1  0.750000  0.213973  0.506821  1
  Co  Co8  1  0.250000  0.406807  0.491452  1
  Co  Co9  1  0.250000  0.093193  0.991452  1
  Co  Co10  1  0.750000  0.595782  0.512545  1
  Co  Co11  1  0.750000  0.904218  0.012545  1
  Co  Co12  1  0.250000  0.221345  0.176025  1
  Co  Co13  1  0.250000  0.278655  0.676025  1
  Co  Co14  1  0.750000  0.777643  0.823763  1
  Co  Co15  1  0.750000  0.722357  0.323763  1
  Co  Co16  1  0.250000  0.882177  0.697014  1
  Co  Co17  1  0.250000  0.617823  0.197014  1
  Co  Co18  1  0.750000  0.113947  0.301389  1
  Co  Co19  1  0.750000  0.386053  0.801389  1
  Co  Co20  1  0.250000  0.469557  0.932033  1
  Co  Co21  1  0.250000  0.030443  0.432033  1
  Co  Co22  1  0.750000  0.528697  0.067967  1
  Co  Co23  1  0.750000  0.971303  0.567967  1
  P  P24  1  0.250000  0.417603  0.110225  1
  P  P25  1  0.250000  0.082397  0.610225  1
  P  P26  1  0.750000  0.582817  0.892104  1
  P  P27  1  0.750000  0.917183  0.392104  1
  P  P28  1  0.250000  0.276123  0.870216  1
  P  P29  1  0.250000  0.223877  0.370216  1
  P  P30  1  0.750000  0.721276  0.129304  1
  P  P31  1  0.750000  0.778724  0.629304  1
  P  P32  1  0.250000  0.605533  0.392578  1
  P  P33  1  0.250000  0.894467  0.892578  1
  P  P34  1  0.750000  0.391739  0.606536  1
  P  P35  1  0.750000  0.108261  0.106536  1
