# generated using pymatgen
data_LiTb12Dy4Cd3Co4
_symmetry_space_group_name_H-M   'P 1'
_cell_length_a   9.51115336
_cell_length_b   9.51032194
_cell_length_c   9.55532376
_cell_angle_alpha   60.11447021
_cell_angle_beta   60.11973163
_cell_angle_gamma   60.02788922
_symmetry_Int_Tables_number   1
_chemical_formula_structural   LiTb12Dy4Cd3Co4
_chemical_formula_sum   'Li1 Tb12 Dy4 Cd3 Co4'
_cell_volume   612.37438410
_cell_formula_units_Z   1
loop_
 _symmetry_equiv_pos_site_id
 _symmetry_equiv_pos_as_xyz
  1  'x, y, z'
loop_
 _atom_site_type_symbol
 _atom_site_label
 _atom_site_symmetry_multiplicity
 _atom_site_fract_x
 _atom_site_fract_y
 _atom_site_fract_z
 _atom_site_occupancy
  Li  Li0  1  0.822206  0.822252  0.532688  1
  Tb  Tb1  1  0.437815  0.061952  0.060637  1
  Tb  Tb2  1  0.813245  0.188073  0.812193  1
  Tb  Tb3  1  0.435529  0.062048  0.436915  1
  Tb  Tb4  1  0.595889  0.214395  0.597008  1
  Tb  Tb5  1  0.811493  0.811194  0.187980  1
  Tb  Tb6  1  0.214271  0.596053  0.597133  1
  Tb  Tb7  1  0.811519  0.190059  0.187879  1
  Tb  Tb8  1  0.062133  0.435692  0.436644  1
  Tb  Tb9  1  0.190150  0.811552  0.187470  1
  Tb  Tb10  1  0.597054  0.597138  0.208735  1
  Tb  Tb11  1  0.187745  0.187353  0.812413  1
  Tb  Tb12  1  0.061991  0.438036  0.060431  1
  Dy  Dy13  1  0.438972  0.439342  0.058893  1
  Dy  Dy14  1  0.593669  0.593827  0.595980  1
  Dy  Dy15  1  0.188365  0.812936  0.812110  1
  Dy  Dy16  1  0.063508  0.063335  0.435268  1
  Cd  Cd17  1  0.831625  0.831313  0.826859  1
  Cd  Cd18  1  0.508532  0.830900  0.827761  1
  Cd  Cd19  1  0.830843  0.508803  0.827774  1
  Co  Co20  1  0.391650  0.391583  0.389050  1
  Co  Co21  1  0.827741  0.392212  0.390394  1
  Co  Co22  1  0.392075  0.827647  0.390689  1
  Co  Co23  1  0.391983  0.392309  0.827093  1
