# generated using pymatgen
data_Tm4Fe7Co5(P3Rh2)4
_symmetry_space_group_name_H-M   'P 1'
_cell_length_a   3.72799400
_cell_length_b   10.40536721
_cell_length_c   12.12223280
_cell_angle_alpha   90.10252753
_cell_angle_beta   90.00000000
_cell_angle_gamma   90.00000000
_symmetry_Int_Tables_number   1
_chemical_formula_structural   Tm4Fe7Co5(P3Rh2)4
_chemical_formula_sum   'Tm4 Fe7 Co5 P12 Rh8'
_cell_volume   470.23455590
_cell_formula_units_Z   1
loop_
 _symmetry_equiv_pos_site_id
 _symmetry_equiv_pos_as_xyz
  1  'x, y, z'
loop_
 _atom_site_type_symbol
 _atom_site_label
 _atom_site_symmetry_multiplicity
 _atom_site_fract_x
 _atom_site_fract_y
 _atom_site_fract_z
 _atom_site_occupancy
  Tm  Tm0  1  0.250000  0.585050  0.710332  1
  Tm  Tm1  1  0.250000  0.916116  0.210509  1
  Tm  Tm2  1  0.750000  0.416187  0.289242  1
  Tm  Tm3  1  0.750000  0.082782  0.789559  1
  Fe  Fe4  1  0.250000  0.222120  0.173790  1
  Fe  Fe5  1  0.250000  0.279801  0.676272  1
  Fe  Fe6  1  0.750000  0.778381  0.825625  1
  Fe  Fe7  1  0.750000  0.721368  0.326491  1
  Fe  Fe8  1  0.250000  0.882517  0.695114  1
  Fe  Fe9  1  0.250000  0.617469  0.194826  1
  Fe  Fe10  1  0.750000  0.118152  0.304964  1
  Co  Co11  1  0.750000  0.382439  0.804044  1
  Co  Co12  1  0.250000  0.461381  0.931779  1
  Co  Co13  1  0.250000  0.038313  0.433859  1
  Co  Co14  1  0.750000  0.537726  0.065472  1
  Co  Co15  1  0.750000  0.961944  0.566012  1
  P  P16  1  0.250000  0.423889  0.112315  1
  P  P17  1  0.250000  0.076507  0.612971  1
  P  P18  1  0.750000  0.578479  0.887866  1
  P  P19  1  0.750000  0.924177  0.387007  1
  P  P20  1  0.250000  0.272021  0.859074  1
  P  P21  1  0.250000  0.225751  0.356712  1
  P  P22  1  0.750000  0.725496  0.143548  1
  P  P23  1  0.750000  0.774918  0.642969  1
  P  P24  1  0.250000  0.603438  0.375484  1
  P  P25  1  0.250000  0.896506  0.875636  1
  P  P26  1  0.750000  0.396483  0.622733  1
  P  P27  1  0.750000  0.103203  0.124535  1
  Rh  Rh28  1  0.250000  0.711843  0.984265  1
  Rh  Rh29  1  0.250000  0.787946  0.484911  1
  Rh  Rh30  1  0.750000  0.287052  0.014144  1
  Rh  Rh31  1  0.750000  0.212044  0.515739  1
  Rh  Rh32  1  0.250000  0.405770  0.479247  1
  Rh  Rh33  1  0.250000  0.093076  0.979403  1
  Rh  Rh34  1  0.750000  0.594380  0.521845  1
  Rh  Rh35  1  0.750000  0.905275  0.021705  1
