# generated using pymatgen
data_TiAl2Ru4W
_symmetry_space_group_name_H-M   'P 1'
_cell_length_a   4.32659800
_cell_length_b   6.11024600
_cell_length_c   12.97071500
_cell_angle_alpha   90.00000000
_cell_angle_beta   90.00005299
_cell_angle_gamma   90.00000000
_symmetry_Int_Tables_number   1
_chemical_formula_structural   TiAl2Ru4W
_chemical_formula_sum   'Ti3 Al6 Ru12 W3'
_cell_volume   342.90132041
_cell_formula_units_Z   3
loop_
 _symmetry_equiv_pos_site_id
 _symmetry_equiv_pos_as_xyz
  1  'x, y, z'
loop_
 _atom_site_type_symbol
 _atom_site_label
 _atom_site_symmetry_multiplicity
 _atom_site_fract_x
 _atom_site_fract_y
 _atom_site_fract_z
 _atom_site_occupancy
  Ti  Ti0  1  0.500004  0.000000  0.504271  1
  Ti  Ti1  1  0.000141  0.499999  0.666668  1
  Ti  Ti2  1  0.500137  0.000000  0.829062  1
  Al  Al3  1  0.000000  0.000000  0.997337  1
  Al  Al4  1  0.499844  0.499999  0.166665  1
  Al  Al5  1  0.999858  0.000000  0.335999  1
  Al  Al6  1  0.500000  0.499999  0.503951  1
  Al  Al7  1  0.000145  0.000000  0.666665  1
  Al  Al8  1  0.500146  0.499999  0.829385  1
  Ru  Ru9  1  0.499996  0.251677  0.002931  1
  Ru  Ru10  1  0.499996  0.748322  0.002931  1
  Ru  Ru11  1  0.999885  0.249696  0.166666  1
  Ru  Ru12  1  0.999885  0.750304  0.166666  1
  Ru  Ru13  1  0.499851  0.251686  0.330404  1
  Ru  Ru14  1  0.499851  0.748315  0.330404  1
  Ru  Ru15  1  0.000002  0.250509  0.497672  1
  Ru  Ru16  1  0.000002  0.749491  0.497672  1
  Ru  Ru17  1  0.500148  0.248956  0.666665  1
  Ru  Ru18  1  0.500148  0.751045  0.666665  1
  Ru  Ru19  1  0.000124  0.250512  0.835662  1
  Ru  Ru20  1  0.000124  0.749488  0.835662  1
  W  W21  1  0.000004  0.499999  0.994946  1
  W  W22  1  0.499846  0.000000  0.166668  1
  W  W23  1  0.999860  0.499999  0.338384  1
