# generated using pymatgen
data_Co6Mo6As
_symmetry_space_group_name_H-M   'P 1'
_cell_length_a   8.89749954
_cell_length_b   8.89749925
_cell_length_c   8.89750079
_cell_angle_alpha   31.17616172
_cell_angle_beta   31.17616367
_cell_angle_gamma   31.17616249
_symmetry_Int_Tables_number   1
_chemical_formula_structural   Co6Mo6As
_chemical_formula_sum   'Co6 Mo6 As1'
_cell_volume   167.49803637
_cell_formula_units_Z   1
loop_
 _symmetry_equiv_pos_site_id
 _symmetry_equiv_pos_as_xyz
  1  'x, y, z'
loop_
 _atom_site_type_symbol
 _atom_site_label
 _atom_site_symmetry_multiplicity
 _atom_site_fract_x
 _atom_site_fract_y
 _atom_site_fract_z
 _atom_site_occupancy
  Co  Co0  1  0.091140  0.091140  0.584590  1
  Co  Co1  1  0.415410  0.908860  0.908860  1
  Co  Co2  1  0.584590  0.091140  0.091140  1
  Co  Co3  1  0.908860  0.908860  0.415410  1
  Co  Co4  1  0.908860  0.415410  0.908860  1
  Co  Co5  1  0.091140  0.584590  0.091140  1
  Mo  Mo6  1  0.832174  0.832174  0.832174  1
  Mo  Mo7  1  0.651430  0.651430  0.651430  1
  Mo  Mo8  1  0.451410  0.451410  0.451410  1
  Mo  Mo9  1  0.548590  0.548590  0.548590  1
  Mo  Mo10  1  0.167826  0.167826  0.167826  1
  Mo  Mo11  1  0.348570  0.348570  0.348570  1
  As  As12  1  0.000000  0.000000  0.000000  1
