# generated using pymatgen
data_Er2Mn2Co10P7
_symmetry_space_group_name_H-M   'P 1'
_cell_length_a   9.05159857
_cell_length_b   9.02951009
_cell_length_c   3.59668700
_cell_angle_alpha   90.00000000
_cell_angle_beta   90.00000000
_cell_angle_gamma   120.01420594
_symmetry_Int_Tables_number   1
_chemical_formula_structural   Er2Mn2Co10P7
_chemical_formula_sum   'Er2 Mn2 Co10 P7'
_cell_volume   254.54265131
_cell_formula_units_Z   1
loop_
 _symmetry_equiv_pos_site_id
 _symmetry_equiv_pos_as_xyz
  1  'x, y, z'
loop_
 _atom_site_type_symbol
 _atom_site_label
 _atom_site_symmetry_multiplicity
 _atom_site_fract_x
 _atom_site_fract_y
 _atom_site_fract_z
 _atom_site_occupancy
  Er  Er0  1  0.332450  0.664455  0.000000  1
  Er  Er1  1  0.999569  0.999702  0.500000  1
  Mn  Mn2  1  0.767607  0.555505  0.500000  1
  Mn  Mn3  1  0.446017  0.211367  0.500000  1
  Co  Co4  1  0.034873  0.272516  0.000000  1
  Co  Co5  1  0.727687  0.765048  0.000000  1
  Co  Co6  1  0.235545  0.963453  0.000000  1
  Co  Co7  1  0.549648  0.058190  0.000000  1
  Co  Co8  1  0.942000  0.490335  0.000000  1
  Co  Co9  1  0.507972  0.449447  0.000000  1
  Co  Co10  1  0.617381  0.898107  0.500000  1
  Co  Co11  1  0.103865  0.718468  0.500000  1
  Co  Co12  1  0.279202  0.383555  0.500000  1
  Co  Co13  1  0.792234  0.239871  0.500000  1
  P  P14  1  0.779293  0.035525  0.000000  1
  P  P15  1  0.966124  0.745470  0.000000  1
  P  P16  1  0.252892  0.220477  0.000000  1
  P  P17  1  0.376662  0.924648  0.500000  1
  P  P18  1  0.069394  0.447475  0.500000  1
  P  P19  1  0.551247  0.622752  0.500000  1
  P  P20  1  0.668338  0.333637  0.000000  1
