# generated using pymatgen
data_TbSm4ReRuO12
_symmetry_space_group_name_H-M   'P 1'
_cell_length_a   6.97475770
_cell_length_b   6.97475743
_cell_length_c   7.66167822
_cell_angle_alpha   73.73006271
_cell_angle_beta   73.73006495
_cell_angle_gamma   48.67729593
_symmetry_Int_Tables_number   1
_chemical_formula_structural   TbSm4ReRuO12
_chemical_formula_sum   'Tb1 Sm4 Re1 Ru1 O12'
_cell_volume   266.35176993
_cell_formula_units_Z   1
loop_
 _symmetry_equiv_pos_site_id
 _symmetry_equiv_pos_as_xyz
  1  'x, y, z'
loop_
 _atom_site_type_symbol
 _atom_site_label
 _atom_site_symmetry_multiplicity
 _atom_site_fract_x
 _atom_site_fract_y
 _atom_site_fract_z
 _atom_site_occupancy
  Tb  Tb0  1  0.010702  0.989298  0.500000  1
  Sm  Sm1  1  0.711456  0.679545  0.643870  1
  Sm  Sm2  1  0.320455  0.288544  0.356130  1
  Sm  Sm3  1  0.690380  0.679384  0.172641  1
  Sm  Sm4  1  0.320616  0.309620  0.827359  1
  Re  Re5  1  0.200547  0.799453  0.000000  1
  Ru  Ru6  1  0.767718  0.232282  0.000000  1
  O  O7  1  0.003019  0.999885  0.200180  1
  O  O8  1  0.000115  0.996981  0.799820  1
  O  O9  1  0.570678  0.086406  0.083456  1
  O  O10  1  0.400061  0.910727  0.917999  1
  O  O11  1  0.913594  0.429322  0.916544  1
  O  O12  1  0.089273  0.599939  0.082001  1
  O  O13  1  0.482841  0.515210  0.169975  1
  O  O14  1  0.484790  0.517159  0.830025  1
  O  O15  1  0.406096  0.890835  0.432240  1
  O  O16  1  0.604884  0.086388  0.576692  1
  O  O17  1  0.109165  0.593904  0.567760  1
  O  O18  1  0.913612  0.395116  0.423308  1
