# generated using pymatgen
data_TbDyFe2(WO6)2
_symmetry_space_group_name_H-M   'P 1'
_cell_length_a   5.24063305
_cell_length_b   7.43950407
_cell_length_c   11.10281500
_cell_angle_alpha   90.00012356
_cell_angle_beta   90.00032398
_cell_angle_gamma   89.98373301
_symmetry_Int_Tables_number   1
_chemical_formula_structural   TbDyFe2(WO6)2
_chemical_formula_sum   'Tb2 Dy2 Fe4 W4 O24'
_cell_volume   432.87332452
_cell_formula_units_Z   2
loop_
 _symmetry_equiv_pos_site_id
 _symmetry_equiv_pos_as_xyz
  1  'x, y, z'
loop_
 _atom_site_type_symbol
 _atom_site_label
 _atom_site_symmetry_multiplicity
 _atom_site_fract_x
 _atom_site_fract_y
 _atom_site_fract_z
 _atom_site_occupancy
  Tb  Tb0  1  0.544780  0.253327  0.545031  1
  Tb  Tb1  1  0.044783  0.753324  0.954974  1
  Dy  Dy2  1  0.954162  0.253353  0.045229  1
  Dy  Dy3  1  0.454172  0.753353  0.454764  1
  Fe  Fe4  1  0.455841  0.507843  0.139307  1
  Fe  Fe5  1  0.955964  0.007871  0.360722  1
  Fe  Fe6  1  0.043722  0.508700  0.638988  1
  Fe  Fe7  1  0.543810  0.008607  0.860999  1
  W  W8  1  0.447524  0.997731  0.142600  1
  W  W9  1  0.947516  0.497729  0.357404  1
  W  W10  1  0.052147  0.997213  0.642300  1
  W  W11  1  0.552147  0.497190  0.857703  1
  O  O12  1  0.742818  0.542483  0.020460  1
  O  O13  1  0.736346  0.959253  0.029042  1
  O  O14  1  0.324433  0.755640  0.117574  1
  O  O15  1  0.565345  0.246183  0.143983  1
  O  O16  1  0.124624  0.071000  0.207028  1
  O  O17  1  0.108369  0.437084  0.211984  1
  O  O18  1  0.608378  0.937091  0.288016  1
  O  O19  1  0.624624  0.570998  0.292975  1
  O  O20  1  0.065351  0.746176  0.356017  1
  O  O21  1  0.824440  0.255640  0.382425  1
  O  O22  1  0.236341  0.459257  0.470955  1
  O  O23  1  0.242837  0.042485  0.479542  1
  O  O24  1  0.756850  0.544024  0.520073  1
  O  O25  1  0.763186  0.957918  0.528865  1
  O  O26  1  0.177708  0.755383  0.617212  1
  O  O27  1  0.936639  0.245995  0.643358  1
  O  O28  1  0.374684  0.070194  0.707434  1
  O  O29  1  0.390699  0.436929  0.712552  1
  O  O30  1  0.890705  0.936924  0.787447  1
  O  O31  1  0.874682  0.570201  0.792562  1
  O  O32  1  0.436634  0.745996  0.856637  1
  O  O33  1  0.677703  0.255375  0.882784  1
  O  O34  1  0.263178  0.457920  0.971135  1
  O  O35  1  0.256862  0.044018  0.979922  1
