# generated using pymatgen
data_Na5Hf(MoH9)3
_symmetry_space_group_name_H-M   'P 1'
_cell_length_a   8.52700700
_cell_length_b   8.26664739
_cell_length_c   4.86166600
_cell_angle_alpha   90.00000000
_cell_angle_beta   90.00000000
_cell_angle_gamma   118.99500622
_symmetry_Int_Tables_number   1
_chemical_formula_structural   Na5Hf(MoH9)3
_chemical_formula_sum   'Na5 Hf1 Mo3 H27'
_cell_volume   299.74461565
_cell_formula_units_Z   1
loop_
 _symmetry_equiv_pos_site_id
 _symmetry_equiv_pos_as_xyz
  1  'x, y, z'
loop_
 _atom_site_type_symbol
 _atom_site_label
 _atom_site_symmetry_multiplicity
 _atom_site_fract_x
 _atom_site_fract_y
 _atom_site_fract_z
 _atom_site_occupancy
  Na  Na0  1  0.719405  0.727586  0.500000  1
  Na  Na1  1  0.280595  0.008181  0.500000  1
  Na  Na2  1  0.000000  0.626924  0.000000  1
  Na  Na3  1  0.424561  0.382764  0.000000  1
  Na  Na4  1  0.575439  0.958203  0.000000  1
  Hf  Hf5  1  0.000000  0.269025  0.500000  1
  Mo  Mo6  1  0.689600  0.328120  0.500000  1
  Mo  Mo7  1  0.310400  0.638521  0.500000  1
  Mo  Mo8  1  0.000000  0.030863  0.000000  1
  H  H9  1  0.853810  0.345163  0.746332  1
  H  H10  1  0.683101  0.457665  0.772261  1
  H  H11  1  0.534905  0.182626  0.747007  1
  H  H12  1  0.146190  0.491354  0.253668  1
  H  H13  1  0.534905  0.182626  0.252993  1
  H  H14  1  0.853810  0.345163  0.253668  1
  H  H15  1  0.683101  0.457665  0.227739  1
  H  H16  1  0.316899  0.774565  0.772261  1
  H  H17  1  0.465095  0.647723  0.747007  1
  H  H18  1  0.197049  0.023287  0.000000  1
  H  H19  1  0.802951  0.826239  0.000000  1
  H  H20  1  0.000000  0.246301  0.000000  1
  H  H21  1  0.854227  0.024583  0.264646  1
  H  H22  1  0.145773  0.170355  0.735354  1
  H  H23  1  0.000000  0.873695  0.763063  1
  H  H24  1  0.000000  0.873695  0.236937  1
  H  H25  1  0.145773  0.170355  0.264646  1
  H  H26  1  0.854227  0.024583  0.735354  1
  H  H27  1  0.145088  0.699714  0.500000  1
  H  H28  1  0.499795  0.852634  0.500000  1
  H  H29  1  0.286775  0.412745  0.500000  1
  H  H30  1  0.500205  0.352839  0.500000  1
  H  H31  1  0.854912  0.554626  0.500000  1
  H  H32  1  0.713225  0.125970  0.500000  1
  H  H33  1  0.146190  0.491354  0.746332  1
  H  H34  1  0.316899  0.774565  0.227739  1
  H  H35  1  0.465095  0.647723  0.252993  1
