# generated using pymatgen
data_Tb5YAl24Os7Pt
_symmetry_space_group_name_H-M   'P 1'
_cell_length_a   8.82552381
_cell_length_b   8.83618046
_cell_length_c   9.59942620
_cell_angle_alpha   89.92662131
_cell_angle_beta   89.88601121
_cell_angle_gamma   119.75345198
_symmetry_Int_Tables_number   1
_chemical_formula_structural   Tb5YAl24Os7Pt
_chemical_formula_sum   'Tb5 Y1 Al24 Os7 Pt1'
_cell_volume   649.90852423
_cell_formula_units_Z   1
loop_
 _symmetry_equiv_pos_site_id
 _symmetry_equiv_pos_as_xyz
  1  'x, y, z'
loop_
 _atom_site_type_symbol
 _atom_site_label
 _atom_site_symmetry_multiplicity
 _atom_site_fract_x
 _atom_site_fract_y
 _atom_site_fract_z
 _atom_site_occupancy
  Tb  Tb0  1  0.806584  0.615210  0.748635  1
  Tb  Tb1  1  0.612336  0.806800  0.252189  1
  Tb  Tb2  1  0.387734  0.193424  0.747804  1
  Tb  Tb3  1  0.194520  0.809693  0.250783  1
  Tb  Tb4  1  0.805443  0.190299  0.749220  1
  Y  Y5  1  0.193610  0.385035  0.251352  1
  Al  Al6  1  0.337333  0.669132  0.021009  1
  Al  Al7  1  0.662552  0.330744  0.979073  1
  Al  Al8  1  0.667497  0.333089  0.519241  1
  Al  Al9  1  0.332509  0.666728  0.480602  1
  Al  Al10  1  0.163243  0.327094  0.575621  1
  Al  Al11  1  0.836777  0.672932  0.424219  1
  Al  Al12  1  0.672054  0.835547  0.575405  1
  Al  Al13  1  0.832067  0.674349  0.077531  1
  Al  Al14  1  0.327932  0.164504  0.424599  1
  Al  Al15  1  0.167883  0.325657  0.922578  1
  Al  Al16  1  0.163138  0.835644  0.574912  1
  Al  Al17  1  0.327186  0.164114  0.075673  1
  Al  Al18  1  0.837016  0.164450  0.425098  1
  Al  Al19  1  0.672746  0.835870  0.924337  1
  Al  Al20  1  0.832186  0.158178  0.076356  1
  Al  Al21  1  0.167843  0.841886  0.923605  1
  Al  Al22  1  0.561372  0.123436  0.249450  1
  Al  Al23  1  0.438633  0.876656  0.750547  1
  Al  Al24  1  0.875588  0.438157  0.252320  1
  Al  Al25  1  0.124615  0.561855  0.747630  1
  Al  Al26  1  0.561496  0.438337  0.249478  1
  Al  Al27  1  0.438263  0.561675  0.750631  1
  Al  Al28  1  0.999612  0.000220  0.250084  1
  Al  Al29  1  0.000265  0.999587  0.749898  1
  Os  Os30  1  0.499930  0.999900  0.000090  1
  Os  Os31  1  0.499976  0.999886  0.499906  1
  Os  Os32  1  0.499869  0.499924  0.000111  1
  Os  Os33  1  0.000072  0.499973  0.499925  1
  Os  Os34  1  0.500031  0.499948  0.500092  1
  Os  Os35  1  0.000019  0.000063  0.000043  1
  Os  Os36  1  0.000053  0.000058  0.499916  1
  Pt  Pt37  1  0.000015  0.499946  0.000034  1
