# generated using pymatgen
data_Er4Al12Ga12Ir2Pt7
_symmetry_space_group_name_H-M   'P 1'
_cell_length_a   7.49511686
_cell_length_b   7.49233489
_cell_length_c   13.24210734
_cell_angle_alpha   84.58551929
_cell_angle_beta   100.70422630
_cell_angle_gamma   119.80704393
_symmetry_Int_Tables_number   1
_chemical_formula_structural   Er4Al12Ga12Ir2Pt7
_chemical_formula_sum   'Er4 Al12 Ga12 Ir2 Pt7'
_cell_volume   634.01509073
_cell_formula_units_Z   1
loop_
 _symmetry_equiv_pos_site_id
 _symmetry_equiv_pos_as_xyz
  1  'x, y, z'
loop_
 _atom_site_type_symbol
 _atom_site_label
 _atom_site_symmetry_multiplicity
 _atom_site_fract_x
 _atom_site_fract_y
 _atom_site_fract_z
 _atom_site_occupancy
  Er  Er0  1  0.735977  0.000908  0.190937  1
  Er  Er1  1  0.263752  0.999691  0.808689  1
  Er  Er2  1  0.060718  0.663493  0.189417  1
  Er  Er3  1  0.939818  0.336783  0.810874  1
  Al  Al4  1  0.853527  0.332469  0.559017  1
  Al  Al5  1  0.188112  0.000163  0.558835  1
  Al  Al6  1  0.813042  0.999627  0.441174  1
  Al  Al7  1  0.348636  0.996451  0.052692  1
  Al  Al8  1  0.647759  0.997405  0.947311  1
  Al  Al9  1  0.556962  0.994165  0.672059  1
  Al  Al10  1  0.443760  0.005592  0.328878  1
  Al  Al11  1  0.520765  0.667357  0.561212  1
  Al  Al12  1  0.479351  0.333165  0.438677  1
  Al  Al13  1  0.683359  0.670205  0.044928  1
  Al  Al14  1  0.312696  0.332949  0.954980  1
  Al  Al15  1  0.146842  0.666600  0.441321  1
  Ga  Ga16  1  0.806371  0.874644  0.816944  1
  Ga  Ga17  1  0.194687  0.124598  0.183037  1
  Ga  Ga18  1  0.985334  0.669570  0.941249  1
  Ga  Ga19  1  0.019295  0.332668  0.059017  1
  Ga  Ga20  1  0.398654  0.665791  0.818485  1
  Ga  Ga21  1  0.599122  0.333401  0.183208  1
  Ga  Ga22  1  0.885391  0.664790  0.674846  1
  Ga  Ga23  1  0.114851  0.335219  0.323815  1
  Ga  Ga24  1  0.601070  0.459215  0.815697  1
  Ga  Ga25  1  0.400483  0.544876  0.182611  1
  Ga  Ga26  1  0.227841  0.336500  0.673918  1
  Ga  Ga27  1  0.772597  0.663692  0.326275  1
  Ir  Ir28  1  0.333434  0.673041  0.001137  1
  Ir  Ir29  1  0.999909  0.999883  0.999974  1
  Pt  Pt30  1  0.545389  0.322241  0.634793  1
  Pt  Pt31  1  0.454870  0.677286  0.364841  1
  Pt  Pt32  1  0.882347  0.005929  0.635464  1
  Pt  Pt33  1  0.117988  0.994123  0.364504  1
  Pt  Pt34  1  0.664401  0.325485  0.998658  1
  Pt  Pt35  1  0.208843  0.670059  0.636230  1
  Pt  Pt36  1  0.792045  0.329963  0.364296  1
