# generated using pymatgen
data_Ho6Lu6ZnCo4Sn
_symmetry_space_group_name_H-M   'P 1'
_cell_length_a   8.18649064
_cell_length_b   8.18649105
_cell_length_c   8.18942811
_cell_angle_alpha   112.23131304
_cell_angle_beta   109.41961225
_cell_angle_gamma   106.79296872
_symmetry_Int_Tables_number   1
_chemical_formula_structural   Ho6Lu6ZnCo4Sn
_chemical_formula_sum   'Ho6 Lu6 Zn1 Co4 Sn1'
_cell_volume   421.62857436
_cell_formula_units_Z   1
loop_
 _symmetry_equiv_pos_site_id
 _symmetry_equiv_pos_as_xyz
  1  'x, y, z'
loop_
 _atom_site_type_symbol
 _atom_site_label
 _atom_site_symmetry_multiplicity
 _atom_site_fract_x
 _atom_site_fract_y
 _atom_site_fract_z
 _atom_site_occupancy
  Ho  Ho0  1  0.431802  0.229865  0.199411  1
  Ho  Ho1  1  0.568198  0.770135  0.800589  1
  Ho  Ho2  1  0.030454  0.232392  0.800589  1
  Ho  Ho3  1  0.969546  0.767608  0.199411  1
  Ho  Ho4  1  0.180639  0.282605  0.463244  1
  Ho  Ho5  1  0.819361  0.717395  0.536756  1
  Lu  Lu6  1  0.180888  0.717673  0.898560  1
  Lu  Lu7  1  0.819112  0.282327  0.101440  1
  Lu  Lu8  1  0.323488  0.636811  0.311075  1
  Lu  Lu9  1  0.676512  0.363189  0.688925  1
  Lu  Lu10  1  0.325734  0.012414  0.688925  1
  Lu  Lu11  1  0.674266  0.987586  0.311075  1
  Zn  Zn12  1  0.000000  0.000000  0.000000  1
  Co  Co13  1  0.346309  0.998564  0.344873  1
  Co  Co14  1  0.653691  0.001436  0.655127  1
  Co  Co15  1  0.115768  0.615768  0.500000  1
  Co  Co16  1  0.884232  0.384232  0.500000  1
  Sn  Sn17  1  0.500000  0.500000  0.000000  1
