# generated using pymatgen
data_Tm12Ga5Ge3Ru8
_symmetry_space_group_name_H-M   'P 1'
_cell_length_a   5.55863200
_cell_length_b   7.67800200
_cell_length_c   13.65096200
_cell_angle_alpha   90.00000000
_cell_angle_beta   90.00000000
_cell_angle_gamma   89.99857470
_symmetry_Int_Tables_number   1
_chemical_formula_structural   Tm12Ga5Ge3Ru8
_chemical_formula_sum   'Tm12 Ga5 Ge3 Ru8'
_cell_volume   582.61196830
_cell_formula_units_Z   1
loop_
 _symmetry_equiv_pos_site_id
 _symmetry_equiv_pos_as_xyz
  1  'x, y, z'
loop_
 _atom_site_type_symbol
 _atom_site_label
 _atom_site_symmetry_multiplicity
 _atom_site_fract_x
 _atom_site_fract_y
 _atom_site_fract_z
 _atom_site_occupancy
  Tm  Tm0  1  0.847862  0.903534  0.595321  1
  Tm  Tm1  1  0.151631  0.402817  0.904796  1
  Tm  Tm2  1  0.845829  0.595473  0.098063  1
  Tm  Tm3  1  0.623426  0.272159  0.750000  1
  Tm  Tm4  1  0.626087  0.230045  0.250000  1
  Tm  Tm5  1  0.845829  0.595473  0.401937  1
  Tm  Tm6  1  0.372380  0.729752  0.250000  1
  Tm  Tm7  1  0.153648  0.095344  0.098525  1
  Tm  Tm8  1  0.153648  0.095344  0.401475  1
  Tm  Tm9  1  0.378761  0.766482  0.750000  1
  Tm  Tm10  1  0.151631  0.402817  0.595204  1
  Tm  Tm11  1  0.847862  0.903534  0.904679  1
  Ga  Ga12  1  0.366201  0.750920  0.499025  1
  Ga  Ga13  1  0.366201  0.750920  0.000975  1
  Ga  Ga14  1  0.123685  0.112168  0.750000  1
  Ga  Ga15  1  0.632496  0.251443  0.499686  1
  Ga  Ga16  1  0.632496  0.251443  0.000314  1
  Ge  Ge17  1  0.119833  0.383957  0.250000  1
  Ge  Ge18  1  0.877685  0.883114  0.250000  1
  Ge  Ge19  1  0.883893  0.614281  0.750000  1
  Ru  Ru20  1  0.351780  0.035709  0.905592  1
  Ru  Ru21  1  0.352237  0.465765  0.094691  1
  Ru  Ru22  1  0.647893  0.966154  0.095382  1
  Ru  Ru23  1  0.647547  0.536861  0.905004  1
  Ru  Ru24  1  0.647893  0.966154  0.404618  1
  Ru  Ru25  1  0.647547  0.536861  0.594996  1
  Ru  Ru26  1  0.352237  0.465765  0.405309  1
  Ru  Ru27  1  0.351780  0.035709  0.594408  1
