# generated using pymatgen
data_Sc22CoOsRu6
_symmetry_space_group_name_H-M   'P 1'
_cell_length_a   9.44573967
_cell_length_b   9.35631444
_cell_length_c   9.44573991
_cell_angle_alpha   60.31268763
_cell_angle_beta   60.46769575
_cell_angle_gamma   60.31269053
_symmetry_Int_Tables_number   1
_chemical_formula_structural   Sc22CoOsRu6
_chemical_formula_sum   'Sc22 Co1 Os1 Ru6'
_cell_volume   595.14711071
_cell_formula_units_Z   1
loop_
 _symmetry_equiv_pos_site_id
 _symmetry_equiv_pos_as_xyz
  1  'x, y, z'
loop_
 _atom_site_type_symbol
 _atom_site_label
 _atom_site_symmetry_multiplicity
 _atom_site_fract_x
 _atom_site_fract_y
 _atom_site_fract_z
 _atom_site_occupancy
  Sc  Sc0  1  0.843893  0.841443  0.843893  1
  Sc  Sc1  1  0.530755  0.157388  0.154467  1
  Sc  Sc2  1  0.154467  0.157388  0.530755  1
  Sc  Sc3  1  0.156107  0.529228  0.156107  1
  Sc  Sc4  1  0.845533  0.842612  0.469245  1
  Sc  Sc5  1  0.843893  0.470772  0.843893  1
  Sc  Sc6  1  0.469245  0.842612  0.845533  1
  Sc  Sc7  1  0.156107  0.158557  0.156107  1
  Sc  Sc8  1  0.197496  0.802504  0.197496  1
  Sc  Sc9  1  0.199695  0.802890  0.800305  1
  Sc  Sc10  1  0.800305  0.197110  0.199695  1
  Sc  Sc11  1  0.800305  0.802890  0.199695  1
  Sc  Sc12  1  0.199695  0.197110  0.800305  1
  Sc  Sc13  1  0.802504  0.197496  0.802504  1
  Sc  Sc14  1  0.386103  0.380894  0.386103  1
  Sc  Sc15  1  0.155530  0.615482  0.613507  1
  Sc  Sc16  1  0.613897  0.153101  0.613897  1
  Sc  Sc17  1  0.613507  0.615482  0.155530  1
  Sc  Sc18  1  0.386103  0.846899  0.386103  1
  Sc  Sc19  1  0.386493  0.384518  0.844470  1
  Sc  Sc20  1  0.844470  0.384518  0.386493  1
  Sc  Sc21  1  0.613897  0.619106  0.613897  1
  Co  Co22  1  0.500000  0.500000  0.500000  1
  Os  Os23  1  0.500000  0.000000  0.500000  1
  Ru  Ru24  1  0.500000  0.500000  0.000000  1
  Ru  Ru25  1  0.000000  0.000000  0.500000  1
  Ru  Ru26  1  0.000000  0.500000  0.500000  1
  Ru  Ru27  1  0.500000  0.000000  0.000000  1
  Ru  Ru28  1  0.000000  0.500000  0.000000  1
  Ru  Ru29  1  0.000000  0.000000  0.000000  1
