# generated using pymatgen
data_YEr3(B6Ir)2
_symmetry_space_group_name_H-M   'P 1'
_cell_length_a   3.62844100
_cell_length_b   9.15965904
_cell_length_c   11.50703600
_cell_angle_alpha   89.99298260
_cell_angle_beta   90.00000000
_cell_angle_gamma   90.00000000
_symmetry_Int_Tables_number   1
_chemical_formula_structural   YEr3(B6Ir)2
_chemical_formula_sum   'Y2 Er6 B24 Ir4'
_cell_volume   382.43958841
_cell_formula_units_Z   2
loop_
 _symmetry_equiv_pos_site_id
 _symmetry_equiv_pos_as_xyz
  1  'x, y, z'
loop_
 _atom_site_type_symbol
 _atom_site_label
 _atom_site_symmetry_multiplicity
 _atom_site_fract_x
 _atom_site_fract_y
 _atom_site_fract_z
 _atom_site_occupancy
  Y  Y0  1  0.500000  0.322317  0.412978  1
  Y  Y1  1  0.500000  0.677683  0.587022  1
  Er  Er2  1  0.500000  0.177825  0.913147  1
  Er  Er3  1  0.500000  0.822175  0.086853  1
  Er  Er4  1  0.500000  0.444483  0.125149  1
  Er  Er5  1  0.500000  0.555517  0.874851  1
  Er  Er6  1  0.500000  0.055387  0.625757  1
  Er  Er7  1  0.500000  0.944613  0.374243  1
  B  B8  1  0.000000  0.109163  0.470172  1
  B  B9  1  0.000000  0.890837  0.529828  1
  B  B10  1  0.000000  0.388895  0.969690  1
  B  B11  1  0.000000  0.611105  0.030310  1
  B  B12  1  0.000000  0.132149  0.315420  1
  B  B13  1  0.000000  0.867851  0.684580  1
  B  B14  1  0.000000  0.367227  0.816298  1
  B  B15  1  0.000000  0.632773  0.183702  1
  B  B16  1  0.000000  0.053364  0.065845  1
  B  B17  1  0.000000  0.946636  0.934155  1
  B  B18  1  0.000000  0.446188  0.566727  1
  B  B19  1  0.000000  0.553812  0.433273  1
  B  B20  1  0.000000  0.482520  0.286253  1
  B  B21  1  0.000000  0.517480  0.713747  1
  B  B22  1  0.000000  0.018069  0.787221  1
  B  B23  1  0.000000  0.981931  0.212779  1
  B  B24  1  0.000000  0.249670  0.078902  1
  B  B25  1  0.000000  0.750330  0.921098  1
  B  B26  1  0.000000  0.249820  0.579821  1
  B  B27  1  0.000000  0.750180  0.420179  1
  B  B28  1  0.000000  0.293496  0.233890  1
  B  B29  1  0.000000  0.706504  0.766110  1
  B  B30  1  0.000000  0.205898  0.735113  1
  B  B31  1  0.000000  0.794102  0.264887  1
  Ir  Ir32  1  0.500000  0.138214  0.178169  1
  Ir  Ir33  1  0.500000  0.861786  0.821831  1
  Ir  Ir34  1  0.500000  0.360167  0.680090  1
  Ir  Ir35  1  0.500000  0.639833  0.319910  1
