# generated using pymatgen
data_NdNiP2Rh
_symmetry_space_group_name_H-M   'P 1'
_cell_length_a   4.10184500
_cell_length_b   4.10184500
_cell_length_c   9.45510900
_cell_angle_alpha   90.00000000
_cell_angle_beta   90.00000000
_cell_angle_gamma   90.00000000
_symmetry_Int_Tables_number   1
_chemical_formula_structural   NdNiP2Rh
_chemical_formula_sum   'Nd2 Ni2 P4 Rh2'
_cell_volume   159.08346082
_cell_formula_units_Z   2
loop_
 _symmetry_equiv_pos_site_id
 _symmetry_equiv_pos_as_xyz
  1  'x, y, z'
loop_
 _atom_site_type_symbol
 _atom_site_label
 _atom_site_symmetry_multiplicity
 _atom_site_fract_x
 _atom_site_fract_y
 _atom_site_fract_z
 _atom_site_occupancy
  Nd  Nd0  1  0.000000  0.500000  0.262094  1
  Nd  Nd1  1  0.500000  0.000000  0.737906  1
  Ni  Ni2  1  0.000000  0.500000  0.610986  1
  Ni  Ni3  1  0.500000  0.000000  0.389014  1
  P  P4  1  0.000000  0.000000  0.500000  1
  P  P5  1  0.500000  0.500000  0.500000  1
  P  P6  1  0.000000  0.500000  0.857131  1
  P  P7  1  0.500000  0.000000  0.142869  1
  Rh  Rh8  1  0.000000  0.000000  0.000000  1
  Rh  Rh9  1  0.500000  0.500000  0.000000  1
