# generated using pymatgen
data_HoScMn5(PIr)7
_symmetry_space_group_name_H-M   'P 1'
_cell_length_a   9.37591718
_cell_length_b   9.33900437
_cell_length_c   3.85008200
_cell_angle_alpha   90.00000000
_cell_angle_beta   90.00000000
_cell_angle_gamma   119.84077643
_symmetry_Int_Tables_number   1
_chemical_formula_structural   HoScMn5(PIr)7
_chemical_formula_sum   'Ho1 Sc1 Mn5 P7 Ir7'
_cell_volume   292.42164680
_cell_formula_units_Z   1
loop_
 _symmetry_equiv_pos_site_id
 _symmetry_equiv_pos_as_xyz
  1  'x, y, z'
loop_
 _atom_site_type_symbol
 _atom_site_label
 _atom_site_symmetry_multiplicity
 _atom_site_fract_x
 _atom_site_fract_y
 _atom_site_fract_z
 _atom_site_occupancy
  Ho  Ho0  1  0.666031  0.333778  0.000000  1
  Sc  Sc1  1  0.335653  0.670137  0.500000  1
  Mn  Mn2  1  0.266286  0.159615  0.000000  1
  Mn  Mn3  1  0.840766  0.111976  0.000000  1
  Mn  Mn4  1  0.892201  0.729058  0.000000  1
  Mn  Mn5  1  0.779093  0.875731  0.500000  1
  Mn  Mn6  1  0.123264  0.902921  0.500000  1
  P  P7  1  0.306171  0.416586  0.000000  1
  P  P8  1  0.589804  0.889690  0.000000  1
  P  P9  1  0.114085  0.700346  0.000000  1
  P  P10  1  0.394786  0.117333  0.500000  1
  P  P11  1  0.875141  0.274064  0.500000  1
  P  P12  1  0.725841  0.607235  0.500000  1
  P  P13  1  0.995517  0.997349  0.000000  1
  Ir  Ir14  1  0.072609  0.431171  0.000000  1
  Ir  Ir15  1  0.572063  0.640323  0.000000  1
  Ir  Ir16  1  0.361632  0.932658  0.000000  1
  Ir  Ir17  1  0.444391  0.388508  0.500000  1
  Ir  Ir18  1  0.610250  0.053490  0.500000  1
  Ir  Ir19  1  0.945555  0.553895  0.500000  1
  Ir  Ir20  1  0.088857  0.214135  0.500000  1
