# generated using pymatgen
data_CaLa4HoSi4
_symmetry_space_group_name_H-M   'P 1'
_cell_length_a   7.73282800
_cell_length_b   7.73282800
_cell_length_c   4.51554200
_cell_angle_alpha   90.00000000
_cell_angle_beta   90.00000000
_cell_angle_gamma   90.00000000
_symmetry_Int_Tables_number   1
_chemical_formula_structural   CaLa4HoSi4
_chemical_formula_sum   'Ca1 La4 Ho1 Si4'
_cell_volume   270.01418916
_cell_formula_units_Z   1
loop_
 _symmetry_equiv_pos_site_id
 _symmetry_equiv_pos_as_xyz
  1  'x, y, z'
loop_
 _atom_site_type_symbol
 _atom_site_label
 _atom_site_symmetry_multiplicity
 _atom_site_fract_x
 _atom_site_fract_y
 _atom_site_fract_z
 _atom_site_occupancy
  Ca  Ca0  1  0.500000  0.500000  0.000000  1
  La  La1  1  0.676596  0.179081  0.500000  1
  La  La2  1  0.323404  0.820919  0.500000  1
  La  La3  1  0.179081  0.323404  0.500000  1
  La  La4  1  0.820919  0.676596  0.500000  1
  Ho  Ho5  1  0.000000  0.000000  0.000000  1
  Si  Si6  1  0.105448  0.618068  0.000000  1
  Si  Si7  1  0.894552  0.381932  0.000000  1
  Si  Si8  1  0.618068  0.894552  0.000000  1
  Si  Si9  1  0.381932  0.105448  0.000000  1
