# generated using pymatgen
data_Ca3Tm(Rh2O7)2
_symmetry_space_group_name_H-M   'P 1'
_cell_length_a   7.26470294
_cell_length_b   7.23059227
_cell_length_c   7.23059200
_cell_angle_alpha   59.99999207
_cell_angle_beta   60.15519349
_cell_angle_gamma   60.15519681
_symmetry_Int_Tables_number   1
_chemical_formula_structural   Ca3Tm(Rh2O7)2
_chemical_formula_sum   'Ca3 Tm1 Rh4 O14'
_cell_volume   269.19398324
_cell_formula_units_Z   1
loop_
 _symmetry_equiv_pos_site_id
 _symmetry_equiv_pos_as_xyz
  1  'x, y, z'
loop_
 _atom_site_type_symbol
 _atom_site_label
 _atom_site_symmetry_multiplicity
 _atom_site_fract_x
 _atom_site_fract_y
 _atom_site_fract_z
 _atom_site_occupancy
  Ca  Ca0  1  0.625000  0.125000  0.625000  1
  Ca  Ca1  1  0.625000  0.625000  0.125000  1
  Ca  Ca2  1  0.625000  0.625000  0.625000  1
  Tm  Tm3  1  0.125000  0.625000  0.625000  1
  Rh  Rh4  1  0.625000  0.125000  0.125000  1
  Rh  Rh5  1  0.125000  0.625000  0.125000  1
  Rh  Rh6  1  0.125000  0.125000  0.625000  1
  Rh  Rh7  1  0.125000  0.125000  0.125000  1
  O  O8  1  0.192821  0.214530  0.796325  1
  O  O9  1  0.192821  0.796325  0.214530  1
  O  O10  1  0.449009  0.049257  0.049257  1
  O  O11  1  0.192821  0.796325  0.796325  1
  O  O12  1  0.057179  0.453675  0.453675  1
  O  O13  1  0.800991  0.797522  0.200743  1
  O  O14  1  0.449009  0.452478  0.049257  1
  O  O15  1  0.485731  0.504756  0.504756  1
  O  O16  1  0.057179  0.035470  0.453675  1
  O  O17  1  0.449009  0.049257  0.452478  1
  O  O18  1  0.057179  0.453675  0.035470  1
  O  O19  1  0.764269  0.745244  0.745244  1
  O  O20  1  0.800991  0.200743  0.797522  1
  O  O21  1  0.800991  0.200743  0.200743  1
