# generated using pymatgen
data_La6Al3ZnPt13
_symmetry_space_group_name_H-M   'P 1'
_cell_length_a   8.49992753
_cell_length_b   8.49992808
_cell_length_c   8.49992792
_cell_angle_alpha   109.66293302
_cell_angle_beta   109.66293493
_cell_angle_gamma   109.66292247
_symmetry_Int_Tables_number   1
_chemical_formula_structural   La6Al3ZnPt13
_chemical_formula_sum   'La6 Al3 Zn1 Pt13'
_cell_volume   469.35617382
_cell_formula_units_Z   1
loop_
 _symmetry_equiv_pos_site_id
 _symmetry_equiv_pos_as_xyz
  1  'x, y, z'
loop_
 _atom_site_type_symbol
 _atom_site_label
 _atom_site_symmetry_multiplicity
 _atom_site_fract_x
 _atom_site_fract_y
 _atom_site_fract_z
 _atom_site_occupancy
  La  La0  1  0.696792  0.696792  0.997887  1
  La  La1  1  0.303208  0.002113  0.303208  1
  La  La2  1  0.002113  0.303208  0.303208  1
  La  La3  1  0.303208  0.303208  0.002113  1
  La  La4  1  0.696792  0.997887  0.696792  1
  La  La5  1  0.997887  0.696792  0.696792  1
  Al  Al6  1  0.000000  0.000000  0.500000  1
  Al  Al7  1  0.000000  0.500000  0.000000  1
  Al  Al8  1  0.500000  0.000000  0.000000  1
  Zn  Zn9  1  0.500000  0.500000  0.500000  1
  Pt  Pt10  1  0.319195  0.319195  0.643540  1
  Pt  Pt11  1  0.681436  0.000000  0.318564  1
  Pt  Pt12  1  0.000000  0.681436  0.318564  1
  Pt  Pt13  1  0.681436  0.318564  0.000000  1
  Pt  Pt14  1  0.319195  0.643540  0.319195  1
  Pt  Pt15  1  0.000000  0.318564  0.681436  1
  Pt  Pt16  1  0.318564  0.681436  0.000000  1
  Pt  Pt17  1  0.318564  0.000000  0.681436  1
  Pt  Pt18  1  0.643540  0.319195  0.319195  1
  Pt  Pt19  1  0.680805  0.680805  0.356460  1
  Pt  Pt20  1  0.680805  0.356460  0.680805  1
  Pt  Pt21  1  0.356460  0.680805  0.680805  1
  Pt  Pt22  1  0.000000  0.000000  0.000000  1
