# generated using pymatgen
data_Dy3HoLu12(Ga3Co)2
_symmetry_space_group_name_H-M   'P 1'
_cell_length_a   9.81518900
_cell_length_b   9.81579794
_cell_length_c   6.86332301
_cell_angle_alpha   89.99899424
_cell_angle_beta   90.00329870
_cell_angle_gamma   119.95931869
_symmetry_Int_Tables_number   1
_chemical_formula_structural   Dy3HoLu12(Ga3Co)2
_chemical_formula_sum   'Dy3 Ho1 Lu12 Ga6 Co2'
_cell_volume   572.88470982
_cell_formula_units_Z   1
loop_
 _symmetry_equiv_pos_site_id
 _symmetry_equiv_pos_as_xyz
  1  'x, y, z'
loop_
 _atom_site_type_symbol
 _atom_site_label
 _atom_site_symmetry_multiplicity
 _atom_site_fract_x
 _atom_site_fract_y
 _atom_site_fract_z
 _atom_site_occupancy
  Dy  Dy0  1  0.535211  0.070935  0.708095  1
  Dy  Dy1  1  0.999923  0.000111  0.231350  1
  Dy  Dy2  1  0.999976  0.000003  0.731341  1
  Ho  Ho3  1  0.928964  0.464756  0.708043  1
  Lu  Lu4  1  0.174181  0.825720  0.509750  1
  Lu  Lu5  1  0.650954  0.824615  0.510615  1
  Lu  Lu6  1  0.175365  0.349103  0.510654  1
  Lu  Lu7  1  0.825927  0.174124  0.013453  1
  Lu  Lu8  1  0.348638  0.174978  0.012613  1
  Lu  Lu9  1  0.825017  0.651293  0.012558  1
  Lu  Lu10  1  0.333751  0.666172  0.827538  1
  Lu  Lu11  1  0.666258  0.333822  0.326331  1
  Lu  Lu12  1  0.463327  0.536721  0.207340  1
  Lu  Lu13  1  0.074038  0.537016  0.207555  1
  Lu  Lu14  1  0.462959  0.925903  0.207544  1
  Lu  Lu15  1  0.536255  0.463918  0.707324  1
  Ga  Ga16  1  0.164006  0.835958  0.960105  1
  Ga  Ga17  1  0.671804  0.835932  0.959321  1
  Ga  Ga18  1  0.164038  0.328167  0.959323  1
  Ga  Ga19  1  0.836762  0.163295  0.457576  1
  Ga  Ga20  1  0.327540  0.164211  0.458425  1
  Ga  Ga21  1  0.835796  0.672405  0.458475  1
  Co  Co22  1  0.333392  0.666609  0.444134  1
  Co  Co23  1  0.665918  0.334233  0.945369  1
