# generated using pymatgen
data_Y4Ho2Si5SnRh12
_symmetry_space_group_name_H-M   'P 1'
_cell_length_a   5.61061300
_cell_length_b   5.61061241
_cell_length_c   15.28270100
_cell_angle_alpha   90.00000000
_cell_angle_beta   90.00000000
_cell_angle_gamma   119.99999756
_symmetry_Int_Tables_number   1
_chemical_formula_structural   Y4Ho2Si5SnRh12
_chemical_formula_sum   'Y4 Ho2 Si5 Sn1 Rh12'
_cell_volume   416.63076934
_cell_formula_units_Z   1
loop_
 _symmetry_equiv_pos_site_id
 _symmetry_equiv_pos_as_xyz
  1  'x, y, z'
loop_
 _atom_site_type_symbol
 _atom_site_label
 _atom_site_symmetry_multiplicity
 _atom_site_fract_x
 _atom_site_fract_y
 _atom_site_fract_z
 _atom_site_occupancy
  Y  Y0  1  0.333333  0.666667  0.036429  1
  Y  Y1  1  0.666667  0.333333  0.752185  1
  Y  Y2  1  0.333333  0.666667  0.461076  1
  Y  Y3  1  0.333333  0.666667  0.247874  1
  Ho  Ho4  1  0.666667  0.333333  0.964096  1
  Ho  Ho5  1  0.666667  0.333333  0.538584  1
  Si  Si6  1  0.666667  0.333333  0.243957  1
  Si  Si7  1  0.000000  0.000000  0.245639  1
  Si  Si8  1  0.000000  0.000000  0.754307  1
  Si  Si9  1  0.333333  0.666667  0.756091  1
  Si  Si10  1  0.000000  0.000000  0.000019  1
  Sn  Sn11  1  0.000000  0.000000  0.499991  1
  Rh  Rh12  1  0.166144  0.332288  0.872094  1
  Rh  Rh13  1  0.168945  0.337888  0.640139  1
  Rh  Rh14  1  0.667712  0.833856  0.872094  1
  Rh  Rh15  1  0.337979  0.168990  0.359767  1
  Rh  Rh16  1  0.831010  0.662021  0.359767  1
  Rh  Rh17  1  0.831010  0.168990  0.359767  1
  Rh  Rh18  1  0.833722  0.166278  0.127917  1
  Rh  Rh19  1  0.332555  0.166278  0.127917  1
  Rh  Rh20  1  0.662112  0.831055  0.640139  1
  Rh  Rh21  1  0.168945  0.831055  0.640139  1
  Rh  Rh22  1  0.833722  0.667445  0.127917  1
  Rh  Rh23  1  0.166144  0.833856  0.872094  1
