# generated using pymatgen
data_Gd2Th(Ni3P2)3
_symmetry_space_group_name_H-M   'P 1'
_cell_length_a   3.81509100
_cell_length_b   10.54079200
_cell_length_c   12.39388300
_cell_angle_alpha   90.00000000
_cell_angle_beta   90.00000000
_cell_angle_gamma   90.00000000
_symmetry_Int_Tables_number   1
_chemical_formula_structural   Gd2Th(Ni3P2)3
_chemical_formula_sum   'Gd4 Th2 Ni18 P12'
_cell_volume   498.40861105
_cell_formula_units_Z   2
loop_
 _symmetry_equiv_pos_site_id
 _symmetry_equiv_pos_as_xyz
  1  'x, y, z'
loop_
 _atom_site_type_symbol
 _atom_site_label
 _atom_site_symmetry_multiplicity
 _atom_site_fract_x
 _atom_site_fract_y
 _atom_site_fract_z
 _atom_site_occupancy
  Gd  Gd0  1  0.500000  0.814987  0.204098  1
  Gd  Gd1  1  0.500000  0.185013  0.204098  1
  Gd  Gd2  1  0.000000  0.685013  0.795902  1
  Gd  Gd3  1  0.000000  0.314987  0.795902  1
  Th  Th4  1  0.000000  0.500000  0.522192  1
  Th  Th5  1  0.500000  0.000000  0.477808  1
  Ni  Ni6  1  0.500000  0.500000  0.154948  1
  Ni  Ni7  1  0.000000  0.000000  0.845052  1
  Ni  Ni8  1  0.500000  0.500000  0.700170  1
  Ni  Ni9  1  0.000000  0.000000  0.299830  1
  Ni  Ni10  1  0.000000  0.500000  0.984202  1
  Ni  Ni11  1  0.500000  0.000000  0.015798  1
  Ni  Ni12  1  0.500000  0.333107  0.995733  1
  Ni  Ni13  1  0.500000  0.666893  0.995733  1
  Ni  Ni14  1  0.000000  0.166893  0.004267  1
  Ni  Ni15  1  0.000000  0.833107  0.004267  1
  Ni  Ni16  1  0.500000  0.301682  0.428322  1
  Ni  Ni17  1  0.500000  0.698318  0.428322  1
  Ni  Ni18  1  0.000000  0.198318  0.571678  1
  Ni  Ni19  1  0.000000  0.801682  0.571678  1
  Ni  Ni20  1  0.500000  0.880051  0.713381  1
  Ni  Ni21  1  0.500000  0.119949  0.713381  1
  Ni  Ni22  1  0.000000  0.619949  0.286619  1
  Ni  Ni23  1  0.000000  0.380051  0.286619  1
  P  P24  1  0.500000  0.500000  0.878661  1
  P  P25  1  0.000000  0.000000  0.121339  1
  P  P26  1  0.500000  0.500000  0.337365  1
  P  P27  1  0.000000  0.000000  0.662635  1
  P  P28  1  0.500000  0.307661  0.616317  1
  P  P29  1  0.500000  0.692339  0.616317  1
  P  P30  1  0.000000  0.192339  0.383683  1
  P  P31  1  0.000000  0.807661  0.383683  1
  P  P32  1  0.500000  0.848184  0.894414  1
  P  P33  1  0.500000  0.151816  0.894414  1
  P  P34  1  0.000000  0.651816  0.105586  1
  P  P35  1  0.000000  0.348184  0.105586  1
