# generated using pymatgen
data_Zr4InHgPd4
_symmetry_space_group_name_H-M   'P 1'
_cell_length_a   7.56975800
_cell_length_b   7.56975800
_cell_length_c   6.84680900
_cell_angle_alpha   90.00000000
_cell_angle_beta   90.00000000
_cell_angle_gamma   90.00000000
_symmetry_Int_Tables_number   1
_chemical_formula_structural   Zr4InHgPd4
_chemical_formula_sum   'Zr8 In2 Hg2 Pd8'
_cell_volume   392.33061958
_cell_formula_units_Z   2
loop_
 _symmetry_equiv_pos_site_id
 _symmetry_equiv_pos_as_xyz
  1  'x, y, z'
loop_
 _atom_site_type_symbol
 _atom_site_label
 _atom_site_symmetry_multiplicity
 _atom_site_fract_x
 _atom_site_fract_y
 _atom_site_fract_z
 _atom_site_occupancy
  Zr  Zr0  1  0.152533  0.156299  0.000000  1
  Zr  Zr1  1  0.847467  0.843701  0.000000  1
  Zr  Zr2  1  0.656299  0.347467  0.500000  1
  Zr  Zr3  1  0.343701  0.652533  0.500000  1
  Zr  Zr4  1  0.686375  0.311999  0.000000  1
  Zr  Zr5  1  0.313625  0.688001  0.000000  1
  Zr  Zr6  1  0.811999  0.813625  0.500000  1
  Zr  Zr7  1  0.188001  0.186375  0.500000  1
  In  In8  1  0.000000  0.500000  0.250000  1
  In  In9  1  0.000000  0.500000  0.750000  1
  Hg  Hg10  1  0.500000  0.000000  0.250000  1
  Hg  Hg11  1  0.500000  0.000000  0.750000  1
  Pd  Pd12  1  0.371201  0.372157  0.217261  1
  Pd  Pd13  1  0.628799  0.627843  0.782739  1
  Pd  Pd14  1  0.628799  0.627843  0.217261  1
  Pd  Pd15  1  0.872157  0.128799  0.717261  1
  Pd  Pd16  1  0.872157  0.128799  0.282739  1
  Pd  Pd17  1  0.371201  0.372157  0.782739  1
  Pd  Pd18  1  0.127843  0.871201  0.282739  1
  Pd  Pd19  1  0.127843  0.871201  0.717261  1
