# generated using pymatgen
data_Dy3Er7Co4
_symmetry_space_group_name_H-M   'P 1'
_cell_length_a   6.27025201
_cell_length_b   6.90038254
_cell_length_c   8.50195537
_cell_angle_alpha   96.43460412
_cell_angle_beta   111.71001799
_cell_angle_gamma   90.02054536
_symmetry_Int_Tables_number   1
_chemical_formula_structural   Dy3Er7Co4
_chemical_formula_sum   'Dy3 Er7 Co4'
_cell_volume   339.26105998
_cell_formula_units_Z   1
loop_
 _symmetry_equiv_pos_site_id
 _symmetry_equiv_pos_as_xyz
  1  'x, y, z'
loop_
 _atom_site_type_symbol
 _atom_site_label
 _atom_site_symmetry_multiplicity
 _atom_site_fract_x
 _atom_site_fract_y
 _atom_site_fract_z
 _atom_site_occupancy
  Dy  Dy0  1  0.793166  0.587407  0.810092  1
  Dy  Dy1  1  0.982359  0.913050  0.189515  1
  Dy  Dy2  1  0.206952  0.412537  0.189408  1
  Er  Er3  1  0.017375  0.087019  0.810524  1
  Er  Er4  1  0.213504  0.684641  0.566706  1
  Er  Er5  1  0.646857  0.815226  0.433367  1
  Er  Er6  1  0.786679  0.314928  0.433804  1
  Er  Er7  1  0.353023  0.184991  0.567615  1
  Er  Er8  1  0.426874  0.750383  0.999759  1
  Er  Er9  1  0.572700  0.249905  0.999696  1
  Co  Co10  1  0.600563  0.928442  0.778019  1
  Co  Co11  1  0.821523  0.571536  0.222032  1
  Co  Co12  1  0.400369  0.071889  0.221274  1
  Co  Co13  1  0.178056  0.428047  0.778190  1
