# generated using pymatgen
data_Al4(PdPt3)3
_symmetry_space_group_name_H-M   'P 1'
_cell_length_a   5.51205053
_cell_length_b   5.51205053
_cell_length_c   7.95561702
_cell_angle_alpha   89.99445229
_cell_angle_beta   89.99445229
_cell_angle_gamma   90.04987335
_symmetry_Int_Tables_number   1
_chemical_formula_structural   Al4(PdPt3)3
_chemical_formula_sum   'Al4 Pd3 Pt9'
_cell_volume   241.71303954
_cell_formula_units_Z   1
loop_
 _symmetry_equiv_pos_site_id
 _symmetry_equiv_pos_as_xyz
  1  'x, y, z'
loop_
 _atom_site_type_symbol
 _atom_site_label
 _atom_site_symmetry_multiplicity
 _atom_site_fract_x
 _atom_site_fract_y
 _atom_site_fract_z
 _atom_site_occupancy
  Al  Al0  1  0.499374  0.999374  0.233158  1
  Al  Al1  1  0.999073  0.499073  0.234935  1
  Al  Al2  1  0.501727  0.001727  0.765130  1
  Al  Al3  1  0.997940  0.497940  0.764647  1
  Pd  Pd4  1  0.999982  0.999620  0.254529  1
  Pd  Pd5  1  0.499620  0.499982  0.254529  1
  Pd  Pd6  1  0.686662  0.186662  0.498807  1
  Pt  Pt7  1  0.262009  0.236473  0.000198  1
  Pt  Pt8  1  0.762039  0.262039  0.000873  1
  Pt  Pt9  1  0.236000  0.736000  0.000261  1
  Pt  Pt10  1  0.736473  0.762009  0.000198  1
  Pt  Pt11  1  0.186579  0.315464  0.500404  1
  Pt  Pt12  1  0.815464  0.686579  0.500404  1
  Pt  Pt13  1  0.317671  0.817671  0.500456  1
  Pt  Pt14  1  0.999598  0.999789  0.745736  1
  Pt  Pt15  1  0.499789  0.499598  0.745736  1
