# generated using pymatgen
data_Ca4MnRh7
_symmetry_space_group_name_H-M   'P 1'
_cell_length_a   5.44003400
_cell_length_b   5.44003244
_cell_length_c   8.50309200
_cell_angle_alpha   90.00000000
_cell_angle_beta   90.00000000
_cell_angle_gamma   119.99998514
_symmetry_Int_Tables_number   1
_chemical_formula_structural   Ca4MnRh7
_chemical_formula_sum   'Ca4 Mn1 Rh7'
_cell_volume   217.92681848
_cell_formula_units_Z   1
loop_
 _symmetry_equiv_pos_site_id
 _symmetry_equiv_pos_as_xyz
  1  'x, y, z'
loop_
 _atom_site_type_symbol
 _atom_site_label
 _atom_site_symmetry_multiplicity
 _atom_site_fract_x
 _atom_site_fract_y
 _atom_site_fract_z
 _atom_site_occupancy
  Ca  Ca0  1  0.333333  0.666667  0.063929  1
  Ca  Ca1  1  0.666667  0.333333  0.570953  1
  Ca  Ca2  1  0.666667  0.333333  0.936071  1
  Ca  Ca3  1  0.333333  0.666667  0.429047  1
  Mn  Mn4  1  0.000000  0.000000  0.500000  1
  Rh  Rh5  1  0.000000  0.000000  0.000000  1
  Rh  Rh6  1  0.830092  0.660186  0.253571  1
  Rh  Rh7  1  0.169908  0.830092  0.746429  1
  Rh  Rh8  1  0.660186  0.830092  0.746429  1
  Rh  Rh9  1  0.339814  0.169908  0.253571  1
  Rh  Rh10  1  0.830092  0.169908  0.253571  1
  Rh  Rh11  1  0.169908  0.339814  0.746429  1
