# generated using pymatgen
data_Be8AlTcOs2
_symmetry_space_group_name_H-M   'P 1'
_cell_length_a   4.33338500
_cell_length_b   4.33338569
_cell_length_c   7.09132700
_cell_angle_alpha   90.00000000
_cell_angle_beta   90.00000000
_cell_angle_gamma   120.00000238
_symmetry_Int_Tables_number   1
_chemical_formula_structural   Be8AlTcOs2
_chemical_formula_sum   'Be8 Al1 Tc1 Os2'
_cell_volume   115.32215620
_cell_formula_units_Z   1
loop_
 _symmetry_equiv_pos_site_id
 _symmetry_equiv_pos_as_xyz
  1  'x, y, z'
loop_
 _atom_site_type_symbol
 _atom_site_label
 _atom_site_symmetry_multiplicity
 _atom_site_fract_x
 _atom_site_fract_y
 _atom_site_fract_z
 _atom_site_occupancy
  Be  Be0  1  0.000000  0.000000  0.003898  1
  Be  Be1  1  0.000000  0.000000  0.500174  1
  Be  Be2  1  0.829262  0.658526  0.248811  1
  Be  Be3  1  0.167060  0.832940  0.751325  1
  Be  Be4  1  0.665880  0.832940  0.751325  1
  Be  Be5  1  0.341474  0.170738  0.248811  1
  Be  Be6  1  0.829262  0.170738  0.248811  1
  Be  Be7  1  0.167060  0.334120  0.751325  1
  Al  Al8  1  0.333333  0.666667  0.434573  1
  Tc  Tc9  1  0.666667  0.333333  0.937324  1
  Os  Os10  1  0.333333  0.666667  0.062531  1
  Os  Os11  1  0.666667  0.333333  0.561089  1
