# generated using pymatgen
data_Mn28Be
_symmetry_space_group_name_H-M   'P 1'
_cell_length_a   7.46077266
_cell_length_b   7.46077230
_cell_length_c   7.46077300
_cell_angle_alpha   109.47121981
_cell_angle_beta   109.47121884
_cell_angle_gamma   109.47122340
_symmetry_Int_Tables_number   1
_chemical_formula_structural   Mn28Be
_chemical_formula_sum   'Mn28 Be1'
_cell_volume   319.69035038
_cell_formula_units_Z   1
loop_
 _symmetry_equiv_pos_site_id
 _symmetry_equiv_pos_as_xyz
  1  'x, y, z'
loop_
 _atom_site_type_symbol
 _atom_site_label
 _atom_site_symmetry_multiplicity
 _atom_site_fract_x
 _atom_site_fract_y
 _atom_site_fract_z
 _atom_site_occupancy
  Mn  Mn0  1  0.635003  0.000000  0.000000  1
  Mn  Mn1  1  0.000000  0.635003  0.000000  1
  Mn  Mn2  1  0.000000  0.000000  0.635003  1
  Mn  Mn3  1  0.364997  0.364997  0.364997  1
  Mn  Mn4  1  0.389234  0.675481  0.000000  1
  Mn  Mn5  1  0.713753  0.324519  0.324519  1
  Mn  Mn6  1  0.389234  0.000000  0.675481  1
  Mn  Mn7  1  0.675481  0.389234  0.000000  1
  Mn  Mn8  1  0.000000  0.389234  0.675481  1
  Mn  Mn9  1  0.324519  0.713753  0.324519  1
  Mn  Mn10  1  0.324519  0.324519  0.713753  1
  Mn  Mn11  1  0.000000  0.675481  0.389234  1
  Mn  Mn12  1  0.675481  0.000000  0.389234  1
  Mn  Mn13  1  0.610766  0.610766  0.286247  1
  Mn  Mn14  1  0.286247  0.610766  0.610766  1
  Mn  Mn15  1  0.610766  0.286247  0.610766  1
  Mn  Mn16  1  0.370139  0.193628  0.000000  1
  Mn  Mn17  1  0.176511  0.806372  0.806372  1
  Mn  Mn18  1  0.370139  0.000000  0.193628  1
  Mn  Mn19  1  0.193628  0.370139  0.000000  1
  Mn  Mn20  1  0.000000  0.370139  0.193628  1
  Mn  Mn21  1  0.806372  0.176511  0.806372  1
  Mn  Mn22  1  0.806372  0.806372  0.176511  1
  Mn  Mn23  1  0.000000  0.193628  0.370139  1
  Mn  Mn24  1  0.193628  0.000000  0.370139  1
  Mn  Mn25  1  0.629861  0.629861  0.823489  1
  Mn  Mn26  1  0.823489  0.629861  0.629861  1
  Mn  Mn27  1  0.629861  0.823489  0.629861  1
  Be  Be28  1  0.000000  0.000000  0.000000  1
