# generated using pymatgen
data_Ta11TiAl8(AuC)4
_symmetry_space_group_name_H-M   'P 1'
_cell_length_a   8.41526916
_cell_length_b   8.41499833
_cell_length_c   8.41149803
_cell_angle_alpha   60.01632078
_cell_angle_beta   60.01845581
_cell_angle_gamma   59.94529464
_symmetry_Int_Tables_number   1
_chemical_formula_structural   Ta11TiAl8(AuC)4
_chemical_formula_sum   'Ta11 Ti1 Al8 Au4 C4'
_cell_volume   421.12838882
_cell_formula_units_Z   1
loop_
 _symmetry_equiv_pos_site_id
 _symmetry_equiv_pos_as_xyz
  1  'x, y, z'
loop_
 _atom_site_type_symbol
 _atom_site_label
 _atom_site_symmetry_multiplicity
 _atom_site_fract_x
 _atom_site_fract_y
 _atom_site_fract_z
 _atom_site_occupancy
  Ta  Ta0  1  0.928208  0.928191  0.571791  1
  Ta  Ta1  1  0.679330  0.321725  0.320017  1
  Ta  Ta2  1  0.321703  0.679329  0.678950  1
  Ta  Ta3  1  0.680005  0.680013  0.319982  1
  Ta  Ta4  1  0.679245  0.321783  0.678921  1
  Ta  Ta5  1  0.321790  0.679253  0.320053  1
  Ta  Ta6  1  0.571613  0.927694  0.570102  1
  Ta  Ta7  1  0.571525  0.927769  0.930622  1
  Ta  Ta8  1  0.927791  0.571524  0.570056  1
  Ta  Ta9  1  0.927703  0.571608  0.930580  1
  Ta  Ta10  1  0.320800  0.320801  0.679209  1
  Ti  Ti11  1  0.570940  0.570932  0.929058  1
  Al  Al12  1  0.911431  0.261000  0.913786  1
  Al  Al13  1  0.335758  0.335786  0.992357  1
  Al  Al14  1  0.991791  0.336697  0.335753  1
  Al  Al15  1  0.335774  0.335771  0.336097  1
  Al  Al16  1  0.261000  0.911428  0.913789  1
  Al  Al17  1  0.914144  0.914162  0.914506  1
  Al  Al18  1  0.914166  0.914138  0.257198  1
  Al  Al19  1  0.336686  0.991806  0.335754  1
  Au  Au20  1  0.127144  0.624782  0.124035  1
  Au  Au21  1  0.124845  0.124853  0.625686  1
  Au  Au22  1  0.624782  0.127144  0.124044  1
  Au  Au23  1  0.124848  0.124850  0.124617  1
  C  C24  1  0.624033  0.125346  0.625306  1
  C  C25  1  0.623788  0.623795  0.122780  1
  C  C26  1  0.125358  0.624034  0.625305  1
  C  C27  1  0.623800  0.623787  0.629646  1
