# generated using pymatgen
data_Tb3TmAl4Ni3Rh
_symmetry_space_group_name_H-M   'P 1'
_cell_length_a   4.26662000
_cell_length_b   6.68264585
_cell_length_c   7.74124718
_cell_angle_alpha   90.67924310
_cell_angle_beta   90.00000000
_cell_angle_gamma   90.00000000
_symmetry_Int_Tables_number   1
_chemical_formula_structural   Tb3TmAl4Ni3Rh
_chemical_formula_sum   'Tb3 Tm1 Al4 Ni3 Rh1'
_cell_volume   220.70533271
_cell_formula_units_Z   1
loop_
 _symmetry_equiv_pos_site_id
 _symmetry_equiv_pos_as_xyz
  1  'x, y, z'
loop_
 _atom_site_type_symbol
 _atom_site_label
 _atom_site_symmetry_multiplicity
 _atom_site_fract_x
 _atom_site_fract_y
 _atom_site_fract_z
 _atom_site_occupancy
  Tb  Tb0  1  0.250000  0.966161  0.321558  1
  Tb  Tb1  1  0.750000  0.536624  0.826352  1
  Tb  Tb2  1  0.250000  0.460110  0.176996  1
  Tm  Tm3  1  0.750000  0.040178  0.677040  1
  Al  Al4  1  0.750000  0.633666  0.437499  1
  Al  Al5  1  0.750000  0.136553  0.056576  1
  Al  Al6  1  0.250000  0.359661  0.559737  1
  Al  Al7  1  0.250000  0.864249  0.944718  1
  Ni  Ni8  1  0.750000  0.770985  0.125717  1
  Ni  Ni9  1  0.750000  0.267702  0.376583  1
  Ni  Ni10  1  0.250000  0.223757  0.874502  1
  Rh  Rh11  1  0.250000  0.740356  0.622721  1
