# generated using pymatgen
data_Tb4Al24Pd8Au
_symmetry_space_group_name_H-M   'P 1'
_cell_length_a   7.53604467
_cell_length_b   7.55847406
_cell_length_c   13.27032828
_cell_angle_alpha   84.75866847
_cell_angle_beta   100.72606448
_cell_angle_gamma   119.65721923
_symmetry_Int_Tables_number   1
_chemical_formula_structural   Tb4Al24Pd8Au
_chemical_formula_sum   'Tb4 Al24 Pd8 Au1'
_cell_volume   645.39339474
_cell_formula_units_Z   1
loop_
 _symmetry_equiv_pos_site_id
 _symmetry_equiv_pos_as_xyz
  1  'x, y, z'
loop_
 _atom_site_type_symbol
 _atom_site_label
 _atom_site_symmetry_multiplicity
 _atom_site_fract_x
 _atom_site_fract_y
 _atom_site_fract_z
 _atom_site_occupancy
  Tb  Tb0  1  0.437633  0.829850  0.809199  1
  Tb  Tb1  1  0.562587  0.169069  0.191317  1
  Tb  Tb2  1  0.767871  0.502380  0.808978  1
  Tb  Tb3  1  0.231246  0.497675  0.191051  1
  Al  Al4  1  0.481470  0.165850  0.945948  1
  Al  Al5  1  0.519493  0.833883  0.054883  1
  Al  Al6  1  0.015878  0.160983  0.559272  1
  Al  Al7  1  0.978461  0.833992  0.438088  1
  Al  Al8  1  0.353877  0.838866  0.557548  1
  Al  Al9  1  0.644829  0.166547  0.440340  1
  Al  Al10  1  0.617420  0.834909  0.329169  1
  Al  Al11  1  0.383221  0.160190  0.672453  1
  Al  Al12  1  0.053051  0.493218  0.672120  1
  Al  Al13  1  0.942499  0.506913  0.329285  1
  Al  Al14  1  0.738706  0.846495  0.671018  1
  Al  Al15  1  0.268042  0.159766  0.330409  1
  Al  Al16  1  0.146952  0.499320  0.946297  1
  Al  Al17  1  0.852992  0.501465  0.054423  1
  Al  Al18  1  0.817677  0.833612  0.954720  1
  Al  Al19  1  0.182477  0.166232  0.046031  1
  Al  Al20  1  0.310318  0.499674  0.435962  1
  Al  Al21  1  0.693321  0.500493  0.557952  1
  Al  Al22  1  0.103290  0.836258  0.183783  1
  Al  Al23  1  0.896281  0.163983  0.816687  1
  Al  Al24  1  0.305086  0.365818  0.818241  1
  Al  Al25  1  0.693388  0.631293  0.185405  1
  Al  Al26  1  0.103247  0.958744  0.815911  1
  Al  Al27  1  0.897151  0.040645  0.184495  1
  Pd  Pd28  1  0.613021  0.493173  0.362685  1
  Pd  Pd29  1  0.171742  0.829063  0.998864  1
  Pd  Pd30  1  0.828165  0.171174  0.000346  1
  Pd  Pd31  1  0.294170  0.833599  0.362309  1
  Pd  Pd32  1  0.706188  0.166702  0.637581  1
  Pd  Pd33  1  0.047572  0.826093  0.636806  1
  Pd  Pd34  1  0.952162  0.173926  0.363047  1
  Pd  Pd35  1  0.500194  0.500235  0.000002  1
  Au  Au36  1  0.388323  0.507914  0.637376  1
