# generated using pymatgen
data_TbTm15(CdCo)4
_symmetry_space_group_name_H-M   'P 1'
_cell_length_a   9.39141304
_cell_length_b   9.39094583
_cell_length_c   9.39113405
_cell_angle_alpha   60.03890426
_cell_angle_beta   60.04060514
_cell_angle_gamma   60.03951898
_symmetry_Int_Tables_number   1
_chemical_formula_structural   TbTm15(CdCo)4
_chemical_formula_sum   'Tb1 Tm15 Cd4 Co4'
_cell_volume   586.18367303
_cell_formula_units_Z   1
loop_
 _symmetry_equiv_pos_site_id
 _symmetry_equiv_pos_as_xyz
  1  'x, y, z'
loop_
 _atom_site_type_symbol
 _atom_site_label
 _atom_site_symmetry_multiplicity
 _atom_site_fract_x
 _atom_site_fract_y
 _atom_site_fract_z
 _atom_site_occupancy
  Tb  Tb0  1  0.346505  0.346544  0.346476  1
  Tm  Tm1  1  0.346413  0.346462  0.960238  1
  Tm  Tm2  1  0.346442  0.960212  0.346422  1
  Tm  Tm3  1  0.960232  0.346462  0.346397  1
  Tm  Tm4  1  0.813249  0.187185  0.187186  1
  Tm  Tm5  1  0.187758  0.812310  0.812385  1
  Tm  Tm6  1  0.187160  0.813223  0.187178  1
  Tm  Tm7  1  0.812332  0.187774  0.812335  1
  Tm  Tm8  1  0.187162  0.187175  0.813259  1
  Tm  Tm9  1  0.812366  0.812298  0.187777  1
  Tm  Tm10  1  0.937533  0.562539  0.562546  1
  Tm  Tm11  1  0.561929  0.938586  0.938587  1
  Tm  Tm12  1  0.562548  0.937515  0.562566  1
  Tm  Tm13  1  0.938605  0.561935  0.938595  1
  Tm  Tm14  1  0.562573  0.562577  0.937492  1
  Tm  Tm15  1  0.938609  0.938595  0.561936  1
  Cd  Cd16  1  0.580696  0.580716  0.580721  1
  Cd  Cd17  1  0.581177  0.581193  0.257728  1
  Cd  Cd18  1  0.581179  0.257725  0.581195  1
  Cd  Cd19  1  0.257727  0.581181  0.581184  1
  Co  Co20  1  0.141401  0.141394  0.141401  1
  Co  Co21  1  0.139702  0.139714  0.576980  1
  Co  Co22  1  0.139693  0.576983  0.139715  1
  Co  Co23  1  0.577011  0.139704  0.139702  1
