# generated using pymatgen
data_LuZr(Ga2Ni)2
_symmetry_space_group_name_H-M   'P 1'
_cell_length_a   5.28638400
_cell_length_b   5.28638547
_cell_length_c   6.42233700
_cell_angle_alpha   90.00000000
_cell_angle_beta   90.00000000
_cell_angle_gamma   134.17335719
_symmetry_Int_Tables_number   1
_chemical_formula_structural   LuZr(Ga2Ni)2
_chemical_formula_sum   'Lu1 Zr1 Ga4 Ni2'
_cell_volume   128.72767558
_cell_formula_units_Z   1
loop_
 _symmetry_equiv_pos_site_id
 _symmetry_equiv_pos_as_xyz
  1  'x, y, z'
loop_
 _atom_site_type_symbol
 _atom_site_label
 _atom_site_symmetry_multiplicity
 _atom_site_fract_x
 _atom_site_fract_y
 _atom_site_fract_z
 _atom_site_occupancy
  Lu  Lu0  1  0.423843  0.576157  0.750000  1
  Zr  Zr1  1  0.576394  0.423606  0.250000  1
  Ga  Ga2  1  0.863583  0.136417  0.053096  1
  Ga  Ga3  1  0.134998  0.865002  0.953571  1
  Ga  Ga4  1  0.134998  0.865002  0.546429  1
  Ga  Ga5  1  0.863583  0.136417  0.446904  1
  Ni  Ni6  1  0.295205  0.704795  0.250000  1
  Ni  Ni7  1  0.707397  0.292603  0.750000  1
