# generated using pymatgen
data_SrNd6RuI12
_symmetry_space_group_name_H-M   'P 1'
_cell_length_a   10.07591366
_cell_length_b   10.07591253
_cell_length_c   10.07591184
_cell_angle_alpha   106.39218208
_cell_angle_beta   106.39219253
_cell_angle_gamma   106.39218876
_symmetry_Int_Tables_number   1
_chemical_formula_structural   SrNd6RuI12
_chemical_formula_sum   'Sr1 Nd6 Ru1 I12'
_cell_volume   865.65706986
_cell_formula_units_Z   1
loop_
 _symmetry_equiv_pos_site_id
 _symmetry_equiv_pos_as_xyz
  1  'x, y, z'
loop_
 _atom_site_type_symbol
 _atom_site_label
 _atom_site_symmetry_multiplicity
 _atom_site_fract_x
 _atom_site_fract_y
 _atom_site_fract_z
 _atom_site_occupancy
  Sr  Sr0  1  0.500000  0.500000  0.500000  1
  Nd  Nd1  1  0.904846  0.701391  0.979343  1
  Nd  Nd2  1  0.979343  0.904846  0.701391  1
  Nd  Nd3  1  0.701391  0.979343  0.904846  1
  Nd  Nd4  1  0.095154  0.298609  0.020657  1
  Nd  Nd5  1  0.020657  0.095154  0.298609  1
  Nd  Nd6  1  0.298609  0.020657  0.095154  1
  Ru  Ru7  1  0.000000  0.000000  0.000000  1
  I  I8  1  0.629324  0.858291  0.549381  1
  I  I9  1  0.549381  0.629324  0.858291  1
  I  I10  1  0.858291  0.549381  0.629324  1
  I  I11  1  0.370676  0.141709  0.450619  1
  I  I12  1  0.450619  0.370676  0.141709  1
  I  I13  1  0.141709  0.450619  0.370676  1
  I  I14  1  0.679093  0.073996  0.223922  1
  I  I15  1  0.223922  0.679093  0.073996  1
  I  I16  1  0.073996  0.223922  0.679093  1
  I  I17  1  0.320907  0.926004  0.776078  1
  I  I18  1  0.776078  0.320907  0.926004  1
  I  I19  1  0.926004  0.776078  0.320907  1
