# generated using pymatgen
data_ErPaCo3Si5
_symmetry_space_group_name_H-M   'P 1'
_cell_length_a   5.58190095
_cell_length_b   7.81266447
_cell_length_c   7.86585455
_cell_angle_alpha   75.37843372
_cell_angle_beta   69.21767622
_cell_angle_gamma   69.06956917
_symmetry_Int_Tables_number   1
_chemical_formula_structural   ErPaCo3Si5
_chemical_formula_sum   'Er2 Pa2 Co6 Si10'
_cell_volume   296.42667375
_cell_formula_units_Z   2
loop_
 _symmetry_equiv_pos_site_id
 _symmetry_equiv_pos_as_xyz
  1  'x, y, z'
loop_
 _atom_site_type_symbol
 _atom_site_label
 _atom_site_symmetry_multiplicity
 _atom_site_fract_x
 _atom_site_fract_y
 _atom_site_fract_z
 _atom_site_occupancy
  Er  Er0  1  0.866107  0.400187  0.867598  1
  Er  Er1  1  0.133893  0.599813  0.132402  1
  Pa  Pa2  1  0.367729  0.867339  0.397203  1
  Pa  Pa3  1  0.632271  0.132661  0.602797  1
  Co  Co4  1  0.744729  0.000000  0.000000  1
  Co  Co5  1  0.255271  0.000000  0.000000  1
  Co  Co6  1  0.141145  0.239609  0.478100  1
  Co  Co7  1  0.858855  0.760391  0.521900  1
  Co  Co8  1  0.633376  0.479302  0.253945  1
  Co  Co9  1  0.366624  0.520698  0.746055  1
  Si  Si10  1  0.755805  0.500000  0.500000  1
  Si  Si11  1  0.244195  0.500000  0.500000  1
  Si  Si12  1  0.520928  0.234161  0.230442  1
  Si  Si13  1  0.985530  0.765839  0.769558  1
  Si  Si14  1  0.479072  0.765839  0.769558  1
  Si  Si15  1  0.014470  0.234161  0.230442  1
  Si  Si16  1  0.100616  0.049647  0.749121  1
  Si  Si17  1  0.899384  0.950353  0.250879  1
  Si  Si18  1  0.606160  0.738775  0.048906  1
  Si  Si19  1  0.393840  0.261225  0.951094  1
