# generated using pymatgen
data_PrYFe3Co9P7
_symmetry_space_group_name_H-M   'P 1'
_cell_length_a   9.04423700
_cell_length_b   9.04423812
_cell_length_c   3.63971000
_cell_angle_alpha   90.00000000
_cell_angle_beta   90.00000000
_cell_angle_gamma   119.99999958
_symmetry_Int_Tables_number   1
_chemical_formula_structural   PrYFe3Co9P7
_chemical_formula_sum   'Pr1 Y1 Fe3 Co9 P7'
_cell_volume   257.83468357
_cell_formula_units_Z   1
loop_
 _symmetry_equiv_pos_site_id
 _symmetry_equiv_pos_as_xyz
  1  'x, y, z'
loop_
 _atom_site_type_symbol
 _atom_site_label
 _atom_site_symmetry_multiplicity
 _atom_site_fract_x
 _atom_site_fract_y
 _atom_site_fract_z
 _atom_site_occupancy
  Pr  Pr0  1  0.333333  0.666667  0.000000  1
  Y  Y1  1  0.666667  0.333333  0.500000  1
  Fe  Fe2  1  0.214936  0.120519  0.500000  1
  Fe  Fe3  1  0.879481  0.094418  0.500000  1
  Fe  Fe4  1  0.905582  0.785064  0.500000  1
  Co  Co5  1  0.430365  0.368467  0.000000  1
  Co  Co6  1  0.631533  0.061899  0.000000  1
  Co  Co7  1  0.938101  0.569635  0.000000  1
  Co  Co8  1  0.155409  0.883211  0.000000  1
  Co  Co9  1  0.116789  0.272198  0.000000  1
  Co  Co10  1  0.727802  0.844591  0.000000  1
  Co  Co11  1  0.385248  0.954942  0.500000  1
  Co  Co12  1  0.045058  0.430306  0.500000  1
  Co  Co13  1  0.569694  0.614752  0.500000  1
  P  P14  1  0.409549  0.111310  0.000000  1
  P  P15  1  0.888690  0.298239  0.000000  1
  P  P16  1  0.701761  0.590451  0.000000  1
  P  P17  1  0.105744  0.710094  0.500000  1
  P  P18  1  0.289906  0.395651  0.500000  1
  P  P19  1  0.604349  0.894256  0.500000  1
  P  P20  1  0.000000  0.000000  0.000000  1
