# generated using pymatgen
data_Zr4Ta4Si3Ge
_symmetry_space_group_name_H-M   'P 1'
_cell_length_a   3.66826800
_cell_length_b   7.02923373
_cell_length_c   8.52313613
_cell_angle_alpha   89.81797150
_cell_angle_beta   90.00000000
_cell_angle_gamma   90.00000000
_symmetry_Int_Tables_number   1
_chemical_formula_structural   Zr4Ta4Si3Ge
_chemical_formula_sum   'Zr4 Ta4 Si3 Ge1'
_cell_volume   219.76892036
_cell_formula_units_Z   1
loop_
 _symmetry_equiv_pos_site_id
 _symmetry_equiv_pos_as_xyz
  1  'x, y, z'
loop_
 _atom_site_type_symbol
 _atom_site_label
 _atom_site_symmetry_multiplicity
 _atom_site_fract_x
 _atom_site_fract_y
 _atom_site_fract_z
 _atom_site_occupancy
  Zr  Zr0  1  0.250000  0.539434  0.835802  1
  Zr  Zr1  1  0.750000  0.958590  0.330563  1
  Zr  Zr2  1  0.250000  0.046448  0.667701  1
  Zr  Zr3  1  0.750000  0.459037  0.167405  1
  Ta  Ta4  1  0.250000  0.132778  0.059850  1
  Ta  Ta5  1  0.750000  0.868512  0.942632  1
  Ta  Ta6  1  0.250000  0.629520  0.436886  1
  Ta  Ta7  1  0.750000  0.364765  0.558783  1
  Si  Si8  1  0.250000  0.756229  0.140709  1
  Si  Si9  1  0.750000  0.244123  0.859473  1
  Si  Si10  1  0.250000  0.254864  0.359173  1
  Ge  Ge11  1  0.750000  0.745700  0.641023  1
