# generated using pymatgen
data_Rb2PaF6
_symmetry_space_group_name_H-M   'P 1'
_cell_length_a   7.18206232
_cell_length_b   7.18206253
_cell_length_c   7.63677600
_cell_angle_alpha   90.00000000
_cell_angle_beta   90.00000000
_cell_angle_gamma   120.61570150
_symmetry_Int_Tables_number   1
_chemical_formula_structural   Rb2PaF6
_chemical_formula_sum   'Rb4 Pa2 F12'
_cell_volume   339.00882575
_cell_formula_units_Z   2
loop_
 _symmetry_equiv_pos_site_id
 _symmetry_equiv_pos_as_xyz
  1  'x, y, z'
loop_
 _atom_site_type_symbol
 _atom_site_label
 _atom_site_symmetry_multiplicity
 _atom_site_fract_x
 _atom_site_fract_y
 _atom_site_fract_z
 _atom_site_occupancy
  Rb  Rb0  1  0.342275  0.657725  0.501736  1
  Rb  Rb1  1  0.657725  0.342275  0.001736  1
  Rb  Rb2  1  0.657725  0.342275  0.498264  1
  Rb  Rb3  1  0.342275  0.657725  0.998264  1
  Pa  Pa4  1  0.948011  0.051989  0.250000  1
  Pa  Pa5  1  0.051989  0.948011  0.750000  1
  F  F6  1  0.100117  0.899883  0.042418  1
  F  F7  1  0.899883  0.100117  0.542418  1
  F  F8  1  0.899883  0.100117  0.957582  1
  F  F9  1  0.100117  0.899883  0.457582  1
  F  F10  1  0.005304  0.607478  0.750000  1
  F  F11  1  0.994696  0.392522  0.250000  1
  F  F12  1  0.286696  0.305252  0.750000  1
  F  F13  1  0.713304  0.694748  0.250000  1
  F  F14  1  0.305252  0.286696  0.250000  1
  F  F15  1  0.694748  0.713304  0.750000  1
  F  F16  1  0.392522  0.994696  0.750000  1
  F  F17  1  0.607478  0.005304  0.250000  1
