# generated using pymatgen
data_GaMo6Pt(RhN)2
_symmetry_space_group_name_H-M   'P 1'
_cell_length_a   6.86641800
_cell_length_b   6.85645876
_cell_length_c   6.86092679
_cell_angle_alpha   89.44694732
_cell_angle_beta   90.00000000
_cell_angle_gamma   90.00000000
_symmetry_Int_Tables_number   1
_chemical_formula_structural   GaMo6Pt(RhN)2
_chemical_formula_sum   'Ga2 Mo12 Pt2 Rh4 N4'
_cell_volume   322.99266414
_cell_formula_units_Z   2
loop_
 _symmetry_equiv_pos_site_id
 _symmetry_equiv_pos_as_xyz
  1  'x, y, z'
loop_
 _atom_site_type_symbol
 _atom_site_label
 _atom_site_symmetry_multiplicity
 _atom_site_fract_x
 _atom_site_fract_y
 _atom_site_fract_z
 _atom_site_occupancy
  Ga  Ga0  1  0.684871  0.178539  0.935418  1
  Ga  Ga1  1  0.184871  0.821461  0.064582  1
  Mo  Mo2  1  0.619887  0.047111  0.545047  1
  Mo  Mo3  1  0.119887  0.952889  0.454953  1
  Mo  Mo4  1  0.869494  0.540912  0.945806  1
  Mo  Mo5  1  0.369494  0.459088  0.054194  1
  Mo  Mo6  1  0.203903  0.623625  0.697624  1
  Mo  Mo7  1  0.300100  0.122553  0.789809  1
  Mo  Mo8  1  0.800100  0.877447  0.210191  1
  Mo  Mo9  1  0.703903  0.376375  0.302376  1
  Mo  Mo10  1  0.048543  0.208798  0.129229  1
  Mo  Mo11  1  0.958939  0.302778  0.624753  1
  Mo  Mo12  1  0.548543  0.791202  0.870771  1
  Mo  Mo13  1  0.458939  0.697222  0.375247  1
  Pt  Pt14  1  0.811013  0.687960  0.565979  1
  Pt  Pt15  1  0.311013  0.312040  0.434021  1
  Rh  Rh16  1  0.061341  0.570872  0.299760  1
  Rh  Rh17  1  0.436982  0.060434  0.175423  1
  Rh  Rh18  1  0.561341  0.429128  0.700240  1
  Rh  Rh19  1  0.936982  0.939566  0.824577  1
  N  N20  1  0.375525  0.872442  0.619714  1
  N  N21  1  0.875525  0.127558  0.380286  1
  N  N22  1  0.129405  0.375194  0.874744  1
  N  N23  1  0.629405  0.624806  0.125256  1
