# generated using pymatgen
data_U4Ga4Tc7P2
_symmetry_space_group_name_H-M   'P 1'
_cell_length_a   7.14994857
_cell_length_b   7.14994910
_cell_length_c   7.18487553
_cell_angle_alpha   109.30901375
_cell_angle_beta   109.30901771
_cell_angle_gamma   109.59951511
_symmetry_Int_Tables_number   1
_chemical_formula_structural   U4Ga4Tc7P2
_chemical_formula_sum   'U4 Ga4 Tc7 P2'
_cell_volume   283.43085715
_cell_formula_units_Z   1
loop_
 _symmetry_equiv_pos_site_id
 _symmetry_equiv_pos_as_xyz
  1  'x, y, z'
loop_
 _atom_site_type_symbol
 _atom_site_label
 _atom_site_symmetry_multiplicity
 _atom_site_fract_x
 _atom_site_fract_y
 _atom_site_fract_z
 _atom_site_occupancy
  U  U0  1  0.469094  0.469094  0.471355  1
  U  U1  1  0.003144  0.503144  0.006288  1
  U  U2  1  0.503144  0.003144  0.006288  1
  U  U3  1  0.002262  0.002262  0.471355  1
  Ga  Ga4  1  0.714516  0.989057  0.703573  1
  Ga  Ga5  1  0.682937  0.682937  0.980676  1
  Ga  Ga6  1  0.297739  0.297739  0.980676  1
  Ga  Ga7  1  0.989057  0.714516  0.703573  1
  Tc  Tc8  1  0.496867  0.747220  0.244087  1
  Tc  Tc9  1  0.748178  0.248178  0.496356  1
  Tc  Tc10  1  0.248178  0.748178  0.496356  1
  Tc  Tc11  1  0.240630  0.501453  0.742083  1
  Tc  Tc12  1  0.034425  0.034425  0.068851  1
  Tc  Tc13  1  0.501453  0.240630  0.742083  1
  Tc  Tc14  1  0.747220  0.496867  0.244087  1
  P  P15  1  0.994069  0.327086  0.321155  1
  P  P16  1  0.327086  0.994069  0.321155  1
