# generated using pymatgen
data_LuZr3(Co5P3)4
_symmetry_space_group_name_H-M   'P 1'
_cell_length_a   3.60116900
_cell_length_b   10.17225102
_cell_length_c   11.62084802
_cell_angle_alpha   90.00684280
_cell_angle_beta   90.00000000
_cell_angle_gamma   90.00000000
_symmetry_Int_Tables_number   1
_chemical_formula_structural   LuZr3(Co5P3)4
_chemical_formula_sum   'Lu1 Zr3 Co20 P12'
_cell_volume   425.69484387
_cell_formula_units_Z   1
loop_
 _symmetry_equiv_pos_site_id
 _symmetry_equiv_pos_as_xyz
  1  'x, y, z'
loop_
 _atom_site_type_symbol
 _atom_site_label
 _atom_site_symmetry_multiplicity
 _atom_site_fract_x
 _atom_site_fract_y
 _atom_site_fract_z
 _atom_site_occupancy
  Lu  Lu0  1  0.750000  0.082149  0.796594  1
  Zr  Zr1  1  0.250000  0.581265  0.702269  1
  Zr  Zr2  1  0.250000  0.918567  0.202393  1
  Zr  Zr3  1  0.750000  0.418726  0.297556  1
  Co  Co4  1  0.250000  0.719050  0.994260  1
  Co  Co5  1  0.250000  0.780373  0.492754  1
  Co  Co6  1  0.750000  0.281351  0.006866  1
  Co  Co7  1  0.750000  0.218993  0.507221  1
  Co  Co8  1  0.250000  0.409366  0.486343  1
  Co  Co9  1  0.250000  0.090653  0.988643  1
  Co  Co10  1  0.750000  0.590668  0.513205  1
  Co  Co11  1  0.750000  0.907152  0.014622  1
  Co  Co12  1  0.250000  0.224264  0.178573  1
  Co  Co13  1  0.250000  0.278029  0.677308  1
  Co  Co14  1  0.750000  0.775789  0.822493  1
  Co  Co15  1  0.750000  0.723684  0.322127  1
  Co  Co16  1  0.250000  0.881588  0.699150  1
  Co  Co17  1  0.250000  0.616291  0.200685  1
  Co  Co18  1  0.750000  0.116737  0.299378  1
  Co  Co19  1  0.750000  0.384889  0.799914  1
  Co  Co20  1  0.250000  0.468274  0.930906  1
  Co  Co21  1  0.250000  0.032989  0.429345  1
  Co  Co22  1  0.750000  0.533052  0.070025  1
  Co  Co23  1  0.750000  0.965615  0.567858  1
  P  P24  1  0.250000  0.419415  0.114260  1
  P  P25  1  0.250000  0.080754  0.612424  1
  P  P26  1  0.750000  0.580982  0.886114  1
  P  P27  1  0.750000  0.919289  0.385046  1
  P  P28  1  0.250000  0.268188  0.870464  1
  P  P29  1  0.250000  0.233370  0.370076  1
  P  P30  1  0.750000  0.732790  0.130747  1
  P  P31  1  0.750000  0.766605  0.630098  1
  P  P32  1  0.250000  0.600114  0.389735  1
  P  P33  1  0.250000  0.899005  0.889939  1
  P  P34  1  0.750000  0.399829  0.610523  1
  P  P35  1  0.750000  0.100145  0.110086  1
