# generated using pymatgen
data_DyHo3BCl6
_symmetry_space_group_name_H-M   'P 1'
_cell_length_a   3.85404500
_cell_length_b   12.63227100
_cell_length_c   13.09847003
_cell_angle_alpha   90.04549239
_cell_angle_beta   90.00000000
_cell_angle_gamma   90.00000000
_symmetry_Int_Tables_number   1
_chemical_formula_structural   DyHo3BCl6
_chemical_formula_sum   'Dy2 Ho6 B2 Cl12'
_cell_volume   637.70327736
_cell_formula_units_Z   2
loop_
 _symmetry_equiv_pos_site_id
 _symmetry_equiv_pos_as_xyz
  1  'x, y, z'
loop_
 _atom_site_type_symbol
 _atom_site_label
 _atom_site_symmetry_multiplicity
 _atom_site_fract_x
 _atom_site_fract_y
 _atom_site_fract_z
 _atom_site_occupancy
  Dy  Dy0  1  0.500000  0.126380  0.851292  1
  Dy  Dy1  1  0.500000  0.873620  0.148708  1
  Ho  Ho2  1  0.000000  0.105953  0.083925  1
  Ho  Ho3  1  0.000000  0.894047  0.916075  1
  Ho  Ho4  1  0.000000  0.606010  0.416045  1
  Ho  Ho5  1  0.000000  0.393990  0.583955  1
  Ho  Ho6  1  0.500000  0.626166  0.648454  1
  Ho  Ho7  1  0.500000  0.373834  0.351546  1
  B  B8  1  0.500000  0.000000  0.000000  1
  B  B9  1  0.500000  0.500000  0.500000  1
  Cl  Cl10  1  0.500000  0.268203  0.682318  1
  Cl  Cl11  1  0.500000  0.731797  0.317682  1
  Cl  Cl12  1  0.500000  0.767906  0.817347  1
  Cl  Cl13  1  0.500000  0.232094  0.182653  1
  Cl  Cl14  1  0.000000  0.256611  0.929722  1
  Cl  Cl15  1  0.000000  0.743389  0.070278  1
  Cl  Cl16  1  0.000000  0.478185  0.243766  1
  Cl  Cl17  1  0.000000  0.521815  0.756234  1
  Cl  Cl18  1  0.000000  0.978628  0.256538  1
  Cl  Cl19  1  0.000000  0.021372  0.743462  1
  Cl  Cl20  1  0.000000  0.243779  0.429362  1
  Cl  Cl21  1  0.000000  0.756221  0.570638  1
