# generated using pymatgen
data_Nd4Ga8Ge2Ir5Rh
_symmetry_space_group_name_H-M   'P 1'
_cell_length_a   8.59871357
_cell_length_b   8.71055992
_cell_length_c   8.71055916
_cell_angle_alpha   140.95815792
_cell_angle_beta   108.46439563
_cell_angle_gamma   84.80781201
_symmetry_Int_Tables_number   1
_chemical_formula_structural   Nd4Ga8Ge2Ir5Rh
_chemical_formula_sum   'Nd4 Ga8 Ge2 Ir5 Rh1'
_cell_volume   376.36214631
_cell_formula_units_Z   1
loop_
 _symmetry_equiv_pos_site_id
 _symmetry_equiv_pos_as_xyz
  1  'x, y, z'
loop_
 _atom_site_type_symbol
 _atom_site_label
 _atom_site_symmetry_multiplicity
 _atom_site_fract_x
 _atom_site_fract_y
 _atom_site_fract_z
 _atom_site_occupancy
  Nd  Nd0  1  0.864674  0.635133  0.229465  1
  Nd  Nd1  1  0.135326  0.364792  0.770459  1
  Nd  Nd2  1  0.408475  0.137593  0.270845  1
  Nd  Nd3  1  0.591525  0.862370  0.729118  1
  Ga  Ga4  1  0.500000  0.752011  0.252011  1
  Ga  Ga5  1  0.500000  0.247966  0.747966  1
  Ga  Ga6  1  0.209204  0.959599  0.748979  1
  Ga  Ga7  1  0.790796  0.539775  0.750395  1
  Ga  Ga8  1  0.790812  0.040423  0.250976  1
  Ga  Ga9  1  0.209188  0.460163  0.249610  1
  Ga  Ga10  1  0.079220  0.909423  0.169588  1
  Ga  Ga11  1  0.920780  0.090366  0.830202  1
  Ge  Ge12  1  0.739554  0.407970  0.331947  1
  Ge  Ge13  1  0.260446  0.592392  0.668415  1
  Ir  Ir14  1  0.000000  0.250727  0.250727  1
  Ir  Ir15  1  0.253932  0.851919  0.401728  1
  Ir  Ir16  1  0.746068  0.147795  0.597987  1
  Ir  Ir17  1  0.452224  0.354032  0.098300  1
  Ir  Ir18  1  0.547776  0.646077  0.901809  1
  Rh  Rh19  1  0.000000  0.749472  0.749472  1
