# generated using pymatgen
data_Co6Mo5AsW
_symmetry_space_group_name_H-M   'P 1'
_cell_length_a   8.92029253
_cell_length_b   8.92029231
_cell_length_c   8.92029424
_cell_angle_alpha   31.19864655
_cell_angle_beta   31.19865132
_cell_angle_gamma   31.19864127
_symmetry_Int_Tables_number   1
_chemical_formula_structural   Co6Mo5AsW
_chemical_formula_sum   'Co6 Mo5 As1 W1'
_cell_volume   169.01342717
_cell_formula_units_Z   1
loop_
 _symmetry_equiv_pos_site_id
 _symmetry_equiv_pos_as_xyz
  1  'x, y, z'
loop_
 _atom_site_type_symbol
 _atom_site_label
 _atom_site_symmetry_multiplicity
 _atom_site_fract_x
 _atom_site_fract_y
 _atom_site_fract_z
 _atom_site_occupancy
  Co  Co0  1  0.090930  0.090930  0.584469  1
  Co  Co1  1  0.415271  0.909262  0.909262  1
  Co  Co2  1  0.584469  0.090930  0.090930  1
  Co  Co3  1  0.909262  0.909262  0.415271  1
  Co  Co4  1  0.909262  0.415271  0.909262  1
  Co  Co5  1  0.090930  0.584469  0.090930  1
  Mo  Mo6  1  0.651300  0.651300  0.651300  1
  Mo  Mo7  1  0.451374  0.451374  0.451374  1
  Mo  Mo8  1  0.548570  0.548570  0.548570  1
  Mo  Mo9  1  0.167731  0.167731  0.167731  1
  Mo  Mo10  1  0.348746  0.348746  0.348746  1
  As  As11  1  0.999910  0.999910  0.999910  1
  W  W12  1  0.832246  0.832246  0.832246  1
