# generated using pymatgen
data_Ho3ErMn3VB16
_symmetry_space_group_name_H-M   'P 1'
_cell_length_a   3.41146000
_cell_length_b   5.90559995
_cell_length_c   11.41593702
_cell_angle_alpha   89.94999204
_cell_angle_beta   90.00000000
_cell_angle_gamma   90.00000000
_symmetry_Int_Tables_number   1
_chemical_formula_structural   Ho3ErMn3VB16
_chemical_formula_sum   'Ho3 Er1 Mn3 V1 B16'
_cell_volume   229.99357629
_cell_formula_units_Z   1
loop_
 _symmetry_equiv_pos_site_id
 _symmetry_equiv_pos_as_xyz
  1  'x, y, z'
loop_
 _atom_site_type_symbol
 _atom_site_label
 _atom_site_symmetry_multiplicity
 _atom_site_fract_x
 _atom_site_fract_y
 _atom_site_fract_z
 _atom_site_occupancy
  Ho  Ho0  1  0.500000  0.373903  0.849927  1
  Ho  Ho1  1  0.500000  0.125238  0.348543  1
  Ho  Ho2  1  0.500000  0.876283  0.652059  1
  Er  Er3  1  0.500000  0.626325  0.148905  1
  Mn  Mn4  1  0.500000  0.376541  0.582656  1
  Mn  Mn5  1  0.500000  0.127968  0.082206  1
  Mn  Mn6  1  0.500000  0.871638  0.915482  1
  V  V7  1  0.500000  0.624502  0.418822  1
  B  B8  1  0.000000  0.975508  0.190126  1
  B  B9  1  0.000000  0.025125  0.808875  1
  B  B10  1  0.000000  0.472994  0.307215  1
  B  B11  1  0.000000  0.523199  0.692243  1
  B  B12  1  0.000000  0.784670  0.313392  1
  B  B13  1  0.000000  0.219856  0.683969  1
  B  B14  1  0.000000  0.280659  0.182839  1
  B  B15  1  0.000000  0.718746  0.816436  1
  B  B16  1  0.000000  0.865560  0.469019  1
  B  B17  1  0.000000  0.138014  0.534176  1
  B  B18  1  0.000000  0.362105  0.031738  1
  B  B19  1  0.000000  0.637837  0.967666  1
  B  B20  1  0.000000  0.887225  0.045782  1
  B  B21  1  0.000000  0.111885  0.953081  1
  B  B22  1  0.000000  0.383707  0.455595  1
  B  B23  1  0.000000  0.610509  0.549248  1
