# generated using pymatgen
data_Rb6HoInAs4
_symmetry_space_group_name_H-M   'P 1'
_cell_length_a   9.67283841
_cell_length_b   9.67283974
_cell_length_c   9.67283779
_cell_angle_alpha   128.40014742
_cell_angle_beta   69.14294357
_cell_angle_gamma   137.29774728
_symmetry_Int_Tables_number   1
_chemical_formula_structural   Rb6HoInAs4
_chemical_formula_sum   'Rb6 Ho1 In1 As4'
_cell_volume   472.34706608
_cell_formula_units_Z   1
loop_
 _symmetry_equiv_pos_site_id
 _symmetry_equiv_pos_as_xyz
  1  'x, y, z'
loop_
 _atom_site_type_symbol
 _atom_site_label
 _atom_site_symmetry_multiplicity
 _atom_site_fract_x
 _atom_site_fract_y
 _atom_site_fract_z
 _atom_site_occupancy
  Rb  Rb0  1  0.806112  0.189083  0.011421  1
  Rb  Rb1  1  0.693888  0.705310  0.382974  1
  Rb  Rb2  1  0.750000  0.250000  0.500000  1
  Rb  Rb3  1  0.250000  0.750000  0.500001  1
  Rb  Rb4  1  0.322338  0.310916  0.617027  1
  Rb  Rb5  1  0.177662  0.794690  0.988578  1
  Ho  Ho6  1  0.250000  0.250000  0.000000  1
  In  In7  1  0.750000  0.750000  0.000000  1
  As  As8  1  0.408202  0.692324  0.090218  1
  As  As9  1  0.091798  0.182017  0.284123  1
  As  As10  1  0.897893  0.807676  0.715877  1
  As  As11  1  0.602106  0.317984  0.909782  1
