# generated using pymatgen
data_Li6Ca4AlCd
_symmetry_space_group_name_H-M   'P 1'
_cell_length_a   6.03802800
_cell_length_b   6.03802795
_cell_length_c   9.65254500
_cell_angle_alpha   90.00000000
_cell_angle_beta   90.00000000
_cell_angle_gamma   120.00001124
_symmetry_Int_Tables_number   1
_chemical_formula_structural   Li6Ca4AlCd
_chemical_formula_sum   'Li6 Ca4 Al1 Cd1'
_cell_volume   304.76329407
_cell_formula_units_Z   1
loop_
 _symmetry_equiv_pos_site_id
 _symmetry_equiv_pos_as_xyz
  1  'x, y, z'
loop_
 _atom_site_type_symbol
 _atom_site_label
 _atom_site_symmetry_multiplicity
 _atom_site_fract_x
 _atom_site_fract_y
 _atom_site_fract_z
 _atom_site_occupancy
  Li  Li0  1  0.161161  0.322320  0.750496  1
  Li  Li1  1  0.161161  0.838839  0.750496  1
  Li  Li2  1  0.322320  0.161161  0.249504  1
  Li  Li3  1  0.838839  0.677680  0.249504  1
  Li  Li4  1  0.677680  0.838839  0.750496  1
  Li  Li5  1  0.838839  0.161161  0.249504  1
  Ca  Ca6  1  0.333333  0.666667  0.444068  1
  Ca  Ca7  1  0.666667  0.333333  0.555932  1
  Ca  Ca8  1  0.666667  0.333333  0.943580  1
  Ca  Ca9  1  0.333333  0.666667  0.056420  1
  Al  Al10  1  0.000000  0.000000  0.000000  1
  Cd  Cd11  1  0.000000  0.000000  0.500000  1
