# generated using pymatgen
data_Tm6Sc4InBi5
_symmetry_space_group_name_H-M   'P 1'
_cell_length_a   6.20188300
_cell_length_b   8.88018208
_cell_length_c   8.86410800
_cell_angle_alpha   119.50028138
_cell_angle_beta   90.00042950
_cell_angle_gamma   89.99883425
_symmetry_Int_Tables_number   1
_chemical_formula_structural   Tm6Sc4InBi5
_chemical_formula_sum   'Tm6 Sc4 In1 Bi5'
_cell_volume   424.88954777
_cell_formula_units_Z   1
loop_
 _symmetry_equiv_pos_site_id
 _symmetry_equiv_pos_as_xyz
  1  'x, y, z'
loop_
 _atom_site_type_symbol
 _atom_site_label
 _atom_site_symmetry_multiplicity
 _atom_site_fract_x
 _atom_site_fract_y
 _atom_site_fract_z
 _atom_site_occupancy
  Tm  Tm0  1  0.750010  0.237350  0.996153  1
  Tm  Tm1  1  0.749990  0.760462  0.757675  1
  Tm  Tm2  1  0.749991  0.998724  0.236236  1
  Tm  Tm3  1  0.249992  0.767847  0.009888  1
  Tm  Tm4  1  0.250003  0.235107  0.244062  1
  Tm  Tm5  1  0.250005  0.000884  0.758032  1
  Sc  Sc6  1  0.498333  0.328919  0.664275  1
  Sc  Sc7  1  0.498120  0.671147  0.333985  1
  Sc  Sc8  1  0.001873  0.671160  0.333994  1
  Sc  Sc9  1  0.001694  0.328893  0.664252  1
  In  In10  1  0.250009  0.999585  0.400588  1
  Bi  Bi11  1  0.749995  0.602495  0.997795  1
  Bi  Bi12  1  0.749983  0.394917  0.393373  1
  Bi  Bi13  1  0.749991  0.000191  0.599566  1
  Bi  Bi14  1  0.250004  0.395650  0.001458  1
  Bi  Bi15  1  0.250006  0.606670  0.608667  1
