# generated using pymatgen
data_Ta4Cr3Ga4Co
_symmetry_space_group_name_H-M   'P 1'
_cell_length_a   4.91213666
_cell_length_b   4.90981425
_cell_length_c   8.26041300
_cell_angle_alpha   90.00000000
_cell_angle_beta   90.00000000
_cell_angle_gamma   60.81847727
_symmetry_Int_Tables_number   1
_chemical_formula_structural   Ta4Cr3Ga4Co
_chemical_formula_sum   'Ta4 Cr3 Ga4 Co1'
_cell_volume   173.93660371
_cell_formula_units_Z   1
loop_
 _symmetry_equiv_pos_site_id
 _symmetry_equiv_pos_as_xyz
  1  'x, y, z'
loop_
 _atom_site_type_symbol
 _atom_site_label
 _atom_site_symmetry_multiplicity
 _atom_site_fract_x
 _atom_site_fract_y
 _atom_site_fract_z
 _atom_site_occupancy
  Ta  Ta0  1  0.335970  0.335992  0.556563  1
  Ta  Ta1  1  0.665501  0.665544  0.430666  1
  Ta  Ta2  1  0.665501  0.665544  0.069334  1
  Ta  Ta3  1  0.335970  0.335992  0.943437  1
  Cr  Cr4  1  0.173418  0.643474  0.250000  1
  Cr  Cr5  1  0.643394  0.173551  0.250000  1
  Cr  Cr6  1  0.170181  0.170265  0.250000  1
  Ga  Ga7  1  0.992331  0.992231  0.497063  1
  Ga  Ga8  1  0.992331  0.992231  0.002937  1
  Ga  Ga9  1  0.835115  0.351884  0.750000  1
  Ga  Ga10  1  0.351938  0.835055  0.750000  1
  Co  Co11  1  0.838349  0.838234  0.750000  1
