# generated using pymatgen
data_AcAl2Ga4Cu
_symmetry_space_group_name_H-M   'P 1'
_cell_length_a   4.45788600
_cell_length_b   4.45788600
_cell_length_c   7.92643900
_cell_angle_alpha   90.00000000
_cell_angle_beta   90.00000000
_cell_angle_gamma   90.00000000
_symmetry_Int_Tables_number   1
_chemical_formula_structural   AcAl2Ga4Cu
_chemical_formula_sum   'Ac1 Al2 Ga4 Cu1'
_cell_volume   157.52012153
_cell_formula_units_Z   1
loop_
 _symmetry_equiv_pos_site_id
 _symmetry_equiv_pos_as_xyz
  1  'x, y, z'
loop_
 _atom_site_type_symbol
 _atom_site_label
 _atom_site_symmetry_multiplicity
 _atom_site_fract_x
 _atom_site_fract_y
 _atom_site_fract_z
 _atom_site_occupancy
  Ac  Ac0  1  0.000000  0.000000  0.001437  1
  Al  Al1  1  0.500000  0.000000  0.663474  1
  Al  Al2  1  0.000000  0.500000  0.663474  1
  Ga  Ga3  1  0.500000  0.500000  0.160288  1
  Ga  Ga4  1  0.500000  0.500000  0.842189  1
  Ga  Ga5  1  0.000000  0.500000  0.333218  1
  Ga  Ga6  1  0.500000  0.000000  0.333218  1
  Cu  Cu7  1  0.000000  0.000000  0.502700  1
