# generated using pymatgen
data_K4MnCrGa2F14
_symmetry_space_group_name_H-M   'P 1'
_cell_length_a   7.78814401
_cell_length_b   7.78814394
_cell_length_c   7.84847667
_cell_angle_alpha   121.32096840
_cell_angle_beta   117.16453714
_cell_angle_gamma   90.92004608
_symmetry_Int_Tables_number   1
_chemical_formula_structural   K4MnCrGa2F14
_chemical_formula_sum   'K4 Mn1 Cr1 Ga2 F14'
_cell_volume   341.11955985
_cell_formula_units_Z   1
loop_
 _symmetry_equiv_pos_site_id
 _symmetry_equiv_pos_as_xyz
  1  'x, y, z'
loop_
 _atom_site_type_symbol
 _atom_site_label
 _atom_site_symmetry_multiplicity
 _atom_site_fract_x
 _atom_site_fract_y
 _atom_site_fract_z
 _atom_site_occupancy
  K  K0  1  0.500000  0.500000  0.000000  1
  K  K1  1  0.000000  0.000000  0.000000  1
  K  K2  1  0.000000  0.500000  0.000000  1
  K  K3  1  0.000000  0.000000  0.500000  1
  Mn  Mn4  1  0.500000  0.500000  0.500000  1
  Cr  Cr5  1  0.500000  0.000000  0.000000  1
  Ga  Ga6  1  0.000000  0.500000  0.500000  1
  Ga  Ga7  1  0.500000  0.000000  0.500000  1
  F  F8  1  0.875589  0.582636  0.292773  1
  F  F9  1  0.210136  0.917184  0.292773  1
  F  F10  1  0.177683  0.792037  0.748679  1
  F  F11  1  0.457838  0.702491  0.387101  1
  F  F12  1  0.456642  0.070997  0.748679  1
  F  F13  1  0.184611  0.429263  0.387101  1
  F  F14  1  0.815389  0.570737  0.612899  1
  F  F15  1  0.543358  0.929003  0.251321  1
  F  F16  1  0.542162  0.297509  0.612899  1
  F  F17  1  0.822317  0.207963  0.251321  1
  F  F18  1  0.392008  0.241168  0.133177  1
  F  F19  1  0.124411  0.417364  0.707227  1
  F  F20  1  0.789864  0.082816  0.707227  1
  F  F21  1  0.607992  0.758832  0.866823  1
