# generated using pymatgen
data_Tb5YIrO12
_symmetry_space_group_name_H-M   'P 1'
_cell_length_a   6.50944090
_cell_length_b   6.51599348
_cell_length_c   6.51434567
_cell_angle_alpha   98.68978623
_cell_angle_beta   98.61859656
_cell_angle_gamma   98.69078378
_symmetry_Int_Tables_number   1
_chemical_formula_structural   Tb5YIrO12
_chemical_formula_sum   'Tb5 Y1 Ir1 O12'
_cell_volume   265.75166629
_cell_formula_units_Z   1
loop_
 _symmetry_equiv_pos_site_id
 _symmetry_equiv_pos_as_xyz
  1  'x, y, z'
loop_
 _atom_site_type_symbol
 _atom_site_label
 _atom_site_symmetry_multiplicity
 _atom_site_fract_x
 _atom_site_fract_y
 _atom_site_fract_z
 _atom_site_occupancy
  Tb  Tb0  1  0.856392  0.389003  0.686230  1
  Tb  Tb1  1  0.611031  0.313754  0.143739  1
  Tb  Tb2  1  0.313483  0.143637  0.610922  1
  Tb  Tb3  1  0.686338  0.856217  0.388878  1
  Tb  Tb4  1  0.388749  0.686301  0.856177  1
  Y  Y5  1  0.144033  0.610368  0.314221  1
  Ir  Ir6  1  0.000047  0.000087  0.000127  1
  O  O7  1  0.929001  0.035073  0.703185  1
  O  O8  1  0.965035  0.297066  0.071144  1
  O  O9  1  0.591766  0.177711  0.434331  1
  O  O10  1  0.823355  0.565952  0.407840  1
  O  O11  1  0.297047  0.071057  0.964863  1
  O  O12  1  0.565581  0.408464  0.822544  1
  O  O13  1  0.433415  0.591611  0.177944  1
  O  O14  1  0.702870  0.929021  0.035075  1
  O  O15  1  0.177755  0.434201  0.591534  1
  O  O16  1  0.408166  0.822382  0.565551  1
  O  O17  1  0.034970  0.703222  0.929060  1
  O  O18  1  0.070967  0.964873  0.296634  1
