# generated using pymatgen
data_TbY2(HgPd)3
_symmetry_space_group_name_H-M   'P 1'
_cell_length_a   7.77224700
_cell_length_b   7.75779834
_cell_length_c   3.82150000
_cell_angle_alpha   90.00000000
_cell_angle_beta   90.00000000
_cell_angle_gamma   120.06163340
_symmetry_Int_Tables_number   1
_chemical_formula_structural   TbY2(HgPd)3
_chemical_formula_sum   'Tb1 Y2 Hg3 Pd3'
_cell_volume   199.42496204
_cell_formula_units_Z   1
loop_
 _symmetry_equiv_pos_site_id
 _symmetry_equiv_pos_as_xyz
  1  'x, y, z'
loop_
 _atom_site_type_symbol
 _atom_site_label
 _atom_site_symmetry_multiplicity
 _atom_site_fract_x
 _atom_site_fract_y
 _atom_site_fract_z
 _atom_site_occupancy
  Tb  Tb0  1  0.398184  0.000000  0.500000  1
  Y  Y1  1  0.999784  0.397169  0.500000  1
  Y  Y2  1  0.602614  0.602830  0.500000  1
  Hg  Hg3  1  0.730091  0.000000  0.000000  1
  Hg  Hg4  1  0.270282  0.270624  0.000000  1
  Hg  Hg5  1  0.999658  0.729376  0.000000  1
  Pd  Pd6  1  0.665721  0.332457  0.000000  1
  Pd  Pd7  1  0.333264  0.667543  0.000000  1
  Pd  Pd8  1  0.000399  0.000000  0.500000  1
