# generated using pymatgen
data_LuP3Ir4Rh
_symmetry_space_group_name_H-M   'P 1'
_cell_length_a   3.98723200
_cell_length_b   10.89089400
_cell_length_c   12.48385100
_cell_angle_alpha   90.00000000
_cell_angle_beta   90.00000000
_cell_angle_gamma   90.00000000
_symmetry_Int_Tables_number   1
_chemical_formula_structural   LuP3Ir4Rh
_chemical_formula_sum   'Lu4 P12 Ir16 Rh4'
_cell_volume   542.10525073
_cell_formula_units_Z   4
loop_
 _symmetry_equiv_pos_site_id
 _symmetry_equiv_pos_as_xyz
  1  'x, y, z'
loop_
 _atom_site_type_symbol
 _atom_site_label
 _atom_site_symmetry_multiplicity
 _atom_site_fract_x
 _atom_site_fract_y
 _atom_site_fract_z
 _atom_site_occupancy
  Lu  Lu0  1  0.250000  0.582602  0.703477  1
  Lu  Lu1  1  0.250000  0.917398  0.203477  1
  Lu  Lu2  1  0.750000  0.417398  0.296523  1
  Lu  Lu3  1  0.750000  0.082602  0.796523  1
  P  P4  1  0.250000  0.425164  0.115666  1
  P  P5  1  0.250000  0.074836  0.615666  1
  P  P6  1  0.750000  0.574836  0.884334  1
  P  P7  1  0.750000  0.925164  0.384334  1
  P  P8  1  0.250000  0.262365  0.867480  1
  P  P9  1  0.250000  0.237635  0.367480  1
  P  P10  1  0.750000  0.737635  0.132520  1
  P  P11  1  0.750000  0.762365  0.632520  1
  P  P12  1  0.250000  0.596463  0.388148  1
  P  P13  1  0.250000  0.903537  0.888148  1
  P  P14  1  0.750000  0.403537  0.611852  1
  P  P15  1  0.750000  0.096463  0.111852  1
  Ir  Ir16  1  0.250000  0.410892  0.475834  1
  Ir  Ir17  1  0.250000  0.089108  0.975834  1
  Ir  Ir18  1  0.750000  0.589108  0.524166  1
  Ir  Ir19  1  0.750000  0.910892  0.024166  1
  Ir  Ir20  1  0.250000  0.232878  0.178628  1
  Ir  Ir21  1  0.250000  0.267122  0.678628  1
  Ir  Ir22  1  0.750000  0.767122  0.821372  1
  Ir  Ir23  1  0.750000  0.732878  0.321372  1
  Ir  Ir24  1  0.250000  0.887453  0.706608  1
  Ir  Ir25  1  0.250000  0.612547  0.206608  1
  Ir  Ir26  1  0.750000  0.112547  0.293392  1
  Ir  Ir27  1  0.750000  0.387453  0.793392  1
  Ir  Ir28  1  0.250000  0.463897  0.928941  1
  Ir  Ir29  1  0.250000  0.036103  0.428941  1
  Ir  Ir30  1  0.750000  0.536103  0.071059  1
  Ir  Ir31  1  0.750000  0.963897  0.571059  1
  Rh  Rh32  1  0.250000  0.732570  0.992166  1
  Rh  Rh33  1  0.250000  0.767430  0.492166  1
  Rh  Rh34  1  0.750000  0.267430  0.007834  1
  Rh  Rh35  1  0.750000  0.232570  0.507834  1
