# generated using pymatgen
data_Tb19Ho(Cd3Ni)2
_symmetry_space_group_name_H-M   'P 1'
_cell_length_a   9.59326400
_cell_length_b   9.59326408
_cell_length_c   9.84666600
_cell_angle_alpha   90.00000000
_cell_angle_beta   90.00000000
_cell_angle_gamma   119.99999282
_symmetry_Int_Tables_number   1
_chemical_formula_structural   Tb19Ho(Cd3Ni)2
_chemical_formula_sum   'Tb19 Ho1 Cd6 Ni2'
_cell_volume   784.78856401
_cell_formula_units_Z   1
loop_
 _symmetry_equiv_pos_site_id
 _symmetry_equiv_pos_as_xyz
  1  'x, y, z'
loop_
 _atom_site_type_symbol
 _atom_site_label
 _atom_site_symmetry_multiplicity
 _atom_site_fract_x
 _atom_site_fract_y
 _atom_site_fract_z
 _atom_site_occupancy
  Tb  Tb0  1  0.000000  0.000000  0.000000  1
  Tb  Tb1  1  0.543717  0.456283  0.250050  1
  Tb  Tb2  1  0.543717  0.087433  0.250050  1
  Tb  Tb3  1  0.912567  0.456283  0.250050  1
  Tb  Tb4  1  0.456283  0.543717  0.749950  1
  Tb  Tb5  1  0.456283  0.912567  0.749950  1
  Tb  Tb6  1  0.087433  0.543717  0.749950  1
  Tb  Tb7  1  0.209948  0.790052  0.436461  1
  Tb  Tb8  1  0.209948  0.419897  0.436461  1
  Tb  Tb9  1  0.580103  0.790052  0.436461  1
  Tb  Tb10  1  0.790052  0.209948  0.563539  1
  Tb  Tb11  1  0.790052  0.580103  0.563539  1
  Tb  Tb12  1  0.419897  0.209948  0.563539  1
  Tb  Tb13  1  0.789757  0.210243  0.936988  1
  Tb  Tb14  1  0.789757  0.579514  0.936988  1
  Tb  Tb15  1  0.420486  0.210243  0.936988  1
  Tb  Tb16  1  0.210243  0.789757  0.063012  1
  Tb  Tb17  1  0.210243  0.420486  0.063012  1
  Tb  Tb18  1  0.579514  0.789757  0.063012  1
  Ho  Ho19  1  0.000000  0.000000  0.500000  1
  Cd  Cd20  1  0.885593  0.114407  0.250630  1
  Cd  Cd21  1  0.885593  0.771186  0.250630  1
  Cd  Cd22  1  0.228814  0.114407  0.250630  1
  Cd  Cd23  1  0.114407  0.885593  0.749370  1
  Cd  Cd24  1  0.114407  0.228814  0.749370  1
  Cd  Cd25  1  0.771186  0.885593  0.749370  1
  Ni  Ni26  1  0.333333  0.666667  0.250471  1
  Ni  Ni27  1  0.666667  0.333333  0.749529  1
