# generated using pymatgen
data_LiTm2Tc(P3Ir4)2
_symmetry_space_group_name_H-M   'P 1'
_cell_length_a   3.98556100
_cell_length_b   10.86591900
_cell_length_c   12.47332900
_cell_angle_alpha   90.00000000
_cell_angle_beta   90.00000000
_cell_angle_gamma   90.00000000
_symmetry_Int_Tables_number   1
_chemical_formula_structural   LiTm2Tc(P3Ir4)2
_chemical_formula_sum   'Li2 Tm4 Tc2 P12 Ir16'
_cell_volume   540.17975224
_cell_formula_units_Z   2
loop_
 _symmetry_equiv_pos_site_id
 _symmetry_equiv_pos_as_xyz
  1  'x, y, z'
loop_
 _atom_site_type_symbol
 _atom_site_label
 _atom_site_symmetry_multiplicity
 _atom_site_fract_x
 _atom_site_fract_y
 _atom_site_fract_z
 _atom_site_occupancy
  Li  Li0  1  0.750000  0.293849  0.009586  1
  Li  Li1  1  0.750000  0.206151  0.509586  1
  Tm  Tm2  1  0.250000  0.579446  0.700980  1
  Tm  Tm3  1  0.250000  0.920554  0.200980  1
  Tm  Tm4  1  0.750000  0.417843  0.293303  1
  Tm  Tm5  1  0.750000  0.082157  0.793303  1
  Tc  Tc6  1  0.250000  0.719590  0.991206  1
  Tc  Tc7  1  0.250000  0.780410  0.491206  1
  P  P8  1  0.250000  0.421789  0.117608  1
  P  P9  1  0.250000  0.078211  0.617608  1
  P  P10  1  0.750000  0.574644  0.885104  1
  P  P11  1  0.750000  0.925356  0.385104  1
  P  P12  1  0.250000  0.261261  0.866664  1
  P  P13  1  0.250000  0.238739  0.366664  1
  P  P14  1  0.750000  0.743137  0.132518  1
  P  P15  1  0.750000  0.756863  0.632518  1
  P  P16  1  0.250000  0.597267  0.393694  1
  P  P17  1  0.250000  0.902733  0.893694  1
  P  P18  1  0.750000  0.397352  0.605893  1
  P  P19  1  0.750000  0.102648  0.105893  1
  Ir  Ir20  1  0.250000  0.407870  0.480934  1
  Ir  Ir21  1  0.250000  0.092130  0.980934  1
  Ir  Ir22  1  0.750000  0.592250  0.517283  1
  Ir  Ir23  1  0.750000  0.907750  0.017283  1
  Ir  Ir24  1  0.250000  0.228211  0.180163  1
  Ir  Ir25  1  0.250000  0.271789  0.680163  1
  Ir  Ir26  1  0.750000  0.765381  0.820189  1
  Ir  Ir27  1  0.750000  0.734619  0.320189  1
  Ir  Ir28  1  0.250000  0.890127  0.709882  1
  Ir  Ir29  1  0.250000  0.609873  0.209882  1
  Ir  Ir30  1  0.750000  0.108437  0.292727  1
  Ir  Ir31  1  0.750000  0.391563  0.792727  1
  Ir  Ir32  1  0.250000  0.462198  0.933076  1
  Ir  Ir33  1  0.250000  0.037802  0.433076  1
  Ir  Ir34  1  0.750000  0.546506  0.069192  1
  Ir  Ir35  1  0.750000  0.953494  0.569192  1
