# generated using pymatgen
data_Nd2TmSi2
_symmetry_space_group_name_H-M   'P 1'
_cell_length_a   7.57115700
_cell_length_b   7.57115700
_cell_length_c   4.40848100
_cell_angle_alpha   90.00000000
_cell_angle_beta   90.00000000
_cell_angle_gamma   90.00000000
_symmetry_Int_Tables_number   1
_chemical_formula_structural   Nd2TmSi2
_chemical_formula_sum   'Nd4 Tm2 Si4'
_cell_volume   252.70479203
_cell_formula_units_Z   2
loop_
 _symmetry_equiv_pos_site_id
 _symmetry_equiv_pos_as_xyz
  1  'x, y, z'
loop_
 _atom_site_type_symbol
 _atom_site_label
 _atom_site_symmetry_multiplicity
 _atom_site_fract_x
 _atom_site_fract_y
 _atom_site_fract_z
 _atom_site_occupancy
  Nd  Nd0  1  0.676854  0.176854  0.500000  1
  Nd  Nd1  1  0.323146  0.823146  0.500000  1
  Nd  Nd2  1  0.176854  0.323146  0.500000  1
  Nd  Nd3  1  0.823146  0.676854  0.500000  1
  Tm  Tm4  1  0.000000  0.000000  0.000000  1
  Tm  Tm5  1  0.500000  0.500000  0.000000  1
  Si  Si6  1  0.114154  0.614154  0.000000  1
  Si  Si7  1  0.885846  0.385846  0.000000  1
  Si  Si8  1  0.614154  0.885846  0.000000  1
  Si  Si9  1  0.385846  0.114154  0.000000  1
