# generated using pymatgen
data_DyHo11In2(CoTc)2
_symmetry_space_group_name_H-M   'P 1'
_cell_length_a   8.43535410
_cell_length_b   8.43484619
_cell_length_c   8.43535302
_cell_angle_alpha   112.85688063
_cell_angle_beta   110.99775491
_cell_angle_gamma   104.67149516
_symmetry_Int_Tables_number   1
_chemical_formula_structural   DyHo11In2(CoTc)2
_chemical_formula_sum   'Dy1 Ho11 In2 Co2 Tc2'
_cell_volume   459.46970810
_cell_formula_units_Z   1
loop_
 _symmetry_equiv_pos_site_id
 _symmetry_equiv_pos_as_xyz
  1  'x, y, z'
loop_
 _atom_site_type_symbol
 _atom_site_label
 _atom_site_symmetry_multiplicity
 _atom_site_fract_x
 _atom_site_fract_y
 _atom_site_fract_z
 _atom_site_occupancy
  Dy  Dy0  1  0.673062  0.992929  0.319866  1
  Ho  Ho1  1  0.444225  0.243915  0.200427  1
  Ho  Ho2  1  0.555632  0.756178  0.799401  1
  Ho  Ho3  1  0.043488  0.243915  0.799687  1
  Ho  Ho4  1  0.956777  0.756178  0.200548  1
  Ho  Ho5  1  0.185393  0.287728  0.473012  1
  Ho  Ho6  1  0.814767  0.712236  0.527073  1
  Ho  Ho7  1  0.185163  0.712236  0.897469  1
  Ho  Ho8  1  0.814716  0.287728  0.102335  1
  Ho  Ho9  1  0.326856  0.647032  0.320176  1
  Ho  Ho10  1  0.673030  0.353042  0.680012  1
  Ho  Ho11  1  0.326962  0.006810  0.679849  1
  In  In12  1  0.499959  0.499905  0.999946  1
  In  In13  1  0.999988  0.999985  0.999997  1
  Co  Co14  1  0.110082  0.610056  0.499975  1
  Co  Co15  1  0.890052  0.390145  0.500093  1
  Tc  Tc16  1  0.322137  0.999992  0.322281  1
  Tc  Tc17  1  0.677711  0.999992  0.677855  1
