# generated using pymatgen
data_NdCu3Ni(AgO4)3
_symmetry_space_group_name_H-M   'P 1'
_cell_length_a   6.52561521
_cell_length_b   6.52561553
_cell_length_c   6.61331600
_cell_angle_alpha   109.74369768
_cell_angle_beta   109.74369869
_cell_angle_gamma   109.19736640
_symmetry_Int_Tables_number   1
_chemical_formula_structural   NdCu3Ni(AgO4)3
_chemical_formula_sum   'Nd1 Cu3 Ni1 Ag3 O12'
_cell_volume   216.05727235
_cell_formula_units_Z   1
loop_
 _symmetry_equiv_pos_site_id
 _symmetry_equiv_pos_as_xyz
  1  'x, y, z'
loop_
 _atom_site_type_symbol
 _atom_site_label
 _atom_site_symmetry_multiplicity
 _atom_site_fract_x
 _atom_site_fract_y
 _atom_site_fract_z
 _atom_site_occupancy
  Nd  Nd0  1  0.000000  0.000000  0.000000  1
  Cu  Cu1  1  0.000000  0.500000  0.000000  1
  Cu  Cu2  1  0.500000  0.000000  0.000000  1
  Cu  Cu3  1  0.500000  0.500000  0.500000  1
  Ni  Ni4  1  0.000000  0.000000  0.500000  1
  Ag  Ag5  1  0.000000  0.500000  0.500000  1
  Ag  Ag6  1  0.500000  0.000000  0.500000  1
  Ag  Ag7  1  0.500000  0.500000  0.000000  1
  O  O8  1  0.301675  0.114647  0.830193  1
  O  O9  1  0.698325  0.885353  0.169807  1
  O  O10  1  0.704872  0.523750  0.823024  1
  O  O11  1  0.476250  0.181122  0.299275  1
  O  O12  1  0.187029  0.301675  0.471482  1
  O  O13  1  0.818878  0.295128  0.118154  1
  O  O14  1  0.885353  0.187029  0.715547  1
  O  O15  1  0.812971  0.698325  0.528518  1
  O  O16  1  0.295128  0.476250  0.176976  1
  O  O17  1  0.523750  0.818878  0.700725  1
  O  O18  1  0.181122  0.704872  0.881846  1
  O  O19  1  0.114647  0.812971  0.284453  1
