# generated using pymatgen
data_Ba2LaPaSe6
_symmetry_space_group_name_H-M   'P 1'
_cell_length_a   7.75960927
_cell_length_b   7.75960912
_cell_length_c   7.89950200
_cell_angle_alpha   120.02034920
_cell_angle_beta   120.02034001
_cell_angle_gamma   60.06612472
_symmetry_Int_Tables_number   1
_chemical_formula_structural   Ba2LaPaSe6
_chemical_formula_sum   'Ba2 La1 Pa1 Se6'
_cell_volume   336.39321332
_cell_formula_units_Z   1
loop_
 _symmetry_equiv_pos_site_id
 _symmetry_equiv_pos_as_xyz
  1  'x, y, z'
loop_
 _atom_site_type_symbol
 _atom_site_label
 _atom_site_symmetry_multiplicity
 _atom_site_fract_x
 _atom_site_fract_y
 _atom_site_fract_z
 _atom_site_occupancy
  Ba  Ba0  1  0.748563  0.748563  0.227911  1
  Ba  Ba1  1  0.251437  0.251437  0.772088  1
  La  La2  1  0.500000  0.500000  0.500000  1
  Pa  Pa3  1  0.000000  0.000000  0.000000  1
  Se  Se4  1  0.694908  0.183956  0.179757  1
  Se  Se5  1  0.183956  0.694908  0.179757  1
  Se  Se6  1  0.239718  0.239718  0.345206  1
  Se  Se7  1  0.760282  0.760282  0.654795  1
  Se  Se8  1  0.816043  0.305092  0.820242  1
  Se  Se9  1  0.305092  0.816043  0.820242  1
