# generated using pymatgen
data_Tb3YAl17NiPd6
_symmetry_space_group_name_H-M   'P 1'
_cell_length_a   7.58736344
_cell_length_b   7.58856516
_cell_length_c   9.39660700
_cell_angle_alpha   90.00000000
_cell_angle_beta   90.00000000
_cell_angle_gamma   118.63325116
_symmetry_Int_Tables_number   1
_chemical_formula_structural   Tb3YAl17NiPd6
_chemical_formula_sum   'Tb3 Y1 Al17 Ni1 Pd6'
_cell_volume   474.86504525
_cell_formula_units_Z   1
loop_
 _symmetry_equiv_pos_site_id
 _symmetry_equiv_pos_as_xyz
  1  'x, y, z'
loop_
 _atom_site_type_symbol
 _atom_site_label
 _atom_site_symmetry_multiplicity
 _atom_site_fract_x
 _atom_site_fract_y
 _atom_site_fract_z
 _atom_site_occupancy
  Tb  Tb0  1  0.007066  0.325535  0.750000  1
  Tb  Tb1  1  0.674606  0.989183  0.250000  1
  Tb  Tb2  1  0.325541  0.007064  0.750000  1
  Y  Y3  1  0.989183  0.674587  0.250000  1
  Al  Al4  1  0.863893  0.863860  0.750000  1
  Al  Al5  1  0.005900  0.326273  0.088871  1
  Al  Al6  1  0.999384  0.661460  0.922159  1
  Al  Al7  1  0.999384  0.661460  0.577841  1
  Al  Al8  1  0.326109  0.005805  0.411111  1
  Al  Al9  1  0.005900  0.326273  0.411129  1
  Al  Al10  1  0.661447  0.999366  0.577878  1
  Al  Al11  1  0.661447  0.999366  0.922122  1
  Al  Al12  1  0.326109  0.005805  0.088889  1
  Al  Al13  1  0.329694  0.329695  0.535840  1
  Al  Al14  1  0.666368  0.666291  0.448157  1
  Al  Al15  1  0.666368  0.666291  0.051843  1
  Al  Al16  1  0.329694  0.329695  0.964160  1
  Al  Al17  1  0.339836  0.544434  0.250000  1
  Al  Al18  1  0.655373  0.448044  0.750000  1
  Al  Al19  1  0.544489  0.339854  0.250000  1
  Al  Al20  1  0.448020  0.655354  0.750000  1
  Ni  Ni21  1  0.175472  0.175520  0.250000  1
  Pd  Pd22  1  0.677575  0.327758  0.000338  1
  Pd  Pd23  1  0.327714  0.677566  0.000346  1
  Pd  Pd24  1  0.327714  0.677566  0.499654  1
  Pd  Pd25  1  0.677575  0.327758  0.499662  1
  Pd  Pd26  1  0.994071  0.994069  0.994735  1
  Pd  Pd27  1  0.994071  0.994069  0.505265  1
