# generated using pymatgen
data_HoTm6Co6Sn23
_symmetry_space_group_name_H-M   'P 1'
_cell_length_a   9.66479700
_cell_length_b   9.66479562
_cell_length_c   9.94943300
_cell_angle_alpha   90.00000000
_cell_angle_beta   90.00000000
_cell_angle_gamma   119.99999445
_symmetry_Int_Tables_number   1
_chemical_formula_structural   HoTm6Co6Sn23
_chemical_formula_sum   'Ho1 Tm6 Co6 Sn23'
_cell_volume   804.84898173
_cell_formula_units_Z   1
loop_
 _symmetry_equiv_pos_site_id
 _symmetry_equiv_pos_as_xyz
  1  'x, y, z'
loop_
 _atom_site_type_symbol
 _atom_site_label
 _atom_site_symmetry_multiplicity
 _atom_site_fract_x
 _atom_site_fract_y
 _atom_site_fract_z
 _atom_site_occupancy
  Ho  Ho0  1  0.000000  0.000000  0.000000  1
  Tm  Tm1  1  0.521168  0.478832  0.693283  1
  Tm  Tm2  1  0.521168  0.042336  0.693283  1
  Tm  Tm3  1  0.957664  0.478832  0.693283  1
  Tm  Tm4  1  0.042336  0.521168  0.306717  1
  Tm  Tm5  1  0.478832  0.957664  0.306717  1
  Tm  Tm6  1  0.478832  0.521168  0.306717  1
  Co  Co7  1  0.168032  0.831968  0.802678  1
  Co  Co8  1  0.168032  0.336064  0.802678  1
  Co  Co9  1  0.663936  0.831968  0.802678  1
  Co  Co10  1  0.336064  0.168032  0.197322  1
  Co  Co11  1  0.831968  0.663936  0.197322  1
  Co  Co12  1  0.831968  0.168032  0.197322  1
  Sn  Sn13  1  0.666667  0.333333  0.182234  1
  Sn  Sn14  1  0.666667  0.333333  0.880337  1
  Sn  Sn15  1  0.333333  0.666667  0.119663  1
  Sn  Sn16  1  0.346143  0.346143  0.000000  1
  Sn  Sn17  1  0.000000  0.653857  0.000000  1
  Sn  Sn18  1  0.653857  0.000000  0.000000  1
  Sn  Sn19  1  0.653857  0.653857  0.000000  1
  Sn  Sn20  1  0.333333  0.666667  0.817766  1
  Sn  Sn21  1  0.437445  0.218723  0.451904  1
  Sn  Sn22  1  0.218723  0.781277  0.548096  1
  Sn  Sn23  1  0.218723  0.437445  0.548096  1
  Sn  Sn24  1  0.562555  0.781277  0.548096  1
  Sn  Sn25  1  0.118512  0.881488  0.274323  1
  Sn  Sn26  1  0.781277  0.562555  0.451904  1
  Sn  Sn27  1  0.781277  0.218723  0.451904  1
  Sn  Sn28  1  0.346143  0.000000  0.000000  1
  Sn  Sn29  1  0.118512  0.237024  0.274323  1
  Sn  Sn30  1  0.762976  0.881488  0.274323  1
  Sn  Sn31  1  0.237024  0.118512  0.725677  1
  Sn  Sn32  1  0.881488  0.762976  0.725677  1
  Sn  Sn33  1  0.881488  0.118512  0.725677  1
  Sn  Sn34  1  0.000000  0.000000  0.500000  1
  Sn  Sn35  1  0.000000  0.346143  0.000000  1
