# generated using pymatgen
data_PrSm2(GaRh)2
_symmetry_space_group_name_H-M   'P 1'
_cell_length_a   5.65228700
_cell_length_b   8.18726700
_cell_length_c   13.61879000
_cell_angle_alpha   90.00000000
_cell_angle_beta   90.00000000
_cell_angle_gamma   90.00000000
_symmetry_Int_Tables_number   1
_chemical_formula_structural   PrSm2(GaRh)2
_chemical_formula_sum   'Pr4 Sm8 Ga8 Rh8'
_cell_volume   630.23378723
_cell_formula_units_Z   4
loop_
 _symmetry_equiv_pos_site_id
 _symmetry_equiv_pos_as_xyz
  1  'x, y, z'
loop_
 _atom_site_type_symbol
 _atom_site_label
 _atom_site_symmetry_multiplicity
 _atom_site_fract_x
 _atom_site_fract_y
 _atom_site_fract_z
 _atom_site_occupancy
  Pr  Pr0  1  0.636490  0.259614  0.250000  1
  Pr  Pr1  1  0.363510  0.740386  0.750000  1
  Pr  Pr2  1  0.363510  0.759614  0.250000  1
  Pr  Pr3  1  0.636490  0.240386  0.750000  1
  Sm  Sm4  1  0.148334  0.398693  0.097404  1
  Sm  Sm5  1  0.851666  0.601307  0.902596  1
  Sm  Sm6  1  0.851666  0.601307  0.597404  1
  Sm  Sm7  1  0.851666  0.898693  0.402596  1
  Sm  Sm8  1  0.148334  0.398693  0.402596  1
  Sm  Sm9  1  0.148334  0.101307  0.597404  1
  Sm  Sm10  1  0.148334  0.101307  0.902596  1
  Sm  Sm11  1  0.851666  0.898693  0.097404  1
  Ga  Ga12  1  0.134831  0.111251  0.250000  1
  Ga  Ga13  1  0.865169  0.888749  0.750000  1
  Ga  Ga14  1  0.865169  0.611251  0.250000  1
  Ga  Ga15  1  0.134831  0.388749  0.750000  1
  Ga  Ga16  1  0.633298  0.250000  0.000000  1
  Ga  Ga17  1  0.366702  0.750000  0.000000  1
  Ga  Ga18  1  0.366702  0.750000  0.500000  1
  Ga  Ga19  1  0.633298  0.250000  0.500000  1
  Rh  Rh20  1  0.355372  0.032817  0.090671  1
  Rh  Rh21  1  0.644628  0.967183  0.909329  1
  Rh  Rh22  1  0.644628  0.967183  0.590671  1
  Rh  Rh23  1  0.644628  0.532817  0.409329  1
  Rh  Rh24  1  0.355372  0.032817  0.409329  1
  Rh  Rh25  1  0.355372  0.467183  0.590671  1
  Rh  Rh26  1  0.355372  0.467183  0.909329  1
  Rh  Rh27  1  0.644628  0.532817  0.090671  1
