# generated using pymatgen
data_Th14Re3Os2Ru
_symmetry_space_group_name_H-M   'P 1'
_cell_length_a   10.05684233
_cell_length_b   9.95778168
_cell_length_c   6.33773154
_cell_angle_alpha   90.18427892
_cell_angle_beta   89.86774362
_cell_angle_gamma   119.73640652
_symmetry_Int_Tables_number   1
_chemical_formula_structural   Th14Re3Os2Ru
_chemical_formula_sum   'Th14 Re3 Os2 Ru1'
_cell_volume   551.10423765
_cell_formula_units_Z   1
loop_
 _symmetry_equiv_pos_site_id
 _symmetry_equiv_pos_as_xyz
  1  'x, y, z'
loop_
 _atom_site_type_symbol
 _atom_site_label
 _atom_site_symmetry_multiplicity
 _atom_site_fract_x
 _atom_site_fract_y
 _atom_site_fract_z
 _atom_site_occupancy
  Th  Th0  1  0.458564  0.535811  0.297095  1
  Th  Th1  1  0.076904  0.536215  0.296231  1
  Th  Th2  1  0.920601  0.462087  0.797620  1
  Th  Th3  1  0.252633  0.126289  0.508746  1
  Th  Th4  1  0.541097  0.077530  0.797563  1
  Th  Th5  1  0.749889  0.874270  0.009198  1
  Th  Th6  1  0.666674  0.335178  0.283426  1
  Th  Th7  1  0.127851  0.873713  0.004350  1
  Th  Th8  1  0.460514  0.923242  0.296883  1
  Th  Th9  1  0.541561  0.464489  0.796619  1
  Th  Th10  1  0.872788  0.125751  0.507367  1
  Th  Th11  1  0.125637  0.249817  0.006686  1
  Th  Th12  1  0.874239  0.749783  0.505198  1
  Th  Th13  1  0.332307  0.665104  0.784933  1
  Re  Re14  1  0.816370  0.188957  0.049901  1
  Re  Re15  1  0.626161  0.809563  0.550709  1
  Re  Re16  1  0.372265  0.188610  0.047872  1
  Os  Os17  1  0.185201  0.372595  0.549894  1
  Os  Os18  1  0.182787  0.810358  0.547339  1
  Ru  Ru19  1  0.815956  0.630638  0.046366  1
