# generated using pymatgen
data_Gd4TeRuO12
_symmetry_space_group_name_H-M   'P 1'
_cell_length_a   5.34910743
_cell_length_b   9.22496500
_cell_length_c   10.07244026
_cell_angle_alpha   90.00000000
_cell_angle_beta   89.42428405
_cell_angle_gamma   90.00000000
_symmetry_Int_Tables_number   1
_chemical_formula_structural   Gd4TeRuO12
_chemical_formula_sum   'Gd8 Te2 Ru2 O24'
_cell_volume   497.00278611
_cell_formula_units_Z   2
loop_
 _symmetry_equiv_pos_site_id
 _symmetry_equiv_pos_as_xyz
  1  'x, y, z'
loop_
 _atom_site_type_symbol
 _atom_site_label
 _atom_site_symmetry_multiplicity
 _atom_site_fract_x
 _atom_site_fract_y
 _atom_site_fract_z
 _atom_site_occupancy
  Gd  Gd0  1  0.476247  0.896490  0.040655  1
  Gd  Gd1  1  0.038347  0.220255  0.130884  1
  Gd  Gd2  1  0.961653  0.720255  0.369116  1
  Gd  Gd3  1  0.523751  0.396490  0.459345  1
  Gd  Gd4  1  0.020619  0.100133  0.532680  1
  Gd  Gd5  1  0.466214  0.785078  0.635042  1
  Gd  Gd6  1  0.533787  0.285078  0.864958  1
  Gd  Gd7  1  0.979381  0.600133  0.967321  1
  Te  Te8  1  0.040824  0.494999  0.647425  1
  Te  Te9  1  0.959176  0.994999  0.852576  1
  Ru  Ru10  1  0.458620  0.503081  0.148403  1
  Ru  Ru11  1  0.541381  0.003081  0.351597  1
  O  O12  1  0.249777  0.408713  0.006345  1
  O  O13  1  0.577730  0.654512  0.029379  1
  O  O14  1  0.727836  0.386676  0.069189  1
  O  O15  1  0.186130  0.638219  0.180985  1
  O  O16  1  0.331994  0.055752  0.207728  1
  O  O17  1  0.690654  0.861332  0.238287  1
  O  O18  1  0.309346  0.361332  0.261713  1
  O  O19  1  0.668007  0.555752  0.292272  1
  O  O20  1  0.813870  0.138219  0.319015  1
  O  O21  1  0.272165  0.886676  0.430811  1
  O  O22  1  0.422268  0.154512  0.470621  1
  O  O23  1  0.750223  0.908713  0.493654  1
  O  O24  1  0.247364  0.586927  0.505259  1
  O  O25  1  0.920668  0.346086  0.525960  1
  O  O26  1  0.770923  0.611993  0.568391  1
  O  O27  1  0.319041  0.361591  0.676855  1
  O  O28  1  0.169059  0.948681  0.702578  1
  O  O29  1  0.815173  0.139482  0.737875  1
  O  O30  1  0.184828  0.639483  0.762124  1
  O  O31  1  0.830941  0.448681  0.797421  1
  O  O32  1  0.680957  0.861591  0.823144  1
  O  O33  1  0.229076  0.111993  0.931609  1
  O  O34  1  0.079332  0.846086  0.974040  1
  O  O35  1  0.752637  0.086927  0.994740  1
