# generated using pymatgen
data_NaTb2SmB24
_symmetry_space_group_name_H-M   'P 1'
_cell_length_a   7.14984404
_cell_length_b   7.14984331
_cell_length_c   5.80110100
_cell_angle_alpha   90.00000000
_cell_angle_beta   90.00000000
_cell_angle_gamma   109.65174179
_symmetry_Int_Tables_number   1
_chemical_formula_structural   NaTb2SmB24
_chemical_formula_sum   'Na1 Tb2 Sm1 B24'
_cell_volume   279.28078404
_cell_formula_units_Z   1
loop_
 _symmetry_equiv_pos_site_id
 _symmetry_equiv_pos_as_xyz
  1  'x, y, z'
loop_
 _atom_site_type_symbol
 _atom_site_label
 _atom_site_symmetry_multiplicity
 _atom_site_fract_x
 _atom_site_fract_y
 _atom_site_fract_z
 _atom_site_occupancy
  Na  Na0  1  0.999990  0.000010  0.000000  1
  Tb  Tb1  1  0.748750  0.251250  0.500000  1
  Tb  Tb2  1  0.500000  0.500000  0.000000  1
  Sm  Sm3  1  0.251187  0.748813  0.500000  1
  B  B4  1  0.175902  0.324826  0.650982  1
  B  B5  1  0.924900  0.574613  0.150266  1
  B  B6  1  0.675174  0.824098  0.650982  1
  B  B7  1  0.425387  0.075100  0.150266  1
  B  B8  1  0.175902  0.324826  0.349018  1
  B  B9  1  0.924900  0.574613  0.849734  1
  B  B10  1  0.675174  0.824098  0.349018  1
  B  B11  1  0.425387  0.075100  0.849734  1
  B  B12  1  0.400353  0.400264  0.500000  1
  B  B13  1  0.149271  0.650572  0.000000  1
  B  B14  1  0.899565  0.899646  0.500000  1
  B  B15  1  0.650794  0.149492  0.000000  1
  B  B16  1  0.324927  0.175988  0.651010  1
  B  B17  1  0.074915  0.425187  0.150244  1
  B  B18  1  0.824012  0.675073  0.651010  1
  B  B19  1  0.574813  0.925085  0.150244  1
  B  B20  1  0.100354  0.100435  0.500000  1
  B  B21  1  0.850508  0.349206  0.000000  1
  B  B22  1  0.599736  0.599647  0.500000  1
  B  B23  1  0.349428  0.850729  0.000000  1
  B  B24  1  0.324927  0.175988  0.348990  1
  B  B25  1  0.074915  0.425187  0.849756  1
  B  B26  1  0.824012  0.675073  0.348990  1
  B  B27  1  0.574813  0.925085  0.849756  1
