# generated using pymatgen
data_Yb2In4NiRh
_symmetry_space_group_name_H-M   'P 1'
_cell_length_a   5.45806607
_cell_length_b   5.45806638
_cell_length_c   8.07674200
_cell_angle_alpha   90.00000000
_cell_angle_beta   90.00000000
_cell_angle_gamma   134.14146335
_symmetry_Int_Tables_number   1
_chemical_formula_structural   Yb2In4NiRh
_chemical_formula_sum   'Yb2 In4 Ni1 Rh1'
_cell_volume   172.66720424
_cell_formula_units_Z   1
loop_
 _symmetry_equiv_pos_site_id
 _symmetry_equiv_pos_as_xyz
  1  'x, y, z'
loop_
 _atom_site_type_symbol
 _atom_site_label
 _atom_site_symmetry_multiplicity
 _atom_site_fract_x
 _atom_site_fract_y
 _atom_site_fract_z
 _atom_site_occupancy
  Yb  Yb0  1  0.063344  0.936656  0.250000  1
  Yb  Yb1  1  0.934895  0.065105  0.750000  1
  In  In2  1  0.647897  0.352103  0.546857  1
  In  In3  1  0.352734  0.647266  0.442529  1
  In  In4  1  0.647897  0.352103  0.953143  1
  In  In5  1  0.352734  0.647266  0.057471  1
  Ni  Ni6  1  0.781471  0.218529  0.250000  1
  Rh  Rh7  1  0.219029  0.780971  0.750000  1
