# generated using pymatgen
data_Ba14Na13CaTlN6
_symmetry_space_group_name_H-M   'P 1'
_cell_length_a   12.59129791
_cell_length_b   12.58549895
_cell_length_c   12.59129791
_cell_angle_alpha   119.98515456
_cell_angle_beta   90.34307100
_cell_angle_gamma   119.98515456
_symmetry_Int_Tables_number   1
_chemical_formula_structural   Ba14Na13CaTlN6
_chemical_formula_sum   'Ba14 Na13 Ca1 Tl1 N6'
_cell_volume   1407.25824548
_cell_formula_units_Z   1
loop_
 _symmetry_equiv_pos_site_id
 _symmetry_equiv_pos_as_xyz
  1  'x, y, z'
loop_
 _atom_site_type_symbol
 _atom_site_label
 _atom_site_symmetry_multiplicity
 _atom_site_fract_x
 _atom_site_fract_y
 _atom_site_fract_z
 _atom_site_occupancy
  Ba  Ba0  1  0.324957  0.220702  0.116452  1
  Ba  Ba1  1  0.892603  0.212295  0.107405  1
  Ba  Ba2  1  0.892597  0.787707  0.107399  1
  Ba  Ba3  1  0.714089  0.000000  0.285909  1
  Ba  Ba4  1  0.292813  0.012530  0.292813  1
  Ba  Ba5  1  0.292813  0.573093  0.292813  1
  Ba  Ba6  1  0.116452  0.220702  0.324957  1
  Ba  Ba7  1  0.883550  0.779298  0.675043  1
  Ba  Ba8  1  0.285909  0.000000  0.714089  1
  Ba  Ba9  1  0.707183  0.987457  0.707183  1
  Ba  Ba10  1  0.707185  0.426903  0.707185  1
  Ba  Ba11  1  0.107405  0.212295  0.892603  1
  Ba  Ba12  1  0.107399  0.787707  0.892597  1
  Ba  Ba13  1  0.675043  0.779298  0.883550  1
  Na  Na14  1  0.500000  0.000000  0.999998  1
  Na  Na15  1  0.999999  0.500000  0.999999  1
  Na  Na16  1  0.500000  0.500001  0.999999  1
  Na  Na17  1  0.670234  0.341182  0.012129  1
  Na  Na18  1  0.663668  0.350857  0.336331  1
  Na  Na19  1  0.663667  0.649143  0.336331  1
  Na  Na20  1  0.987870  0.658818  0.329765  1
  Na  Na21  1  0.999998  0.000000  0.500000  1
  Na  Na22  1  0.999999  0.500001  0.500000  1
  Na  Na23  1  0.012129  0.341182  0.670234  1
  Na  Na24  1  0.336331  0.350857  0.663668  1
  Na  Na25  1  0.336331  0.649143  0.663667  1
  Na  Na26  1  0.329765  0.658818  0.987870  1
  Ca  Ca27  1  0.000000  0.000000  0.000000  1
  Tl  Tl28  1  0.500004  0.500007  0.500004  1
  N  N29  1  0.144275  0.998969  0.144275  1
  N  N30  1  0.144277  0.289575  0.144277  1
  N  N31  1  0.854162  0.000003  0.145839  1
  N  N32  1  0.145839  0.000003  0.854162  1
  N  N33  1  0.855726  0.001029  0.855726  1
  N  N34  1  0.855723  0.710422  0.855723  1
