# generated using pymatgen
data_Y6PaFe22
_symmetry_space_group_name_H-M   'P 1'
_cell_length_a   8.57087500
_cell_length_b   8.57087391
_cell_length_c   8.57087500
_cell_angle_alpha   120.00000034
_cell_angle_beta   90.00000000
_cell_angle_gamma   120.00000034
_symmetry_Int_Tables_number   1
_chemical_formula_structural   Y6PaFe22
_chemical_formula_sum   'Y6 Pa1 Fe22'
_cell_volume   445.20540302
_cell_formula_units_Z   1
loop_
 _symmetry_equiv_pos_site_id
 _symmetry_equiv_pos_as_xyz
  1  'x, y, z'
loop_
 _atom_site_type_symbol
 _atom_site_label
 _atom_site_symmetry_multiplicity
 _atom_site_fract_x
 _atom_site_fract_y
 _atom_site_fract_z
 _atom_site_occupancy
  Y  Y0  1  0.707239  0.000000  0.292760  1
  Y  Y1  1  0.292761  0.000000  0.292761  1
  Y  Y2  1  0.292761  0.585521  0.292761  1
  Y  Y3  1  0.292760  0.000000  0.707239  1
  Y  Y4  1  0.707239  0.000000  0.707239  1
  Y  Y5  1  0.707239  0.414480  0.707239  1
  Pa  Pa6  1  0.000000  0.000000  0.000000  1
  Fe  Fe7  1  0.500001  0.000000  0.000000  1
  Fe  Fe8  1  0.000000  0.500001  0.000000  1
  Fe  Fe9  1  0.500001  0.500001  0.000000  1
  Fe  Fe10  1  0.675257  0.350515  0.025773  1
  Fe  Fe11  1  0.875226  0.750453  0.124774  1
  Fe  Fe12  1  0.374320  0.249546  0.124774  1
  Fe  Fe13  1  0.875226  0.249546  0.124774  1
  Fe  Fe14  1  0.675257  0.350515  0.324742  1
  Fe  Fe15  1  0.675257  0.649485  0.324742  1
  Fe  Fe16  1  0.974227  0.649485  0.324742  1
  Fe  Fe17  1  0.124774  0.249546  0.374320  1
  Fe  Fe18  1  0.000000  0.000000  0.500001  1
  Fe  Fe19  1  0.000000  0.500001  0.500001  1
  Fe  Fe20  1  0.500001  0.500001  0.500001  1
  Fe  Fe21  1  0.875226  0.750453  0.625679  1
  Fe  Fe22  1  0.025773  0.350515  0.675257  1
  Fe  Fe23  1  0.324742  0.350515  0.675257  1
  Fe  Fe24  1  0.324742  0.649485  0.675257  1
  Fe  Fe25  1  0.124774  0.249546  0.875226  1
  Fe  Fe26  1  0.124774  0.750453  0.875226  1
  Fe  Fe27  1  0.625679  0.750453  0.875226  1
  Fe  Fe28  1  0.324742  0.649485  0.974227  1
