# generated using pymatgen
data_TmTh5(SnRh)6
_symmetry_space_group_name_H-M   'P 1'
_cell_length_a   7.53253996
_cell_length_b   7.54548474
_cell_length_c   8.24884800
_cell_angle_alpha   90.00000000
_cell_angle_beta   90.00000000
_cell_angle_gamma   119.96018048
_symmetry_Int_Tables_number   1
_chemical_formula_structural   TmTh5(SnRh)6
_chemical_formula_sum   'Tm1 Th5 Sn6 Rh6'
_cell_volume   406.18758208
_cell_formula_units_Z   1
loop_
 _symmetry_equiv_pos_site_id
 _symmetry_equiv_pos_as_xyz
  1  'x, y, z'
loop_
 _atom_site_type_symbol
 _atom_site_label
 _atom_site_symmetry_multiplicity
 _atom_site_fract_x
 _atom_site_fract_y
 _atom_site_fract_z
 _atom_site_occupancy
  Tm  Tm0  1  0.593944  0.999857  0.250000  1
  Th  Th1  1  0.583614  0.999503  0.750000  1
  Th  Th2  1  0.411932  0.414163  0.750000  1
  Th  Th3  1  0.999022  0.586454  0.750000  1
  Th  Th4  1  0.417148  0.414462  0.250000  1
  Th  Th5  1  0.001377  0.584924  0.250000  1
  Sn  Sn6  1  0.255759  0.000042  0.005125  1
  Sn  Sn7  1  0.748607  0.753551  0.498103  1
  Sn  Sn8  1  0.994847  0.246458  0.497912  1
  Sn  Sn9  1  0.994847  0.246458  0.002088  1
  Sn  Sn10  1  0.748607  0.753551  0.001897  1
  Sn  Sn11  1  0.255759  0.000042  0.494875  1
  Rh  Rh12  1  0.666382  0.337640  0.999626  1
  Rh  Rh13  1  0.666382  0.337640  0.500374  1
  Rh  Rh14  1  0.328941  0.662558  0.001766  1
  Rh  Rh15  1  0.328941  0.662558  0.498234  1
  Rh  Rh16  1  0.000914  0.000176  0.750000  1
  Rh  Rh17  1  0.002974  0.999967  0.250000  1
