# generated using pymatgen
data_Na4Ti(TeSe)2
_symmetry_space_group_name_H-M   'P 1'
_cell_length_a   7.71938700
_cell_length_b   9.38777800
_cell_length_c   14.85624700
_cell_angle_alpha   90.00000000
_cell_angle_beta   90.00000000
_cell_angle_gamma   90.00000000
_symmetry_Int_Tables_number   1
_chemical_formula_structural   Na4Ti(TeSe)2
_chemical_formula_sum   'Na16 Ti4 Te8 Se8'
_cell_volume   1076.60089498
_cell_formula_units_Z   4
loop_
 _symmetry_equiv_pos_site_id
 _symmetry_equiv_pos_as_xyz
  1  'x, y, z'
loop_
 _atom_site_type_symbol
 _atom_site_label
 _atom_site_symmetry_multiplicity
 _atom_site_fract_x
 _atom_site_fract_y
 _atom_site_fract_z
 _atom_site_occupancy
  Na  Na0  1  0.500000  0.500000  0.500000  1
  Na  Na1  1  0.117237  0.459653  0.265865  1
  Na  Na2  1  0.117237  0.040347  0.265865  1
  Na  Na3  1  0.996026  0.750000  0.464950  1
  Na  Na4  1  0.003974  0.250000  0.535050  1
  Na  Na5  1  0.617237  0.959653  0.234135  1
  Na  Na6  1  0.382763  0.040347  0.765865  1
  Na  Na7  1  0.882763  0.959653  0.734135  1
  Na  Na8  1  0.382763  0.459653  0.765865  1
  Na  Na9  1  0.000000  0.500000  0.000000  1
  Na  Na10  1  0.496026  0.250000  0.035050  1
  Na  Na11  1  0.617237  0.540347  0.234135  1
  Na  Na12  1  0.503974  0.750000  0.964950  1
  Na  Na13  1  0.000000  0.000000  0.000000  1
  Na  Na14  1  0.882763  0.540347  0.734135  1
  Na  Na15  1  0.500000  0.000000  0.500000  1
  Ti  Ti16  1  0.763575  0.250000  0.839139  1
  Ti  Ti17  1  0.736425  0.250000  0.339139  1
  Ti  Ti18  1  0.263575  0.750000  0.660861  1
  Ti  Ti19  1  0.236425  0.750000  0.160861  1
  Te  Te20  1  0.604043  0.750000  0.648442  1
  Te  Te21  1  0.395957  0.250000  0.351558  1
  Te  Te22  1  0.334112  0.750000  0.332163  1
  Te  Te23  1  0.165888  0.750000  0.832163  1
  Te  Te24  1  0.104043  0.250000  0.851558  1
  Te  Te25  1  0.895957  0.750000  0.148442  1
  Te  Te26  1  0.665888  0.250000  0.667837  1
  Te  Te27  1  0.834112  0.250000  0.167837  1
  Se  Se28  1  0.838225  0.465622  0.404773  1
  Se  Se29  1  0.661775  0.034378  0.904773  1
  Se  Se30  1  0.338225  0.965622  0.095227  1
  Se  Se31  1  0.338225  0.534378  0.095227  1
  Se  Se32  1  0.161775  0.534378  0.595227  1
  Se  Se33  1  0.838225  0.034378  0.404773  1
  Se  Se34  1  0.161775  0.965622  0.595227  1
  Se  Se35  1  0.661775  0.465622  0.904773  1
