# generated using pymatgen
data_NaLi(UBr6)2
_symmetry_space_group_name_H-M   'P 1'
_cell_length_a   7.18281951
_cell_length_b   7.18281933
_cell_length_c   13.94788619
_cell_angle_alpha   84.25000409
_cell_angle_beta   84.25000280
_cell_angle_gamma   119.52701976
_symmetry_Int_Tables_number   1
_chemical_formula_structural   NaLi(UBr6)2
_chemical_formula_sum   'Na1 Li1 U2 Br12'
_cell_volume   613.63340918
_cell_formula_units_Z   1
loop_
 _symmetry_equiv_pos_site_id
 _symmetry_equiv_pos_as_xyz
  1  'x, y, z'
loop_
 _atom_site_type_symbol
 _atom_site_label
 _atom_site_symmetry_multiplicity
 _atom_site_fract_x
 _atom_site_fract_y
 _atom_site_fract_z
 _atom_site_occupancy
  Na  Na0  1  0.915778  0.084222  0.750000  1
  Li  Li1  1  0.084611  0.915389  0.250000  1
  U  U2  1  0.419232  0.580768  0.250000  1
  U  U3  1  0.580804  0.419196  0.750000  1
  Br  Br4  1  0.319732  0.463179  0.634603  1
  Br  Br5  1  0.446501  0.304652  0.138752  1
  Br  Br6  1  0.234477  0.073322  0.867226  1
  Br  Br7  1  0.076156  0.222133  0.362835  1
  Br  Br8  1  0.163756  0.643680  0.136547  1
  Br  Br9  1  0.629879  0.163961  0.632303  1
  Br  Br10  1  0.356320  0.836244  0.363453  1
  Br  Br11  1  0.836039  0.370121  0.867697  1
  Br  Br12  1  0.777867  0.923844  0.137165  1
  Br  Br13  1  0.926678  0.765523  0.632774  1
  Br  Br14  1  0.536821  0.680268  0.865397  1
  Br  Br15  1  0.695348  0.553499  0.361248  1
