# generated using pymatgen
data_Np3U(WC2)4
_symmetry_space_group_name_H-M   'P 1'
_cell_length_a   3.23941100
_cell_length_b   5.66263733
_cell_length_c   10.96463363
_cell_angle_alpha   90.03899384
_cell_angle_beta   90.00000000
_cell_angle_gamma   90.00000000
_symmetry_Int_Tables_number   1
_chemical_formula_structural   Np3U(WC2)4
_chemical_formula_sum   'Np3 U1 W4 C8'
_cell_volume   201.13091276
_cell_formula_units_Z   1
loop_
 _symmetry_equiv_pos_site_id
 _symmetry_equiv_pos_as_xyz
  1  'x, y, z'
loop_
 _atom_site_type_symbol
 _atom_site_label
 _atom_site_symmetry_multiplicity
 _atom_site_fract_x
 _atom_site_fract_y
 _atom_site_fract_z
 _atom_site_occupancy
  Np  Np0  1  0.250000  0.580316  0.639948  1
  Np  Np1  1  0.750000  0.920110  0.141919  1
  Np  Np2  1  0.750000  0.419751  0.359050  1
  U  U3  1  0.250000  0.079935  0.859309  1
  W  W4  1  0.250000  0.419567  0.103512  1
  W  W5  1  0.250000  0.918098  0.396556  1
  W  W6  1  0.750000  0.581167  0.896567  1
  W  W7  1  0.750000  0.081078  0.602694  1
  C  C8  1  0.250000  0.163406  0.245477  1
  C  C9  1  0.250000  0.662456  0.254813  1
  C  C10  1  0.750000  0.838198  0.755369  1
  C  C11  1  0.750000  0.335972  0.745839  1
  C  C12  1  0.250000  0.747239  0.991457  1
  C  C13  1  0.250000  0.247033  0.507816  1
  C  C14  1  0.750000  0.252459  0.007660  1
  C  C15  1  0.750000  0.753214  0.492015  1
