# generated using pymatgen
data_PrNdGa4GeRh3
_symmetry_space_group_name_H-M   'P 1'
_cell_length_a   8.63484219
_cell_length_b   8.71495201
_cell_length_c   8.71495187
_cell_angle_alpha   141.06166954
_cell_angle_beta   108.34930013
_cell_angle_gamma   84.80355178
_symmetry_Int_Tables_number   1
_chemical_formula_structural   PrNdGa4GeRh3
_chemical_formula_sum   'Pr2 Nd2 Ga8 Ge2 Rh6'
_cell_volume   377.90180920
_cell_formula_units_Z   2
loop_
 _symmetry_equiv_pos_site_id
 _symmetry_equiv_pos_as_xyz
  1  'x, y, z'
loop_
 _atom_site_type_symbol
 _atom_site_label
 _atom_site_symmetry_multiplicity
 _atom_site_fract_x
 _atom_site_fract_y
 _atom_site_fract_z
 _atom_site_occupancy
  Pr  Pr0  1  0.592864  0.863014  0.729851  1
  Pr  Pr1  1  0.407136  0.136986  0.270149  1
  Nd  Nd2  1  0.862244  0.633011  0.229232  1
  Nd  Nd3  1  0.137756  0.366989  0.770768  1
  Ga  Ga4  1  0.500000  0.752691  0.252691  1
  Ga  Ga5  1  0.500000  0.247309  0.747309  1
  Ga  Ga6  1  0.210142  0.959774  0.747250  1
  Ga  Ga7  1  0.789858  0.537107  0.749632  1
  Ga  Ga8  1  0.789858  0.040226  0.252750  1
  Ga  Ga9  1  0.210142  0.462893  0.250368  1
  Ga  Ga10  1  0.075133  0.907782  0.167352  1
  Ga  Ga11  1  0.924867  0.092218  0.832648  1
  Ge  Ge12  1  0.260666  0.593473  0.667193  1
  Ge  Ge13  1  0.739334  0.406527  0.332807  1
  Rh  Rh14  1  0.256964  0.854543  0.402421  1
  Rh  Rh15  1  0.743036  0.145457  0.597579  1
  Rh  Rh16  1  0.548514  0.644447  0.904066  1
  Rh  Rh17  1  0.451486  0.355553  0.095934  1
  Rh  Rh18  1  0.000000  0.748397  0.748397  1
  Rh  Rh19  1  0.000000  0.251603  0.251603  1
