# generated using pymatgen
data_Rb2Pr4Ag4S9
_symmetry_space_group_name_H-M   'P 1'
_cell_length_a   4.24682506
_cell_length_b   7.65886380
_cell_length_c   16.14592204
_cell_angle_alpha   93.29195880
_cell_angle_beta   97.55707554
_cell_angle_gamma   106.09608935
_symmetry_Int_Tables_number   1
_chemical_formula_structural   Rb2Pr4Ag4S9
_chemical_formula_sum   'Rb2 Pr4 Ag4 S9'
_cell_volume   497.75408708
_cell_formula_units_Z   1
loop_
 _symmetry_equiv_pos_site_id
 _symmetry_equiv_pos_as_xyz
  1  'x, y, z'
loop_
 _atom_site_type_symbol
 _atom_site_label
 _atom_site_symmetry_multiplicity
 _atom_site_fract_x
 _atom_site_fract_y
 _atom_site_fract_z
 _atom_site_occupancy
  Rb  Rb0  1  0.255840  0.282820  0.228860  1
  Rb  Rb1  1  0.744160  0.717180  0.771140  1
  Pr  Pr2  1  0.401815  0.748463  0.055165  1
  Pr  Pr3  1  0.625407  0.857120  0.393693  1
  Pr  Pr4  1  0.374594  0.142881  0.606307  1
  Pr  Pr5  1  0.598185  0.251536  0.944835  1
  Ag  Ag6  1  0.979961  0.732657  0.227268  1
  Ag  Ag7  1  0.886297  0.315998  0.456600  1
  Ag  Ag8  1  0.113703  0.684002  0.543400  1
  Ag  Ag9  1  0.020040  0.267344  0.772732  1
  S  S10  1  0.000000  0.000000  0.000000  1
  S  S11  1  0.801725  0.507775  0.095675  1
  S  S12  1  0.574402  0.927769  0.221037  1
  S  S13  1  0.985269  0.597632  0.372908  1
  S  S14  1  0.275584  0.126719  0.424447  1
  S  S15  1  0.724416  0.873280  0.575553  1
  S  S16  1  0.014732  0.402369  0.627092  1
  S  S17  1  0.425598  0.072231  0.778963  1
  S  S18  1  0.198275  0.492224  0.904325  1
