# generated using pymatgen
data_DyEr5(SnIr)6
_symmetry_space_group_name_H-M   'P 1'
_cell_length_a   7.45815573
_cell_length_b   7.48167808
_cell_length_c   7.88525600
_cell_angle_alpha   90.00000000
_cell_angle_beta   90.00000000
_cell_angle_gamma   120.13517256
_symmetry_Int_Tables_number   1
_chemical_formula_structural   DyEr5(SnIr)6
_chemical_formula_sum   'Dy1 Er5 Sn6 Ir6'
_cell_volume   380.52547257
_cell_formula_units_Z   1
loop_
 _symmetry_equiv_pos_site_id
 _symmetry_equiv_pos_as_xyz
  1  'x, y, z'
loop_
 _atom_site_type_symbol
 _atom_site_label
 _atom_site_symmetry_multiplicity
 _atom_site_fract_x
 _atom_site_fract_y
 _atom_site_fract_z
 _atom_site_occupancy
  Dy  Dy0  1  0.998972  0.403233  0.250000  1
  Er  Er1  1  0.405652  0.003653  0.250000  1
  Er  Er2  1  0.597081  0.595290  0.750000  1
  Er  Er3  1  0.595142  0.596401  0.250000  1
  Er  Er4  1  0.001039  0.405102  0.750000  1
  Er  Er5  1  0.402538  0.997313  0.750000  1
  Sn  Sn6  1  0.261240  0.260319  0.500915  1
  Sn  Sn7  1  0.261240  0.260319  0.999085  1
  Sn  Sn8  1  0.738683  0.998634  0.999122  1
  Sn  Sn9  1  0.000125  0.741595  0.498764  1
  Sn  Sn10  1  0.738683  0.998634  0.500878  1
  Sn  Sn11  1  0.000125  0.741595  0.001236  1
  Ir  Ir12  1  0.668782  0.333577  0.501777  1
  Ir  Ir13  1  0.668782  0.333577  0.998223  1
  Ir  Ir14  1  0.331090  0.665066  0.001202  1
  Ir  Ir15  1  0.331090  0.665066  0.498798  1
  Ir  Ir16  1  0.999863  0.999146  0.750000  1
  Ir  Ir17  1  0.999877  0.001478  0.250000  1
