# generated using pymatgen
data_Pr2Sc3Se7
_symmetry_space_group_name_H-M   'P 1'
_cell_length_a   6.72617907
_cell_length_b   6.72618012
_cell_length_c   12.04511287
_cell_angle_alpha   75.76059635
_cell_angle_beta   75.76059327
_cell_angle_gamma   34.23570730
_symmetry_Int_Tables_number   1
_chemical_formula_structural   Pr2Sc3Se7
_chemical_formula_sum   'Pr2 Sc3 Se7'
_cell_volume   296.25362016
_cell_formula_units_Z   1
loop_
 _symmetry_equiv_pos_site_id
 _symmetry_equiv_pos_as_xyz
  1  'x, y, z'
loop_
 _atom_site_type_symbol
 _atom_site_label
 _atom_site_symmetry_multiplicity
 _atom_site_fract_x
 _atom_site_fract_y
 _atom_site_fract_z
 _atom_site_occupancy
  Pr  Pr0  1  0.301186  0.301186  0.802252  1
  Pr  Pr1  1  0.698814  0.698814  0.197748  1
  Sc  Sc2  1  0.111073  0.111073  0.572677  1
  Sc  Sc3  1  0.888927  0.888927  0.427323  1
  Sc  Sc4  1  0.000000  0.000000  0.000000  1
  Se  Se5  1  0.263971  0.263971  0.365586  1
  Se  Se6  1  0.736029  0.736029  0.634414  1
  Se  Se7  1  0.978855  0.978855  0.783075  1
  Se  Se8  1  0.021145  0.021145  0.216925  1
  Se  Se9  1  0.651403  0.651403  0.953586  1
  Se  Se10  1  0.500000  0.500000  0.500000  1
  Se  Se11  1  0.348597  0.348597  0.046414  1
