# generated using pymatgen
data_Tb8Mo3WC8
_symmetry_space_group_name_H-M   'P 1'
_cell_length_a   5.76144937
_cell_length_b   5.76144845
_cell_length_c   9.93552400
_cell_angle_alpha   90.00000000
_cell_angle_beta   90.00000000
_cell_angle_gamma   89.99795139
_symmetry_Int_Tables_number   1
_chemical_formula_structural   Tb8Mo3WC8
_chemical_formula_sum   'Tb8 Mo3 W1 C8'
_cell_volume   329.80270028
_cell_formula_units_Z   1
loop_
 _symmetry_equiv_pos_site_id
 _symmetry_equiv_pos_as_xyz
  1  'x, y, z'
loop_
 _atom_site_type_symbol
 _atom_site_label
 _atom_site_symmetry_multiplicity
 _atom_site_fract_x
 _atom_site_fract_y
 _atom_site_fract_z
 _atom_site_occupancy
  Tb  Tb0  1  0.201123  0.800485  0.156328  1
  Tb  Tb1  1  0.800485  0.201123  0.843672  1
  Tb  Tb2  1  0.201123  0.800485  0.843672  1
  Tb  Tb3  1  0.298760  0.298760  0.343966  1
  Tb  Tb4  1  0.701065  0.701065  0.343646  1
  Tb  Tb5  1  0.298760  0.298760  0.656034  1
  Tb  Tb6  1  0.800485  0.201123  0.156328  1
  Tb  Tb7  1  0.701065  0.701065  0.656354  1
  Mo  Mo8  1  0.176195  0.823229  0.500000  1
  Mo  Mo9  1  0.677698  0.677698  0.000000  1
  Mo  Mo10  1  0.823229  0.176195  0.500000  1
  W  W11  1  0.323025  0.323025  0.000000  1
  C  C12  1  0.999780  0.500087  0.500000  1
  C  C13  1  0.999787  0.999787  0.346821  1
  C  C14  1  0.499328  0.001430  0.000000  1
  C  C15  1  0.999787  0.999787  0.653179  1
  C  C16  1  0.498395  0.498395  0.847197  1
  C  C17  1  0.498395  0.498395  0.152803  1
  C  C18  1  0.500087  0.999780  0.500000  1
  C  C19  1  0.001430  0.499328  0.000000  1
