# generated using pymatgen
data_Y3In3PdRuAu
_symmetry_space_group_name_H-M   'P 1'
_cell_length_a   7.81454700
_cell_length_b   7.81454569
_cell_length_c   3.80970400
_cell_angle_alpha   90.00000000
_cell_angle_beta   90.00000000
_cell_angle_gamma   120.00000130
_symmetry_Int_Tables_number   1
_chemical_formula_structural   Y3In3PdRuAu
_chemical_formula_sum   'Y3 In3 Pd1 Ru1 Au1'
_cell_volume   201.47882171
_cell_formula_units_Z   1
loop_
 _symmetry_equiv_pos_site_id
 _symmetry_equiv_pos_as_xyz
  1  'x, y, z'
loop_
 _atom_site_type_symbol
 _atom_site_label
 _atom_site_symmetry_multiplicity
 _atom_site_fract_x
 _atom_site_fract_y
 _atom_site_fract_z
 _atom_site_occupancy
  Y  Y0  1  0.976965  0.581651  0.500000  1
  Y  Y1  1  0.418349  0.395313  0.500000  1
  Y  Y2  1  0.604687  0.023035  0.500000  1
  In  In3  1  0.995532  0.258952  0.000000  1
  In  In4  1  0.263421  0.004468  0.000000  1
  In  In5  1  0.741048  0.736579  0.000000  1
  Pd  Pd6  1  0.000000  0.000000  0.500000  1
  Ru  Ru7  1  0.666667  0.333333  0.000000  1
  Au  Au8  1  0.333333  0.666667  0.000000  1
