# generated using pymatgen
data_Tb19HoIr5Rh7
_symmetry_space_group_name_H-M   'P 1'
_cell_length_a   10.92979611
_cell_length_b   10.92956514
_cell_length_c   6.39760000
_cell_angle_alpha   89.99204819
_cell_angle_beta   89.99171016
_cell_angle_gamma   90.05689852
_symmetry_Int_Tables_number   1
_chemical_formula_structural   Tb19HoIr5Rh7
_chemical_formula_sum   'Tb19 Ho1 Ir5 Rh7'
_cell_volume   764.24358774
_cell_formula_units_Z   1
loop_
 _symmetry_equiv_pos_site_id
 _symmetry_equiv_pos_as_xyz
  1  'x, y, z'
loop_
 _atom_site_type_symbol
 _atom_site_label
 _atom_site_symmetry_multiplicity
 _atom_site_fract_x
 _atom_site_fract_y
 _atom_site_fract_z
 _atom_site_occupancy
  Tb  Tb0  1  0.290751  0.088341  0.377996  1
  Tb  Tb1  1  0.290697  0.909853  0.879347  1
  Tb  Tb2  1  0.708709  0.089756  0.878773  1
  Tb  Tb3  1  0.708529  0.910125  0.378149  1
  Tb  Tb4  1  0.587646  0.789888  0.879232  1
  Tb  Tb5  1  0.587439  0.210150  0.379163  1
  Tb  Tb6  1  0.410946  0.790102  0.379262  1
  Tb  Tb7  1  0.412266  0.209943  0.878948  1
  Tb  Tb8  1  0.210235  0.412357  0.620663  1
  Tb  Tb9  1  0.209765  0.589059  0.120850  1
  Tb  Tb10  1  0.789981  0.412561  0.120948  1
  Tb  Tb11  1  0.789917  0.587735  0.620947  1
  Tb  Tb12  1  0.911711  0.709248  0.121967  1
  Tb  Tb13  1  0.910191  0.291291  0.621260  1
  Tb  Tb14  1  0.090198  0.709309  0.620682  1
  Tb  Tb15  1  0.089817  0.291482  0.121815  1
  Tb  Tb16  1  0.000023  0.999815  0.500174  1
  Tb  Tb17  1  0.000186  0.999978  0.999817  1
  Tb  Tb18  1  0.499922  0.499783  0.000128  1
  Ho  Ho19  1  0.500201  0.500079  0.499894  1
  Ir  Ir20  1  0.153403  0.846575  0.249981  1
  Ir  Ir21  1  0.654398  0.345603  0.749567  1
  Ir  Ir22  1  0.654574  0.654253  0.250225  1
  Ir  Ir23  1  0.345746  0.345429  0.250631  1
  Ir  Ir24  1  0.346251  0.653764  0.749566  1
  Rh  Rh25  1  0.846570  0.153447  0.249987  1
  Rh  Rh26  1  0.845877  0.846500  0.749882  1
  Rh  Rh27  1  0.153510  0.154110  0.750150  1
  Rh  Rh28  1  0.500599  0.000249  0.122025  1
  Rh  Rh29  1  0.500417  0.000226  0.622593  1
  Rh  Rh30  1  0.999773  0.499583  0.877416  1
  Rh  Rh31  1  0.999753  0.499405  0.377960  1
