# generated using pymatgen
data_Ho3Zn6Pt5
_symmetry_space_group_name_H-M   'P 1'
_cell_length_a   8.21435763
_cell_length_b   8.21435742
_cell_length_c   8.21435633
_cell_angle_alpha   151.43089513
_cell_angle_beta   103.72916304
_cell_angle_gamma   83.36329286
_symmetry_Int_Tables_number   1
_chemical_formula_structural   Ho3Zn6Pt5
_chemical_formula_sum   'Ho3 Zn6 Pt5'
_cell_volume   252.29173180
_cell_formula_units_Z   1
loop_
 _symmetry_equiv_pos_site_id
 _symmetry_equiv_pos_as_xyz
  1  'x, y, z'
loop_
 _atom_site_type_symbol
 _atom_site_label
 _atom_site_symmetry_multiplicity
 _atom_site_fract_x
 _atom_site_fract_y
 _atom_site_fract_z
 _atom_site_occupancy
  Ho  Ho0  1  0.000000  0.000000  0.000000  1
  Ho  Ho1  1  0.291836  0.291836  0.000000  1
  Ho  Ho2  1  0.708164  0.708164  0.000000  1
  Zn  Zn3  1  0.677331  0.500000  0.177331  1
  Zn  Zn4  1  0.322669  0.500000  0.822669  1
  Zn  Zn5  1  0.438419  0.145396  0.293023  1
  Zn  Zn6  1  0.561581  0.854604  0.706977  1
  Zn  Zn7  1  0.852374  0.145396  0.706977  1
  Zn  Zn8  1  0.147626  0.854604  0.293023  1
  Pt  Pt9  1  0.719190  0.353008  0.366181  1
  Pt  Pt10  1  0.280810  0.646992  0.633819  1
  Pt  Pt11  1  0.986828  0.353008  0.633819  1
  Pt  Pt12  1  0.013172  0.646992  0.366181  1
  Pt  Pt13  1  0.500000  0.000000  0.500000  1
