# generated using pymatgen
data_Gd4Tc3SnF28
_symmetry_space_group_name_H-M   'P 1'
_cell_length_a   5.70736272
_cell_length_b   9.19509735
_cell_length_c   12.34005500
_cell_angle_alpha   61.99288416
_cell_angle_beta   89.97121840
_cell_angle_gamma   89.95208267
_symmetry_Int_Tables_number   1
_chemical_formula_structural   Gd4Tc3SnF28
_chemical_formula_sum   'Gd4 Tc3 Sn1 F28'
_cell_volume   571.76160659
_cell_formula_units_Z   1
loop_
 _symmetry_equiv_pos_site_id
 _symmetry_equiv_pos_as_xyz
  1  'x, y, z'
loop_
 _atom_site_type_symbol
 _atom_site_label
 _atom_site_symmetry_multiplicity
 _atom_site_fract_x
 _atom_site_fract_y
 _atom_site_fract_z
 _atom_site_occupancy
  Gd  Gd0  1  0.758366  0.812143  0.764501  1
  Gd  Gd1  1  0.257123  0.186767  0.736406  1
  Gd  Gd2  1  0.242163  0.187128  0.234750  1
  Gd  Gd3  1  0.741783  0.814201  0.263901  1
  Tc  Tc4  1  0.757029  0.274113  0.956988  1
  Tc  Tc5  1  0.258257  0.725814  0.543266  1
  Tc  Tc6  1  0.242757  0.726502  0.042821  1
  Sn  Sn7  1  0.742982  0.273472  0.457588  1
  F  F8  1  0.450062  0.709253  0.922139  1
  F  F9  1  0.949611  0.292404  0.581526  1
  F  F10  1  0.547801  0.291367  0.076830  1
  F  F11  1  0.051278  0.708985  0.422314  1
  F  F12  1  0.450698  0.281706  0.546219  1
  F  F13  1  0.961880  0.717922  0.952069  1
  F  F14  1  0.539565  0.718644  0.452028  1
  F  F15  1  0.036774  0.282542  0.048404  1
  F  F16  1  0.765646  0.516123  0.860622  1
  F  F17  1  0.268638  0.483675  0.640092  1
  F  F18  1  0.234013  0.484402  0.139089  1
  F  F19  1  0.730966  0.518958  0.359723  1
  F  F20  1  0.758997  0.033215  0.053402  1
  F  F21  1  0.259732  0.966937  0.447102  1
  F  F22  1  0.241274  0.967697  0.946865  1
  F  F23  1  0.740253  0.027830  0.554423  1
  F  F24  1  0.987582  0.731874  0.640439  1
  F  F25  1  0.487877  0.265911  0.860183  1
  F  F26  1  0.020673  0.267341  0.359750  1
  F  F27  1  0.513327  0.734478  0.139197  1
  F  F28  1  0.038336  0.745387  0.165777  1
  F  F29  1  0.542667  0.254317  0.330170  1
  F  F30  1  0.962988  0.255053  0.835069  1
  F  F31  1  0.461212  0.743428  0.666991  1
  F  F32  1  0.423708  0.974284  0.232434  1
  F  F33  1  0.923940  0.025931  0.267653  1
  F  F34  1  0.575094  0.025910  0.766036  1
  F  F35  1  0.074949  0.974288  0.733232  1
