# generated using pymatgen
data_Sr2NiSn4Pd3
_symmetry_space_group_name_H-M   'P 1'
_cell_length_a   4.68190200
_cell_length_b   4.68190200
_cell_length_c   10.62026300
_cell_angle_alpha   90.00000000
_cell_angle_beta   90.00000000
_cell_angle_gamma   90.00000000
_symmetry_Int_Tables_number   1
_chemical_formula_structural   Sr2NiSn4Pd3
_chemical_formula_sum   'Sr2 Ni1 Sn4 Pd3'
_cell_volume   232.79835632
_cell_formula_units_Z   1
loop_
 _symmetry_equiv_pos_site_id
 _symmetry_equiv_pos_as_xyz
  1  'x, y, z'
loop_
 _atom_site_type_symbol
 _atom_site_label
 _atom_site_symmetry_multiplicity
 _atom_site_fract_x
 _atom_site_fract_y
 _atom_site_fract_z
 _atom_site_occupancy
  Sr  Sr0  1  0.500000  0.000000  0.753665  1
  Sr  Sr1  1  0.000000  0.500000  0.243933  1
  Ni  Ni2  1  0.500000  0.000000  0.376352  1
  Sn  Sn3  1  0.000000  0.000000  0.489508  1
  Sn  Sn4  1  0.500000  0.500000  0.489508  1
  Sn  Sn5  1  0.500000  0.000000  0.133292  1
  Sn  Sn6  1  0.000000  0.500000  0.879211  1
  Pd  Pd7  1  0.000000  0.000000  0.004183  1
  Pd  Pd8  1  0.500000  0.500000  0.004183  1
  Pd  Pd9  1  0.000000  0.500000  0.626163  1
