# generated using pymatgen
data_Hf18Ta2CoNiW6
_symmetry_space_group_name_H-M   'P 1'
_cell_length_a   8.72407300
_cell_length_b   8.72407339
_cell_length_c   8.50913900
_cell_angle_alpha   90.00000000
_cell_angle_beta   90.00000000
_cell_angle_gamma   120.00000233
_symmetry_Int_Tables_number   1
_chemical_formula_structural   Hf18Ta2CoNiW6
_chemical_formula_sum   'Hf18 Ta2 Co1 Ni1 W6'
_cell_volume   560.86048180
_cell_formula_units_Z   1
loop_
 _symmetry_equiv_pos_site_id
 _symmetry_equiv_pos_as_xyz
  1  'x, y, z'
loop_
 _atom_site_type_symbol
 _atom_site_label
 _atom_site_symmetry_multiplicity
 _atom_site_fract_x
 _atom_site_fract_y
 _atom_site_fract_z
 _atom_site_occupancy
  Hf  Hf0  1  0.201956  0.798044  0.439652  1
  Hf  Hf1  1  0.201956  0.403915  0.439652  1
  Hf  Hf2  1  0.596085  0.798044  0.439652  1
  Hf  Hf3  1  0.799480  0.200520  0.557966  1
  Hf  Hf4  1  0.799480  0.598958  0.557966  1
  Hf  Hf5  1  0.401042  0.200520  0.557966  1
  Hf  Hf6  1  0.799480  0.200520  0.942034  1
  Hf  Hf7  1  0.799480  0.598958  0.942034  1
  Hf  Hf8  1  0.401042  0.200520  0.942034  1
  Hf  Hf9  1  0.201956  0.798044  0.060348  1
  Hf  Hf10  1  0.201956  0.403915  0.060348  1
  Hf  Hf11  1  0.596085  0.798044  0.060348  1
  Hf  Hf12  1  0.542414  0.457586  0.250000  1
  Hf  Hf13  1  0.542414  0.084826  0.250000  1
  Hf  Hf14  1  0.915174  0.457586  0.250000  1
  Hf  Hf15  1  0.457487  0.542513  0.750000  1
  Hf  Hf16  1  0.457487  0.914976  0.750000  1
  Hf  Hf17  1  0.085024  0.542513  0.750000  1
  Ta  Ta18  1  0.000000  0.000000  0.499364  1
  Ta  Ta19  1  0.000000  0.000000  0.000636  1
  Co  Co20  1  0.333333  0.666667  0.250000  1
  Ni  Ni21  1  0.666667  0.333333  0.750000  1
  W  W22  1  0.885506  0.114494  0.250000  1
  W  W23  1  0.885506  0.771012  0.250000  1
  W  W24  1  0.228988  0.114494  0.250000  1
  W  W25  1  0.114242  0.885758  0.750000  1
  W  W26  1  0.114242  0.228483  0.750000  1
  W  W27  1  0.771517  0.885758  0.750000  1
