# generated using pymatgen
data_Zr4CrP4Ir2Rh
_symmetry_space_group_name_H-M   'P 1'
_cell_length_a   3.82608500
_cell_length_b   6.51839393
_cell_length_c   7.45515710
_cell_angle_alpha   90.00814764
_cell_angle_beta   90.00000000
_cell_angle_gamma   90.00000000
_symmetry_Int_Tables_number   1
_chemical_formula_structural   Zr4CrP4Ir2Rh
_chemical_formula_sum   'Zr4 Cr1 P4 Ir2 Rh1'
_cell_volume   185.93108862
_cell_formula_units_Z   1
loop_
 _symmetry_equiv_pos_site_id
 _symmetry_equiv_pos_as_xyz
  1  'x, y, z'
loop_
 _atom_site_type_symbol
 _atom_site_label
 _atom_site_symmetry_multiplicity
 _atom_site_fract_x
 _atom_site_fract_y
 _atom_site_fract_z
 _atom_site_occupancy
  Zr  Zr0  1  0.250000  0.521600  0.176926  1
  Zr  Zr1  1  0.750000  0.472094  0.820774  1
  Zr  Zr2  1  0.750000  0.978042  0.677433  1
  Zr  Zr3  1  0.250000  0.028698  0.324769  1
  Cr  Cr4  1  0.250000  0.142863  0.940009  1
  P  P5  1  0.250000  0.771298  0.876255  1
  P  P6  1  0.750000  0.230003  0.118027  1
  P  P7  1  0.750000  0.734981  0.376262  1
  P  P8  1  0.250000  0.265243  0.632391  1
  Ir  Ir9  1  0.750000  0.351934  0.435814  1
  Ir  Ir10  1  0.750000  0.855670  0.061967  1
  Rh  Rh11  1  0.250000  0.647574  0.559374  1
