# generated using pymatgen
data_Sr20P13Au3
_symmetry_space_group_name_H-M   'P 1'
_cell_length_a   8.02708861
_cell_length_b   8.24799038
_cell_length_c   15.61011800
_cell_angle_alpha   90.00000000
_cell_angle_beta   90.00000000
_cell_angle_gamma   88.43135586
_symmetry_Int_Tables_number   1
_chemical_formula_structural   Sr20P13Au3
_chemical_formula_sum   'Sr20 P13 Au3'
_cell_volume   1033.11722998
_cell_formula_units_Z   1
loop_
 _symmetry_equiv_pos_site_id
 _symmetry_equiv_pos_as_xyz
  1  'x, y, z'
loop_
 _atom_site_type_symbol
 _atom_site_label
 _atom_site_symmetry_multiplicity
 _atom_site_fract_x
 _atom_site_fract_y
 _atom_site_fract_z
 _atom_site_occupancy
  Sr  Sr0  1  0.025006  0.189873  0.406045  1
  Sr  Sr1  1  0.872967  0.639644  0.388703  1
  Sr  Sr2  1  0.530637  0.316706  0.098965  1
  Sr  Sr3  1  0.130419  0.354337  0.611784  1
  Sr  Sr4  1  0.375897  0.860280  0.390885  1
  Sr  Sr5  1  0.130419  0.354337  0.888216  1
  Sr  Sr6  1  0.375897  0.860280  0.109115  1
  Sr  Sr7  1  0.206003  0.491269  0.250000  1
  Sr  Sr8  1  0.530637  0.316706  0.401035  1
  Sr  Sr9  1  0.781506  0.507063  0.750000  1
  Sr  Sr10  1  0.974180  0.809126  0.910495  1
  Sr  Sr11  1  0.974180  0.809126  0.589505  1
  Sr  Sr12  1  0.471850  0.673547  0.598671  1
  Sr  Sr13  1  0.619797  0.143727  0.606817  1
  Sr  Sr14  1  0.291061  0.995649  0.750000  1
  Sr  Sr15  1  0.619797  0.143727  0.893183  1
  Sr  Sr16  1  0.707289  0.010031  0.250000  1
  Sr  Sr17  1  0.872967  0.639644  0.111297  1
  Sr  Sr18  1  0.471850  0.673547  0.901329  1
  Sr  Sr19  1  0.025006  0.189873  0.093955  1
  P  P20  1  0.829088  0.364367  0.250000  1
  P  P21  1  0.398802  0.421110  0.750000  1
  P  P22  1  0.678991  0.872886  0.750000  1
  P  P23  1  0.776971  0.458656  0.549692  1
  P  P24  1  0.731763  0.965812  0.053445  1
  P  P25  1  0.776971  0.458656  0.950308  1
  P  P26  1  0.230943  0.539284  0.447925  1
  P  P27  1  0.230943  0.539284  0.052075  1
  P  P28  1  0.188821  0.620464  0.750000  1
  P  P29  1  0.330421  0.136308  0.250000  1
  P  P30  1  0.267277  0.029715  0.945345  1
  P  P31  1  0.731763  0.965812  0.446555  1
  P  P32  1  0.267277  0.029715  0.554655  1
  Au  Au33  1  0.578791  0.617810  0.250000  1
  Au  Au34  1  0.081660  0.883529  0.250000  1
  Au  Au35  1  0.912147  0.118101  0.750000  1
