# generated using pymatgen
data_La3(AlGa3)2
_symmetry_space_group_name_H-M   'P 1'
_cell_length_a   4.40947003
_cell_length_b   4.32653354
_cell_length_c   13.27464701
_cell_angle_alpha   99.37888093
_cell_angle_beta   99.56033885
_cell_angle_gamma   89.99999572
_symmetry_Int_Tables_number   1
_chemical_formula_structural   La3(AlGa3)2
_chemical_formula_sum   'La3 Al2 Ga6'
_cell_volume   246.29895912
_cell_formula_units_Z   1
loop_
 _symmetry_equiv_pos_site_id
 _symmetry_equiv_pos_as_xyz
  1  'x, y, z'
loop_
 _atom_site_type_symbol
 _atom_site_label
 _atom_site_symmetry_multiplicity
 _atom_site_fract_x
 _atom_site_fract_y
 _atom_site_fract_z
 _atom_site_occupancy
  La  La0  1  0.146346  0.646346  0.292692  1
  La  La1  1  0.853654  0.353654  0.707308  1
  La  La2  1  0.000000  0.000000  0.000000  1
  Al  Al3  1  0.750729  0.750729  0.501458  1
  Al  Al4  1  0.249271  0.249271  0.498542  1
  Ga  Ga5  1  0.404476  0.904476  0.808953  1
  Ga  Ga6  1  0.595524  0.095524  0.191047  1
  Ga  Ga7  1  0.307301  0.807301  0.614604  1
  Ga  Ga8  1  0.692699  0.192699  0.385396  1
  Ga  Ga9  1  0.548896  0.548896  0.097791  1
  Ga  Ga10  1  0.451104  0.451104  0.902209  1
