# generated using pymatgen
data_Sm3Sc(Co4P3)2
_symmetry_space_group_name_H-M   'P 1'
_cell_length_a   3.75074900
_cell_length_b   10.72094000
_cell_length_c   12.45843600
_cell_angle_alpha   90.00000000
_cell_angle_beta   90.00000000
_cell_angle_gamma   90.00000000
_symmetry_Int_Tables_number   1
_chemical_formula_structural   Sm3Sc(Co4P3)2
_chemical_formula_sum   'Sm6 Sc2 Co16 P12'
_cell_volume   500.97308423
_cell_formula_units_Z   2
loop_
 _symmetry_equiv_pos_site_id
 _symmetry_equiv_pos_as_xyz
  1  'x, y, z'
loop_
 _atom_site_type_symbol
 _atom_site_label
 _atom_site_symmetry_multiplicity
 _atom_site_fract_x
 _atom_site_fract_y
 _atom_site_fract_z
 _atom_site_occupancy
  Sm  Sm0  1  0.000000  0.500000  0.528042  1
  Sm  Sm1  1  0.500000  0.000000  0.471958  1
  Sm  Sm2  1  0.500000  0.821766  0.206133  1
  Sm  Sm3  1  0.500000  0.178234  0.206133  1
  Sm  Sm4  1  0.000000  0.678234  0.793867  1
  Sm  Sm5  1  0.000000  0.321766  0.793867  1
  Sc  Sc6  1  0.500000  0.500000  0.156314  1
  Sc  Sc7  1  0.000000  0.000000  0.843686  1
  Co  Co8  1  0.500000  0.500000  0.705946  1
  Co  Co9  1  0.000000  0.000000  0.294054  1
  Co  Co10  1  0.000000  0.500000  0.987960  1
  Co  Co11  1  0.500000  0.000000  0.012040  1
  Co  Co12  1  0.500000  0.331422  0.994926  1
  Co  Co13  1  0.500000  0.668578  0.994926  1
  Co  Co14  1  0.000000  0.168578  0.005074  1
  Co  Co15  1  0.000000  0.831422  0.005074  1
  Co  Co16  1  0.500000  0.296002  0.432866  1
  Co  Co17  1  0.500000  0.703998  0.432866  1
  Co  Co18  1  0.000000  0.203998  0.567134  1
  Co  Co19  1  0.000000  0.796002  0.567134  1
  Co  Co20  1  0.500000  0.879425  0.702269  1
  Co  Co21  1  0.500000  0.120575  0.702269  1
  Co  Co22  1  0.000000  0.620575  0.297731  1
  Co  Co23  1  0.000000  0.379425  0.297731  1
  P  P24  1  0.500000  0.500000  0.887336  1
  P  P25  1  0.000000  0.000000  0.112664  1
  P  P26  1  0.500000  0.500000  0.357875  1
  P  P27  1  0.000000  0.000000  0.642125  1
  P  P28  1  0.500000  0.306560  0.614272  1
  P  P29  1  0.500000  0.693440  0.614272  1
  P  P30  1  0.000000  0.193440  0.385728  1
  P  P31  1  0.000000  0.806560  0.385728  1
  P  P32  1  0.500000  0.840778  0.894860  1
  P  P33  1  0.500000  0.159222  0.894860  1
  P  P34  1  0.000000  0.659222  0.105140  1
  P  P35  1  0.000000  0.340778  0.105140  1
