# generated using pymatgen
data_Ti2Fe3B3W
_symmetry_space_group_name_H-M   'P 1'
_cell_length_a   5.91341547
_cell_length_b   5.99427064
_cell_length_c   3.04561800
_cell_angle_alpha   90.00000000
_cell_angle_beta   90.00000000
_cell_angle_gamma   120.45337173
_symmetry_Int_Tables_number   1
_chemical_formula_structural   Ti2Fe3B3W
_chemical_formula_sum   'Ti2 Fe3 B3 W1'
_cell_volume   93.06332307
_cell_formula_units_Z   1
loop_
 _symmetry_equiv_pos_site_id
 _symmetry_equiv_pos_as_xyz
  1  'x, y, z'
loop_
 _atom_site_type_symbol
 _atom_site_label
 _atom_site_symmetry_multiplicity
 _atom_site_fract_x
 _atom_site_fract_y
 _atom_site_fract_z
 _atom_site_occupancy
  Ti  Ti0  1  0.408726  0.412532  0.500000  1
  Ti  Ti1  1  0.591274  0.003806  0.500000  1
  Fe  Fe2  1  0.752684  0.755095  0.000000  1
  Fe  Fe3  1  0.247316  0.002411  0.000000  1
  Fe  Fe4  1  0.000000  0.241784  0.000000  1
  B  B5  1  0.668881  0.336106  0.000000  1
  B  B6  1  0.331119  0.667226  0.000000  1
  B  B7  1  0.000000  0.993205  0.500000  1
  W  W8  1  0.000000  0.587833  0.500000  1
