# generated using pymatgen
data_Tb9Lu3Co4SnRh
_symmetry_space_group_name_H-M   'P 1'
_cell_length_a   8.29627668
_cell_length_b   8.30639250
_cell_length_c   8.29627624
_cell_angle_alpha   111.05599911
_cell_angle_beta   110.36295717
_cell_angle_gamma   106.97532030
_symmetry_Int_Tables_number   1
_chemical_formula_structural   Tb9Lu3Co4SnRh
_chemical_formula_sum   'Tb9 Lu3 Co4 Sn1 Rh1'
_cell_volume   439.73577580
_cell_formula_units_Z   1
loop_
 _symmetry_equiv_pos_site_id
 _symmetry_equiv_pos_as_xyz
  1  'x, y, z'
loop_
 _atom_site_type_symbol
 _atom_site_label
 _atom_site_symmetry_multiplicity
 _atom_site_fract_x
 _atom_site_fract_y
 _atom_site_fract_z
 _atom_site_occupancy
  Tb  Tb0  1  0.408871  0.211398  0.195506  1
  Tb  Tb1  1  0.593947  0.789022  0.806026  1
  Tb  Tb2  1  0.015892  0.211398  0.802528  1
  Tb  Tb3  1  0.982995  0.789022  0.195074  1
  Tb  Tb4  1  0.186303  0.290858  0.479862  1
  Tb  Tb5  1  0.815213  0.708237  0.521141  1
  Tb  Tb6  1  0.187095  0.708237  0.893023  1
  Tb  Tb7  1  0.810997  0.290858  0.104556  1
  Tb  Tb8  1  0.313391  0.619996  0.306604  1
  Lu  Lu9  1  0.684469  0.375581  0.691112  1
  Lu  Lu10  1  0.315681  0.006471  0.690790  1
  Lu  Lu11  1  0.684979  0.993824  0.308845  1
  Co  Co12  1  0.380855  0.002633  0.380866  1
  Co  Co13  1  0.621767  0.002633  0.621778  1
  Co  Co14  1  0.110263  0.611192  0.500928  1
  Co  Co15  1  0.885030  0.384428  0.499398  1
  Sn  Sn16  1  0.501399  0.500740  0.999342  1
  Rh  Rh17  1  0.000854  0.003474  0.002620  1
