# generated using pymatgen
data_Ho4Al4IrPdRh2
_symmetry_space_group_name_H-M   'P 1'
_cell_length_a   4.24255600
_cell_length_b   6.88086781
_cell_length_c   7.92606913
_cell_angle_alpha   90.07599650
_cell_angle_beta   90.00000000
_cell_angle_gamma   90.00000000
_symmetry_Int_Tables_number   1
_chemical_formula_structural   Ho4Al4IrPdRh2
_chemical_formula_sum   'Ho4 Al4 Ir1 Pd1 Rh2'
_cell_volume   231.38130815
_cell_formula_units_Z   1
loop_
 _symmetry_equiv_pos_site_id
 _symmetry_equiv_pos_as_xyz
  1  'x, y, z'
loop_
 _atom_site_type_symbol
 _atom_site_label
 _atom_site_symmetry_multiplicity
 _atom_site_fract_x
 _atom_site_fract_y
 _atom_site_fract_z
 _atom_site_occupancy
  Ho  Ho0  1  0.250000  0.029004  0.675814  1
  Ho  Ho1  1  0.250000  0.540954  0.818437  1
  Ho  Ho2  1  0.750000  0.966407  0.320722  1
  Ho  Ho3  1  0.750000  0.468632  0.183420  1
  Al  Al4  1  0.250000  0.135252  0.063593  1
  Al  Al5  1  0.250000  0.637928  0.439237  1
  Al  Al6  1  0.750000  0.858370  0.937890  1
  Al  Al7  1  0.750000  0.364860  0.559151  1
  Ir  Ir8  1  0.750000  0.735592  0.622474  1
  Pd  Pd9  1  0.750000  0.231960  0.880083  1
  Rh  Rh10  1  0.250000  0.266269  0.379805  1
  Rh  Rh11  1  0.250000  0.764770  0.119376  1
