# generated using pymatgen
data_DyY(Ga5Cu6)2
_symmetry_space_group_name_H-M   'P 1'
_cell_length_a   10.31527156
_cell_length_b   8.17416895
_cell_length_c   7.82087900
_cell_angle_alpha   80.28381956
_cell_angle_beta   51.35837113
_cell_angle_gamma   48.35779587
_symmetry_Int_Tables_number   1
_chemical_formula_structural   DyY(Ga5Cu6)2
_chemical_formula_sum   'Dy1 Y1 Ga10 Cu12'
_cell_volume   349.01344227
_cell_formula_units_Z   1
loop_
 _symmetry_equiv_pos_site_id
 _symmetry_equiv_pos_as_xyz
  1  'x, y, z'
loop_
 _atom_site_type_symbol
 _atom_site_label
 _atom_site_symmetry_multiplicity
 _atom_site_fract_x
 _atom_site_fract_y
 _atom_site_fract_z
 _atom_site_occupancy
  Dy  Dy0  1  0.250000  0.250000  0.250000  1
  Y  Y1  1  0.000000  0.000000  0.000000  1
  Ga  Ga2  1  0.500000  0.500000  0.500000  1
  Ga  Ga3  1  0.750000  0.750000  0.750000  1
  Ga  Ga4  1  0.752703  0.073219  0.838544  1
  Ga  Ga5  1  0.838544  0.335534  0.752703  1
  Ga  Ga6  1  0.073219  0.752703  0.335534  1
  Ga  Ga7  1  0.335534  0.838544  0.073219  1
  Ga  Ga8  1  0.497128  0.176790  0.411516  1
  Ga  Ga9  1  0.411516  0.914566  0.497128  1
  Ga  Ga10  1  0.176790  0.497128  0.914566  1
  Ga  Ga11  1  0.914566  0.411516  0.176790  1
  Cu  Cu12  1  0.625091  0.124983  0.624942  1
  Cu  Cu13  1  0.624942  0.624984  0.625091  1
  Cu  Cu14  1  0.124983  0.625091  0.624984  1
  Cu  Cu15  1  0.624984  0.624942  0.124983  1
  Cu  Cu16  1  0.490119  0.434992  0.185473  1
  Cu  Cu17  1  0.185473  0.889416  0.490119  1
  Cu  Cu18  1  0.434992  0.490119  0.889416  1
  Cu  Cu19  1  0.889416  0.185473  0.434992  1
  Cu  Cu20  1  0.759308  0.815426  0.064655  1
  Cu  Cu21  1  0.064655  0.360610  0.759308  1
  Cu  Cu22  1  0.815426  0.759308  0.360610  1
  Cu  Cu23  1  0.360610  0.064655  0.815426  1
