# generated using pymatgen
data_Ac4P4PtRh3
_symmetry_space_group_name_H-M   'P 1'
_cell_length_a   6.45006478
_cell_length_b   6.45006547
_cell_length_c   6.45006500
_cell_angle_alpha   90.13826366
_cell_angle_beta   90.13827256
_cell_angle_gamma   89.86174062
_symmetry_Int_Tables_number   1
_chemical_formula_structural   Ac4P4PtRh3
_chemical_formula_sum   'Ac4 P4 Pt1 Rh3'
_cell_volume   268.34190779
_cell_formula_units_Z   1
loop_
 _symmetry_equiv_pos_site_id
 _symmetry_equiv_pos_as_xyz
  1  'x, y, z'
loop_
 _atom_site_type_symbol
 _atom_site_label
 _atom_site_symmetry_multiplicity
 _atom_site_fract_x
 _atom_site_fract_y
 _atom_site_fract_z
 _atom_site_occupancy
  Ac  Ac0  1  0.398386  0.898386  0.601614  1
  Ac  Ac1  1  0.896827  0.603435  0.399222  1
  Ac  Ac2  1  0.600778  0.396827  0.896565  1
  Ac  Ac3  1  0.103435  0.100778  0.103173  1
  P  P4  1  0.676309  0.176309  0.323691  1
  P  P5  1  0.176724  0.319582  0.672281  1
  P  P6  1  0.327719  0.676724  0.180418  1
  P  P7  1  0.819582  0.827719  0.823276  1
  Pt  Pt8  1  0.090239  0.590239  0.909761  1
  Rh  Rh9  1  0.590432  0.910465  0.090892  1
  Rh  Rh10  1  0.909108  0.090432  0.589535  1
  Rh  Rh11  1  0.410465  0.409108  0.409568  1
