# generated using pymatgen
data_Yb4Mg3ScPt4
_symmetry_space_group_name_H-M   'P 1'
_cell_length_a   4.21888800
_cell_length_b   7.32907173
_cell_length_c   8.49496211
_cell_angle_alpha   89.42454140
_cell_angle_beta   90.00000000
_cell_angle_gamma   90.00000000
_symmetry_Int_Tables_number   1
_chemical_formula_structural   Yb4Mg3ScPt4
_chemical_formula_sum   'Yb4 Mg3 Sc1 Pt4'
_cell_volume   262.65550610
_cell_formula_units_Z   1
loop_
 _symmetry_equiv_pos_site_id
 _symmetry_equiv_pos_as_xyz
  1  'x, y, z'
loop_
 _atom_site_type_symbol
 _atom_site_label
 _atom_site_symmetry_multiplicity
 _atom_site_fract_x
 _atom_site_fract_y
 _atom_site_fract_z
 _atom_site_occupancy
  Yb  Yb0  1  0.250000  0.038675  0.323291  1
  Yb  Yb1  1  0.250000  0.529882  0.170444  1
  Yb  Yb2  1  0.750000  0.972881  0.677909  1
  Yb  Yb3  1  0.750000  0.462373  0.830459  1
  Mg  Mg4  1  0.250000  0.137381  0.937737  1
  Mg  Mg5  1  0.750000  0.357961  0.433114  1
  Mg  Mg6  1  0.750000  0.860943  0.061906  1
  Sc  Sc7  1  0.250000  0.634433  0.563079  1
  Pt  Pt8  1  0.250000  0.272653  0.625676  1
  Pt  Pt9  1  0.250000  0.765018  0.868161  1
  Pt  Pt10  1  0.750000  0.735334  0.382472  1
  Pt  Pt11  1  0.750000  0.232467  0.125751  1
