# generated using pymatgen
data_Ac11Cd9Au4
_symmetry_space_group_name_H-M   'P 1'
_cell_length_a   14.30823749
_cell_length_b   14.30823495
_cell_length_c   4.05735500
_cell_angle_alpha   90.00000000
_cell_angle_beta   90.00000000
_cell_angle_gamma   69.52461214
_symmetry_Int_Tables_number   1
_chemical_formula_structural   Ac11Cd9Au4
_chemical_formula_sum   'Ac11 Cd9 Au4'
_cell_volume   778.16652030
_cell_formula_units_Z   1
loop_
 _symmetry_equiv_pos_site_id
 _symmetry_equiv_pos_as_xyz
  1  'x, y, z'
loop_
 _atom_site_type_symbol
 _atom_site_label
 _atom_site_symmetry_multiplicity
 _atom_site_fract_x
 _atom_site_fract_y
 _atom_site_fract_z
 _atom_site_occupancy
  Ac  Ac0  1  0.292082  0.707919  0.000000  1
  Ac  Ac1  1  0.707919  0.292082  0.000000  1
  Ac  Ac2  1  0.000000  0.000000  0.000000  1
  Ac  Ac3  1  0.420565  0.921372  0.000000  1
  Ac  Ac4  1  0.579435  0.078628  0.000000  1
  Ac  Ac5  1  0.078628  0.579435  0.000000  1
  Ac  Ac6  1  0.921372  0.420565  0.000000  1
  Ac  Ac7  1  0.165254  0.165254  0.000000  1
  Ac  Ac8  1  0.834745  0.834745  0.000000  1
  Ac  Ac9  1  0.364461  0.364461  0.000000  1
  Ac  Ac10  1  0.635539  0.635539  0.000000  1
  Cd  Cd11  1  0.365653  0.155844  0.500002  1
  Cd  Cd12  1  0.634347  0.844156  0.500002  1
  Cd  Cd13  1  0.844156  0.634347  0.500002  1
  Cd  Cd14  1  0.155844  0.365653  0.500002  1
  Cd  Cd15  1  0.211165  0.939296  0.500002  1
  Cd  Cd16  1  0.788835  0.060704  0.500002  1
  Cd  Cd17  1  0.060704  0.788835  0.500002  1
  Cd  Cd18  1  0.939296  0.211165  0.500002  1
  Cd  Cd19  1  0.500000  0.500000  0.500002  1
  Au  Au20  1  0.454082  0.739813  0.500002  1
  Au  Au21  1  0.545918  0.260187  0.500002  1
  Au  Au22  1  0.260187  0.545918  0.500002  1
  Au  Au23  1  0.739813  0.454082  0.500002  1
