# generated using pymatgen
data_CaDy3Sb2(RhO7)2
_symmetry_space_group_name_H-M   'P 1'
_cell_length_a   7.33808437
_cell_length_b   7.21523405
_cell_length_c   7.33808467
_cell_angle_alpha   60.18907711
_cell_angle_beta   60.84187500
_cell_angle_gamma   60.18907968
_symmetry_Int_Tables_number   1
_chemical_formula_structural   CaDy3Sb2(RhO7)2
_chemical_formula_sum   'Ca1 Dy3 Sb2 Rh2 O14'
_cell_volume   277.22938841
_cell_formula_units_Z   1
loop_
 _symmetry_equiv_pos_site_id
 _symmetry_equiv_pos_as_xyz
  1  'x, y, z'
loop_
 _atom_site_type_symbol
 _atom_site_label
 _atom_site_symmetry_multiplicity
 _atom_site_fract_x
 _atom_site_fract_y
 _atom_site_fract_z
 _atom_site_occupancy
  Ca  Ca0  1  0.125000  0.625000  0.125000  1
  Dy  Dy1  1  0.125000  0.125000  0.625000  1
  Dy  Dy2  1  0.625000  0.125000  0.125000  1
  Dy  Dy3  1  0.125000  0.125000  0.125000  1
  Sb  Sb4  1  0.125000  0.625000  0.625000  1
  Sb  Sb5  1  0.625000  0.625000  0.125000  1
  Rh  Rh6  1  0.625000  0.625000  0.625000  1
  Rh  Rh7  1  0.625000  0.125000  0.625000  1
  O  O8  1  0.288177  0.711910  0.706415  1
  O  O9  1  0.535066  0.961001  0.961961  1
  O  O10  1  0.711267  0.287760  0.711267  1
  O  O11  1  0.288039  0.288999  0.714934  1
  O  O12  1  0.706415  0.711910  0.288177  1
  O  O13  1  0.995966  0.011013  0.995966  1
  O  O14  1  0.297130  0.707881  0.297130  1
  O  O15  1  0.952870  0.542119  0.952870  1
  O  O16  1  0.961961  0.961001  0.535066  1
  O  O17  1  0.543585  0.538090  0.961823  1
  O  O18  1  0.254034  0.238987  0.254034  1
  O  O19  1  0.538733  0.962240  0.538733  1
  O  O20  1  0.714934  0.288999  0.288039  1
  O  O21  1  0.961823  0.538090  0.543585  1
