# generated using pymatgen
data_PaTaN2
_symmetry_space_group_name_H-M   'P 1'
_cell_length_a   3.29428400
_cell_length_b   5.70656400
_cell_length_c   11.07896000
_cell_angle_alpha   90.00000000
_cell_angle_beta   90.00000000
_cell_angle_gamma   90.00000000
_symmetry_Int_Tables_number   1
_chemical_formula_structural   PaTaN2
_chemical_formula_sum   'Pa4 Ta4 N8'
_cell_volume   208.27383968
_cell_formula_units_Z   4
loop_
 _symmetry_equiv_pos_site_id
 _symmetry_equiv_pos_as_xyz
  1  'x, y, z'
loop_
 _atom_site_type_symbol
 _atom_site_label
 _atom_site_symmetry_multiplicity
 _atom_site_fract_x
 _atom_site_fract_y
 _atom_site_fract_z
 _atom_site_occupancy
  Pa  Pa0  1  0.250000  0.577421  0.855876  1
  Pa  Pa1  1  0.750000  0.422579  0.144124  1
  Pa  Pa2  1  0.750000  0.922579  0.355876  1
  Pa  Pa3  1  0.250000  0.077421  0.644124  1
  Ta  Ta4  1  0.250000  0.925356  0.099963  1
  Ta  Ta5  1  0.750000  0.074644  0.900037  1
  Ta  Ta6  1  0.750000  0.574644  0.599963  1
  Ta  Ta7  1  0.250000  0.425356  0.400037  1
  N  N8  1  0.250000  0.662551  0.245742  1
  N  N9  1  0.750000  0.337449  0.754258  1
  N  N10  1  0.750000  0.837449  0.745742  1
  N  N11  1  0.250000  0.162551  0.254258  1
  N  N12  1  0.250000  0.758153  0.504886  1
  N  N13  1  0.750000  0.241847  0.495114  1
  N  N14  1  0.750000  0.741847  0.004886  1
  N  N15  1  0.250000  0.258153  0.995114  1
