# generated using pymatgen
data_LaHo11MnFeI17
_symmetry_space_group_name_H-M   'P 1'
_cell_length_a   9.68344061
_cell_length_b   11.81191922
_cell_length_c   11.70463874
_cell_angle_alpha   74.26759576
_cell_angle_beta   75.60655140
_cell_angle_gamma   65.88593991
_symmetry_Int_Tables_number   1
_chemical_formula_structural   LaHo11MnFeI17
_chemical_formula_sum   'La1 Ho11 Mn1 Fe1 I17'
_cell_volume   1161.61246991
_cell_formula_units_Z   1
loop_
 _symmetry_equiv_pos_site_id
 _symmetry_equiv_pos_as_xyz
  1  'x, y, z'
loop_
 _atom_site_type_symbol
 _atom_site_label
 _atom_site_symmetry_multiplicity
 _atom_site_fract_x
 _atom_site_fract_y
 _atom_site_fract_z
 _atom_site_occupancy
  La  La0  1  0.152525  0.714543  0.157013  1
  Ho  Ho1  1  0.452594  0.490327  0.322140  1
  Ho  Ho2  1  0.548724  0.671186  0.011618  1
  Ho  Ho3  1  0.274095  0.982015  0.109261  1
  Ho  Ho4  1  0.856371  0.288847  0.845527  1
  Ho  Ho5  1  0.415238  0.241986  0.718577  1
  Ho  Ho6  1  0.722098  0.028998  0.886099  1
  Ho  Ho7  1  0.552689  0.496811  0.680606  1
  Ho  Ho8  1  0.459949  0.325701  0.978879  1
  Ho  Ho9  1  0.574050  0.756735  0.277743  1
  Ho  Ho10  1  0.814685  0.194672  0.592236  1
  Ho  Ho11  1  0.175716  0.809868  0.417603  1
  Mn  Mn12  1  0.346252  0.735422  0.209125  1
  Fe  Fe13  1  0.635786  0.262554  0.785196  1
  I  I14  1  0.056870  0.100418  0.328239  1
  I  I15  1  0.466624  0.947179  0.843961  1
  I  I16  1  0.431119  0.808548  0.533870  1
  I  I17  1  0.572771  0.189311  0.461012  1
  I  I18  1  0.831153  0.714351  0.048470  1
  I  I19  1  0.239016  0.406057  0.240025  1
  I  I20  1  0.690706  0.371941  0.102303  1
  I  I21  1  0.533910  0.046092  0.158760  1
  I  I22  1  0.742203  0.476871  0.413076  1
  I  I23  1  0.879421  0.789454  0.382485  1
  I  I24  1  0.949104  0.900837  0.674664  1
  I  I25  1  0.162877  0.287067  0.955476  1
  I  I26  1  0.318448  0.628347  0.892103  1
  I  I27  1  0.998411  0.007589  0.999383  1
  I  I28  1  0.114609  0.217643  0.631639  1
  I  I29  1  0.775376  0.581574  0.761824  1
  I  I30  1  0.256607  0.527054  0.581085  1
