# generated using pymatgen
data_Dy4RuCl4
_symmetry_space_group_name_H-M   'P 1'
_cell_length_a   8.59741952
_cell_length_b   8.59742083
_cell_length_c   6.50448612
_cell_angle_alpha   89.89137103
_cell_angle_beta   89.89136271
_cell_angle_gamma   89.46553926
_symmetry_Int_Tables_number   1
_chemical_formula_structural   Dy4RuCl4
_chemical_formula_sum   'Dy8 Ru2 Cl8'
_cell_volume   480.76058423
_cell_formula_units_Z   2
loop_
 _symmetry_equiv_pos_site_id
 _symmetry_equiv_pos_as_xyz
  1  'x, y, z'
loop_
 _atom_site_type_symbol
 _atom_site_label
 _atom_site_symmetry_multiplicity
 _atom_site_fract_x
 _atom_site_fract_y
 _atom_site_fract_z
 _atom_site_occupancy
  Dy  Dy0  1  0.104961  0.741689  0.988120  1
  Dy  Dy1  1  0.258311  0.895039  0.511880  1
  Dy  Dy2  1  0.895039  0.258311  0.011880  1
  Dy  Dy3  1  0.741689  0.104961  0.488120  1
  Dy  Dy4  1  0.742559  0.895700  0.006066  1
  Dy  Dy5  1  0.104300  0.257441  0.493934  1
  Dy  Dy6  1  0.257441  0.104300  0.993934  1
  Dy  Dy7  1  0.895700  0.742559  0.506066  1
  Ru  Ru8  1  0.006667  0.993333  0.250000  1
  Ru  Ru9  1  0.993333  0.006667  0.750000  1
  Cl  Cl10  1  0.419388  0.820888  0.902737  1
  Cl  Cl11  1  0.179112  0.580612  0.597263  1
  Cl  Cl12  1  0.580612  0.179112  0.097263  1
  Cl  Cl13  1  0.820888  0.419388  0.402737  1
  Cl  Cl14  1  0.813743  0.583114  0.903497  1
  Cl  Cl15  1  0.416886  0.186257  0.596503  1
  Cl  Cl16  1  0.186257  0.416886  0.096503  1
  Cl  Cl17  1  0.583114  0.813743  0.403497  1
