# generated using pymatgen
data_SrTc5O8
_symmetry_space_group_name_H-M   'P 1'
_cell_length_a   7.38020407
_cell_length_b   8.95734700
_cell_length_c   9.74074200
_cell_angle_alpha   90.00000000
_cell_angle_beta   109.33076160
_cell_angle_gamma   90.00000000
_symmetry_Int_Tables_number   1
_chemical_formula_structural   SrTc5O8
_chemical_formula_sum   'Sr4 Tc20 O32'
_cell_volume   607.62900391
_cell_formula_units_Z   4
loop_
 _symmetry_equiv_pos_site_id
 _symmetry_equiv_pos_as_xyz
  1  'x, y, z'
loop_
 _atom_site_type_symbol
 _atom_site_label
 _atom_site_symmetry_multiplicity
 _atom_site_fract_x
 _atom_site_fract_y
 _atom_site_fract_z
 _atom_site_occupancy
  Sr  Sr0  1  0.249068  0.002569  0.044409  1
  Sr  Sr1  1  0.751160  0.502791  0.455629  1
  Sr  Sr2  1  0.248891  0.497248  0.544423  1
  Sr  Sr3  1  0.750841  0.997393  0.955493  1
  Tc  Tc4  1  0.409747  0.377450  0.009156  1
  Tc  Tc5  1  0.985254  0.620907  0.082571  1
  Tc  Tc6  1  0.834869  0.360988  0.115068  1
  Tc  Tc7  1  0.393763  0.620660  0.171576  1
  Tc  Tc8  1  0.197235  0.379575  0.203908  1
  Tc  Tc9  1  0.802694  0.879507  0.296166  1
  Tc  Tc10  1  0.606374  0.120707  0.328457  1
  Tc  Tc11  1  0.165087  0.861122  0.384734  1
  Tc  Tc12  1  0.014320  0.120840  0.417287  1
  Tc  Tc13  1  0.590191  0.877429  0.490938  1
  Tc  Tc14  1  0.409813  0.122655  0.509095  1
  Tc  Tc15  1  0.985733  0.879138  0.582710  1
  Tc  Tc16  1  0.834937  0.138847  0.615202  1
  Tc  Tc17  1  0.393586  0.879264  0.671540  1
  Tc  Tc18  1  0.197346  0.120529  0.703878  1
  Tc  Tc19  1  0.802738  0.620478  0.796014  1
  Tc  Tc20  1  0.606332  0.379295  0.828389  1
  Tc  Tc21  1  0.165160  0.638951  0.885049  1
  Tc  Tc22  1  0.014587  0.379074  0.917377  1
  Tc  Tc23  1  0.590318  0.622575  0.990916  1
  O  O24  1  0.383642  0.765936  0.009977  1
  O  O25  1  0.020232  0.221634  0.068261  1
  O  O26  1  0.788002  0.757051  0.118719  1
  O  O27  1  0.603245  0.000310  0.159079  1
  O  O28  1  0.624617  0.486861  0.168507  1
  O  O29  1  0.401732  0.246431  0.174969  1
  O  O30  1  0.193861  0.751792  0.206993  1
  O  O31  1  0.995623  0.003298  0.235686  1
  O  O32  1  0.003939  0.503290  0.264116  1
  O  O33  1  0.806057  0.251844  0.292742  1
  O  O34  1  0.598171  0.746375  0.325218  1
  O  O35  1  0.375348  0.987113  0.331542  1
  O  O36  1  0.396629  0.500404  0.340936  1
  O  O37  1  0.211776  0.256932  0.381239  1
  O  O38  1  0.980096  0.721683  0.431837  1
  O  O39  1  0.616662  0.265940  0.490096  1
  O  O40  1  0.383397  0.734063  0.509853  1
  O  O41  1  0.019931  0.278322  0.568132  1
  O  O42  1  0.788185  0.743149  0.618705  1
  O  O43  1  0.603265  0.499643  0.658960  1
  O  O44  1  0.624633  0.012981  0.668545  1
  O  O45  1  0.401765  0.253694  0.674774  1
  O  O46  1  0.193906  0.748019  0.707267  1
  O  O47  1  0.996142  0.496731  0.735913  1
  O  O48  1  0.004437  0.996719  0.764318  1
  O  O49  1  0.806170  0.248108  0.792805  1
  O  O50  1  0.598195  0.753554  0.825039  1
  O  O51  1  0.375339  0.513052  0.831578  1
  O  O52  1  0.396781  0.999652  0.840935  1
  O  O53  1  0.212115  0.242976  0.881445  1
  O  O54  1  0.979780  0.778415  0.931757  1
  O  O55  1  0.616291  0.234033  0.990064  1
