# generated using pymatgen
data_Dy5YTi2(Co4P3)4
_symmetry_space_group_name_H-M   'P 1'
_cell_length_a   3.69182700
_cell_length_b   10.59620700
_cell_length_c   12.27870400
_cell_angle_alpha   90.00000000
_cell_angle_beta   90.00000000
_cell_angle_gamma   90.00000000
_symmetry_Int_Tables_number   1
_chemical_formula_structural   Dy5YTi2(Co4P3)4
_chemical_formula_sum   'Dy5 Y1 Ti2 Co16 P12'
_cell_volume   480.33508018
_cell_formula_units_Z   1
loop_
 _symmetry_equiv_pos_site_id
 _symmetry_equiv_pos_as_xyz
  1  'x, y, z'
loop_
 _atom_site_type_symbol
 _atom_site_label
 _atom_site_symmetry_multiplicity
 _atom_site_fract_x
 _atom_site_fract_y
 _atom_site_fract_z
 _atom_site_occupancy
  Dy  Dy0  1  0.000000  0.500000  0.525072  1
  Dy  Dy1  1  0.500000  0.819969  0.204276  1
  Dy  Dy2  1  0.500000  0.180031  0.204276  1
  Dy  Dy3  1  0.000000  0.680053  0.795728  1
  Dy  Dy4  1  0.000000  0.319947  0.795728  1
  Y  Y5  1  0.500000  0.000000  0.474951  1
  Ti  Ti6  1  0.500000  0.500000  0.153681  1
  Ti  Ti7  1  0.000000  0.000000  0.846323  1
  Co  Co8  1  0.500000  0.500000  0.702807  1
  Co  Co9  1  0.000000  0.000000  0.297081  1
  Co  Co10  1  0.000000  0.500000  0.987465  1
  Co  Co11  1  0.500000  0.000000  0.012526  1
  Co  Co12  1  0.500000  0.332211  0.994029  1
  Co  Co13  1  0.500000  0.667789  0.994029  1
  Co  Co14  1  0.000000  0.167769  0.005965  1
  Co  Co15  1  0.000000  0.832231  0.005965  1
  Co  Co16  1  0.500000  0.295821  0.431845  1
  Co  Co17  1  0.500000  0.704179  0.431845  1
  Co  Co18  1  0.000000  0.204249  0.568172  1
  Co  Co19  1  0.000000  0.795751  0.568172  1
  Co  Co20  1  0.500000  0.878610  0.706028  1
  Co  Co21  1  0.500000  0.121390  0.706028  1
  Co  Co22  1  0.000000  0.621381  0.294006  1
  Co  Co23  1  0.000000  0.378619  0.294006  1
  P  P24  1  0.500000  0.500000  0.883347  1
  P  P25  1  0.000000  0.000000  0.116656  1
  P  P26  1  0.500000  0.500000  0.352978  1
  P  P27  1  0.000000  0.000000  0.647131  1
  P  P28  1  0.500000  0.310268  0.615731  1
  P  P29  1  0.500000  0.689732  0.615731  1
  P  P30  1  0.000000  0.189790  0.384227  1
  P  P31  1  0.000000  0.810210  0.384227  1
  P  P32  1  0.500000  0.843071  0.892205  1
  P  P33  1  0.500000  0.156929  0.892205  1
  P  P34  1  0.000000  0.656944  0.107779  1
  P  P35  1  0.000000  0.343056  0.107779  1
