# generated using pymatgen
data_Er7Pa(Si3Pd)4
_symmetry_space_group_name_H-M   'P 1'
_cell_length_a   8.15302700
_cell_length_b   8.15301219
_cell_length_c   8.07376100
_cell_angle_alpha   90.00000000
_cell_angle_beta   90.00000000
_cell_angle_gamma   120.00002356
_symmetry_Int_Tables_number   1
_chemical_formula_structural   Er7Pa(Si3Pd)4
_chemical_formula_sum   'Er7 Pa1 Si12 Pd4'
_cell_volume   464.77567493
_cell_formula_units_Z   1
loop_
 _symmetry_equiv_pos_site_id
 _symmetry_equiv_pos_as_xyz
  1  'x, y, z'
loop_
 _atom_site_type_symbol
 _atom_site_label
 _atom_site_symmetry_multiplicity
 _atom_site_fract_x
 _atom_site_fract_y
 _atom_site_fract_z
 _atom_site_occupancy
  Er  Er0  1  0.498480  0.501488  0.750000  1
  Er  Er1  1  0.501699  0.498319  0.250000  1
  Er  Er2  1  0.002993  0.501499  0.750000  1
  Er  Er3  1  0.996598  0.498299  0.250000  1
  Er  Er4  1  0.498476  0.996992  0.750000  1
  Er  Er5  1  0.501699  0.003376  0.250000  1
  Er  Er6  1  0.000159  0.000079  0.750000  1
  Pa  Pa7  1  0.000001  0.000000  0.250000  1
  Si  Si8  1  0.834513  0.165467  0.999544  1
  Si  Si9  1  0.165458  0.834528  0.000439  1
  Si  Si10  1  0.330952  0.165476  0.999559  1
  Si  Si11  1  0.165458  0.834528  0.499561  1
  Si  Si12  1  0.669068  0.834533  0.000419  1
  Si  Si13  1  0.834513  0.165467  0.500456  1
  Si  Si14  1  0.834513  0.669047  0.999544  1
  Si  Si15  1  0.669068  0.834533  0.499581  1
  Si  Si16  1  0.165459  0.330931  0.000439  1
  Si  Si17  1  0.330952  0.165476  0.500441  1
  Si  Si18  1  0.165459  0.330931  0.499561  1
  Si  Si19  1  0.834513  0.669047  0.500456  1
  Pd  Pd20  1  0.666659  0.333331  0.996486  1
  Pd  Pd21  1  0.333326  0.666662  0.003542  1
  Pd  Pd22  1  0.333326  0.666662  0.496458  1
  Pd  Pd23  1  0.666659  0.333331  0.503514  1
