# generated using pymatgen
data_Y4Th6SnBi5C2
_symmetry_space_group_name_H-M   'P 1'
_cell_length_a   9.33365038
_cell_length_b   9.33365189
_cell_length_c   6.49944600
_cell_angle_alpha   90.00000000
_cell_angle_beta   90.00000000
_cell_angle_gamma   119.98224372
_symmetry_Int_Tables_number   1
_chemical_formula_structural   Y4Th6SnBi5C2
_chemical_formula_sum   'Y4 Th6 Sn1 Bi5 C2'
_cell_volume   490.44213883
_cell_formula_units_Z   1
loop_
 _symmetry_equiv_pos_site_id
 _symmetry_equiv_pos_as_xyz
  1  'x, y, z'
loop_
 _atom_site_type_symbol
 _atom_site_label
 _atom_site_symmetry_multiplicity
 _atom_site_fract_x
 _atom_site_fract_y
 _atom_site_fract_z
 _atom_site_occupancy
  Y  Y0  1  0.664395  0.334122  0.998306  1
  Y  Y1  1  0.334122  0.664395  0.998306  1
  Y  Y2  1  0.334122  0.664395  0.501694  1
  Y  Y3  1  0.664395  0.334122  0.501694  1
  Th  Th4  1  0.777652  0.777652  0.750000  1
  Th  Th5  1  0.220926  0.002929  0.750000  1
  Th  Th6  1  0.002929  0.220926  0.750000  1
  Th  Th7  1  0.221997  0.221997  0.250000  1
  Th  Th8  1  0.780784  0.000439  0.250000  1
  Th  Th9  1  0.000439  0.780784  0.250000  1
  Sn  Sn10  1  0.406083  0.406083  0.750000  1
  Bi  Bi11  1  0.594440  0.000375  0.750000  1
  Bi  Bi12  1  0.000375  0.594440  0.750000  1
  Bi  Bi13  1  0.592849  0.592849  0.250000  1
  Bi  Bi14  1  0.406329  0.999672  0.250000  1
  Bi  Bi15  1  0.999672  0.406329  0.250000  1
  C  C16  1  0.999243  0.999243  0.000448  1
  C  C17  1  0.999243  0.999243  0.499552  1
