# generated using pymatgen
data_DyHo5(Cd3C)2
_symmetry_space_group_name_H-M   'P 1'
_cell_length_a   9.52561484
_cell_length_b   9.52133484
_cell_length_c   9.52419900
_cell_angle_alpha   119.79619650
_cell_angle_beta   90.37206732
_cell_angle_gamma   119.79523714
_symmetry_Int_Tables_number   1
_chemical_formula_structural   DyHo5(Cd3C)2
_chemical_formula_sum   'Dy2 Ho10 Cd12 C4'
_cell_volume   612.58455767
_cell_formula_units_Z   2
loop_
 _symmetry_equiv_pos_site_id
 _symmetry_equiv_pos_as_xyz
  1  'x, y, z'
loop_
 _atom_site_type_symbol
 _atom_site_label
 _atom_site_symmetry_multiplicity
 _atom_site_fract_x
 _atom_site_fract_y
 _atom_site_fract_z
 _atom_site_occupancy
  Dy  Dy0  1  0.934829  0.750019  0.565175  1
  Dy  Dy1  1  0.684821  0.250003  0.815207  1
  Ho  Ho2  1  0.935252  0.370148  0.185170  1
  Ho  Ho3  1  0.936967  0.750306  0.186939  1
  Ho  Ho4  1  0.314902  0.750049  0.185174  1
  Ho  Ho5  1  0.686649  0.249738  0.436602  1
  Ho  Ho6  1  0.685056  0.870296  0.434996  1
  Ho  Ho7  1  0.064871  0.249943  0.435117  1
  Ho  Ho8  1  0.314734  0.129699  0.564684  1
  Ho  Ho9  1  0.313162  0.749822  0.563025  1
  Ho  Ho10  1  0.065085  0.629867  0.815064  1
  Ho  Ho11  1  0.063423  0.250179  0.813259  1
  Cd  Cd12  1  0.000028  0.000067  0.000113  1
  Cd  Cd13  1  0.499942  0.999937  0.000044  1
  Cd  Cd14  1  0.499937  0.500053  0.000043  1
  Cd  Cd15  1  0.708816  0.917394  0.126143  1
  Cd  Cd16  1  0.291364  0.082557  0.208742  1
  Cd  Cd17  1  0.291244  0.417468  0.208637  1
  Cd  Cd18  1  0.625969  0.417306  0.208764  1
  Cd  Cd19  1  0.499875  0.499935  0.499969  1
  Cd  Cd20  1  0.373806  0.582556  0.791147  1
  Cd  Cd21  1  0.708675  0.582734  0.791504  1
  Cd  Cd22  1  0.708482  0.917212  0.791324  1
  Cd  Cd23  1  0.291251  0.082728  0.874057  1
  C  C24  1  0.000791  0.500490  0.000276  1
  C  C25  1  0.000170  0.000609  0.499787  1
  C  C26  1  0.499717  0.999509  0.499225  1
  C  C27  1  0.000188  0.499386  0.499819  1
