# generated using pymatgen
data_Lu3Co2Sn3Hg
_symmetry_space_group_name_H-M   'P 1'
_cell_length_a   7.55046300
_cell_length_b   7.55046245
_cell_length_c   3.74665600
_cell_angle_alpha   90.00000000
_cell_angle_beta   90.00000000
_cell_angle_gamma   119.99998926
_symmetry_Int_Tables_number   1
_chemical_formula_structural   Lu3Co2Sn3Hg
_chemical_formula_sum   'Lu3 Co2 Sn3 Hg1'
_cell_volume   184.97866235
_cell_formula_units_Z   1
loop_
 _symmetry_equiv_pos_site_id
 _symmetry_equiv_pos_as_xyz
  1  'x, y, z'
loop_
 _atom_site_type_symbol
 _atom_site_label
 _atom_site_symmetry_multiplicity
 _atom_site_fract_x
 _atom_site_fract_y
 _atom_site_fract_z
 _atom_site_occupancy
  Lu  Lu0  1  0.970482  0.385295  0.500000  1
  Lu  Lu1  1  0.614705  0.585187  0.500000  1
  Lu  Lu2  1  0.414813  0.029518  0.500000  1
  Co  Co3  1  0.666667  0.333333  0.000000  1
  Co  Co4  1  0.000000  0.000000  0.500000  1
  Sn  Sn5  1  0.990512  0.743273  0.000000  1
  Sn  Sn6  1  0.256727  0.247240  0.000000  1
  Sn  Sn7  1  0.752760  0.009488  0.000000  1
  Hg  Hg8  1  0.333333  0.666667  0.000000  1
