# generated using pymatgen
data_LaPrNd4(PtI3)2
_symmetry_space_group_name_H-M   'P 1'
_cell_length_a   10.93865069
_cell_length_b   10.95788938
_cell_length_c   10.95562728
_cell_angle_alpha   109.50501174
_cell_angle_beta   109.59597036
_cell_angle_gamma   109.39209307
_symmetry_Int_Tables_number   1
_chemical_formula_structural   LaPrNd4(PtI3)2
_chemical_formula_sum   'La2 Pr2 Nd8 Pt4 I12'
_cell_volume   1009.90057847
_cell_formula_units_Z   2
loop_
 _symmetry_equiv_pos_site_id
 _symmetry_equiv_pos_as_xyz
  1  'x, y, z'
loop_
 _atom_site_type_symbol
 _atom_site_label
 _atom_site_symmetry_multiplicity
 _atom_site_fract_x
 _atom_site_fract_y
 _atom_site_fract_z
 _atom_site_occupancy
  La  La0  1  0.271111  0.019204  0.041108  1
  La  La1  1  0.228562  0.269788  0.747891  1
  Pr  Pr2  1  0.459451  0.479736  0.230709  1
  Pr  Pr3  1  0.753896  0.231402  0.272580  1
  Nd  Nd4  1  0.746135  0.019054  0.477212  1
  Nd  Nd5  1  0.230291  0.459183  0.477748  1
  Nd  Nd6  1  0.269707  0.747599  0.228922  1
  Nd  Nd7  1  0.041220  0.271650  0.020628  1
  Nd  Nd8  1  0.021814  0.042631  0.270919  1
  Nd  Nd9  1  0.478292  0.749315  0.021053  1
  Nd  Nd10  1  0.481381  0.230539  0.461494  1
  Nd  Nd11  1  0.018620  0.480030  0.749379  1
  Pt  Pt12  1  0.250491  0.249617  0.250694  1
  Pt  Pt13  1  0.499204  0.000054  0.250719  1
  Pt  Pt14  1  0.000850  0.250916  0.501509  1
  Pt  Pt15  1  0.248249  0.499561  0.998480  1
  I  I16  1  0.250024  0.755334  0.739554  1
  I  I17  1  0.517711  0.511264  0.757572  1
  I  I18  1  0.982243  0.739838  0.993509  1
  I  I19  1  0.741953  0.249827  0.757820  1
  I  I20  1  0.986139  0.982298  0.739989  1
  I  I21  1  0.249975  0.989526  0.505326  1
  I  I22  1  0.758451  0.516371  0.508752  1
  I  I23  1  0.513503  0.253385  0.995272  1
  I  I24  1  0.757817  0.743020  0.250107  1
  I  I25  1  0.742562  0.992163  0.984747  1
  I  I26  1  0.992255  0.508358  0.249769  1
  I  I27  1  0.508092  0.758337  0.516541  1
