# generated using pymatgen
data_TbHo3(TcB6)2
_symmetry_space_group_name_H-M   'P 1'
_cell_length_a   3.68303900
_cell_length_b   9.15256409
_cell_length_c   11.53683901
_cell_angle_alpha   89.99432340
_cell_angle_beta   90.00000000
_cell_angle_gamma   90.00000000
_symmetry_Int_Tables_number   1
_chemical_formula_structural   TbHo3(TcB6)2
_chemical_formula_sum   'Tb2 Ho6 Tc4 B24'
_cell_volume   388.89819402
_cell_formula_units_Z   2
loop_
 _symmetry_equiv_pos_site_id
 _symmetry_equiv_pos_as_xyz
  1  'x, y, z'
loop_
 _atom_site_type_symbol
 _atom_site_label
 _atom_site_symmetry_multiplicity
 _atom_site_fract_x
 _atom_site_fract_y
 _atom_site_fract_z
 _atom_site_occupancy
  Tb  Tb0  1  0.000000  0.323613  0.414044  1
  Tb  Tb1  1  0.000000  0.676387  0.585956  1
  Ho  Ho2  1  0.000000  0.823854  0.085734  1
  Ho  Ho3  1  0.000000  0.176146  0.914266  1
  Ho  Ho4  1  0.000000  0.942610  0.368911  1
  Ho  Ho5  1  0.000000  0.057390  0.631089  1
  Ho  Ho6  1  0.000000  0.442606  0.130513  1
  Ho  Ho7  1  0.000000  0.557394  0.869487  1
  Tc  Tc8  1  0.000000  0.639185  0.319792  1
  Tc  Tc9  1  0.000000  0.360815  0.680208  1
  Tc  Tc10  1  0.000000  0.138624  0.179266  1
  Tc  Tc11  1  0.000000  0.861376  0.820734  1
  B  B12  1  0.500000  0.553572  0.432460  1
  B  B13  1  0.500000  0.446428  0.567540  1
  B  B14  1  0.500000  0.053213  0.066806  1
  B  B15  1  0.500000  0.946787  0.933194  1
  B  B16  1  0.500000  0.749177  0.417996  1
  B  B17  1  0.500000  0.250823  0.582004  1
  B  B18  1  0.500000  0.248897  0.081032  1
  B  B19  1  0.500000  0.751103  0.918968  1
  B  B20  1  0.500000  0.792137  0.264688  1
  B  B21  1  0.500000  0.207863  0.735312  1
  B  B22  1  0.500000  0.291729  0.234254  1
  B  B23  1  0.500000  0.708271  0.765746  1
  B  B24  1  0.500000  0.630891  0.184996  1
  B  B25  1  0.500000  0.369109  0.815004  1
  B  B26  1  0.500000  0.130390  0.314102  1
  B  B27  1  0.500000  0.869610  0.685898  1
  B  B28  1  0.500000  0.981884  0.211317  1
  B  B29  1  0.500000  0.018116  0.788683  1
  B  B30  1  0.500000  0.482393  0.287785  1
  B  B31  1  0.500000  0.517607  0.712215  1
  B  B32  1  0.500000  0.600290  0.027969  1
  B  B33  1  0.500000  0.399710  0.972031  1
  B  B34  1  0.500000  0.099335  0.472238  1
  B  B35  1  0.500000  0.900665  0.527762  1
