# generated using pymatgen
data_Dy4Tm8ZnCo4Sn
_symmetry_space_group_name_H-M   'P 1'
_cell_length_a   8.24030077
_cell_length_b   8.24030017
_cell_length_c   8.24030040
_cell_angle_alpha   112.36231298
_cell_angle_beta   109.19390128
_cell_angle_gamma   106.90416144
_symmetry_Int_Tables_number   1
_chemical_formula_structural   Dy4Tm8ZnCo4Sn
_chemical_formula_sum   'Dy4 Tm8 Zn1 Co4 Sn1'
_cell_volume   429.74221831
_cell_formula_units_Z   1
loop_
 _symmetry_equiv_pos_site_id
 _symmetry_equiv_pos_as_xyz
  1  'x, y, z'
loop_
 _atom_site_type_symbol
 _atom_site_label
 _atom_site_symmetry_multiplicity
 _atom_site_fract_x
 _atom_site_fract_y
 _atom_site_fract_z
 _atom_site_occupancy
  Dy  Dy0  1  0.431951  0.230492  0.201459  1
  Dy  Dy1  1  0.568049  0.769508  0.798541  1
  Dy  Dy2  1  0.029033  0.230492  0.798541  1
  Dy  Dy3  1  0.970967  0.769508  0.201459  1
  Tm  Tm4  1  0.180225  0.283579  0.463804  1
  Tm  Tm5  1  0.819775  0.716421  0.536196  1
  Tm  Tm6  1  0.180225  0.716421  0.896644  1
  Tm  Tm7  1  0.819775  0.283579  0.103356  1
  Tm  Tm8  1  0.324918  0.636585  0.311665  1
  Tm  Tm9  1  0.675082  0.363415  0.688335  1
  Tm  Tm10  1  0.324918  0.013252  0.688335  1
  Tm  Tm11  1  0.675082  0.986748  0.311665  1
  Zn  Zn12  1  0.000000  0.000000  0.000000  1
  Co  Co13  1  0.345286  0.000000  0.345286  1
  Co  Co14  1  0.654714  0.000000  0.654714  1
  Co  Co15  1  0.114875  0.614875  0.500000  1
  Co  Co16  1  0.885125  0.385125  0.500000  1
  Sn  Sn17  1  0.500000  0.500000  0.000000  1
