# generated using pymatgen
data_Zr2Ti3Co
_symmetry_space_group_name_H-M   'P 1'
_cell_length_a   5.07724128
_cell_length_b   5.07724066
_cell_length_c   5.07724205
_cell_angle_alpha   66.89256031
_cell_angle_beta   66.89257163
_cell_angle_gamma   66.89255512
_symmetry_Int_Tables_number   1
_chemical_formula_structural   Zr2Ti3Co
_chemical_formula_sum   'Zr2 Ti3 Co1'
_cell_volume   106.23541460
_cell_formula_units_Z   1
loop_
 _symmetry_equiv_pos_site_id
 _symmetry_equiv_pos_as_xyz
  1  'x, y, z'
loop_
 _atom_site_type_symbol
 _atom_site_label
 _atom_site_symmetry_multiplicity
 _atom_site_fract_x
 _atom_site_fract_y
 _atom_site_fract_z
 _atom_site_occupancy
  Zr  Zr0  1  0.624370  0.624370  0.624370  1
  Zr  Zr1  1  0.375630  0.375630  0.375630  1
  Ti  Ti2  1  0.000000  0.500000  0.000000  1
  Ti  Ti3  1  0.500000  0.000000  0.000000  1
  Ti  Ti4  1  0.000000  0.000000  0.500000  1
  Co  Co5  1  0.000000  0.000000  0.000000  1
