# generated using pymatgen
data_Sr2LaUO6
_symmetry_space_group_name_H-M   'P 1'
_cell_length_a   6.08463429
_cell_length_b   6.26318500
_cell_length_c   8.73517528
_cell_angle_alpha   90.00000000
_cell_angle_beta   89.96857260
_cell_angle_gamma   90.00000000
_symmetry_Int_Tables_number   1
_chemical_formula_structural   Sr2LaUO6
_chemical_formula_sum   'Sr4 La2 U2 O12'
_cell_volume   332.89040584
_cell_formula_units_Z   2
loop_
 _symmetry_equiv_pos_site_id
 _symmetry_equiv_pos_as_xyz
  1  'x, y, z'
loop_
 _atom_site_type_symbol
 _atom_site_label
 _atom_site_symmetry_multiplicity
 _atom_site_fract_x
 _atom_site_fract_y
 _atom_site_fract_z
 _atom_site_occupancy
  Sr  Sr0  1  0.512270  0.545797  0.246658  1
  Sr  Sr1  1  0.987730  0.045797  0.253342  1
  Sr  Sr2  1  0.012271  0.954203  0.746658  1
  Sr  Sr3  1  0.487729  0.454203  0.753342  1
  La  La4  1  0.500000  0.000000  0.000000  1
  La  La5  1  0.000000  0.500000  0.500000  1
  U  U6  1  0.000000  0.500000  0.000000  1
  U  U7  1  0.500000  0.000000  0.500000  1
  O  O8  1  0.712406  0.314561  0.053307  1
  O  O9  1  0.815472  0.785123  0.065127  1
  O  O10  1  0.110552  0.452137  0.234982  1
  O  O11  1  0.389448  0.952136  0.265019  1
  O  O12  1  0.684529  0.285122  0.434873  1
  O  O13  1  0.787594  0.814561  0.446692  1
  O  O14  1  0.212407  0.185439  0.553307  1
  O  O15  1  0.315472  0.714878  0.565127  1
  O  O16  1  0.610553  0.047863  0.734982  1
  O  O17  1  0.889447  0.547863  0.765018  1
  O  O18  1  0.184529  0.214878  0.934873  1
  O  O19  1  0.287595  0.685440  0.946693  1
