# generated using pymatgen
data_Er12TlCo5
_symmetry_space_group_name_H-M   'P 1'
_cell_length_a   8.22566681
_cell_length_b   8.22567008
_cell_length_c   8.22566783
_cell_angle_alpha   110.82565030
_cell_angle_beta   110.73977356
_cell_angle_gamma   106.87891976
_symmetry_Int_Tables_number   1
_chemical_formula_structural   Er12TlCo5
_chemical_formula_sum   'Er12 Tl1 Co5'
_cell_volume   427.78745966
_cell_formula_units_Z   1
loop_
 _symmetry_equiv_pos_site_id
 _symmetry_equiv_pos_as_xyz
  1  'x, y, z'
loop_
 _atom_site_type_symbol
 _atom_site_label
 _atom_site_symmetry_multiplicity
 _atom_site_fract_x
 _atom_site_fract_y
 _atom_site_fract_z
 _atom_site_occupancy
  Er  Er0  1  0.288583  0.184122  0.472706  1
  Er  Er1  1  0.711417  0.815878  0.527294  1
  Er  Er2  1  0.288584  0.815878  0.104461  1
  Er  Er3  1  0.711416  0.184122  0.895539  1
  Er  Er4  1  0.620176  0.314791  0.305388  1
  Er  Er5  1  0.379824  0.685209  0.694612  1
  Er  Er6  1  0.009403  0.314791  0.694613  1
  Er  Er7  1  0.990597  0.685209  0.305387  1
  Er  Er8  1  0.211945  0.404526  0.192579  1
  Er  Er9  1  0.788055  0.595474  0.807421  1
  Er  Er10  1  0.211947  0.019366  0.807418  1
  Er  Er11  1  0.788053  0.980634  0.192582  1
  Tl  Tl12  1  0.500000  0.500000  0.000000  1
  Co  Co13  1  0.000000  0.377634  0.377635  1
  Co  Co14  1  0.000000  0.622366  0.622365  1
  Co  Co15  1  0.387358  0.887359  0.500001  1
  Co  Co16  1  0.612642  0.112641  0.499999  1
  Co  Co17  1  0.000000  0.000000  0.000000  1
