# generated using pymatgen
data_KFe3(AsO4)3
_symmetry_space_group_name_H-M   'P 1'
_cell_length_a   6.79384209
_cell_length_b   9.48972874
_cell_length_c   9.48958629
_cell_angle_alpha   94.07978744
_cell_angle_beta   110.97140291
_cell_angle_gamma   110.97110463
_symmetry_Int_Tables_number   1
_chemical_formula_structural   KFe3(AsO4)3
_chemical_formula_sum   'K2 Fe6 As6 O24'
_cell_volume   519.32819717
_cell_formula_units_Z   2
loop_
 _symmetry_equiv_pos_site_id
 _symmetry_equiv_pos_as_xyz
  1  'x, y, z'
loop_
 _atom_site_type_symbol
 _atom_site_label
 _atom_site_symmetry_multiplicity
 _atom_site_fract_x
 _atom_site_fract_y
 _atom_site_fract_z
 _atom_site_occupancy
  K  K0  1  0.409929  0.750037  0.250039  1
  K  K1  1  0.590079  0.249966  0.749970  1
  Fe  Fe2  1  0.007544  0.007509  0.007508  1
  Fe  Fe3  1  0.500001  0.384953  0.115032  1
  Fe  Fe4  1  0.999993  0.115088  0.384897  1
  Fe  Fe5  1  0.992504  0.492532  0.492565  1
  Fe  Fe6  1  0.999994  0.885186  0.614810  1
  Fe  Fe7  1  0.499983  0.614794  0.885185  1
  As  As8  1  0.000008  0.325095  0.174911  1
  As  As9  1  0.919244  0.749992  0.249992  1
  As  As10  1  0.499994  0.174925  0.325067  1
  As  As11  1  0.499991  0.819858  0.680138  1
  As  As12  1  0.080748  0.249991  0.749989  1
  As  As13  1  0.000001  0.680126  0.819877  1
  O  O14  1  0.762651  0.354014  0.071111  1
  O  O15  1  0.639539  0.632890  0.116602  1
  O  O16  1  0.340041  0.143504  0.123589  1
  O  O17  1  0.927100  0.123616  0.143513  1
  O  O18  1  0.237384  0.428892  0.146013  1
  O  O19  1  0.060524  0.856084  0.150544  1
  O  O20  1  0.053820  0.643879  0.349410  1
  O  O21  1  0.662444  0.071115  0.353983  1
  O  O22  1  0.659945  0.376410  0.356497  1
  O  O23  1  0.072908  0.356485  0.376402  1
  O  O24  1  0.890039  0.867116  0.383370  1
  O  O25  1  0.337557  0.146015  0.428891  1
  O  O26  1  0.666543  0.851559  0.578087  1
  O  O27  1  0.109943  0.116601  0.632874  1
  O  O28  1  0.931568  0.653003  0.619252  1
  O  O29  1  0.340675  0.619235  0.653013  1
  O  O30  1  0.333451  0.921914  0.648440  1
  O  O31  1  0.939473  0.349441  0.643917  1
  O  O32  1  0.946180  0.150584  0.856120  1
  O  O33  1  0.763112  0.578043  0.851571  1
  O  O34  1  0.068435  0.880754  0.847002  1
  O  O35  1  0.659318  0.846987  0.880770  1
  O  O36  1  0.360454  0.383378  0.867090  1
  O  O37  1  0.236882  0.648430  0.921963  1
