# generated using pymatgen
data_NaPr2Tm(Si5Pt3)2
_symmetry_space_group_name_H-M   'P 1'
_cell_length_a   8.21802965
_cell_length_b   8.27341023
_cell_length_c   8.27341022
_cell_angle_alpha   137.26555910
_cell_angle_beta   104.40620213
_cell_angle_gamma   91.05932136
_symmetry_Int_Tables_number   1
_chemical_formula_structural   NaPr2Tm(Si5Pt3)2
_chemical_formula_sum   'Na1 Pr2 Tm1 Si10 Pt6'
_cell_volume   351.96861628
_cell_formula_units_Z   1
loop_
 _symmetry_equiv_pos_site_id
 _symmetry_equiv_pos_as_xyz
  1  'x, y, z'
loop_
 _atom_site_type_symbol
 _atom_site_label
 _atom_site_symmetry_multiplicity
 _atom_site_fract_x
 _atom_site_fract_y
 _atom_site_fract_z
 _atom_site_occupancy
  Na  Na0  1  0.863984  0.628085  0.235900  1
  Pr  Pr1  1  0.395317  0.128758  0.266559  1
  Pr  Pr2  1  0.606839  0.874095  0.732744  1
  Tm  Tm3  1  0.139227  0.368939  0.770287  1
  Si  Si4  1  0.500157  0.746875  0.247616  1
  Si  Si5  1  0.500157  0.252540  0.753281  1
  Si  Si6  1  0.226104  0.980505  0.747060  1
  Si  Si7  1  0.772506  0.521871  0.751964  1
  Si  Si8  1  0.772506  0.020542  0.250635  1
  Si  Si9  1  0.226104  0.479043  0.245599  1
  Si  Si10  1  0.036390  0.884854  0.151538  1
  Si  Si11  1  0.963622  0.115468  0.848155  1
  Si  Si12  1  0.740655  0.391171  0.349484  1
  Si  Si13  1  0.257783  0.607944  0.649839  1
  Pt  Pt14  1  0.001613  0.753290  0.755895  1
  Pt  Pt15  1  0.001613  0.245719  0.248323  1
  Pt  Pt16  1  0.247424  0.862140  0.385284  1
  Pt  Pt17  1  0.750582  0.138464  0.612117  1
  Pt  Pt18  1  0.476782  0.364575  0.112207  1
  Pt  Pt19  1  0.520638  0.635123  0.885514  1
