# generated using pymatgen
data_Nd3(WC3)2
_symmetry_space_group_name_H-M   'P 1'
_cell_length_a   8.57636400
_cell_length_b   8.57636242
_cell_length_c   5.30262100
_cell_angle_alpha   90.00000000
_cell_angle_beta   90.00000000
_cell_angle_gamma   119.99998296
_symmetry_Int_Tables_number   1
_chemical_formula_structural   Nd3(WC3)2
_chemical_formula_sum   'Nd6 W4 C12'
_cell_volume   337.77509425
_cell_formula_units_Z   2
loop_
 _symmetry_equiv_pos_site_id
 _symmetry_equiv_pos_as_xyz
  1  'x, y, z'
loop_
 _atom_site_type_symbol
 _atom_site_label
 _atom_site_symmetry_multiplicity
 _atom_site_fract_x
 _atom_site_fract_y
 _atom_site_fract_z
 _atom_site_occupancy
  Nd  Nd0  1  0.617347  0.690074  0.750000  1
  Nd  Nd1  1  0.927273  0.617347  0.250000  1
  Nd  Nd2  1  0.690074  0.072727  0.250000  1
  Nd  Nd3  1  0.309926  0.927273  0.750000  1
  Nd  Nd4  1  0.072727  0.382653  0.750000  1
  Nd  Nd5  1  0.382653  0.309926  0.250000  1
  W  W6  1  0.000000  0.000000  0.500000  1
  W  W7  1  0.000000  0.000000  0.000000  1
  W  W8  1  0.666667  0.333333  0.750000  1
  W  W9  1  0.333333  0.666667  0.250000  1
  C  C10  1  0.958458  0.773812  0.750000  1
  C  C11  1  0.184646  0.958458  0.250000  1
  C  C12  1  0.773812  0.815354  0.250000  1
  C  C13  1  0.226188  0.184646  0.750000  1
  C  C14  1  0.815354  0.041542  0.750000  1
  C  C15  1  0.041542  0.226188  0.250000  1
  C  C16  1  0.863498  0.587396  0.750000  1
  C  C17  1  0.276101  0.863498  0.250000  1
  C  C18  1  0.587396  0.723899  0.250000  1
  C  C19  1  0.412604  0.276101  0.750000  1
  C  C20  1  0.136502  0.412604  0.250000  1
  C  C21  1  0.723899  0.136502  0.750000  1
