# generated using pymatgen
data_Ba3AgBi2H
_symmetry_space_group_name_H-M   'P 1'
_cell_length_a   5.02290700
_cell_length_b   13.85440800
_cell_length_c   14.20770300
_cell_angle_alpha   90.00000000
_cell_angle_beta   90.00000000
_cell_angle_gamma   90.00000000
_symmetry_Int_Tables_number   1
_chemical_formula_structural   Ba3AgBi2H
_chemical_formula_sum   'Ba12 Ag4 Bi8 H4'
_cell_volume   988.70556869
_cell_formula_units_Z   4
loop_
 _symmetry_equiv_pos_site_id
 _symmetry_equiv_pos_as_xyz
  1  'x, y, z'
loop_
 _atom_site_type_symbol
 _atom_site_label
 _atom_site_symmetry_multiplicity
 _atom_site_fract_x
 _atom_site_fract_y
 _atom_site_fract_z
 _atom_site_occupancy
  Ba  Ba0  1  0.250000  0.070941  0.628084  1
  Ba  Ba1  1  0.250000  0.570941  0.871916  1
  Ba  Ba2  1  0.750000  0.929059  0.371916  1
  Ba  Ba3  1  0.750000  0.429059  0.128084  1
  Ba  Ba4  1  0.250000  0.212387  0.295014  1
  Ba  Ba5  1  0.250000  0.712387  0.204986  1
  Ba  Ba6  1  0.750000  0.787613  0.704986  1
  Ba  Ba7  1  0.750000  0.287613  0.795014  1
  Ba  Ba8  1  0.250000  0.371632  0.559191  1
  Ba  Ba9  1  0.250000  0.871632  0.940809  1
  Ba  Ba10  1  0.750000  0.628368  0.440809  1
  Ba  Ba11  1  0.750000  0.128368  0.059191  1
  Ag  Ag12  1  0.250000  0.129882  0.873329  1
  Ag  Ag13  1  0.250000  0.629882  0.626671  1
  Ag  Ag14  1  0.750000  0.870118  0.126671  1
  Ag  Ag15  1  0.750000  0.370118  0.373329  1
  Bi  Bi16  1  0.250000  0.310764  0.988349  1
  Bi  Bi17  1  0.250000  0.810764  0.511651  1
  Bi  Bi18  1  0.750000  0.689236  0.011651  1
  Bi  Bi19  1  0.750000  0.189236  0.488349  1
  Bi  Bi20  1  0.250000  0.475536  0.319073  1
  Bi  Bi21  1  0.250000  0.975536  0.180927  1
  Bi  Bi22  1  0.750000  0.524464  0.680927  1
  Bi  Bi23  1  0.750000  0.024464  0.819073  1
  H  H24  1  0.250000  0.250454  0.715042  1
  H  H25  1  0.250000  0.750454  0.784958  1
  H  H26  1  0.750000  0.749546  0.284958  1
  H  H27  1  0.750000  0.249546  0.215042  1
