# generated using pymatgen
data_Nd5Ho(RuBr3)2
_symmetry_space_group_name_H-M   'P 1'
_cell_length_a   4.20530500
_cell_length_b   8.98594253
_cell_length_c   12.10951350
_cell_angle_alpha   87.68119699
_cell_angle_beta   90.00000000
_cell_angle_gamma   90.00000000
_symmetry_Int_Tables_number   1
_chemical_formula_structural   Nd5Ho(RuBr3)2
_chemical_formula_sum   'Nd5 Ho1 Ru2 Br6'
_cell_volume   457.22721580
_cell_formula_units_Z   1
loop_
 _symmetry_equiv_pos_site_id
 _symmetry_equiv_pos_as_xyz
  1  'x, y, z'
loop_
 _atom_site_type_symbol
 _atom_site_label
 _atom_site_symmetry_multiplicity
 _atom_site_fract_x
 _atom_site_fract_y
 _atom_site_fract_z
 _atom_site_occupancy
  Nd  Nd0  1  0.250000  0.313086  0.378310  1
  Nd  Nd1  1  0.750000  0.687143  0.617510  1
  Nd  Nd2  1  0.250000  0.894983  0.379696  1
  Nd  Nd3  1  0.750000  0.108861  0.619776  1
  Nd  Nd4  1  0.250000  0.881708  0.839333  1
  Ho  Ho5  1  0.750000  0.118366  0.165716  1
  Ru  Ru6  1  0.250000  0.897254  0.618380  1
  Ru  Ru7  1  0.750000  0.103850  0.381996  1
  Br  Br8  1  0.250000  0.402591  0.627604  1
  Br  Br9  1  0.750000  0.598278  0.368566  1
  Br  Br10  1  0.250000  0.895520  0.113964  1
  Br  Br11  1  0.750000  0.115901  0.894455  1
  Br  Br12  1  0.250000  0.336143  0.122015  1
  Br  Br13  1  0.750000  0.646314  0.872682  1
