# generated using pymatgen
data_Tm4CoOs5W2
_symmetry_space_group_name_H-M   'P 1'
_cell_length_a   5.42472703
_cell_length_b   5.46559716
_cell_length_c   8.34311300
_cell_angle_alpha   90.00000000
_cell_angle_beta   90.00000000
_cell_angle_gamma   119.74901579
_symmetry_Int_Tables_number   1
_chemical_formula_structural   Tm4CoOs5W2
_chemical_formula_sum   'Tm4 Co1 Os5 W2'
_cell_volume   214.76677028
_cell_formula_units_Z   1
loop_
 _symmetry_equiv_pos_site_id
 _symmetry_equiv_pos_as_xyz
  1  'x, y, z'
loop_
 _atom_site_type_symbol
 _atom_site_label
 _atom_site_symmetry_multiplicity
 _atom_site_fract_x
 _atom_site_fract_y
 _atom_site_fract_z
 _atom_site_occupancy
  Tm  Tm0  1  0.666182  0.332335  0.564771  1
  Tm  Tm1  1  0.332357  0.664711  0.438535  1
  Tm  Tm2  1  0.332357  0.664711  0.061465  1
  Tm  Tm3  1  0.666182  0.332335  0.935229  1
  Co  Co4  1  0.169458  0.338930  0.750000  1
  Os  Os5  1  0.175617  0.827557  0.750000  1
  Os  Os6  1  0.651966  0.827553  0.750000  1
  Os  Os7  1  0.831376  0.662793  0.250000  1
  Os  Os8  1  0.826134  0.176802  0.250000  1
  Os  Os9  1  0.350585  0.176761  0.250000  1
  W  W10  1  0.998892  0.997756  0.502998  1
  W  W11  1  0.998892  0.997756  0.997002  1
