# generated using pymatgen
data_Dy14Y6Cd3Fe2Hg3
_symmetry_space_group_name_H-M   'P 1'
_cell_length_a   9.56151600
_cell_length_b   9.56151621
_cell_length_c   9.77877200
_cell_angle_alpha   90.00000000
_cell_angle_beta   90.00000000
_cell_angle_gamma   119.99999927
_symmetry_Int_Tables_number   1
_chemical_formula_structural   Dy14Y6Cd3Fe2Hg3
_chemical_formula_sum   'Dy14 Y6 Cd3 Fe2 Hg3'
_cell_volume   774.22729323
_cell_formula_units_Z   1
loop_
 _symmetry_equiv_pos_site_id
 _symmetry_equiv_pos_as_xyz
  1  'x, y, z'
loop_
 _atom_site_type_symbol
 _atom_site_label
 _atom_site_symmetry_multiplicity
 _atom_site_fract_x
 _atom_site_fract_y
 _atom_site_fract_z
 _atom_site_occupancy
  Dy  Dy0  1  0.000000  0.000000  0.490449  1
  Dy  Dy1  1  0.000000  0.000000  0.009551  1
  Dy  Dy2  1  0.211492  0.788508  0.436304  1
  Dy  Dy3  1  0.211492  0.422983  0.436304  1
  Dy  Dy4  1  0.577017  0.788508  0.436304  1
  Dy  Dy5  1  0.788107  0.211893  0.563570  1
  Dy  Dy6  1  0.788107  0.576214  0.563570  1
  Dy  Dy7  1  0.423786  0.211893  0.563570  1
  Dy  Dy8  1  0.788107  0.211893  0.936430  1
  Dy  Dy9  1  0.788107  0.576214  0.936430  1
  Dy  Dy10  1  0.423786  0.211893  0.936430  1
  Dy  Dy11  1  0.211492  0.788508  0.063696  1
  Dy  Dy12  1  0.211492  0.422983  0.063696  1
  Dy  Dy13  1  0.577017  0.788508  0.063696  1
  Y  Y14  1  0.541147  0.458853  0.250000  1
  Y  Y15  1  0.541147  0.082295  0.250000  1
  Y  Y16  1  0.917705  0.458853  0.250000  1
  Y  Y17  1  0.458802  0.541198  0.750000  1
  Y  Y18  1  0.458802  0.917603  0.750000  1
  Y  Y19  1  0.082397  0.541198  0.750000  1
  Cd  Cd20  1  0.112365  0.887635  0.750000  1
  Cd  Cd21  1  0.112365  0.224731  0.750000  1
  Cd  Cd22  1  0.775269  0.887635  0.750000  1
  Fe  Fe23  1  0.333333  0.666667  0.250000  1
  Fe  Fe24  1  0.666667  0.333333  0.750000  1
  Hg  Hg25  1  0.880289  0.119711  0.250000  1
  Hg  Hg26  1  0.880289  0.760579  0.250000  1
  Hg  Hg27  1  0.239421  0.119711  0.250000  1
