# generated using pymatgen
data_HoPa3(TcB4)4
_symmetry_space_group_name_H-M   'P 1'
_cell_length_a   3.64878800
_cell_length_b   5.97003837
_cell_length_c   11.54050436
_cell_angle_alpha   89.93469790
_cell_angle_beta   90.00000000
_cell_angle_gamma   90.00000000
_symmetry_Int_Tables_number   1
_chemical_formula_structural   HoPa3(TcB4)4
_chemical_formula_sum   'Ho1 Pa3 Tc4 B16'
_cell_volume   251.39130962
_cell_formula_units_Z   1
loop_
 _symmetry_equiv_pos_site_id
 _symmetry_equiv_pos_as_xyz
  1  'x, y, z'
loop_
 _atom_site_type_symbol
 _atom_site_label
 _atom_site_symmetry_multiplicity
 _atom_site_fract_x
 _atom_site_fract_y
 _atom_site_fract_z
 _atom_site_occupancy
  Ho  Ho0  1  0.000000  0.871968  0.850639  1
  Pa  Pa1  1  0.000000  0.628296  0.349920  1
  Pa  Pa2  1  0.000000  0.371804  0.651754  1
  Pa  Pa3  1  0.000000  0.127895  0.148486  1
  Tc  Tc4  1  0.000000  0.637796  0.094043  1
  Tc  Tc5  1  0.000000  0.361626  0.908843  1
  Tc  Tc6  1  0.000000  0.138812  0.405880  1
  Tc  Tc7  1  0.000000  0.861432  0.592220  1
  B  B8  1  0.500000  0.789675  0.186270  1
  B  B9  1  0.500000  0.212935  0.813411  1
  B  B10  1  0.500000  0.289488  0.312670  1
  B  B11  1  0.500000  0.710699  0.686041  1
  B  B12  1  0.500000  0.864561  0.032029  1
  B  B13  1  0.500000  0.137098  0.968127  1
  B  B14  1  0.500000  0.364147  0.468402  1
  B  B15  1  0.500000  0.634070  0.532179  1
  B  B16  1  0.500000  0.887084  0.454357  1
  B  B17  1  0.500000  0.111887  0.546854  1
  B  B18  1  0.500000  0.388186  0.045194  1
  B  B19  1  0.500000  0.614145  0.953068  1
  B  B20  1  0.500000  0.973092  0.308461  1
  B  B21  1  0.500000  0.026264  0.691591  1
  B  B22  1  0.500000  0.472956  0.191114  1
  B  B23  1  0.500000  0.524082  0.808448  1
