# generated using pymatgen
data_Sm6ScP12Rh17
_symmetry_space_group_name_H-M   'P 1'
_cell_length_a   3.95873700
_cell_length_b   11.30171000
_cell_length_c   12.91402700
_cell_angle_alpha   90.00000000
_cell_angle_beta   90.00000000
_cell_angle_gamma   90.00000000
_symmetry_Int_Tables_number   1
_chemical_formula_structural   Sm6ScP12Rh17
_chemical_formula_sum   'Sm6 Sc1 P12 Rh17'
_cell_volume   577.77999323
_cell_formula_units_Z   1
loop_
 _symmetry_equiv_pos_site_id
 _symmetry_equiv_pos_as_xyz
  1  'x, y, z'
loop_
 _atom_site_type_symbol
 _atom_site_label
 _atom_site_symmetry_multiplicity
 _atom_site_fract_x
 _atom_site_fract_y
 _atom_site_fract_z
 _atom_site_occupancy
  Sm  Sm0  1  0.000000  0.500000  0.520419  1
  Sm  Sm1  1  0.500000  0.000000  0.478009  1
  Sm  Sm2  1  0.500000  0.817155  0.206017  1
  Sm  Sm3  1  0.500000  0.182845  0.206017  1
  Sm  Sm4  1  0.000000  0.682797  0.797118  1
  Sm  Sm5  1  0.000000  0.317203  0.797118  1
  Sc  Sc6  1  0.500000  0.500000  0.154638  1
  P  P7  1  0.500000  0.500000  0.879976  1
  P  P8  1  0.000000  0.000000  0.119751  1
  P  P9  1  0.500000  0.500000  0.355792  1
  P  P10  1  0.000000  0.000000  0.650318  1
  P  P11  1  0.500000  0.313414  0.618077  1
  P  P12  1  0.500000  0.686586  0.618077  1
  P  P13  1  0.000000  0.187789  0.384235  1
  P  P14  1  0.000000  0.812211  0.384235  1
  P  P15  1  0.500000  0.850070  0.889946  1
  P  P16  1  0.500000  0.149930  0.889946  1
  P  P17  1  0.000000  0.659554  0.105898  1
  P  P18  1  0.000000  0.340446  0.105898  1
  Rh  Rh19  1  0.000000  0.000000  0.829409  1
  Rh  Rh20  1  0.500000  0.500000  0.701641  1
  Rh  Rh21  1  0.000000  0.000000  0.298631  1
  Rh  Rh22  1  0.000000  0.500000  0.984543  1
  Rh  Rh23  1  0.500000  0.000000  0.019274  1
  Rh  Rh24  1  0.500000  0.329688  0.990853  1
  Rh  Rh25  1  0.500000  0.670312  0.990853  1
  Rh  Rh26  1  0.000000  0.163583  0.004856  1
  Rh  Rh27  1  0.000000  0.836417  0.004856  1
  Rh  Rh28  1  0.500000  0.289592  0.434036  1
  Rh  Rh29  1  0.500000  0.710408  0.434036  1
  Rh  Rh30  1  0.000000  0.204656  0.571813  1
  Rh  Rh31  1  0.000000  0.795344  0.571813  1
  Rh  Rh32  1  0.500000  0.875364  0.709665  1
  Rh  Rh33  1  0.500000  0.124636  0.709665  1
  Rh  Rh34  1  0.000000  0.626274  0.291285  1
  Rh  Rh35  1  0.000000  0.373726  0.291285  1
