# generated using pymatgen
data_Ba6TbYGa4O15
_symmetry_space_group_name_H-M   'P 1'
_cell_length_a   6.05600305
_cell_length_b   8.06324594
_cell_length_c   18.69139531
_cell_angle_alpha   88.80434035
_cell_angle_beta   89.98646265
_cell_angle_gamma   89.99464283
_symmetry_Int_Tables_number   1
_chemical_formula_structural   Ba6TbYGa4O15
_chemical_formula_sum   'Ba12 Tb2 Y2 Ga8 O30'
_cell_volume   912.52155055
_cell_formula_units_Z   2
loop_
 _symmetry_equiv_pos_site_id
 _symmetry_equiv_pos_as_xyz
  1  'x, y, z'
loop_
 _atom_site_type_symbol
 _atom_site_label
 _atom_site_symmetry_multiplicity
 _atom_site_fract_x
 _atom_site_fract_y
 _atom_site_fract_z
 _atom_site_occupancy
  Ba  Ba0  1  0.754127  0.499920  0.079030  1
  Ba  Ba1  1  0.245873  0.500080  0.920970  1
  Ba  Ba2  1  0.754388  0.500240  0.421174  1
  Ba  Ba3  1  0.245612  0.499760  0.578826  1
  Ba  Ba4  1  0.749924  0.972976  0.090329  1
  Ba  Ba5  1  0.250076  0.027024  0.909671  1
  Ba  Ba6  1  0.749814  0.026680  0.410108  1
  Ba  Ba7  1  0.250186  0.973320  0.589892  1
  Ba  Ba8  1  0.725134  0.999898  0.749645  1
  Ba  Ba9  1  0.274866  0.000102  0.250355  1
  Ba  Ba10  1  0.669307  0.499955  0.749666  1
  Ba  Ba11  1  0.330693  0.500045  0.250334  1
  Tb  Tb12  1  0.747639  0.753122  0.910054  1
  Tb  Tb13  1  0.252361  0.246878  0.089946  1
  Y  Y14  1  0.747740  0.246859  0.589686  1
  Y  Y15  1  0.252260  0.753141  0.410314  1
  Ga  Ga16  1  0.746450  0.754601  0.558026  1
  Ga  Ga17  1  0.253550  0.245399  0.441974  1
  Ga  Ga18  1  0.746733  0.245379  0.941568  1
  Ga  Ga19  1  0.253267  0.754621  0.058432  1
  Ga  Ga20  1  0.774369  0.770644  0.266638  1
  Ga  Ga21  1  0.225631  0.229356  0.733362  1
  Ga  Ga22  1  0.774664  0.229486  0.233980  1
  Ga  Ga23  1  0.225336  0.770514  0.766020  1
  O  O24  1  0.196973  0.000046  0.749832  1
  O  O25  1  0.803027  0.999954  0.250168  1
  O  O26  1  0.512401  0.766231  0.002637  1
  O  O27  1  0.487599  0.233769  0.997363  1
  O  O28  1  0.512683  0.233690  0.497712  1
  O  O29  1  0.487317  0.766310  0.502288  1
  O  O30  1  0.765886  0.952829  0.608343  1
  O  O31  1  0.234114  0.047171  0.391657  1
  O  O32  1  0.766053  0.047473  0.890984  1
  O  O33  1  0.233947  0.952527  0.109016  1
  O  O34  1  0.015253  0.767172  0.992127  1
  O  O35  1  0.984747  0.232828  0.007873  1
  O  O36  1  0.015303  0.232818  0.508281  1
  O  O37  1  0.984697  0.767182  0.491719  1
  O  O38  1  0.332133  0.689515  0.682472  1
  O  O39  1  0.667867  0.310485  0.317528  1
  O  O40  1  0.330536  0.311145  0.816976  1
  O  O41  1  0.669464  0.688855  0.183024  1
  O  O42  1  0.447078  0.751403  0.837061  1
  O  O43  1  0.552922  0.248597  0.162939  1
  O  O44  1  0.448721  0.248453  0.662718  1
  O  O45  1  0.551279  0.751547  0.337282  1
  O  O46  1  0.954004  0.724010  0.808004  1
  O  O47  1  0.045996  0.275990  0.191996  1
  O  O48  1  0.954865  0.275687  0.690865  1
  O  O49  1  0.045135  0.724313  0.309135  1
  O  O50  1  0.756896  0.533010  0.590376  1
  O  O51  1  0.243104  0.466990  0.409624  1
  O  O52  1  0.756669  0.467034  0.909222  1
  O  O53  1  0.243331  0.532966  0.090778  1
