# generated using pymatgen
data_Cs12Rb5Na(AlBi4)2
_symmetry_space_group_name_H-M   'P 1'
_cell_length_a   11.41639361
_cell_length_b   11.56857353
_cell_length_c   11.99272600
_cell_angle_alpha   90.00000000
_cell_angle_beta   90.00000000
_cell_angle_gamma   120.44193419
_symmetry_Int_Tables_number   1
_chemical_formula_structural   Cs12Rb5Na(AlBi4)2
_chemical_formula_sum   'Cs12 Rb5 Na1 Al2 Bi8'
_cell_volume   1365.54495331
_cell_formula_units_Z   1
loop_
 _symmetry_equiv_pos_site_id
 _symmetry_equiv_pos_as_xyz
  1  'x, y, z'
loop_
 _atom_site_type_symbol
 _atom_site_label
 _atom_site_symmetry_multiplicity
 _atom_site_fract_x
 _atom_site_fract_y
 _atom_site_fract_z
 _atom_site_occupancy
  Cs  Cs0  1  0.209963  0.794063  0.954723  1
  Cs  Cs1  1  0.209963  0.415900  0.954723  1
  Cs  Cs2  1  0.580890  0.790445  0.957567  1
  Cs  Cs3  1  0.415423  0.207712  0.463120  1
  Cs  Cs4  1  0.790380  0.580533  0.042244  1
  Cs  Cs5  1  0.790380  0.209846  0.457756  1
  Cs  Cs6  1  0.790380  0.580533  0.457756  1
  Cs  Cs7  1  0.209963  0.794063  0.545277  1
  Cs  Cs8  1  0.580890  0.790445  0.542433  1
  Cs  Cs9  1  0.415423  0.207712  0.036880  1
  Cs  Cs10  1  0.790380  0.209846  0.042244  1
  Cs  Cs11  1  0.209963  0.415900  0.545277  1
  Rb  Rb12  1  0.884052  0.119922  0.750000  1
  Rb  Rb13  1  0.763759  0.881880  0.250000  1
  Rb  Rb14  1  0.120328  0.239670  0.250000  1
  Rb  Rb15  1  0.120328  0.880658  0.250000  1
  Rb  Rb16  1  0.884052  0.764130  0.750000  1
  Na  Na17  1  0.241221  0.120610  0.750000  1
  Al  Al18  1  0.333824  0.666912  0.250000  1
  Al  Al19  1  0.666080  0.333040  0.750000  1
  Bi  Bi20  1  0.007278  0.003639  0.993785  1
  Bi  Bi21  1  0.050059  0.525029  0.250000  1
  Bi  Bi22  1  0.475718  0.947457  0.250000  1
  Bi  Bi23  1  0.513807  0.053939  0.750000  1
  Bi  Bi24  1  0.513807  0.459868  0.750000  1
  Bi  Bi25  1  0.007278  0.003639  0.506215  1
  Bi  Bi26  1  0.475718  0.528262  0.250000  1
  Bi  Bi27  1  0.948696  0.474348  0.750000  1
