# generated using pymatgen
data_HoLu3TaOs7
_symmetry_space_group_name_H-M   'P 1'
_cell_length_a   5.45287100
_cell_length_b   5.27431960
_cell_length_c   8.85839104
_cell_angle_alpha   89.99018981
_cell_angle_beta   90.00000000
_cell_angle_gamma   121.12630482
_symmetry_Int_Tables_number   1
_chemical_formula_structural   HoLu3TaOs7
_chemical_formula_sum   'Ho1 Lu3 Ta1 Os7'
_cell_volume   218.08983044
_cell_formula_units_Z   1
loop_
 _symmetry_equiv_pos_site_id
 _symmetry_equiv_pos_as_xyz
  1  'x, y, z'
loop_
 _atom_site_type_symbol
 _atom_site_label
 _atom_site_symmetry_multiplicity
 _atom_site_fract_x
 _atom_site_fract_y
 _atom_site_fract_z
 _atom_site_occupancy
  Ho  Ho0  1  0.333088  0.666179  0.431227  1
  Lu  Lu1  1  0.669871  0.339740  0.560870  1
  Lu  Lu2  1  0.669756  0.339510  0.939606  1
  Lu  Lu3  1  0.332615  0.665231  0.068495  1
  Ta  Ta4  1  0.164977  0.329955  0.751022  1
  Os  Os5  1  0.174948  0.828164  0.751089  1
  Os  Os6  1  0.346580  0.171892  0.248628  1
  Os  Os7  1  0.828524  0.657047  0.248725  1
  Os  Os8  1  0.653215  0.828164  0.751089  1
  Os  Os9  1  0.000750  0.001501  0.005093  1
  Os  Os10  1  0.825313  0.171892  0.248628  1
  Os  Os11  1  0.000364  0.000727  0.495529  1
