# generated using pymatgen
data_Ho5Er2Tm(OsBr4)2
_symmetry_space_group_name_H-M   'P 1'
_cell_length_a   8.96428049
_cell_length_b   8.95928068
_cell_length_c   6.50809540
_cell_angle_alpha   89.51138780
_cell_angle_beta   89.54405599
_cell_angle_gamma   89.35719543
_symmetry_Int_Tables_number   1
_chemical_formula_structural   Ho5Er2Tm(OsBr4)2
_chemical_formula_sum   'Ho5 Er2 Tm1 Os2 Br8'
_cell_volume   522.61989749
_cell_formula_units_Z   1
loop_
 _symmetry_equiv_pos_site_id
 _symmetry_equiv_pos_as_xyz
  1  'x, y, z'
loop_
 _atom_site_type_symbol
 _atom_site_label
 _atom_site_symmetry_multiplicity
 _atom_site_fract_x
 _atom_site_fract_y
 _atom_site_fract_z
 _atom_site_occupancy
  Ho  Ho0  1  0.248253  0.901711  0.009995  1
  Ho  Ho1  1  0.752283  0.098776  0.989606  1
  Ho  Ho2  1  0.098635  0.752036  0.489964  1
  Ho  Ho3  1  0.901883  0.248304  0.509689  1
  Ho  Ho4  1  0.753068  0.903112  0.507640  1
  Er  Er5  1  0.096896  0.245833  0.991693  1
  Er  Er6  1  0.903941  0.754380  0.007931  1
  Tm  Tm7  1  0.244393  0.096100  0.491657  1
  Os  Os8  1  0.995711  0.004754  0.249880  1
  Os  Os9  1  0.004889  0.995575  0.749691  1
  Br  Br10  1  0.416938  0.819730  0.410681  1
  Br  Br11  1  0.581728  0.180993  0.590031  1
  Br  Br12  1  0.180083  0.582137  0.090044  1
  Br  Br13  1  0.820037  0.417932  0.909416  1
  Br  Br14  1  0.411505  0.188851  0.093712  1
  Br  Br15  1  0.588846  0.810704  0.909240  1
  Br  Br16  1  0.811678  0.587836  0.406372  1
  Br  Br17  1  0.189233  0.411236  0.592755  1
