# generated using pymatgen
data_TbHo6TmC10
_symmetry_space_group_name_H-M   'P 1'
_cell_length_a   3.65725800
_cell_length_b   6.55376663
_cell_length_c   11.86171295
_cell_angle_alpha   89.98225566
_cell_angle_beta   90.00000000
_cell_angle_gamma   90.00000000
_symmetry_Int_Tables_number   1
_chemical_formula_structural   TbHo6TmC10
_chemical_formula_sum   'Tb1 Ho6 Tm1 C10'
_cell_volume   284.31119494
_cell_formula_units_Z   1
loop_
 _symmetry_equiv_pos_site_id
 _symmetry_equiv_pos_as_xyz
  1  'x, y, z'
loop_
 _atom_site_type_symbol
 _atom_site_label
 _atom_site_symmetry_multiplicity
 _atom_site_fract_x
 _atom_site_fract_y
 _atom_site_fract_z
 _atom_site_occupancy
  Tb  Tb0  1  0.500000  0.391081  0.303292  1
  Ho  Ho1  1  0.000000  0.751768  0.456557  1
  Ho  Ho2  1  0.000000  0.748302  0.955120  1
  Ho  Ho3  1  0.000000  0.235349  0.042038  1
  Ho  Ho4  1  0.500000  0.108568  0.803218  1
  Ho  Ho5  1  0.500000  0.892419  0.196012  1
  Ho  Ho6  1  0.500000  0.605876  0.697327  1
  Tm  Tm7  1  0.000000  0.266185  0.542478  1
  C  C8  1  0.500000  0.512322  0.502361  1
  C  C9  1  0.500000  0.986493  0.000083  1
  C  C10  1  0.000000  0.364792  0.734589  1
  C  C11  1  0.000000  0.645975  0.261677  1
  C  C12  1  0.000000  0.856902  0.760412  1
  C  C13  1  0.000000  0.131886  0.236777  1
  C  C14  1  0.000000  0.384257  0.846969  1
  C  C15  1  0.000000  0.575112  0.156388  1
  C  C16  1  0.000000  0.112415  0.349144  1
  C  C17  1  0.000000  0.930299  0.655559  1
