# generated using pymatgen
data_Y3Cd5Ru
_symmetry_space_group_name_H-M   'P 1'
_cell_length_a   8.16494900
_cell_length_b   8.16495076
_cell_length_c   3.73388300
_cell_angle_alpha   90.00000000
_cell_angle_beta   90.00000000
_cell_angle_gamma   119.99999691
_symmetry_Int_Tables_number   1
_chemical_formula_structural   Y3Cd5Ru
_chemical_formula_sum   'Y3 Cd5 Ru1'
_cell_volume   215.57500111
_cell_formula_units_Z   1
loop_
 _symmetry_equiv_pos_site_id
 _symmetry_equiv_pos_as_xyz
  1  'x, y, z'
loop_
 _atom_site_type_symbol
 _atom_site_label
 _atom_site_symmetry_multiplicity
 _atom_site_fract_x
 _atom_site_fract_y
 _atom_site_fract_z
 _atom_site_occupancy
  Y  Y0  1  0.424420  0.044484  0.000000  1
  Y  Y1  1  0.620064  0.575580  0.000000  1
  Y  Y2  1  0.955516  0.379936  0.000000  1
  Cd  Cd3  1  0.719976  0.996623  0.500000  1
  Cd  Cd4  1  0.276646  0.280024  0.500000  1
  Cd  Cd5  1  0.003377  0.723354  0.500000  1
  Cd  Cd6  1  0.333333  0.666667  0.500000  1
  Cd  Cd7  1  0.000000  0.000000  0.000000  1
  Ru  Ru8  1  0.666667  0.333333  0.500000  1
