# generated using pymatgen
data_YTm19Cd3Ag3Ru2
_symmetry_space_group_name_H-M   'P 1'
_cell_length_a   9.44303921
_cell_length_b   9.43959382
_cell_length_c   9.58112700
_cell_angle_alpha   90.00000000
_cell_angle_beta   90.00000000
_cell_angle_gamma   119.98793234
_symmetry_Int_Tables_number   1
_chemical_formula_structural   YTm19Cd3Ag3Ru2
_chemical_formula_sum   'Y1 Tm19 Cd3 Ag3 Ru2'
_cell_volume   739.71619501
_cell_formula_units_Z   1
loop_
 _symmetry_equiv_pos_site_id
 _symmetry_equiv_pos_as_xyz
  1  'x, y, z'
loop_
 _atom_site_type_symbol
 _atom_site_label
 _atom_site_symmetry_multiplicity
 _atom_site_fract_x
 _atom_site_fract_y
 _atom_site_fract_z
 _atom_site_occupancy
  Y  Y0  1  0.082143  0.541071  0.750000  1
  Tm  Tm1  1  0.999848  0.999924  0.475235  1
  Tm  Tm2  1  0.999848  0.999924  0.024765  1
  Tm  Tm3  1  0.211072  0.790692  0.441660  1
  Tm  Tm4  1  0.211072  0.420380  0.441660  1
  Tm  Tm5  1  0.579026  0.789513  0.442516  1
  Tm  Tm6  1  0.789680  0.208227  0.557254  1
  Tm  Tm7  1  0.789680  0.581454  0.557254  1
  Tm  Tm8  1  0.418060  0.209030  0.557826  1
  Tm  Tm9  1  0.789680  0.208227  0.942746  1
  Tm  Tm10  1  0.789680  0.581454  0.942746  1
  Tm  Tm11  1  0.418060  0.209030  0.942174  1
  Tm  Tm12  1  0.211072  0.790692  0.058340  1
  Tm  Tm13  1  0.211072  0.420380  0.058340  1
  Tm  Tm14  1  0.579026  0.789513  0.057484  1
  Tm  Tm15  1  0.540122  0.459867  0.250000  1
  Tm  Tm16  1  0.540122  0.080254  0.250000  1
  Tm  Tm17  1  0.919860  0.459930  0.250000  1
  Tm  Tm18  1  0.460653  0.540315  0.750000  1
  Tm  Tm19  1  0.460653  0.920337  0.750000  1
  Cd  Cd20  1  0.112225  0.889864  0.750000  1
  Cd  Cd21  1  0.112225  0.222359  0.750000  1
  Cd  Cd22  1  0.776206  0.888103  0.750000  1
  Ag  Ag23  1  0.876150  0.123824  0.250000  1
  Ag  Ag24  1  0.876150  0.752328  0.250000  1
  Ag  Ag25  1  0.247594  0.123798  0.250000  1
  Ru  Ru26  1  0.333309  0.666655  0.250000  1
  Ru  Ru27  1  0.665712  0.332856  0.750000  1
