# generated using pymatgen
data_Lu2Al9Ir2Os
_symmetry_space_group_name_H-M   'P 1'
_cell_length_a   7.50466402
_cell_length_b   7.50466419
_cell_length_c   9.42064000
_cell_angle_alpha   90.00000000
_cell_angle_beta   90.00000000
_cell_angle_gamma   118.81522554
_symmetry_Int_Tables_number   1
_chemical_formula_structural   Lu2Al9Ir2Os
_chemical_formula_sum   'Lu4 Al18 Ir4 Os2'
_cell_volume   464.87434770
_cell_formula_units_Z   2
loop_
 _symmetry_equiv_pos_site_id
 _symmetry_equiv_pos_as_xyz
  1  'x, y, z'
loop_
 _atom_site_type_symbol
 _atom_site_label
 _atom_site_symmetry_multiplicity
 _atom_site_fract_x
 _atom_site_fract_y
 _atom_site_fract_z
 _atom_site_occupancy
  Lu  Lu0  1  0.994017  0.678890  0.250000  1
  Lu  Lu1  1  0.005983  0.321110  0.750000  1
  Lu  Lu2  1  0.678890  0.994017  0.250000  1
  Lu  Lu3  1  0.321110  0.005983  0.750000  1
  Al  Al4  1  0.130835  0.130835  0.250000  1
  Al  Al5  1  0.869165  0.869165  0.750000  1
  Al  Al6  1  0.002054  0.336843  0.075162  1
  Al  Al7  1  0.997946  0.663157  0.924838  1
  Al  Al8  1  0.997946  0.663157  0.575162  1
  Al  Al9  1  0.336843  0.002054  0.424838  1
  Al  Al10  1  0.002054  0.336843  0.424838  1
  Al  Al11  1  0.663157  0.997946  0.575162  1
  Al  Al12  1  0.663157  0.997946  0.924838  1
  Al  Al13  1  0.336843  0.002054  0.075162  1
  Al  Al14  1  0.331008  0.331008  0.547618  1
  Al  Al15  1  0.668992  0.668992  0.452382  1
  Al  Al16  1  0.668992  0.668992  0.047618  1
  Al  Al17  1  0.331008  0.331008  0.952382  1
  Al  Al18  1  0.340070  0.552305  0.250000  1
  Al  Al19  1  0.659930  0.447695  0.750000  1
  Al  Al20  1  0.552305  0.340070  0.250000  1
  Al  Al21  1  0.447695  0.659930  0.750000  1
  Ir  Ir22  1  0.672213  0.327787  0.000000  1
  Ir  Ir23  1  0.327787  0.672213  0.000000  1
  Ir  Ir24  1  0.327787  0.672213  0.500000  1
  Ir  Ir25  1  0.672213  0.327787  0.500000  1
  Os  Os26  1  0.000000  0.000000  0.000000  1
  Os  Os27  1  0.000000  0.000000  0.500000  1
