# generated using pymatgen
data_Tb6Al6PtAu5
_symmetry_space_group_name_H-M   'P 1'
_cell_length_a   7.41262300
_cell_length_b   7.41262290
_cell_length_c   7.98444400
_cell_angle_alpha   90.00000000
_cell_angle_beta   90.00000000
_cell_angle_gamma   119.99999598
_symmetry_Int_Tables_number   1
_chemical_formula_structural   Tb6Al6PtAu5
_chemical_formula_sum   'Tb6 Al6 Pt1 Au5'
_cell_volume   379.94361306
_cell_formula_units_Z   1
loop_
 _symmetry_equiv_pos_site_id
 _symmetry_equiv_pos_as_xyz
  1  'x, y, z'
loop_
 _atom_site_type_symbol
 _atom_site_label
 _atom_site_symmetry_multiplicity
 _atom_site_fract_x
 _atom_site_fract_y
 _atom_site_fract_z
 _atom_site_occupancy
  Tb  Tb0  1  0.582878  0.999873  0.750000  1
  Tb  Tb1  1  0.000127  0.583006  0.750000  1
  Tb  Tb2  1  0.416994  0.417122  0.750000  1
  Tb  Tb3  1  0.999768  0.590382  0.250000  1
  Tb  Tb4  1  0.590613  0.000232  0.250000  1
  Tb  Tb5  1  0.409618  0.409387  0.250000  1
  Al  Al6  1  0.759830  0.760004  0.006135  1
  Al  Al7  1  0.239996  0.999826  0.006135  1
  Al  Al8  1  0.000174  0.240170  0.006135  1
  Al  Al9  1  0.759830  0.760004  0.493865  1
  Al  Al10  1  0.239996  0.999826  0.493865  1
  Al  Al11  1  0.000174  0.240170  0.493865  1
  Pt  Pt12  1  0.000000  0.000000  0.250000  1
  Au  Au13  1  0.000000  0.000000  0.750000  1
  Au  Au14  1  0.666667  0.333333  0.000088  1
  Au  Au15  1  0.666667  0.333333  0.499912  1
  Au  Au16  1  0.333333  0.666667  0.498217  1
  Au  Au17  1  0.333333  0.666667  0.001783  1
