# generated using pymatgen
data_Dy6MnCo14(NiP4)3
_symmetry_space_group_name_H-M   'P 1'
_cell_length_a   3.69875200
_cell_length_b   10.48359400
_cell_length_c   12.18535600
_cell_angle_alpha   90.00000000
_cell_angle_beta   90.00000000
_cell_angle_gamma   90.00000000
_symmetry_Int_Tables_number   1
_chemical_formula_structural   Dy6MnCo14(NiP4)3
_chemical_formula_sum   'Dy6 Mn1 Co14 Ni3 P12'
_cell_volume   472.50197527
_cell_formula_units_Z   1
loop_
 _symmetry_equiv_pos_site_id
 _symmetry_equiv_pos_as_xyz
  1  'x, y, z'
loop_
 _atom_site_type_symbol
 _atom_site_label
 _atom_site_symmetry_multiplicity
 _atom_site_fract_x
 _atom_site_fract_y
 _atom_site_fract_z
 _atom_site_occupancy
  Dy  Dy0  1  0.000000  0.500000  0.520594  1
  Dy  Dy1  1  0.500000  0.000000  0.478388  1
  Dy  Dy2  1  0.500000  0.815949  0.206140  1
  Dy  Dy3  1  0.500000  0.184051  0.206140  1
  Dy  Dy4  1  0.000000  0.683913  0.795195  1
  Dy  Dy5  1  0.000000  0.316087  0.795195  1
  Mn  Mn6  1  0.500000  0.500000  0.155391  1
  Co  Co7  1  0.000000  0.500000  0.986102  1
  Co  Co8  1  0.500000  0.000000  0.015768  1
  Co  Co9  1  0.500000  0.332498  0.994570  1
  Co  Co10  1  0.500000  0.667502  0.994570  1
  Co  Co11  1  0.000000  0.165387  0.004453  1
  Co  Co12  1  0.000000  0.834613  0.004453  1
  Co  Co13  1  0.500000  0.298228  0.431209  1
  Co  Co14  1  0.500000  0.701772  0.431209  1
  Co  Co15  1  0.000000  0.201441  0.569869  1
  Co  Co16  1  0.000000  0.798559  0.569869  1
  Co  Co17  1  0.500000  0.879930  0.710145  1
  Co  Co18  1  0.500000  0.120070  0.710145  1
  Co  Co19  1  0.000000  0.621873  0.290139  1
  Co  Co20  1  0.000000  0.378127  0.290139  1
  Ni  Ni21  1  0.000000  0.000000  0.838181  1
  Ni  Ni22  1  0.500000  0.500000  0.702496  1
  Ni  Ni23  1  0.000000  0.000000  0.297698  1
  P  P24  1  0.500000  0.500000  0.883235  1
  P  P25  1  0.000000  0.000000  0.117434  1
  P  P26  1  0.500000  0.500000  0.345898  1
  P  P27  1  0.000000  0.000000  0.653525  1
  P  P28  1  0.500000  0.309903  0.615596  1
  P  P29  1  0.500000  0.690097  0.615596  1
  P  P30  1  0.000000  0.190733  0.385365  1
  P  P31  1  0.000000  0.809267  0.385365  1
  P  P32  1  0.500000  0.847261  0.894027  1
  P  P33  1  0.500000  0.152739  0.894027  1
  P  P34  1  0.000000  0.654415  0.105938  1
  P  P35  1  0.000000  0.345585  0.105938  1
