# generated using pymatgen
data_HoTm9(Ir2Os)2
_symmetry_space_group_name_H-M   'P 1'
_cell_length_a   10.72182417
_cell_length_b   10.71971700
_cell_length_c   6.34296810
_cell_angle_alpha   90.00000000
_cell_angle_beta   90.02063830
_cell_angle_gamma   90.00000000
_symmetry_Int_Tables_number   1
_chemical_formula_structural   HoTm9(Ir2Os)2
_chemical_formula_sum   'Ho2 Tm18 Ir8 Os4'
_cell_volume   729.02848968
_cell_formula_units_Z   2
loop_
 _symmetry_equiv_pos_site_id
 _symmetry_equiv_pos_as_xyz
  1  'x, y, z'
loop_
 _atom_site_type_symbol
 _atom_site_label
 _atom_site_symmetry_multiplicity
 _atom_site_fract_x
 _atom_site_fract_y
 _atom_site_fract_z
 _atom_site_occupancy
  Ho  Ho0  1  0.293251  0.086468  0.375997  1
  Ho  Ho1  1  0.293251  0.913532  0.875997  1
  Tm  Tm2  1  0.706423  0.086215  0.876375  1
  Tm  Tm3  1  0.706423  0.913785  0.376375  1
  Tm  Tm4  1  0.586459  0.793525  0.876402  1
  Tm  Tm5  1  0.586459  0.206475  0.376402  1
  Tm  Tm6  1  0.414008  0.793347  0.376363  1
  Tm  Tm7  1  0.414008  0.206653  0.876363  1
  Tm  Tm8  1  0.206302  0.413870  0.623692  1
  Tm  Tm9  1  0.206302  0.586130  0.123692  1
  Tm  Tm10  1  0.793666  0.413805  0.123632  1
  Tm  Tm11  1  0.793666  0.586195  0.623632  1
  Tm  Tm12  1  0.913793  0.706321  0.123622  1
  Tm  Tm13  1  0.913793  0.293679  0.623622  1
  Tm  Tm14  1  0.086031  0.706219  0.623510  1
  Tm  Tm15  1  0.086031  0.293781  0.123510  1
  Tm  Tm16  1  0.999737  0.999912  0.500059  1
  Tm  Tm17  1  0.999737  0.000088  0.000059  1
  Tm  Tm18  1  0.500051  0.499994  0.000029  1
  Tm  Tm19  1  0.500051  0.500006  0.500029  1
  Ir  Ir20  1  0.847475  0.152491  0.249998  1
  Ir  Ir21  1  0.847475  0.847509  0.749998  1
  Ir  Ir22  1  0.152124  0.152909  0.750549  1
  Ir  Ir23  1  0.152124  0.847091  0.250549  1
  Ir  Ir24  1  0.652473  0.347475  0.750000  1
  Ir  Ir25  1  0.652473  0.652525  0.250000  1
  Ir  Ir26  1  0.347582  0.347887  0.249808  1
  Ir  Ir27  1  0.347582  0.652113  0.749808  1
  Os  Os28  1  0.500617  0.000012  0.122765  1
  Os  Os29  1  0.500617  0.999988  0.622765  1
  Os  Os30  1  0.000009  0.499977  0.877198  1
  Os  Os31  1  0.000009  0.500023  0.377198  1
