# generated using pymatgen
data_Ba6Ti2InFe(SbO9)2
_symmetry_space_group_name_H-M   'P 1'
_cell_length_a   5.90362400
_cell_length_b   5.90362369
_cell_length_c   14.49393000
_cell_angle_alpha   90.00000000
_cell_angle_beta   90.00000000
_cell_angle_gamma   120.00000174
_symmetry_Int_Tables_number   1
_chemical_formula_structural   Ba6Ti2InFe(SbO9)2
_chemical_formula_sum   'Ba6 Ti2 In1 Fe1 Sb2 O18'
_cell_volume   437.47590677
_cell_formula_units_Z   1
loop_
 _symmetry_equiv_pos_site_id
 _symmetry_equiv_pos_as_xyz
  1  'x, y, z'
loop_
 _atom_site_type_symbol
 _atom_site_label
 _atom_site_symmetry_multiplicity
 _atom_site_fract_x
 _atom_site_fract_y
 _atom_site_fract_z
 _atom_site_occupancy
  Ba  Ba0  1  0.666667  0.333333  0.604479  1
  Ba  Ba1  1  0.333333  0.666667  0.395521  1
  Ba  Ba2  1  0.333333  0.666667  0.092890  1
  Ba  Ba3  1  0.666667  0.333333  0.907110  1
  Ba  Ba4  1  0.000000  0.000000  0.247530  1
  Ba  Ba5  1  0.000000  0.000000  0.752470  1
  Ti  Ti6  1  0.666667  0.333333  0.352746  1
  Ti  Ti7  1  0.333333  0.666667  0.647254  1
  In  In8  1  0.000000  0.000000  0.500000  1
  Fe  Fe9  1  0.000000  0.000000  0.000000  1
  Sb  Sb10  1  0.333333  0.666667  0.844258  1
  Sb  Sb11  1  0.666667  0.333333  0.155742  1
  O  O12  1  0.334292  0.167146  0.081123  1
  O  O13  1  0.832854  0.167146  0.081123  1
  O  O14  1  0.832854  0.665708  0.081123  1
  O  O15  1  0.665708  0.832854  0.918877  1
  O  O16  1  0.167146  0.832854  0.918877  1
  O  O17  1  0.167146  0.334292  0.918877  1
  O  O18  1  0.654891  0.827445  0.587213  1
  O  O19  1  0.172555  0.827445  0.587213  1
  O  O20  1  0.172555  0.345109  0.587213  1
  O  O21  1  0.345109  0.172555  0.412787  1
  O  O22  1  0.827445  0.172555  0.412787  1
  O  O23  1  0.827445  0.654891  0.412787  1
  O  O24  1  0.968162  0.484080  0.246684  1
  O  O25  1  0.515920  0.484080  0.246684  1
  O  O26  1  0.515920  0.031838  0.246684  1
  O  O27  1  0.031838  0.515920  0.753316  1
  O  O28  1  0.484080  0.515920  0.753316  1
  O  O29  1  0.484080  0.968162  0.753316  1
