# generated using pymatgen
data_Ca5Tm(AgPb)3
_symmetry_space_group_name_H-M   'P 1'
_cell_length_a   5.38271314
_cell_length_b   7.55109707
_cell_length_c   16.15323500
_cell_angle_alpha   89.99307239
_cell_angle_beta   89.98672643
_cell_angle_gamma   90.00348117
_symmetry_Int_Tables_number   1
_chemical_formula_structural   Ca5Tm(AgPb)3
_chemical_formula_sum   'Ca10 Tm2 Ag6 Pb6'
_cell_volume   656.55450381
_cell_formula_units_Z   2
loop_
 _symmetry_equiv_pos_site_id
 _symmetry_equiv_pos_as_xyz
  1  'x, y, z'
loop_
 _atom_site_type_symbol
 _atom_site_label
 _atom_site_symmetry_multiplicity
 _atom_site_fract_x
 _atom_site_fract_y
 _atom_site_fract_z
 _atom_site_occupancy
  Ca  Ca0  1  0.000017  0.248960  0.168957  1
  Ca  Ca1  1  0.999997  0.751023  0.168975  1
  Ca  Ca2  1  0.500017  0.252118  0.331597  1
  Ca  Ca3  1  0.499860  0.747863  0.331585  1
  Ca  Ca4  1  0.000271  0.249422  0.500007  1
  Ca  Ca5  1  0.999729  0.750578  0.499990  1
  Ca  Ca6  1  0.500144  0.252140  0.668413  1
  Ca  Ca7  1  0.499969  0.747884  0.668402  1
  Ca  Ca8  1  0.000008  0.248971  0.831025  1
  Ca  Ca9  1  0.999976  0.751045  0.831043  1
  Tm  Tm10  1  0.500002  0.245960  0.999997  1
  Tm  Tm11  1  0.499997  0.754041  0.999997  1
  Ag  Ag12  1  0.000000  0.500000  0.999999  1
  Ag  Ag13  1  0.500016  0.999984  0.157763  1
  Ag  Ag14  1  0.999748  0.499936  0.335152  1
  Ag  Ag15  1  0.500001  0.000001  0.499999  1
  Ag  Ag16  1  0.000254  0.500066  0.664847  1
  Ag  Ag17  1  0.499982  0.000005  0.842237  1
  Pb  Pb18  1  0.999991  0.999999  0.999998  1
  Pb  Pb19  1  0.500127  0.500042  0.159082  1
  Pb  Pb20  1  0.999949  0.000005  0.333029  1
  Pb  Pb21  1  0.499999  0.500001  0.499999  1
  Pb  Pb22  1  0.000059  0.999994  0.666977  1
  Pb  Pb23  1  0.499889  0.499963  0.840933  1
