# generated using pymatgen
data_Ac5La7(CeIr3)2
_symmetry_space_group_name_H-M   'P 1'
_cell_length_a   6.65312598
_cell_length_b   10.32904674
_cell_length_c   10.38388606
_cell_angle_alpha   119.82380360
_cell_angle_beta   89.84746125
_cell_angle_gamma   89.99865735
_symmetry_Int_Tables_number   1
_chemical_formula_structural   Ac5La7(CeIr3)2
_chemical_formula_sum   'Ac5 La7 Ce2 Ir6'
_cell_volume   619.07435674
_cell_formula_units_Z   1
loop_
 _symmetry_equiv_pos_site_id
 _symmetry_equiv_pos_as_xyz
  1  'x, y, z'
loop_
 _atom_site_type_symbol
 _atom_site_label
 _atom_site_symmetry_multiplicity
 _atom_site_fract_x
 _atom_site_fract_y
 _atom_site_fract_z
 _atom_site_occupancy
  Ac  Ac0  1  0.247568  0.128510  0.870136  1
  Ac  Ac1  1  0.247581  0.741598  0.870118  1
  Ac  Ac2  1  0.245456  0.130521  0.261032  1
  Ac  Ac3  1  0.745810  0.870371  0.128647  1
  Ac  Ac4  1  0.745794  0.258282  0.128653  1
  La  La5  1  0.753368  0.870493  0.740992  1
  La  La6  1  0.437194  0.542015  0.463121  1
  La  La7  1  0.437274  0.921099  0.463093  1
  La  La8  1  0.433570  0.538525  0.077007  1
  La  La9  1  0.935283  0.464116  0.539102  1
  La  La10  1  0.935346  0.074983  0.539093  1
  La  La11  1  0.934608  0.460853  0.921724  1
  Ce  Ce12  1  0.496899  0.333078  0.666236  1
  Ce  Ce13  1  0.993800  0.666253  0.332417  1
  Ir  Ir14  1  0.187578  0.805882  0.195724  1
  Ir  Ir15  1  0.187518  0.389893  0.195734  1
  Ir  Ir16  1  0.175380  0.805103  0.610175  1
  Ir  Ir17  1  0.687806  0.189891  0.803350  1
  Ir  Ir18  1  0.687747  0.613400  0.803351  1
  Ir  Ir19  1  0.686415  0.195134  0.390296  1
