# generated using pymatgen
data_Zr3Al3(B2Ru5)2
_symmetry_space_group_name_H-M   'P 1'
_cell_length_a   9.35285709
_cell_length_b   9.35285624
_cell_length_c   3.04869600
_cell_angle_alpha   90.00000000
_cell_angle_beta   90.00000000
_cell_angle_gamma   90.91944602
_symmetry_Int_Tables_number   1
_chemical_formula_structural   Zr3Al3(B2Ru5)2
_chemical_formula_sum   'Zr3 Al3 B4 Ru10'
_cell_volume   266.65317332
_cell_formula_units_Z   1
loop_
 _symmetry_equiv_pos_site_id
 _symmetry_equiv_pos_as_xyz
  1  'x, y, z'
loop_
 _atom_site_type_symbol
 _atom_site_label
 _atom_site_symmetry_multiplicity
 _atom_site_fract_x
 _atom_site_fract_y
 _atom_site_fract_z
 _atom_site_occupancy
  Zr  Zr0  1  0.821351  0.674384  0.000000  1
  Zr  Zr1  1  0.174384  0.321351  0.000000  1
  Zr  Zr2  1  0.328125  0.828125  0.000000  1
  Al  Al3  1  0.679377  0.179377  0.000000  1
  Al  Al4  1  0.496245  0.508336  0.000000  1
  Al  Al5  1  0.008336  0.996245  0.000000  1
  B  B6  1  0.625109  0.877046  0.000000  1
  B  B7  1  0.377046  0.125109  0.000000  1
  B  B8  1  0.122584  0.622584  0.000000  1
  B  B9  1  0.870906  0.370906  0.000000  1
  Ru  Ru10  1  0.568730  0.719106  0.500000  1
  Ru  Ru11  1  0.435881  0.287976  0.500000  1
  Ru  Ru12  1  0.070266  0.781892  0.500000  1
  Ru  Ru13  1  0.918175  0.206586  0.500000  1
  Ru  Ru14  1  0.281892  0.570266  0.500000  1
  Ru  Ru15  1  0.706586  0.418175  0.500000  1
  Ru  Ru16  1  0.219106  0.068730  0.500000  1
  Ru  Ru17  1  0.787976  0.935881  0.500000  1
  Ru  Ru18  1  0.512155  0.012155  0.500000  1
  Ru  Ru19  1  0.995771  0.495771  0.500000  1
