# generated using pymatgen
data_La8Tm9Mg3Sn16
_symmetry_space_group_name_H-M   'P 1'
_cell_length_a   7.96519500
_cell_length_b   8.30722233
_cell_length_c   15.75847700
_cell_angle_alpha   90.00000000
_cell_angle_beta   90.00000000
_cell_angle_gamma   90.27304360
_symmetry_Int_Tables_number   1
_chemical_formula_structural   La8Tm9Mg3Sn16
_chemical_formula_sum   'La8 Tm9 Mg3 Sn16'
_cell_volume   1042.70524220
_cell_formula_units_Z   1
loop_
 _symmetry_equiv_pos_site_id
 _symmetry_equiv_pos_as_xyz
  1  'x, y, z'
loop_
 _atom_site_type_symbol
 _atom_site_label
 _atom_site_symmetry_multiplicity
 _atom_site_fract_x
 _atom_site_fract_y
 _atom_site_fract_z
 _atom_site_occupancy
  La  La0  1  0.505607  0.317947  0.904390  1
  La  La1  1  0.009162  0.177501  0.597177  1
  La  La2  1  0.496698  0.675334  0.405362  1
  La  La3  1  0.989535  0.820324  0.095913  1
  La  La4  1  0.496698  0.675334  0.094638  1
  La  La5  1  0.989535  0.820324  0.404087  1
  La  La6  1  0.505607  0.317947  0.595610  1
  La  La7  1  0.009162  0.177501  0.902823  1
  Tm  Tm8  1  0.349736  0.834180  0.875618  1
  Tm  Tm9  1  0.847680  0.670095  0.626700  1
  Tm  Tm10  1  0.655374  0.170184  0.376181  1
  Tm  Tm11  1  0.148470  0.333617  0.126881  1
  Tm  Tm12  1  0.655374  0.170184  0.123819  1
  Tm  Tm13  1  0.148470  0.333617  0.373119  1
  Tm  Tm14  1  0.349736  0.834180  0.624382  1
  Tm  Tm15  1  0.847680  0.670095  0.873300  1
  Tm  Tm16  1  0.320328  0.004577  0.250000  1
  Mg  Mg17  1  0.176339  0.501721  0.750000  1
  Mg  Mg18  1  0.679522  0.999395  0.750000  1
  Mg  Mg19  1  0.820061  0.501169  0.250000  1
  Sn  Sn20  1  0.314494  0.039613  0.042548  1
  Sn  Sn21  1  0.822131  0.457612  0.463656  1
  Sn  Sn22  1  0.687033  0.957899  0.539375  1
  Sn  Sn23  1  0.180751  0.542069  0.961508  1
  Sn  Sn24  1  0.687033  0.957899  0.960625  1
  Sn  Sn25  1  0.180751  0.542069  0.538492  1
  Sn  Sn26  1  0.314494  0.039613  0.457452  1
  Sn  Sn27  1  0.822131  0.457612  0.036344  1
  Sn  Sn28  1  0.539958  0.615101  0.750000  1
  Sn  Sn29  1  0.045057  0.884336  0.750000  1
  Sn  Sn30  1  0.457338  0.378158  0.250000  1
  Sn  Sn31  1  0.952955  0.116362  0.250000  1
  Sn  Sn32  1  0.312691  0.136914  0.750000  1
  Sn  Sn33  1  0.808935  0.363304  0.750000  1
  Sn  Sn34  1  0.681164  0.865373  0.250000  1
  Sn  Sn35  1  0.192310  0.640837  0.250000  1
