# generated using pymatgen
data_Y(ErPt2)9
_symmetry_space_group_name_H-M   'P 1'
_cell_length_a   9.73452964
_cell_length_b   9.72187764
_cell_length_c   5.75525800
_cell_angle_alpha   90.00000000
_cell_angle_beta   90.00000000
_cell_angle_gamma   90.04163989
_symmetry_Int_Tables_number   1
_chemical_formula_structural   Y(ErPt2)9
_chemical_formula_sum   'Y1 Er9 Pt18'
_cell_volume   544.66542227
_cell_formula_units_Z   1
loop_
 _symmetry_equiv_pos_site_id
 _symmetry_equiv_pos_as_xyz
  1  'x, y, z'
loop_
 _atom_site_type_symbol
 _atom_site_label
 _atom_site_symmetry_multiplicity
 _atom_site_fract_x
 _atom_site_fract_y
 _atom_site_fract_z
 _atom_site_occupancy
  Y  Y0  1  0.452597  0.809152  0.000000  1
  Er  Er1  1  0.547457  0.191166  0.000000  1
  Er  Er2  1  0.190841  0.547289  0.000000  1
  Er  Er3  1  0.808918  0.452554  0.000000  1
  Er  Er4  1  0.500031  0.499906  0.500000  1
  Er  Er5  1  0.308881  0.047574  0.500000  1
  Er  Er6  1  0.691182  0.952574  0.500000  1
  Er  Er7  1  0.952573  0.690991  0.500000  1
  Er  Er8  1  0.047432  0.308949  0.500000  1
  Er  Er9  1  0.000080  0.000038  0.000000  1
  Pt  Pt10  1  0.190880  0.808185  0.251585  1
  Pt  Pt11  1  0.808128  0.191952  0.749099  1
  Pt  Pt12  1  0.808128  0.191952  0.250901  1
  Pt  Pt13  1  0.190880  0.808185  0.748415  1
  Pt  Pt14  1  0.441088  0.781787  0.500000  1
  Pt  Pt15  1  0.558722  0.218009  0.500000  1
  Pt  Pt16  1  0.218124  0.558648  0.500000  1
  Pt  Pt17  1  0.781996  0.441238  0.500000  1
  Pt  Pt18  1  0.308077  0.308189  0.249133  1
  Pt  Pt19  1  0.692714  0.691534  0.750331  1
  Pt  Pt20  1  0.692714  0.691534  0.249669  1
  Pt  Pt21  1  0.308077  0.308189  0.750867  1
  Pt  Pt22  1  0.281258  0.059595  0.000000  1
  Pt  Pt23  1  0.719160  0.941700  0.000000  1
  Pt  Pt24  1  0.941352  0.717967  0.000000  1
  Pt  Pt25  1  0.058651  0.282014  0.000000  1
  Pt  Pt26  1  0.999883  0.000050  0.500000  1
  Pt  Pt27  1  0.500176  0.499080  0.000000  1
