# generated using pymatgen
data_Ce3Lu(SiTc)4
_symmetry_space_group_name_H-M   'P 1'
_cell_length_a   4.51145100
_cell_length_b   7.15468154
_cell_length_c   6.89660348
_cell_angle_alpha   88.49423914
_cell_angle_beta   90.00000000
_cell_angle_gamma   90.00000000
_symmetry_Int_Tables_number   1
_chemical_formula_structural   Ce3Lu(SiTc)4
_chemical_formula_sum   'Ce3 Lu1 Si4 Tc4'
_cell_volume   222.53166465
_cell_formula_units_Z   1
loop_
 _symmetry_equiv_pos_site_id
 _symmetry_equiv_pos_as_xyz
  1  'x, y, z'
loop_
 _atom_site_type_symbol
 _atom_site_label
 _atom_site_symmetry_multiplicity
 _atom_site_fract_x
 _atom_site_fract_y
 _atom_site_fract_z
 _atom_site_occupancy
  Ce  Ce0  1  0.750000  0.026522  0.811815  1
  Ce  Ce1  1  0.250000  0.469565  0.320209  1
  Ce  Ce2  1  0.750000  0.525749  0.679573  1
  Lu  Lu3  1  0.250000  0.976185  0.185445  1
  Si  Si4  1  0.750000  0.186432  0.380722  1
  Si  Si5  1  0.250000  0.305674  0.893530  1
  Si  Si6  1  0.750000  0.697967  0.111818  1
  Si  Si7  1  0.250000  0.807767  0.609847  1
  Tc  Tc8  1  0.250000  0.156959  0.559421  1
  Tc  Tc9  1  0.750000  0.350359  0.055499  1
  Tc  Tc10  1  0.250000  0.648397  0.946889  1
  Tc  Tc11  1  0.750000  0.848423  0.445231  1
