# generated using pymatgen
data_Y15Lu4ThPb16
_symmetry_space_group_name_H-M   'P 1'
_cell_length_a   8.23808880
_cell_length_b   8.29996947
_cell_length_c   15.66666000
_cell_angle_alpha   90.12530574
_cell_angle_beta   89.82875412
_cell_angle_gamma   89.95482785
_symmetry_Int_Tables_number   1
_chemical_formula_structural   Y15Lu4ThPb16
_chemical_formula_sum   'Y15 Lu4 Th1 Pb16'
_cell_volume   1071.21406557
_cell_formula_units_Z   1
loop_
 _symmetry_equiv_pos_site_id
 _symmetry_equiv_pos_as_xyz
  1  'x, y, z'
loop_
 _atom_site_type_symbol
 _atom_site_label
 _atom_site_symmetry_multiplicity
 _atom_site_fract_x
 _atom_site_fract_y
 _atom_site_fract_z
 _atom_site_occupancy
  Y  Y0  1  0.377342  0.841391  0.878758  1
  Y  Y1  1  0.877604  0.658103  0.620870  1
  Y  Y2  1  0.622483  0.157266  0.378629  1
  Y  Y3  1  0.122422  0.342721  0.122307  1
  Y  Y4  1  0.623785  0.156983  0.121645  1
  Y  Y5  1  0.122438  0.342673  0.378510  1
  Y  Y6  1  0.377642  0.842244  0.621303  1
  Y  Y7  1  0.876505  0.657643  0.878953  1
  Y  Y8  1  0.538929  0.325909  0.899593  1
  Y  Y9  1  0.038317  0.174817  0.600685  1
  Y  Y10  1  0.462474  0.674818  0.399551  1
  Y  Y11  1  0.961715  0.825159  0.101113  1
  Y  Y12  1  0.462450  0.674618  0.100624  1
  Y  Y13  1  0.962631  0.824700  0.399447  1
  Y  Y14  1  0.537777  0.326170  0.599927  1
  Lu  Lu15  1  0.209692  0.502809  0.749354  1
  Lu  Lu16  1  0.708904  0.995443  0.748647  1
  Lu  Lu17  1  0.790471  0.496620  0.250731  1
  Lu  Lu18  1  0.290938  0.003727  0.250426  1
  Th  Th19  1  0.035260  0.177841  0.900711  1
  Pb  Pb20  1  0.281840  0.030677  0.045146  1
  Pb  Pb21  1  0.780523  0.467958  0.455723  1
  Pb  Pb22  1  0.719831  0.968629  0.544075  1
  Pb  Pb23  1  0.220448  0.531869  0.955681  1
  Pb  Pb24  1  0.716621  0.966219  0.955946  1
  Pb  Pb25  1  0.219493  0.532125  0.544069  1
  Pb  Pb26  1  0.280808  0.032123  0.456046  1
  Pb  Pb27  1  0.781811  0.466090  0.043823  1
  Pb  Pb28  1  0.570831  0.627410  0.749793  1
  Pb  Pb29  1  0.071344  0.872523  0.751008  1
  Pb  Pb30  1  0.428998  0.373354  0.249759  1
  Pb  Pb31  1  0.928644  0.126147  0.250225  1
  Pb  Pb32  1  0.352037  0.155711  0.749992  1
  Pb  Pb33  1  0.846808  0.347913  0.747326  1
  Pb  Pb34  1  0.650286  0.843799  0.249783  1
  Pb  Pb35  1  0.149895  0.655797  0.249825  1
