# generated using pymatgen
data_NdGd4(TcO6)2
_symmetry_space_group_name_H-M   'P 1'
_cell_length_a   6.95650977
_cell_length_b   6.95650812
_cell_length_c   7.71255400
_cell_angle_alpha   73.90158280
_cell_angle_beta   73.90158673
_cell_angle_gamma   48.70801278
_symmetry_Int_Tables_number   1
_chemical_formula_structural   NdGd4(TcO6)2
_chemical_formula_sum   'Nd1 Gd4 Tc2 O12'
_cell_volume   267.12595053
_cell_formula_units_Z   1
loop_
 _symmetry_equiv_pos_site_id
 _symmetry_equiv_pos_as_xyz
  1  'x, y, z'
loop_
 _atom_site_type_symbol
 _atom_site_label
 _atom_site_symmetry_multiplicity
 _atom_site_fract_x
 _atom_site_fract_y
 _atom_site_fract_z
 _atom_site_occupancy
  Nd  Nd0  1  0.193414  0.193414  0.643549  1
  Gd  Gd1  1  0.184488  0.184488  0.172244  1
  Gd  Gd2  1  0.500506  0.500506  0.499390  1
  Gd  Gd3  1  0.806897  0.806897  0.354368  1
  Gd  Gd4  1  0.815294  0.815294  0.826962  1
  Tc  Tc5  1  0.712546  0.286352  0.001490  1
  Tc  Tc6  1  0.286352  0.712546  0.001490  1
  O  O7  1  0.415094  0.908124  0.921152  1
  O  O8  1  0.908124  0.415094  0.921152  1
  O  O9  1  0.903798  0.405827  0.419496  1
  O  O10  1  0.405827  0.903798  0.419496  1
  O  O11  1  0.499867  0.499867  0.201886  1
  O  O12  1  0.998866  0.998866  0.173470  1
  O  O13  1  0.999094  0.999094  0.830774  1
  O  O14  1  0.499178  0.499178  0.799705  1
  O  O15  1  0.089306  0.586129  0.082155  1
  O  O16  1  0.586129  0.089306  0.082155  1
  O  O17  1  0.092918  0.602300  0.574534  1
  O  O18  1  0.602300  0.092918  0.574534  1
