# generated using pymatgen
data_Y2SiPtBr2
_symmetry_space_group_name_H-M   'P 1'
_cell_length_a   4.14116000
_cell_length_b   4.14116034
_cell_length_c   11.19364700
_cell_angle_alpha   90.00000000
_cell_angle_beta   90.00000000
_cell_angle_gamma   120.00002923
_symmetry_Int_Tables_number   1
_chemical_formula_structural   Y2SiPtBr2
_chemical_formula_sum   'Y2 Si1 Pt1 Br2'
_cell_volume   166.24407178
_cell_formula_units_Z   1
loop_
 _symmetry_equiv_pos_site_id
 _symmetry_equiv_pos_as_xyz
  1  'x, y, z'
loop_
 _atom_site_type_symbol
 _atom_site_label
 _atom_site_symmetry_multiplicity
 _atom_site_fract_x
 _atom_site_fract_y
 _atom_site_fract_z
 _atom_site_occupancy
  Y  Y0  1  0.000000  0.000000  0.171758  1
  Y  Y1  1  0.000000  0.000000  0.827010  1
  Si  Si2  1  0.666667  0.333333  0.988650  1
  Pt  Pt3  1  0.333333  0.666667  0.012562  1
  Br  Br4  1  0.333333  0.666667  0.665606  1
  Br  Br5  1  0.666667  0.333333  0.334414  1
