# generated using pymatgen
data_LaYb7(SmRu2)2
_symmetry_space_group_name_H-M   'P 1'
_cell_length_a   8.63337318
_cell_length_b   8.65787764
_cell_length_c   7.41152010
_cell_angle_alpha   83.30277621
_cell_angle_beta   82.78313497
_cell_angle_gamma   43.86511972
_symmetry_Int_Tables_number   1
_chemical_formula_structural   LaYb7(SmRu2)2
_chemical_formula_sum   'La1 Yb7 Sm2 Ru4'
_cell_volume   380.57742640
_cell_formula_units_Z   1
loop_
 _symmetry_equiv_pos_site_id
 _symmetry_equiv_pos_as_xyz
  1  'x, y, z'
loop_
 _atom_site_type_symbol
 _atom_site_label
 _atom_site_symmetry_multiplicity
 _atom_site_fract_x
 _atom_site_fract_y
 _atom_site_fract_z
 _atom_site_occupancy
  La  La0  1  0.009982  0.810062  0.908611  1
  Yb  Yb1  1  0.204835  0.976189  0.577470  1
  Yb  Yb2  1  0.979285  0.201435  0.082283  1
  Yb  Yb3  1  0.803240  0.024683  0.416455  1
  Yb  Yb4  1  0.364936  0.201771  0.820392  1
  Yb  Yb5  1  0.793124  0.637397  0.677820  1
  Yb  Yb6  1  0.632088  0.795751  0.180029  1
  Yb  Yb7  1  0.199830  0.365471  0.324921  1
  Sm  Sm8  1  0.573897  0.431264  0.748955  1
  Sm  Sm9  1  0.434132  0.567009  0.249399  1
  Ru  Ru10  1  0.166209  0.617974  0.595890  1
  Ru  Ru11  1  0.394842  0.813756  0.926518  1
  Ru  Ru12  1  0.814667  0.402131  0.422722  1
  Ru  Ru13  1  0.628931  0.155105  0.068535  1
