# generated using pymatgen
data_Tb9YGaBi5
_symmetry_space_group_name_H-M   'P 1'
_cell_length_a   9.12290378
_cell_length_b   9.12290348
_cell_length_c   6.44108800
_cell_angle_alpha   90.00000000
_cell_angle_beta   90.00000000
_cell_angle_gamma   119.72622774
_symmetry_Int_Tables_number   1
_chemical_formula_structural   Tb9YGaBi5
_chemical_formula_sum   'Tb9 Y1 Ga1 Bi5'
_cell_volume   465.52985008
_cell_formula_units_Z   1
loop_
 _symmetry_equiv_pos_site_id
 _symmetry_equiv_pos_as_xyz
  1  'x, y, z'
loop_
 _atom_site_type_symbol
 _atom_site_label
 _atom_site_symmetry_multiplicity
 _atom_site_fract_x
 _atom_site_fract_y
 _atom_site_fract_z
 _atom_site_occupancy
  Tb  Tb0  1  0.657702  0.335679  0.996613  1
  Tb  Tb1  1  0.335679  0.657702  0.996613  1
  Tb  Tb2  1  0.335679  0.657702  0.503387  1
  Tb  Tb3  1  0.657702  0.335679  0.503387  1
  Tb  Tb4  1  0.749182  0.749182  0.750000  1
  Tb  Tb5  1  0.244877  0.014639  0.750000  1
  Tb  Tb6  1  0.014639  0.244877  0.750000  1
  Tb  Tb7  1  0.758664  0.000693  0.250000  1
  Tb  Tb8  1  0.000693  0.758664  0.250000  1
  Y  Y9  1  0.242415  0.242415  0.250000  1
  Ga  Ga10  1  0.392923  0.392923  0.750000  1
  Bi  Bi11  1  0.612006  0.002848  0.750000  1
  Bi  Bi12  1  0.002848  0.612006  0.750000  1
  Bi  Bi13  1  0.609201  0.609201  0.250000  1
  Bi  Bi14  1  0.390387  0.995405  0.250000  1
  Bi  Bi15  1  0.995405  0.390387  0.250000  1
