# generated using pymatgen
data_Sc3AlC4
_symmetry_space_group_name_H-M   'P 1'
_cell_length_a   6.67581437
_cell_length_b   6.67581455
_cell_length_c   6.67581477
_cell_angle_alpha   149.88919695
_cell_angle_beta   141.04660527
_cell_angle_gamma   50.00547123
_symmetry_Int_Tables_number   1
_chemical_formula_structural   Sc3AlC4
_chemical_formula_sum   'Sc3 Al1 C4'
_cell_volume   93.41043632
_cell_formula_units_Z   1
loop_
 _symmetry_equiv_pos_site_id
 _symmetry_equiv_pos_as_xyz
  1  'x, y, z'
loop_
 _atom_site_type_symbol
 _atom_site_label
 _atom_site_symmetry_multiplicity
 _atom_site_fract_x
 _atom_site_fract_y
 _atom_site_fract_z
 _atom_site_occupancy
  Sc  Sc0  1  0.500000  0.500000  0.000000  1
  Sc  Sc1  1  0.810648  0.310648  0.500000  1
  Sc  Sc2  1  0.189352  0.689352  0.500000  1
  Al  Al3  1  0.000000  0.000000  0.000000  1
  C  C4  1  0.209848  0.873259  0.336589  1
  C  C5  1  0.790152  0.126741  0.663411  1
  C  C6  1  0.463328  0.126741  0.336589  1
  C  C7  1  0.536672  0.873259  0.663411  1
