# generated using pymatgen
data_Dy5U2O12
_symmetry_space_group_name_H-M   'P 1'
_cell_length_a   6.59329975
_cell_length_b   6.62324324
_cell_length_c   6.56527767
_cell_angle_alpha   99.25739206
_cell_angle_beta   98.71412636
_cell_angle_gamma   99.11734087
_symmetry_Int_Tables_number   1
_chemical_formula_structural   Dy5U2O12
_chemical_formula_sum   'Dy5 U2 O12'
_cell_volume   274.74330289
_cell_formula_units_Z   1
loop_
 _symmetry_equiv_pos_site_id
 _symmetry_equiv_pos_as_xyz
  1  'x, y, z'
loop_
 _atom_site_type_symbol
 _atom_site_label
 _atom_site_symmetry_multiplicity
 _atom_site_fract_x
 _atom_site_fract_y
 _atom_site_fract_z
 _atom_site_occupancy
  Dy  Dy0  1  0.860713  0.693138  0.395454  1
  Dy  Dy1  1  0.390028  0.855973  0.683920  1
  Dy  Dy2  1  0.309673  0.611682  0.144024  1
  Dy  Dy3  1  0.143761  0.313663  0.606508  1
  Dy  Dy4  1  0.605873  0.133953  0.312257  1
  U  U5  1  0.689807  0.396676  0.861835  1
  U  U6  1  0.003385  0.003364  0.000912  1
  O  O7  1  0.428807  0.177104  0.585335  1
  O  O8  1  0.587031  0.424182  0.167323  1
  O  O9  1  0.175002  0.582541  0.432211  1
  O  O10  1  0.567833  0.818106  0.411774  1
  O  O11  1  0.422541  0.569984  0.821911  1
  O  O12  1  0.812800  0.415966  0.575564  1
  O  O13  1  0.075665  0.318468  0.942637  1
  O  O14  1  0.687155  0.057173  0.920907  1
  O  O15  1  0.055013  0.922708  0.686494  1
  O  O16  1  0.925965  0.684704  0.058422  1
  O  O17  1  0.315495  0.944124  0.076198  1
  O  O18  1  0.943447  0.076490  0.316314  1
