# generated using pymatgen
data_Tb10HoCd8InPd4
_symmetry_space_group_name_H-M   'P 1'
_cell_length_a   13.22702868
_cell_length_b   13.24262938
_cell_length_c   3.69467100
_cell_angle_alpha   90.00000000
_cell_angle_beta   90.00000000
_cell_angle_gamma   112.19871172
_symmetry_Int_Tables_number   1
_chemical_formula_structural   Tb10HoCd8InPd4
_chemical_formula_sum   'Tb10 Ho1 Cd8 In1 Pd4'
_cell_volume   599.19276830
_cell_formula_units_Z   1
loop_
 _symmetry_equiv_pos_site_id
 _symmetry_equiv_pos_as_xyz
  1  'x, y, z'
loop_
 _atom_site_type_symbol
 _atom_site_label
 _atom_site_symmetry_multiplicity
 _atom_site_fract_x
 _atom_site_fract_y
 _atom_site_fract_z
 _atom_site_occupancy
  Tb  Tb0  1  0.584957  0.926312  0.000000  1
  Tb  Tb1  1  0.075815  0.415504  0.000000  1
  Tb  Tb2  1  0.925754  0.583340  0.000000  1
  Tb  Tb3  1  0.161497  0.836663  0.000000  1
  Tb  Tb4  1  0.837579  0.163680  0.000000  1
  Tb  Tb5  1  0.372839  0.627683  0.000000  1
  Tb  Tb6  1  0.627239  0.372820  0.000000  1
  Tb  Tb7  1  0.305188  0.303374  0.000000  1
  Tb  Tb8  1  0.691989  0.693038  0.000000  1
  Tb  Tb9  1  0.999930  0.000974  0.000000  1
  Ho  Ho10  1  0.416048  0.075299  0.000000  1
  Cd  Cd11  1  0.366601  0.842592  0.500000  1
  Cd  Cd12  1  0.633311  0.158938  0.500000  1
  Cd  Cd13  1  0.840223  0.366750  0.500000  1
  Cd  Cd14  1  0.160035  0.634243  0.500000  1
  Cd  Cd15  1  0.215572  0.069320  0.500000  1
  Cd  Cd16  1  0.786379  0.929082  0.500000  1
  Cd  Cd17  1  0.069365  0.214637  0.500000  1
  Cd  Cd18  1  0.500111  0.499111  0.500000  1
  In  In19  1  0.928051  0.786491  0.500000  1
  Pd  Pd20  1  0.449433  0.247105  0.500000  1
  Pd  Pd21  1  0.549402  0.751461  0.500000  1
  Pd  Pd22  1  0.250157  0.449726  0.500000  1
  Pd  Pd23  1  0.752526  0.551854  0.500000  1
