# generated using pymatgen
data_Eu(SiAu2)2
_symmetry_space_group_name_H-M   'P 1'
_cell_length_a   7.17346140
_cell_length_b   7.17346148
_cell_length_c   4.47379400
_cell_angle_alpha   90.00000000
_cell_angle_beta   90.00000000
_cell_angle_gamma   143.69698252
_symmetry_Int_Tables_number   1
_chemical_formula_structural   Eu(SiAu2)2
_chemical_formula_sum   'Eu1 Si2 Au4'
_cell_volume   136.30005433
_cell_formula_units_Z   1
loop_
 _symmetry_equiv_pos_site_id
 _symmetry_equiv_pos_as_xyz
  1  'x, y, z'
loop_
 _atom_site_type_symbol
 _atom_site_label
 _atom_site_symmetry_multiplicity
 _atom_site_fract_x
 _atom_site_fract_y
 _atom_site_fract_z
 _atom_site_occupancy
  Eu  Eu0  1  0.000000  0.000000  0.000000  1
  Si  Si1  1  0.588335  0.411665  0.500000  1
  Si  Si2  1  0.411665  0.588335  0.500000  1
  Au  Au3  1  0.173755  0.826245  0.500000  1
  Au  Au4  1  0.326095  0.673905  0.000000  1
  Au  Au5  1  0.826245  0.173755  0.500000  1
  Au  Au6  1  0.673905  0.326095  0.000000  1
