# generated using pymatgen
data_Tm16MgNi4Hg3
_symmetry_space_group_name_H-M   'P 1'
_cell_length_a   9.41195176
_cell_length_b   9.37459025
_cell_length_c   9.37458900
_cell_angle_alpha   60.00000088
_cell_angle_beta   60.13122692
_cell_angle_gamma   60.13122933
_symmetry_Int_Tables_number   1
_chemical_formula_structural   Tm16MgNi4Hg3
_chemical_formula_sum   'Tm16 Mg1 Ni4 Hg3'
_cell_volume   586.04074954
_cell_formula_units_Z   1
loop_
 _symmetry_equiv_pos_site_id
 _symmetry_equiv_pos_as_xyz
  1  'x, y, z'
loop_
 _atom_site_type_symbol
 _atom_site_label
 _atom_site_symmetry_multiplicity
 _atom_site_fract_x
 _atom_site_fract_y
 _atom_site_fract_z
 _atom_site_occupancy
  Tm  Tm0  1  0.598650  0.596673  0.596673  1
  Tm  Tm1  1  0.598650  0.596673  0.208004  1
  Tm  Tm2  1  0.598650  0.208004  0.596673  1
  Tm  Tm3  1  0.196655  0.601115  0.601115  1
  Tm  Tm4  1  0.057530  0.441107  0.441107  1
  Tm  Tm5  1  0.436556  0.062169  0.062169  1
  Tm  Tm6  1  0.436556  0.062169  0.439107  1
  Tm  Tm7  1  0.057530  0.441107  0.060256  1
  Tm  Tm8  1  0.436556  0.439107  0.062169  1
  Tm  Tm9  1  0.057530  0.060256  0.441107  1
  Tm  Tm10  1  0.186051  0.813765  0.813765  1
  Tm  Tm11  1  0.813982  0.186227  0.186227  1
  Tm  Tm12  1  0.813982  0.186227  0.813564  1
  Tm  Tm13  1  0.186051  0.813765  0.186419  1
  Tm  Tm14  1  0.813982  0.813564  0.186227  1
  Tm  Tm15  1  0.186051  0.186419  0.813765  1
  Mg  Mg16  1  0.534824  0.821725  0.821725  1
  Ni  Ni17  1  0.387841  0.394292  0.394292  1
  Ni  Ni18  1  0.387841  0.394292  0.823575  1
  Ni  Ni19  1  0.387841  0.823575  0.394292  1
  Ni  Ni20  1  0.823209  0.392264  0.392264  1
  Hg  Hg21  1  0.834494  0.836919  0.836919  1
  Hg  Hg22  1  0.834494  0.836919  0.491668  1
  Hg  Hg23  1  0.834494  0.491668  0.836919  1
