# generated using pymatgen
data_Hf2PaFe9
_symmetry_space_group_name_H-M   'P 1'
_cell_length_a   4.93100714
_cell_length_b   4.93100613
_cell_length_c   8.56134734
_cell_angle_alpha   73.26290927
_cell_angle_beta   73.26290448
_cell_angle_gamma   59.99999574
_symmetry_Int_Tables_number   1
_chemical_formula_structural   Hf2PaFe9
_chemical_formula_sum   'Hf2 Pa1 Fe9'
_cell_volume   170.01923880
_cell_formula_units_Z   1
loop_
 _symmetry_equiv_pos_site_id
 _symmetry_equiv_pos_as_xyz
  1  'x, y, z'
loop_
 _atom_site_type_symbol
 _atom_site_label
 _atom_site_symmetry_multiplicity
 _atom_site_fract_x
 _atom_site_fract_y
 _atom_site_fract_z
 _atom_site_occupancy
  Hf  Hf0  1  0.142642  0.142642  0.572075  1
  Hf  Hf1  1  0.857358  0.857358  0.427925  1
  Pa  Pa2  1  0.000000  0.000000  0.000000  1
  Fe  Fe3  1  0.082358  0.587128  0.743385  1
  Fe  Fe4  1  0.587128  0.587128  0.743385  1
  Fe  Fe5  1  0.587128  0.082358  0.743385  1
  Fe  Fe6  1  0.917642  0.412872  0.256615  1
  Fe  Fe7  1  0.412872  0.412872  0.256615  1
  Fe  Fe8  1  0.412872  0.917642  0.256615  1
  Fe  Fe9  1  0.332840  0.332840  0.001478  1
  Fe  Fe10  1  0.667159  0.667159  0.998522  1
  Fe  Fe11  1  0.500000  0.500000  0.500000  1
