# generated using pymatgen
data_Sc3Pa2(In2Co)2
_symmetry_space_group_name_H-M   'P 1'
_cell_length_a   3.46497100
_cell_length_b   7.68919200
_cell_length_c   17.44354300
_cell_angle_alpha   90.00000000
_cell_angle_beta   90.00000000
_cell_angle_gamma   90.00000000
_symmetry_Int_Tables_number   1
_chemical_formula_structural   Sc3Pa2(In2Co)2
_chemical_formula_sum   'Sc6 Pa4 In8 Co4'
_cell_volume   464.74530353
_cell_formula_units_Z   2
loop_
 _symmetry_equiv_pos_site_id
 _symmetry_equiv_pos_as_xyz
  1  'x, y, z'
loop_
 _atom_site_type_symbol
 _atom_site_label
 _atom_site_symmetry_multiplicity
 _atom_site_fract_x
 _atom_site_fract_y
 _atom_site_fract_z
 _atom_site_occupancy
  Sc  Sc0  1  0.000000  0.114945  0.411758  1
  Sc  Sc1  1  0.000000  0.885055  0.588242  1
  Sc  Sc2  1  0.000000  0.385055  0.911758  1
  Sc  Sc3  1  0.000000  0.614945  0.088242  1
  Sc  Sc4  1  0.000000  0.000000  0.000000  1
  Sc  Sc5  1  0.000000  0.500000  0.500000  1
  Pa  Pa6  1  0.000000  0.247149  0.223155  1
  Pa  Pa7  1  0.000000  0.752851  0.776845  1
  Pa  Pa8  1  0.000000  0.252851  0.723155  1
  Pa  Pa9  1  0.000000  0.747149  0.276845  1
  In  In10  1  0.500000  0.423369  0.359078  1
  In  In11  1  0.500000  0.576631  0.640922  1
  In  In12  1  0.500000  0.076631  0.859078  1
  In  In13  1  0.500000  0.923369  0.140922  1
  In  In14  1  0.500000  0.299954  0.060053  1
  In  In15  1  0.500000  0.700046  0.939947  1
  In  In16  1  0.500000  0.200046  0.560053  1
  In  In17  1  0.500000  0.799954  0.439947  1
  Co  Co18  1  0.500000  0.021416  0.295667  1
  Co  Co19  1  0.500000  0.978584  0.704333  1
  Co  Co20  1  0.500000  0.478584  0.795667  1
  Co  Co21  1  0.500000  0.521416  0.204333  1
