# generated using pymatgen
data_CsCr(SnSe3)2
_symmetry_space_group_name_H-M   'P 1'
_cell_length_a   9.81743057
_cell_length_b   9.81742922
_cell_length_c   9.81743022
_cell_angle_alpha   39.62798867
_cell_angle_beta   39.62799669
_cell_angle_gamma   39.62799573
_symmetry_Int_Tables_number   1
_chemical_formula_structural   CsCr(SnSe3)2
_chemical_formula_sum   'Cs1 Cr1 Sn2 Se6'
_cell_volume   346.57047821
_cell_formula_units_Z   1
loop_
 _symmetry_equiv_pos_site_id
 _symmetry_equiv_pos_as_xyz
  1  'x, y, z'
loop_
 _atom_site_type_symbol
 _atom_site_label
 _atom_site_symmetry_multiplicity
 _atom_site_fract_x
 _atom_site_fract_y
 _atom_site_fract_z
 _atom_site_occupancy
  Cs  Cs0  1  0.998784  0.998784  0.998784  1
  Cr  Cr1  1  0.166466  0.166466  0.166466  1
  Sn  Sn2  1  0.501133  0.501133  0.501133  1
  Sn  Sn3  1  0.832602  0.832602  0.832602  1
  Se  Se4  1  0.534621  0.221340  0.911053  1
  Se  Se5  1  0.911053  0.534621  0.221340  1
  Se  Se6  1  0.221340  0.911053  0.534621  1
  Se  Se7  1  0.795174  0.113710  0.425118  1
  Se  Se8  1  0.113710  0.425118  0.795174  1
  Se  Se9  1  0.425118  0.795174  0.113710  1
