# generated using pymatgen
data_Y2Tm10Os3Rh
_symmetry_space_group_name_H-M   'P 1'
_cell_length_a   7.31167328
_cell_length_b   8.94206100
_cell_length_c   6.28248406
_cell_angle_alpha   90.00000000
_cell_angle_beta   89.89113210
_cell_angle_gamma   90.00000000
_symmetry_Int_Tables_number   1
_chemical_formula_structural   Y2Tm10Os3Rh
_chemical_formula_sum   'Y2 Tm10 Os3 Rh1'
_cell_volume   410.75704095
_cell_formula_units_Z   1
loop_
 _symmetry_equiv_pos_site_id
 _symmetry_equiv_pos_as_xyz
  1  'x, y, z'
loop_
 _atom_site_type_symbol
 _atom_site_label
 _atom_site_symmetry_multiplicity
 _atom_site_fract_x
 _atom_site_fract_y
 _atom_site_fract_z
 _atom_site_occupancy
  Y  Y0  1  0.038048  0.250000  0.626132  1
  Y  Y1  1  0.538091  0.250000  0.872355  1
  Tm  Tm2  1  0.961468  0.750000  0.373385  1
  Tm  Tm3  1  0.462070  0.750000  0.129583  1
  Tm  Tm4  1  0.172000  0.059336  0.165425  1
  Tm  Tm5  1  0.824395  0.935696  0.831113  1
  Tm  Tm6  1  0.323067  0.932114  0.672155  1
  Tm  Tm7  1  0.824395  0.564304  0.831113  1
  Tm  Tm8  1  0.678253  0.060200  0.332047  1
  Tm  Tm9  1  0.172000  0.440664  0.165425  1
  Tm  Tm10  1  0.678253  0.439800  0.332047  1
  Tm  Tm11  1  0.323067  0.567886  0.672155  1
  Os  Os12  1  0.616338  0.750000  0.536702  1
  Os  Os13  1  0.117141  0.750000  0.965400  1
  Os  Os14  1  0.884604  0.250000  0.044625  1
  Rh  Rh15  1  0.386809  0.250000  0.450337  1
