# generated using pymatgen
data_ZrPaRh2Pb
_symmetry_space_group_name_H-M   'P 1'
_cell_length_a   7.80734600
_cell_length_b   7.60171700
_cell_length_c   3.50091700
_cell_angle_alpha   90.00000000
_cell_angle_beta   90.00000000
_cell_angle_gamma   90.00000000
_symmetry_Int_Tables_number   1
_chemical_formula_structural   ZrPaRh2Pb
_chemical_formula_sum   'Zr2 Pa2 Rh4 Pb2'
_cell_volume   207.77674509
_cell_formula_units_Z   2
loop_
 _symmetry_equiv_pos_site_id
 _symmetry_equiv_pos_as_xyz
  1  'x, y, z'
loop_
 _atom_site_type_symbol
 _atom_site_label
 _atom_site_symmetry_multiplicity
 _atom_site_fract_x
 _atom_site_fract_y
 _atom_site_fract_z
 _atom_site_occupancy
  Zr  Zr0  1  0.326258  0.172828  0.500001  1
  Zr  Zr1  1  0.826257  0.327173  0.500001  1
  Pa  Pa2  1  0.174190  0.661409  0.500001  1
  Pa  Pa3  1  0.674189  0.838590  0.500001  1
  Rh  Rh4  1  0.627495  0.112842  0.000000  1
  Rh  Rh5  1  0.127496  0.387158  0.000000  1
  Rh  Rh6  1  0.865660  0.645192  0.000000  1
  Rh  Rh7  1  0.365659  0.854808  0.000000  1
  Pb  Pb8  1  0.006397  0.017464  0.000000  1
  Pb  Pb9  1  0.506398  0.482537  0.000000  1
