# generated using pymatgen
data_Sc10Cu3Ni
_symmetry_space_group_name_H-M   'P 1'
_cell_length_a   8.60291200
_cell_length_b   8.60291257
_cell_length_c   8.75936000
_cell_angle_alpha   90.00000000
_cell_angle_beta   90.00000000
_cell_angle_gamma   119.99999780
_symmetry_Int_Tables_number   1
_chemical_formula_structural   Sc10Cu3Ni
_chemical_formula_sum   'Sc20 Cu6 Ni2'
_cell_volume   561.42792066
_cell_formula_units_Z   2
loop_
 _symmetry_equiv_pos_site_id
 _symmetry_equiv_pos_as_xyz
  1  'x, y, z'
loop_
 _atom_site_type_symbol
 _atom_site_label
 _atom_site_symmetry_multiplicity
 _atom_site_fract_x
 _atom_site_fract_y
 _atom_site_fract_z
 _atom_site_occupancy
  Sc  Sc0  1  0.000000  0.000000  0.500000  1
  Sc  Sc1  1  0.000000  0.000000  0.000000  1
  Sc  Sc2  1  0.542968  0.457032  0.250000  1
  Sc  Sc3  1  0.542968  0.085936  0.250000  1
  Sc  Sc4  1  0.914064  0.457032  0.250000  1
  Sc  Sc5  1  0.457032  0.542968  0.750000  1
  Sc  Sc6  1  0.457032  0.914064  0.750000  1
  Sc  Sc7  1  0.085936  0.542968  0.750000  1
  Sc  Sc8  1  0.206242  0.793758  0.441249  1
  Sc  Sc9  1  0.206242  0.412486  0.441249  1
  Sc  Sc10  1  0.587514  0.793758  0.441249  1
  Sc  Sc11  1  0.793758  0.206242  0.558751  1
  Sc  Sc12  1  0.793758  0.587514  0.558751  1
  Sc  Sc13  1  0.412486  0.206242  0.558751  1
  Sc  Sc14  1  0.793758  0.206242  0.941249  1
  Sc  Sc15  1  0.793758  0.587514  0.941249  1
  Sc  Sc16  1  0.412486  0.206242  0.941249  1
  Sc  Sc17  1  0.206242  0.793758  0.058751  1
  Sc  Sc18  1  0.206242  0.412486  0.058751  1
  Sc  Sc19  1  0.587514  0.793758  0.058751  1
  Cu  Cu20  1  0.886147  0.113853  0.250000  1
  Cu  Cu21  1  0.886147  0.772293  0.250000  1
  Cu  Cu22  1  0.227707  0.113853  0.250000  1
  Cu  Cu23  1  0.113853  0.886147  0.750000  1
  Cu  Cu24  1  0.113853  0.227707  0.750000  1
  Cu  Cu25  1  0.772293  0.886147  0.750000  1
  Ni  Ni26  1  0.333333  0.666667  0.250000  1
  Ni  Ni27  1  0.666667  0.333333  0.750000  1
