# generated using pymatgen
data_CaYb3Y2(Si3Ru)8
_symmetry_space_group_name_H-M   'P 1'
_cell_length_a   10.16878820
_cell_length_b   10.16879038
_cell_length_c   8.14202398
_cell_angle_alpha   89.97776201
_cell_angle_beta   90.02223875
_cell_angle_gamma   132.79340868
_symmetry_Int_Tables_number   1
_chemical_formula_structural   CaYb3Y2(Si3Ru)8
_chemical_formula_sum   'Ca1 Yb3 Y2 Si24 Ru8'
_cell_volume   617.80766225
_cell_formula_units_Z   1
loop_
 _symmetry_equiv_pos_site_id
 _symmetry_equiv_pos_as_xyz
  1  'x, y, z'
loop_
 _atom_site_type_symbol
 _atom_site_label
 _atom_site_symmetry_multiplicity
 _atom_site_fract_x
 _atom_site_fract_y
 _atom_site_fract_z
 _atom_site_occupancy
  Ca  Ca0  1  0.000805  0.500805  0.250000  1
  Yb  Yb1  1  0.000074  0.000016  0.000046  1
  Yb  Yb2  1  0.500016  0.500074  0.499954  1
  Yb  Yb3  1  0.499278  0.999278  0.750000  1
  Y  Y4  1  0.999464  0.499464  0.750000  1
  Y  Y5  1  0.500340  0.000340  0.250000  1
  Si  Si6  1  0.295616  0.704974  0.999690  1
  Si  Si7  1  0.794416  0.204575  0.500421  1
  Si  Si8  1  0.704575  0.294416  0.999579  1
  Si  Si9  1  0.204974  0.795616  0.500310  1
  Si  Si10  1  0.832066  0.835352  0.332172  1
  Si  Si11  1  0.164360  0.168181  0.667949  1
  Si  Si12  1  0.668181  0.664360  0.832051  1
  Si  Si13  1  0.335352  0.332066  0.167828  1
  Si  Si14  1  0.622471  0.390341  0.230228  1
  Si  Si15  1  0.609085  0.376681  0.769728  1
  Si  Si16  1  0.108611  0.876023  0.730005  1
  Si  Si17  1  0.124927  0.892707  0.269668  1
  Si  Si18  1  0.376023  0.608611  0.769995  1
  Si  Si19  1  0.392707  0.624927  0.230332  1
  Si  Si20  1  0.890341  0.122471  0.269772  1
  Si  Si21  1  0.876681  0.109085  0.730272  1
  Si  Si22  1  0.846656  0.613654  0.005689  1
  Si  Si23  1  0.386664  0.153429  0.993707  1
  Si  Si24  1  0.885923  0.653231  0.509251  1
  Si  Si25  1  0.346399  0.113435  0.492073  1
  Si  Si26  1  0.153231  0.385923  0.990749  1
  Si  Si27  1  0.613435  0.846399  0.007927  1
  Si  Si28  1  0.113654  0.346656  0.494311  1
  Si  Si29  1  0.653429  0.886664  0.506293  1
  Ru  Ru30  1  0.171312  0.829656  0.999531  1
  Ru  Ru31  1  0.669634  0.329375  0.500387  1
  Ru  Ru32  1  0.829375  0.169634  0.999613  1
  Ru  Ru33  1  0.329656  0.671312  0.500469  1
  Ru  Ru34  1  0.626499  0.626689  0.124675  1
  Ru  Ru35  1  0.373388  0.373692  0.875270  1
  Ru  Ru36  1  0.873692  0.873388  0.624730  1
  Ru  Ru37  1  0.126689  0.126499  0.375325  1
