# generated using pymatgen
data_LaHoPa2(Al8Pt3)3
_symmetry_space_group_name_H-M   'P 1'
_cell_length_a   7.59195688
_cell_length_b   7.59837131
_cell_length_c   13.16074547
_cell_angle_alpha   84.49052623
_cell_angle_beta   78.92879133
_cell_angle_gamma   59.90971415
_symmetry_Int_Tables_number   1
_chemical_formula_structural   LaHoPa2(Al8Pt3)3
_chemical_formula_sum   'La1 Ho1 Pa2 Al24 Pt9'
_cell_volume   644.66014969
_cell_formula_units_Z   1
loop_
 _symmetry_equiv_pos_site_id
 _symmetry_equiv_pos_as_xyz
  1  'x, y, z'
loop_
 _atom_site_type_symbol
 _atom_site_label
 _atom_site_symmetry_multiplicity
 _atom_site_fract_x
 _atom_site_fract_y
 _atom_site_fract_z
 _atom_site_occupancy
  La  La0  1  0.733357  0.498389  0.809429  1
  Ho  Ho1  1  0.265730  0.501616  0.192816  1
  Pa  Pa2  1  0.396198  0.167820  0.803359  1
  Pa  Pa3  1  0.603997  0.832037  0.196135  1
  Al  Al4  1  0.683062  0.836683  0.947650  1
  Al  Al5  1  0.316229  0.166592  0.056026  1
  Al  Al6  1  0.146135  0.832559  0.559829  1
  Al  Al7  1  0.854975  0.166344  0.438197  1
  Al  Al8  1  0.480752  0.168162  0.556994  1
  Al  Al9  1  0.518807  0.832901  0.441737  1
  Al  Al10  1  0.213882  0.168712  0.330753  1
  Al  Al11  1  0.787276  0.832918  0.664900  1
  Al  Al12  1  0.437279  0.509627  0.666158  1
  Al  Al13  1  0.562226  0.490322  0.330426  1
  Al  Al14  1  0.110431  0.158305  0.664022  1
  Al  Al15  1  0.892473  0.840134  0.331703  1
  Al  Al16  1  0.349572  0.499249  0.946338  1
  Al  Al17  1  0.645427  0.500540  0.059712  1
  Al  Al18  1  0.017541  0.165370  0.955646  1
  Al  Al19  1  0.983916  0.832021  0.049174  1
  Al  Al20  1  0.185942  0.500246  0.440482  1
  Al  Al21  1  0.814710  0.499832  0.557358  1
  Al  Al22  1  0.736272  0.161769  0.183435  1
  Al  Al23  1  0.258637  0.843597  0.817238  1
  Al  Al24  1  0.067912  0.630008  0.815959  1
  Al  Al25  1  0.938325  0.368835  0.184450  1
  Al  Al26  1  0.853946  0.035037  0.816873  1
  Al  Al27  1  0.144850  0.959678  0.183339  1
  Pt  Pt28  1  0.122481  0.491228  0.638596  1
  Pt  Pt29  1  0.879014  0.509632  0.360055  1
  Pt  Pt30  1  0.656827  0.171646  0.001339  1
  Pt  Pt31  1  0.342337  0.827752  0.001159  1
  Pt  Pt32  1  0.537186  0.166016  0.360079  1
  Pt  Pt33  1  0.461248  0.835440  0.638629  1
  Pt  Pt34  1  0.778375  0.173574  0.637578  1
  Pt  Pt35  1  0.222512  0.824544  0.360869  1
  Pt  Pt36  1  0.000165  0.500866  0.001562  1
