# generated using pymatgen
data_Nd12Co(RuCl4)3
_symmetry_space_group_name_H-M   'P 1'
_cell_length_a   10.19008158
_cell_length_b   10.13650473
_cell_length_c   10.13650471
_cell_angle_alpha   109.36390749
_cell_angle_beta   109.57832358
_cell_angle_gamma   109.57832309
_symmetry_Int_Tables_number   1
_chemical_formula_structural   Nd12Co(RuCl4)3
_chemical_formula_sum   'Nd12 Co1 Ru3 Cl12'
_cell_volume   804.92693654
_cell_formula_units_Z   1
loop_
 _symmetry_equiv_pos_site_id
 _symmetry_equiv_pos_as_xyz
  1  'x, y, z'
loop_
 _atom_site_type_symbol
 _atom_site_label
 _atom_site_symmetry_multiplicity
 _atom_site_fract_x
 _atom_site_fract_y
 _atom_site_fract_z
 _atom_site_occupancy
  Nd  Nd0  1  0.472427  0.487592  0.233741  1
  Nd  Nd1  1  0.750000  0.237485  0.262515  1
  Nd  Nd2  1  0.750000  0.010521  0.489479  1
  Nd  Nd3  1  0.239479  0.478956  0.489479  1
  Nd  Nd4  1  0.261313  0.746150  0.233741  1
  Nd  Nd5  1  0.027573  0.266259  0.012408  1
  Nd  Nd6  1  0.012515  0.025031  0.262515  1
  Nd  Nd7  1  0.484837  0.746150  0.012408  1
  Nd  Nd8  1  0.487485  0.237485  0.474969  1
  Nd  Nd9  1  0.015163  0.487592  0.753850  1
  Nd  Nd10  1  0.260521  0.010521  0.021044  1
  Nd  Nd11  1  0.238687  0.266259  0.753850  1
  Co  Co12  1  0.250000  0.500000  0.000000  1
  Ru  Ru13  1  0.250000  0.251372  0.248628  1
  Ru  Ru14  1  0.498628  0.997255  0.248628  1
  Ru  Ru15  1  0.001372  0.251372  0.502745  1
  Cl  Cl16  1  0.250000  0.752472  0.747528  1
  Cl  Cl17  1  0.504459  0.503097  0.752597  1
  Cl  Cl18  1  0.995541  0.747403  0.996903  1
  Cl  Cl19  1  0.748138  0.249500  0.752597  1
  Cl  Cl20  1  0.997528  0.995055  0.747528  1
  Cl  Cl21  1  0.250000  0.997994  0.502006  1
  Cl  Cl22  1  0.752006  0.504013  0.502006  1
  Cl  Cl23  1  0.501362  0.249500  0.996903  1
  Cl  Cl24  1  0.751862  0.747403  0.250500  1
  Cl  Cl25  1  0.747994  0.997994  0.995987  1
  Cl  Cl26  1  0.998638  0.503097  0.250500  1
  Cl  Cl27  1  0.502472  0.752472  0.504945  1
