# generated using pymatgen
data_Pr3MgCd2Au3
_symmetry_space_group_name_H-M   'P 1'
_cell_length_a   7.94266700
_cell_length_b   8.01134394
_cell_length_c   4.08432000
_cell_angle_alpha   90.00000000
_cell_angle_beta   90.00000000
_cell_angle_gamma   119.71682399
_symmetry_Int_Tables_number   1
_chemical_formula_structural   Pr3MgCd2Au3
_chemical_formula_sum   'Pr3 Mg1 Cd2 Au3'
_cell_volume   225.71182473
_cell_formula_units_Z   1
loop_
 _symmetry_equiv_pos_site_id
 _symmetry_equiv_pos_as_xyz
  1  'x, y, z'
loop_
 _atom_site_type_symbol
 _atom_site_label
 _atom_site_symmetry_multiplicity
 _atom_site_fract_x
 _atom_site_fract_y
 _atom_site_fract_z
 _atom_site_occupancy
  Pr  Pr0  1  0.599801  0.000000  0.000000  1
  Pr  Pr1  1  0.994732  0.586336  0.000000  1
  Pr  Pr2  1  0.408396  0.413664  0.000000  1
  Mg  Mg3  1  0.247463  0.000000  0.500000  1
  Cd  Cd4  1  0.002504  0.256847  0.500000  1
  Cd  Cd5  1  0.745657  0.743153  0.500000  1
  Au  Au6  1  0.331990  0.676672  0.500000  1
  Au  Au7  1  0.655319  0.323328  0.500000  1
  Au  Au8  1  0.014138  0.000000  0.000000  1
