# generated using pymatgen
data_Nb12Ga8Cu3PtC4
_symmetry_space_group_name_H-M   'P 1'
_cell_length_a   8.34082371
_cell_length_b   8.32727576
_cell_length_c   8.32727500
_cell_angle_alpha   60.00000701
_cell_angle_beta   60.05372365
_cell_angle_gamma   60.05372205
_symmetry_Int_Tables_number   1
_chemical_formula_structural   Nb12Ga8Cu3PtC4
_chemical_formula_sum   'Nb12 Ga8 Cu3 Pt1 C4'
_cell_volume   409.30966561
_cell_formula_units_Z   1
loop_
 _symmetry_equiv_pos_site_id
 _symmetry_equiv_pos_as_xyz
  1  'x, y, z'
loop_
 _atom_site_type_symbol
 _atom_site_label
 _atom_site_symmetry_multiplicity
 _atom_site_fract_x
 _atom_site_fract_y
 _atom_site_fract_z
 _atom_site_occupancy
  Nb  Nb0  1  0.683394  0.316476  0.683653  1
  Nb  Nb1  1  0.934940  0.565132  0.565132  1
  Nb  Nb2  1  0.566606  0.933524  0.933524  1
  Nb  Nb3  1  0.934940  0.565132  0.934795  1
  Nb  Nb4  1  0.566606  0.566347  0.933524  1
  Nb  Nb5  1  0.934940  0.934795  0.565132  1
  Nb  Nb6  1  0.683394  0.683653  0.316476  1
  Nb  Nb7  1  0.315060  0.684868  0.684868  1
  Nb  Nb8  1  0.683394  0.316476  0.316476  1
  Nb  Nb9  1  0.315060  0.315205  0.684868  1
  Nb  Nb10  1  0.566606  0.933524  0.566347  1
  Nb  Nb11  1  0.315060  0.684868  0.315205  1
  Ga  Ga12  1  0.329481  0.338434  0.338434  1
  Ga  Ga13  1  0.255735  0.914754  0.914754  1
  Ga  Ga14  1  0.920519  0.256349  0.911566  1
  Ga  Ga15  1  0.920519  0.911566  0.256349  1
  Ga  Ga16  1  0.329481  0.993651  0.338434  1
  Ga  Ga17  1  0.329481  0.338434  0.993651  1
  Ga  Ga18  1  0.994265  0.335246  0.335246  1
  Ga  Ga19  1  0.920519  0.911566  0.911566  1
  Cu  Cu20  1  0.125000  0.125000  0.125000  1
  Cu  Cu21  1  0.125000  0.625000  0.125000  1
  Cu  Cu22  1  0.125000  0.125000  0.625000  1
  Pt  Pt23  1  0.625000  0.125000  0.125000  1
  C  C24  1  0.625000  0.625000  0.625000  1
  C  C25  1  0.125000  0.625000  0.625000  1
  C  C26  1  0.625000  0.125000  0.625000  1
  C  C27  1  0.625000  0.625000  0.125000  1
