# generated using pymatgen
data_YbZn3InIr
_symmetry_space_group_name_H-M   'P 1'
_cell_length_a   5.34041213
_cell_length_b   5.34041242
_cell_length_c   5.26623974
_cell_angle_alpha   59.53299419
_cell_angle_beta   59.53299738
_cell_angle_gamma   60.00001475
_symmetry_Int_Tables_number   1
_chemical_formula_structural   YbZn3InIr
_chemical_formula_sum   'Yb1 Zn3 In1 Ir1'
_cell_volume   105.44678039
_cell_formula_units_Z   1
loop_
 _symmetry_equiv_pos_site_id
 _symmetry_equiv_pos_as_xyz
  1  'x, y, z'
loop_
 _atom_site_type_symbol
 _atom_site_label
 _atom_site_symmetry_multiplicity
 _atom_site_fract_x
 _atom_site_fract_y
 _atom_site_fract_z
 _atom_site_occupancy
  Yb  Yb0  1  0.998085  0.998085  0.005745  1
  Zn  Zn1  1  0.623903  0.125469  0.626725  1
  Zn  Zn2  1  0.125469  0.623903  0.626725  1
  Zn  Zn3  1  0.623903  0.623903  0.626725  1
  In  In4  1  0.253686  0.253686  0.238941  1
  Ir  Ir5  1  0.624952  0.624952  0.125141  1
