# generated using pymatgen
data_HoGeF7
_symmetry_space_group_name_H-M   'P 1'
_cell_length_a   5.40233200
_cell_length_b   8.68756116
_cell_length_c   11.64601693
_cell_angle_alpha   62.24172172
_cell_angle_beta   90.00000000
_cell_angle_gamma   90.00000000
_symmetry_Int_Tables_number   1
_chemical_formula_structural   HoGeF7
_chemical_formula_sum   'Ho4 Ge4 F28'
_cell_volume   483.68291486
_cell_formula_units_Z   4
loop_
 _symmetry_equiv_pos_site_id
 _symmetry_equiv_pos_as_xyz
  1  'x, y, z'
loop_
 _atom_site_type_symbol
 _atom_site_label
 _atom_site_symmetry_multiplicity
 _atom_site_fract_x
 _atom_site_fract_y
 _atom_site_fract_z
 _atom_site_occupancy
  Ho  Ho0  1  0.760762  0.811395  0.764060  1
  Ho  Ho1  1  0.260762  0.188605  0.735940  1
  Ho  Ho2  1  0.239238  0.188605  0.235940  1
  Ho  Ho3  1  0.739238  0.811395  0.264060  1
  Ge  Ge4  1  0.757643  0.273985  0.957165  1
  Ge  Ge5  1  0.257643  0.726015  0.542835  1
  Ge  Ge6  1  0.242357  0.726015  0.042835  1
  Ge  Ge7  1  0.742357  0.273985  0.457165  1
  F  F8  1  0.433202  0.705957  0.921374  1
  F  F9  1  0.933202  0.294043  0.578626  1
  F  F10  1  0.566798  0.294043  0.078626  1
  F  F11  1  0.066798  0.705957  0.421374  1
  F  F12  1  0.455440  0.280536  0.540422  1
  F  F13  1  0.955440  0.719464  0.959578  1
  F  F14  1  0.544560  0.719464  0.459578  1
  F  F15  1  0.044560  0.280536  0.040422  1
  F  F16  1  0.772988  0.510361  0.863093  1
  F  F17  1  0.272988  0.489639  0.636907  1
  F  F18  1  0.227012  0.489639  0.136907  1
  F  F19  1  0.727012  0.510361  0.363093  1
  F  F20  1  0.759537  0.037510  0.047710  1
  F  F21  1  0.259537  0.962490  0.452290  1
  F  F22  1  0.240463  0.962490  0.952290  1
  F  F23  1  0.740463  0.037510  0.547710  1
  F  F24  1  0.980843  0.727465  0.632916  1
  F  F25  1  0.480843  0.272535  0.867084  1
  F  F26  1  0.019157  0.272535  0.367084  1
  F  F27  1  0.519157  0.727465  0.132916  1
  F  F28  1  0.053839  0.741551  0.168950  1
  F  F29  1  0.553839  0.258449  0.331050  1
  F  F30  1  0.946161  0.258449  0.831050  1
  F  F31  1  0.446161  0.741551  0.668950  1
  F  F32  1  0.404331  0.968307  0.227539  1
  F  F33  1  0.904331  0.031693  0.272461  1
  F  F34  1  0.595669  0.031693  0.772461  1
  F  F35  1  0.095669  0.968307  0.727539  1
