# generated using pymatgen
data_Cs5(WSe4)2
_symmetry_space_group_name_H-M   'P 1'
_cell_length_a   12.84326250
_cell_length_b   12.84326147
_cell_length_c   12.84680237
_cell_angle_alpha   132.81616011
_cell_angle_beta   127.48820216
_cell_angle_gamma   73.22575841
_symmetry_Int_Tables_number   1
_chemical_formula_structural   Cs5(WSe4)2
_chemical_formula_sum   'Cs10 W4 Se16'
_cell_volume   1204.60592258
_cell_formula_units_Z   2
loop_
 _symmetry_equiv_pos_site_id
 _symmetry_equiv_pos_as_xyz
  1  'x, y, z'
loop_
 _atom_site_type_symbol
 _atom_site_label
 _atom_site_symmetry_multiplicity
 _atom_site_fract_x
 _atom_site_fract_y
 _atom_site_fract_z
 _atom_site_occupancy
  Cs  Cs0  1  0.497110  0.247110  0.250000  1
  Cs  Cs1  1  0.002903  0.752903  0.250000  1
  Cs  Cs2  1  0.575185  0.717366  0.142262  1
  Cs  Cs3  1  0.424815  0.282634  0.857738  1
  Cs  Cs4  1  0.502890  0.752890  0.750000  1
  Cs  Cs5  1  0.075104  0.432923  0.357738  1
  Cs  Cs6  1  0.924896  0.567077  0.642262  1
  Cs  Cs7  1  0.997097  0.247097  0.750000  1
  Cs  Cs8  1  0.249958  0.999958  0.250000  1
  Cs  Cs9  1  0.750042  0.000042  0.750000  1
  W  W10  1  0.136069  0.915702  0.779801  1
  W  W11  1  0.863931  0.084298  0.220199  1
  W  W12  1  0.364098  0.643731  0.279801  1
  W  W13  1  0.635902  0.356269  0.720199  1
  Se  Se14  1  0.579752  0.594133  0.353975  1
  Se  Se15  1  0.750339  0.000629  0.250124  1
  Se  Se16  1  0.885022  0.880047  0.994980  1
  Se  Se17  1  0.759575  0.405830  0.985313  1
  Se  Se18  1  0.740158  0.225777  0.146025  1
  Se  Se19  1  0.749496  0.499785  0.750124  1
  Se  Se20  1  0.249661  0.999371  0.749876  1
  Se  Se21  1  0.240425  0.594170  0.014687  1
  Se  Se22  1  0.250504  0.500215  0.249876  1
  Se  Se23  1  0.259842  0.774223  0.853975  1
  Se  Se24  1  0.114978  0.119953  0.005020  1
  Se  Se25  1  0.920516  0.774263  0.514687  1
  Se  Se26  1  0.079484  0.225737  0.485313  1
  Se  Se27  1  0.614933  0.109958  0.494980  1
  Se  Se28  1  0.420248  0.405867  0.646025  1
  Se  Se29  1  0.385067  0.890042  0.505020  1
