# generated using pymatgen
data_TbY12Th3(MgIr)4
_symmetry_space_group_name_H-M   'P 1'
_cell_length_a   9.81899883
_cell_length_b   9.82758632
_cell_length_c   9.82758600
_cell_angle_alpha   60.00000108
_cell_angle_beta   59.97106603
_cell_angle_gamma   59.97106867
_symmetry_Int_Tables_number   1
_chemical_formula_structural   TbY12Th3(MgIr)4
_chemical_formula_sum   'Tb1 Y12 Th3 Mg4 Ir4'
_cell_volume   670.27939878
_cell_formula_units_Z   1
loop_
 _symmetry_equiv_pos_site_id
 _symmetry_equiv_pos_as_xyz
  1  'x, y, z'
loop_
 _atom_site_type_symbol
 _atom_site_label
 _atom_site_symmetry_multiplicity
 _atom_site_fract_x
 _atom_site_fract_y
 _atom_site_fract_z
 _atom_site_occupancy
  Tb  Tb0  1  0.205017  0.598328  0.598328  1
  Y  Y1  1  0.062517  0.438190  0.438190  1
  Y  Y2  1  0.437596  0.062792  0.062792  1
  Y  Y3  1  0.437596  0.062792  0.436820  1
  Y  Y4  1  0.062517  0.438190  0.061104  1
  Y  Y5  1  0.437596  0.436820  0.062792  1
  Y  Y6  1  0.062517  0.061104  0.438190  1
  Y  Y7  1  0.186316  0.813932  0.813932  1
  Y  Y8  1  0.814439  0.185360  0.185360  1
  Y  Y9  1  0.814439  0.185360  0.814841  1
  Y  Y10  1  0.186316  0.813932  0.185821  1
  Y  Y11  1  0.814439  0.814841  0.185360  1
  Y  Y12  1  0.186316  0.185821  0.813932  1
  Th  Th13  1  0.595664  0.598020  0.598020  1
  Th  Th14  1  0.595664  0.598020  0.208296  1
  Th  Th15  1  0.595664  0.208296  0.598020  1
  Mg  Mg16  1  0.830598  0.829866  0.829866  1
  Mg  Mg17  1  0.830598  0.829866  0.509671  1
  Mg  Mg18  1  0.830598  0.509671  0.829866  1
  Mg  Mg19  1  0.507944  0.830686  0.830686  1
  Ir  Ir20  1  0.395349  0.391671  0.391671  1
  Ir  Ir21  1  0.395349  0.391671  0.821309  1
  Ir  Ir22  1  0.395349  0.821309  0.391671  1
  Ir  Ir23  1  0.819602  0.393466  0.393466  1
