# generated using pymatgen
data_SmDy3(Zn5Ge)2
_symmetry_space_group_name_H-M   'P 1'
_cell_length_a   8.25321307
_cell_length_b   8.25321345
_cell_length_c   8.83276600
_cell_angle_alpha   90.32290607
_cell_angle_beta   89.67709392
_cell_angle_gamma   149.53714033
_symmetry_Int_Tables_number   1
_chemical_formula_structural   SmDy3(Zn5Ge)2
_chemical_formula_sum   'Sm1 Dy3 Zn10 Ge2'
_cell_volume   305.01840587
_cell_formula_units_Z   1
loop_
 _symmetry_equiv_pos_site_id
 _symmetry_equiv_pos_as_xyz
  1  'x, y, z'
loop_
 _atom_site_type_symbol
 _atom_site_label
 _atom_site_symmetry_multiplicity
 _atom_site_fract_x
 _atom_site_fract_y
 _atom_site_fract_z
 _atom_site_occupancy
  Sm  Sm0  1  0.000000  0.000000  0.000000  1
  Dy  Dy1  1  0.199906  0.800094  0.252138  1
  Dy  Dy2  1  0.800094  0.199906  0.747862  1
  Dy  Dy3  1  0.000000  0.000000  0.500000  1
  Zn  Zn4  1  0.813619  0.186381  0.391180  1
  Zn  Zn5  1  0.186381  0.813619  0.608820  1
  Zn  Zn6  1  0.811488  0.188512  0.106029  1
  Zn  Zn7  1  0.188512  0.811488  0.893971  1
  Zn  Zn8  1  0.651509  0.348491  0.478210  1
  Zn  Zn9  1  0.348491  0.651509  0.521790  1
  Zn  Zn10  1  0.651765  0.348235  0.024405  1
  Zn  Zn11  1  0.348235  0.651765  0.975595  1
  Zn  Zn12  1  0.399727  0.600273  0.249188  1
  Zn  Zn13  1  0.600273  0.399727  0.750812  1
  Ge  Ge14  1  0.555276  0.444724  0.253102  1
  Ge  Ge15  1  0.444724  0.555276  0.746898  1
