# generated using pymatgen
data_Er4MgPt10Au
_symmetry_space_group_name_H-M   'P 1'
_cell_length_a   4.20926500
_cell_length_b   5.82749598
_cell_length_c   11.65411800
_cell_angle_alpha   86.97463360
_cell_angle_beta   90.00000000
_cell_angle_gamma   90.00000000
_symmetry_Int_Tables_number   1
_chemical_formula_structural   Er4MgPt10Au
_chemical_formula_sum   'Er4 Mg1 Pt10 Au1'
_cell_volume   285.47096864
_cell_formula_units_Z   1
loop_
 _symmetry_equiv_pos_site_id
 _symmetry_equiv_pos_as_xyz
  1  'x, y, z'
loop_
 _atom_site_type_symbol
 _atom_site_label
 _atom_site_symmetry_multiplicity
 _atom_site_fract_x
 _atom_site_fract_y
 _atom_site_fract_z
 _atom_site_occupancy
  Er  Er0  1  0.500000  0.748741  0.370500  1
  Er  Er1  1  0.500000  0.720957  0.864421  1
  Er  Er2  1  0.500000  0.279043  0.135579  1
  Er  Er3  1  0.500000  0.251259  0.629500  1
  Mg  Mg4  1  0.000000  0.000000  0.000000  1
  Pt  Pt5  1  0.000000  0.011907  0.247137  1
  Pt  Pt6  1  0.000000  0.988093  0.752863  1
  Pt  Pt7  1  0.000000  0.500000  0.000000  1
  Pt  Pt8  1  0.000000  0.500000  0.500000  1
  Pt  Pt9  1  0.000000  0.513502  0.249989  1
  Pt  Pt10  1  0.000000  0.486498  0.750011  1
  Pt  Pt11  1  0.500000  0.252941  0.378063  1
  Pt  Pt12  1  0.500000  0.227028  0.882050  1
  Pt  Pt13  1  0.500000  0.772972  0.117950  1
  Pt  Pt14  1  0.500000  0.747059  0.621937  1
  Au  Au15  1  0.000000  0.000000  0.500000  1
