# generated using pymatgen
data_Tb16Al4CoRu3
_symmetry_space_group_name_H-M   'P 1'
_cell_length_a   9.52894577
_cell_length_b   9.52894667
_cell_length_c   9.50256373
_cell_angle_alpha   59.90811297
_cell_angle_beta   59.90811252
_cell_angle_gamma   60.00000722
_symmetry_Int_Tables_number   1
_chemical_formula_structural   Tb16Al4CoRu3
_chemical_formula_sum   'Tb16 Al4 Co1 Ru3'
_cell_volume   609.27167625
_cell_formula_units_Z   1
loop_
 _symmetry_equiv_pos_site_id
 _symmetry_equiv_pos_as_xyz
  1  'x, y, z'
loop_
 _atom_site_type_symbol
 _atom_site_label
 _atom_site_symmetry_multiplicity
 _atom_site_fract_x
 _atom_site_fract_y
 _atom_site_fract_z
 _atom_site_occupancy
  Tb  Tb0  1  0.442570  0.442570  0.054541  1
  Tb  Tb1  1  0.598350  0.598350  0.603888  1
  Tb  Tb2  1  0.187306  0.814037  0.811351  1
  Tb  Tb3  1  0.056209  0.056209  0.443382  1
  Tb  Tb4  1  0.442570  0.060318  0.054541  1
  Tb  Tb5  1  0.814037  0.187306  0.811351  1
  Tb  Tb6  1  0.444201  0.056209  0.443382  1
  Tb  Tb7  1  0.598350  0.199410  0.603888  1
  Tb  Tb8  1  0.811091  0.811091  0.189199  1
  Tb  Tb9  1  0.199410  0.598350  0.603888  1
  Tb  Tb10  1  0.811091  0.188618  0.189199  1
  Tb  Tb11  1  0.056209  0.444201  0.443382  1
  Tb  Tb12  1  0.188618  0.811091  0.189199  1
  Tb  Tb13  1  0.601648  0.601648  0.195054  1
  Tb  Tb14  1  0.187306  0.187306  0.811351  1
  Tb  Tb15  1  0.060318  0.442570  0.054541  1
  Al  Al16  1  0.826055  0.826055  0.521835  1
  Al  Al17  1  0.826698  0.826698  0.825807  1
  Al  Al18  1  0.520795  0.826698  0.825807  1
  Al  Al19  1  0.826698  0.520795  0.825807  1
  Co  Co20  1  0.390523  0.390523  0.828434  1
  Ru  Ru21  1  0.390888  0.390888  0.390057  1
  Ru  Ru22  1  0.828167  0.390888  0.390057  1
  Ru  Ru23  1  0.390888  0.828167  0.390057  1
