# generated using pymatgen
data_Ce4Dy5Ho(AgSn3)2
_symmetry_space_group_name_H-M   'P 1'
_cell_length_a   6.41095600
_cell_length_b   9.42792427
_cell_length_c   9.42754600
_cell_angle_alpha   120.00133002
_cell_angle_beta   90.00000000
_cell_angle_gamma   90.00000000
_symmetry_Int_Tables_number   1
_chemical_formula_structural   Ce4Dy5Ho(AgSn3)2
_chemical_formula_sum   'Ce4 Dy5 Ho1 Ag2 Sn6'
_cell_volume   493.47181523
_cell_formula_units_Z   1
loop_
 _symmetry_equiv_pos_site_id
 _symmetry_equiv_pos_as_xyz
  1  'x, y, z'
loop_
 _atom_site_type_symbol
 _atom_site_label
 _atom_site_symmetry_multiplicity
 _atom_site_fract_x
 _atom_site_fract_y
 _atom_site_fract_z
 _atom_site_occupancy
  Ce  Ce0  1  0.000121  0.666529  0.333373  1
  Ce  Ce1  1  0.000121  0.333155  0.666627  1
  Ce  Ce2  1  0.499879  0.333155  0.666627  1
  Ce  Ce3  1  0.499879  0.666529  0.333373  1
  Dy  Dy4  1  0.750000  0.722187  0.722194  1
  Dy  Dy5  1  0.250000  0.278148  0.277937  1
  Dy  Dy6  1  0.750000  0.999993  0.277806  1
  Dy  Dy7  1  0.250000  0.000211  0.722063  1
  Dy  Dy8  1  0.750000  0.277802  0.000000  1
  Ho  Ho9  1  0.250000  0.722138  0.000000  1
  Ag  Ag10  1  0.000503  0.999677  0.000000  1
  Ag  Ag11  1  0.499497  0.999677  0.000000  1
  Sn  Sn12  1  0.750000  0.373440  0.373425  1
  Sn  Sn13  1  0.250000  0.626911  0.627094  1
  Sn  Sn14  1  0.750000  0.000015  0.626575  1
  Sn  Sn15  1  0.250000  0.999817  0.372906  1
  Sn  Sn16  1  0.750000  0.626683  0.000000  1
  Sn  Sn17  1  0.250000  0.373934  0.000000  1
