# generated using pymatgen
data_Li2Yb2ScAlSn3
_symmetry_space_group_name_H-M   'P 1'
_cell_length_a   7.27783887
_cell_length_b   7.52907657
_cell_length_c   4.54015000
_cell_angle_alpha   90.00000000
_cell_angle_beta   90.00000000
_cell_angle_gamma   121.38516487
_symmetry_Int_Tables_number   1
_chemical_formula_structural   Li2Yb2ScAlSn3
_chemical_formula_sum   'Li2 Yb2 Sc1 Al1 Sn3'
_cell_volume   212.37937713
_cell_formula_units_Z   1
loop_
 _symmetry_equiv_pos_site_id
 _symmetry_equiv_pos_as_xyz
  1  'x, y, z'
loop_
 _atom_site_type_symbol
 _atom_site_label
 _atom_site_symmetry_multiplicity
 _atom_site_fract_x
 _atom_site_fract_y
 _atom_site_fract_z
 _atom_site_occupancy
  Li  Li0  1  0.239256  0.993339  0.500000  1
  Li  Li1  1  0.998057  0.234378  0.500000  1
  Yb  Yb2  1  0.431458  0.436430  0.000000  1
  Yb  Yb3  1  0.567191  0.007340  0.000000  1
  Sc  Sc4  1  0.005941  0.580957  0.000000  1
  Al  Al5  1  0.753322  0.753871  0.500000  1
  Sn  Sn6  1  0.317579  0.661603  0.500000  1
  Sn  Sn7  1  0.689467  0.352429  0.500000  1
  Sn  Sn8  1  0.997730  0.979655  0.000000  1
