# generated using pymatgen
data_TaNb4(CoB)5
_symmetry_space_group_name_H-M   'P 1'
_cell_length_a   3.28664500
_cell_length_b   5.93081900
_cell_length_c   17.04375300
_cell_angle_alpha   90.00000000
_cell_angle_beta   90.00000000
_cell_angle_gamma   90.00000000
_symmetry_Int_Tables_number   1
_chemical_formula_structural   TaNb4(CoB)5
_chemical_formula_sum   'Ta2 Nb8 Co10 B10'
_cell_volume   332.22529761
_cell_formula_units_Z   2
loop_
 _symmetry_equiv_pos_site_id
 _symmetry_equiv_pos_as_xyz
  1  'x, y, z'
loop_
 _atom_site_type_symbol
 _atom_site_label
 _atom_site_symmetry_multiplicity
 _atom_site_fract_x
 _atom_site_fract_y
 _atom_site_fract_z
 _atom_site_occupancy
  Ta  Ta0  1  0.500000  0.022104  0.124530  1
  Ta  Ta1  1  0.500000  0.022104  0.875470  1
  Nb  Nb2  1  0.000000  0.472804  0.320561  1
  Nb  Nb3  1  0.000000  0.472804  0.679439  1
  Nb  Nb4  1  0.500000  0.527614  0.179107  1
  Nb  Nb5  1  0.500000  0.527614  0.820893  1
  Nb  Nb6  1  0.000000  0.977884  0.375224  1
  Nb  Nb7  1  0.000000  0.977884  0.624776  1
  Nb  Nb8  1  0.000000  0.354491  0.500000  1
  Nb  Nb9  1  0.500000  0.644945  0.000000  1
  Co  Co10  1  0.000000  0.857342  0.225728  1
  Co  Co11  1  0.000000  0.857342  0.774272  1
  Co  Co12  1  0.500000  0.143941  0.272870  1
  Co  Co13  1  0.500000  0.143941  0.727130  1
  Co  Co14  1  0.000000  0.348254  0.071386  1
  Co  Co15  1  0.000000  0.348254  0.928614  1
  Co  Co16  1  0.500000  0.650121  0.428649  1
  Co  Co17  1  0.500000  0.650121  0.571351  1
  Co  Co18  1  0.000000  0.994944  0.000000  1
  Co  Co19  1  0.500000  0.005131  0.500000  1
  B  B20  1  0.000000  0.229143  0.202164  1
  B  B21  1  0.000000  0.229143  0.797836  1
  B  B22  1  0.500000  0.771214  0.297181  1
  B  B23  1  0.500000  0.771214  0.702819  1
  B  B24  1  0.000000  0.730458  0.100979  1
  B  B25  1  0.000000  0.730458  0.899021  1
  B  B26  1  0.500000  0.269954  0.398726  1
  B  B27  1  0.500000  0.269954  0.601274  1
  B  B28  1  0.000000  0.765904  0.500000  1
  B  B29  1  0.500000  0.232917  0.000000  1
