# generated using pymatgen
data_MnVAsF12
_symmetry_space_group_name_H-M   'P 1'
_cell_length_a   5.50363195
_cell_length_b   11.03508478
_cell_length_c   5.50534168
_cell_angle_alpha   58.00021741
_cell_angle_beta   57.80785707
_cell_angle_gamma   57.86689354
_symmetry_Int_Tables_number   1
_chemical_formula_structural   MnVAsF12
_chemical_formula_sum   'Mn1 V1 As1 F12'
_cell_volume   224.98319502
_cell_formula_units_Z   1
loop_
 _symmetry_equiv_pos_site_id
 _symmetry_equiv_pos_as_xyz
  1  'x, y, z'
loop_
 _atom_site_type_symbol
 _atom_site_label
 _atom_site_symmetry_multiplicity
 _atom_site_fract_x
 _atom_site_fract_y
 _atom_site_fract_z
 _atom_site_occupancy
  Mn  Mn0  1  0.501677  0.751035  0.496510  1
  V  V1  1  0.000680  0.489441  0.013474  1
  As  As2  1  0.002179  0.007237  0.988641  1
  F  F3  1  0.328845  0.055432  0.783657  1
  F  F4  1  0.312042  0.576092  0.768359  1
  F  F5  1  0.132030  0.391685  0.319414  1
  F  F6  1  0.130216  0.884111  0.317944  1
  F  F7  1  0.227763  0.344853  0.856811  1
  F  F8  1  0.220152  0.837462  0.874685  1
  F  F9  1  0.877130  0.105214  0.682148  1
  F  F10  1  0.854082  0.619500  0.681269  1
  F  F11  1  0.673913  0.437515  0.223196  1
  F  F12  1  0.688196  0.932592  0.221680  1
  F  F13  1  0.782159  0.153984  0.134306  1
  F  F14  1  0.768938  0.663846  0.137905  1
