# generated using pymatgen
data_Zr4CuIr3O
_symmetry_space_group_name_H-M   'P 1'
_cell_length_a   7.98251700
_cell_length_b   7.98251768
_cell_length_c   5.33378800
_cell_angle_alpha   90.00000000
_cell_angle_beta   90.00000000
_cell_angle_gamma   120.00000134
_symmetry_Int_Tables_number   1
_chemical_formula_structural   Zr4CuIr3O
_chemical_formula_sum   'Zr8 Cu2 Ir6 O2'
_cell_volume   294.33785240
_cell_formula_units_Z   2
loop_
 _symmetry_equiv_pos_site_id
 _symmetry_equiv_pos_as_xyz
  1  'x, y, z'
loop_
 _atom_site_type_symbol
 _atom_site_label
 _atom_site_symmetry_multiplicity
 _atom_site_fract_x
 _atom_site_fract_y
 _atom_site_fract_z
 _atom_site_occupancy
  Zr  Zr0  1  0.243133  0.000000  0.748609  1
  Zr  Zr1  1  0.756867  0.000000  0.251391  1
  Zr  Zr2  1  0.000000  0.243133  0.748609  1
  Zr  Zr3  1  0.000000  0.756867  0.251391  1
  Zr  Zr4  1  0.756867  0.756867  0.748609  1
  Zr  Zr5  1  0.243133  0.243133  0.251391  1
  Zr  Zr6  1  0.666667  0.333333  0.000000  1
  Zr  Zr7  1  0.333333  0.666667  0.000000  1
  Cu  Cu8  1  0.333333  0.666667  0.500000  1
  Cu  Cu9  1  0.666667  0.333333  0.500000  1
  Ir  Ir10  1  0.595706  0.000000  0.742022  1
  Ir  Ir11  1  0.404294  0.000000  0.257978  1
  Ir  Ir12  1  0.000000  0.595706  0.742022  1
  Ir  Ir13  1  0.000000  0.404294  0.257978  1
  Ir  Ir14  1  0.404294  0.404294  0.742022  1
  Ir  Ir15  1  0.595706  0.595706  0.257978  1
  O  O16  1  0.000000  0.000000  0.500000  1
  O  O17  1  0.000000  0.000000  0.000000  1
