# generated using pymatgen
data_TbNdHo4CoCl10
_symmetry_space_group_name_H-M   'P 1'
_cell_length_a   7.10408886
_cell_length_b   8.88407151
_cell_length_c   8.88735596
_cell_angle_alpha   108.55600836
_cell_angle_beta   95.77398700
_cell_angle_gamma   106.82613440
_symmetry_Int_Tables_number   1
_chemical_formula_structural   TbNdHo4CoCl10
_chemical_formula_sum   'Tb1 Nd1 Ho4 Co1 Cl10'
_cell_volume   497.37247476
_cell_formula_units_Z   1
loop_
 _symmetry_equiv_pos_site_id
 _symmetry_equiv_pos_as_xyz
  1  'x, y, z'
loop_
 _atom_site_type_symbol
 _atom_site_label
 _atom_site_symmetry_multiplicity
 _atom_site_fract_x
 _atom_site_fract_y
 _atom_site_fract_z
 _atom_site_occupancy
  Tb  Tb0  1  0.368825  0.948354  0.235630  1
  Nd  Nd1  1  0.633907  0.053068  0.757230  1
  Ho  Ho2  1  0.863266  0.140324  0.184822  1
  Ho  Ho3  1  0.136864  0.859122  0.814348  1
  Ho  Ho4  1  0.524337  0.695623  0.900506  1
  Ho  Ho5  1  0.474863  0.305040  0.103609  1
  Co  Co6  1  0.500941  0.000944  0.998821  1
  Cl  Cl7  1  0.741873  0.079178  0.442818  1
  Cl  Cl8  1  0.246098  0.916073  0.546490  1
  Cl  Cl9  1  0.951741  0.829647  0.077111  1
  Cl  Cl10  1  0.057319  0.173878  0.928417  1
  Cl  Cl11  1  0.284772  0.250170  0.342235  1
  Cl  Cl12  1  0.717810  0.739434  0.660194  1
  Cl  Cl13  1  0.585768  0.379708  0.844662  1
  Cl  Cl14  1  0.410656  0.629742  0.162687  1
  Cl  Cl15  1  0.851548  0.451388  0.274816  1
  Cl  Cl16  1  0.149414  0.548306  0.725603  1
