# generated using pymatgen
data_Th2TaNb(SbO7)2
_symmetry_space_group_name_H-M   'P 1'
_cell_length_a   8.04670181
_cell_length_b   8.04670247
_cell_length_c   8.47641021
_cell_angle_alpha   85.13774263
_cell_angle_beta   85.13774258
_cell_angle_gamma   28.28809404
_symmetry_Int_Tables_number   1
_chemical_formula_structural   Th2TaNb(SbO7)2
_chemical_formula_sum   'Th2 Ta1 Nb1 Sb2 O14'
_cell_volume   259.10382313
_cell_formula_units_Z   1
loop_
 _symmetry_equiv_pos_site_id
 _symmetry_equiv_pos_as_xyz
  1  'x, y, z'
loop_
 _atom_site_type_symbol
 _atom_site_label
 _atom_site_symmetry_multiplicity
 _atom_site_fract_x
 _atom_site_fract_y
 _atom_site_fract_z
 _atom_site_occupancy
  Th  Th0  1  0.312891  0.312891  0.667994  1
  Th  Th1  1  0.686795  0.686795  0.332316  1
  Ta  Ta2  1  0.926764  0.926764  0.371026  1
  Nb  Nb3  1  0.072871  0.072871  0.629176  1
  Sb  Sb4  1  0.105948  0.105948  0.014661  1
  Sb  Sb5  1  0.893691  0.893691  0.986108  1
  O  O6  1  0.013546  0.013546  0.858043  1
  O  O7  1  0.985980  0.985980  0.143285  1
  O  O8  1  0.055129  0.055129  0.388982  1
  O  O9  1  0.944091  0.944091  0.609555  1
  O  O10  1  0.390850  0.390850  0.933232  1
  O  O11  1  0.609089  0.609089  0.066809  1
  O  O12  1  0.586338  0.586338  0.605483  1
  O  O13  1  0.414511  0.414511  0.393218  1
  O  O14  1  0.804727  0.804727  0.499391  1
  O  O15  1  0.196199  0.196199  0.499069  1
  O  O16  1  0.806148  0.806148  0.832572  1
  O  O17  1  0.193896  0.193896  0.167478  1
  O  O18  1  0.831277  0.831277  0.200749  1
  O  O19  1  0.169257  0.169257  0.800854  1
