# generated using pymatgen
data_Ca2Pr3Pb3Au
_symmetry_space_group_name_H-M   'P 1'
_cell_length_a   9.64712100
_cell_length_b   9.64712287
_cell_length_c   7.00529200
_cell_angle_alpha   90.00000000
_cell_angle_beta   90.00000000
_cell_angle_gamma   120.00001758
_symmetry_Int_Tables_number   1
_chemical_formula_structural   Ca2Pr3Pb3Au
_chemical_formula_sum   'Ca4 Pr6 Pb6 Au2'
_cell_volume   564.61489771
_cell_formula_units_Z   2
loop_
 _symmetry_equiv_pos_site_id
 _symmetry_equiv_pos_as_xyz
  1  'x, y, z'
loop_
 _atom_site_type_symbol
 _atom_site_label
 _atom_site_symmetry_multiplicity
 _atom_site_fract_x
 _atom_site_fract_y
 _atom_site_fract_z
 _atom_site_occupancy
  Ca  Ca0  1  0.666667  0.333333  0.500000  1
  Ca  Ca1  1  0.333333  0.666667  0.500000  1
  Ca  Ca2  1  0.333333  0.666667  0.000000  1
  Ca  Ca3  1  0.666667  0.333333  0.000000  1
  Pr  Pr4  1  0.729809  0.729809  0.250000  1
  Pr  Pr5  1  0.270191  0.000000  0.250000  1
  Pr  Pr6  1  0.000000  0.270191  0.250000  1
  Pr  Pr7  1  0.270191  0.270191  0.750000  1
  Pr  Pr8  1  0.729809  0.000000  0.750000  1
  Pr  Pr9  1  0.000000  0.729809  0.750000  1
  Pb  Pb10  1  0.380488  0.380488  0.250000  1
  Pb  Pb11  1  0.619512  0.000000  0.250000  1
  Pb  Pb12  1  0.000000  0.619512  0.250000  1
  Pb  Pb13  1  0.619512  0.619512  0.750000  1
  Pb  Pb14  1  0.380488  0.000000  0.750000  1
  Pb  Pb15  1  0.000000  0.380488  0.750000  1
  Au  Au16  1  0.000000  0.000000  0.500000  1
  Au  Au17  1  0.000000  0.000000  0.000000  1
