# generated using pymatgen
data_Dy4AgPt
_symmetry_space_group_name_H-M   'P 1'
_cell_length_a   9.57546943
_cell_length_b   9.61593142
_cell_length_c   9.57552200
_cell_angle_alpha   60.13912204
_cell_angle_beta   60.00006842
_cell_angle_gamma   60.13895710
_symmetry_Int_Tables_number   1
_chemical_formula_structural   Dy4AgPt
_chemical_formula_sum   'Dy16 Ag4 Pt4'
_cell_volume   624.75340786
_cell_formula_units_Z   4
loop_
 _symmetry_equiv_pos_site_id
 _symmetry_equiv_pos_as_xyz
  1  'x, y, z'
loop_
 _atom_site_type_symbol
 _atom_site_label
 _atom_site_symmetry_multiplicity
 _atom_site_fract_x
 _atom_site_fract_y
 _atom_site_fract_z
 _atom_site_occupancy
  Dy  Dy0  1  0.354524  0.356092  0.354523  1
  Dy  Dy1  1  0.354523  0.356092  0.934859  1
  Dy  Dy2  1  0.356175  0.931473  0.356174  1
  Dy  Dy3  1  0.934861  0.356091  0.354522  1
  Dy  Dy4  1  0.810746  0.188743  0.189762  1
  Dy  Dy5  1  0.189236  0.811059  0.810465  1
  Dy  Dy6  1  0.189237  0.811060  0.189235  1
  Dy  Dy7  1  0.810745  0.188742  0.810746  1
  Dy  Dy8  1  0.189763  0.188741  0.810746  1
  Dy  Dy9  1  0.810464  0.811060  0.189236  1
  Dy  Dy10  1  0.935001  0.565108  0.564887  1
  Dy  Dy11  1  0.564838  0.934902  0.935419  1
  Dy  Dy12  1  0.564837  0.934903  0.564837  1
  Dy  Dy13  1  0.935001  0.565109  0.935000  1
  Dy  Dy14  1  0.564886  0.565108  0.935001  1
  Dy  Dy15  1  0.935420  0.934903  0.564836  1
  Ag  Ag16  1  0.583076  0.583170  0.583081  1
  Ag  Ag17  1  0.583082  0.583176  0.250682  1
  Ag  Ag18  1  0.582930  0.251238  0.582930  1
  Ag  Ag19  1  0.250683  0.583176  0.583081  1
  Pt  Pt20  1  0.144953  0.144170  0.144952  1
  Pt  Pt21  1  0.144953  0.144171  0.565920  1
  Pt  Pt22  1  0.144150  0.567544  0.144152  1
  Pt  Pt23  1  0.565918  0.144171  0.144953  1
