# generated using pymatgen
data_Nd3CI3
_symmetry_space_group_name_H-M   'P 1'
_cell_length_a   4.03578600
_cell_length_b   9.00645641
_cell_length_c   12.18409008
_cell_angle_alpha   92.68677383
_cell_angle_beta   90.00000000
_cell_angle_gamma   90.00000000
_symmetry_Int_Tables_number   1
_chemical_formula_structural   Nd3CI3
_chemical_formula_sum   'Nd6 C2 I6'
_cell_volume   442.38206272
_cell_formula_units_Z   2
loop_
 _symmetry_equiv_pos_site_id
 _symmetry_equiv_pos_as_xyz
  1  'x, y, z'
loop_
 _atom_site_type_symbol
 _atom_site_label
 _atom_site_symmetry_multiplicity
 _atom_site_fract_x
 _atom_site_fract_y
 _atom_site_fract_z
 _atom_site_occupancy
  Nd  Nd0  1  0.250000  0.915177  0.601873  1
  Nd  Nd1  1  0.750000  0.084823  0.398127  1
  Nd  Nd2  1  0.250000  0.886060  0.179629  1
  Nd  Nd3  1  0.750000  0.113940  0.820371  1
  Nd  Nd4  1  0.250000  0.299253  0.616330  1
  Nd  Nd5  1  0.750000  0.700747  0.383670  1
  C  C6  1  0.250000  0.880463  0.383780  1
  C  C7  1  0.750000  0.119537  0.616220  1
  I  I8  1  0.250000  0.855666  0.875709  1
  I  I9  1  0.750000  0.144334  0.124291  1
  I  I10  1  0.250000  0.379157  0.874419  1
  I  I11  1  0.750000  0.620843  0.125581  1
  I  I12  1  0.250000  0.382553  0.364699  1
  I  I13  1  0.750000  0.617447  0.635301  1
