# generated using pymatgen
data_Dy3Er13(HgPt)4
_symmetry_space_group_name_H-M   'P 1'
_cell_length_a   9.59135146
_cell_length_b   9.59013211
_cell_length_c   9.59013200
_cell_angle_alpha   60.00000038
_cell_angle_beta   60.00420571
_cell_angle_gamma   60.00420496
_symmetry_Int_Tables_number   1
_chemical_formula_structural   Dy3Er13(HgPt)4
_chemical_formula_sum   'Dy3 Er13 Hg4 Pt4'
_cell_volume   623.79456407
_cell_formula_units_Z   1
loop_
 _symmetry_equiv_pos_site_id
 _symmetry_equiv_pos_as_xyz
  1  'x, y, z'
loop_
 _atom_site_type_symbol
 _atom_site_label
 _atom_site_symmetry_multiplicity
 _atom_site_fract_x
 _atom_site_fract_y
 _atom_site_fract_z
 _atom_site_occupancy
  Dy  Dy0  1  0.355363  0.355332  0.355332  1
  Dy  Dy1  1  0.355363  0.355332  0.933973  1
  Dy  Dy2  1  0.355363  0.933973  0.355332  1
  Er  Er3  1  0.934551  0.355150  0.355150  1
  Er  Er4  1  0.811065  0.189029  0.189029  1
  Er  Er5  1  0.188880  0.811140  0.811140  1
  Er  Er6  1  0.188880  0.811140  0.188839  1
  Er  Er7  1  0.811065  0.189029  0.810878  1
  Er  Er8  1  0.188880  0.188839  0.811140  1
  Er  Er9  1  0.811065  0.810878  0.189029  1
  Er  Er10  1  0.935226  0.564672  0.564672  1
  Er  Er11  1  0.564751  0.935217  0.935217  1
  Er  Er12  1  0.564751  0.935217  0.564816  1
  Er  Er13  1  0.935226  0.564672  0.935430  1
  Er  Er14  1  0.564751  0.564816  0.935217  1
  Er  Er15  1  0.935226  0.935430  0.564672  1
  Hg  Hg16  1  0.587186  0.586675  0.586675  1
  Hg  Hg17  1  0.587186  0.586675  0.239464  1
  Hg  Hg18  1  0.587186  0.239464  0.586675  1
  Hg  Hg19  1  0.239433  0.586856  0.586856  1
  Pt  Pt20  1  0.143159  0.144175  0.144175  1
  Pt  Pt21  1  0.143159  0.144175  0.568489  1
  Pt  Pt22  1  0.143159  0.568489  0.144175  1
  Pt  Pt23  1  0.569127  0.143624  0.143624  1
