# generated using pymatgen
data_Sr6LuFe(BO3)6
_symmetry_space_group_name_H-M   'P 1'
_cell_length_a   7.75361125
_cell_length_b   7.75360979
_cell_length_c   7.75361011
_cell_angle_alpha   105.30399709
_cell_angle_beta   105.30400201
_cell_angle_gamma   105.30400142
_symmetry_Int_Tables_number   1
_chemical_formula_structural   Sr6LuFe(BO3)6
_chemical_formula_sum   'Sr6 Lu1 Fe1 B6 O18'
_cell_volume   404.82223127
_cell_formula_units_Z   1
loop_
 _symmetry_equiv_pos_site_id
 _symmetry_equiv_pos_as_xyz
  1  'x, y, z'
loop_
 _atom_site_type_symbol
 _atom_site_label
 _atom_site_symmetry_multiplicity
 _atom_site_fract_x
 _atom_site_fract_y
 _atom_site_fract_z
 _atom_site_occupancy
  Sr  Sr0  1  0.351181  0.732411  0.839328  1
  Sr  Sr1  1  0.839328  0.351181  0.732411  1
  Sr  Sr2  1  0.732411  0.839328  0.351181  1
  Sr  Sr3  1  0.648819  0.267589  0.160672  1
  Sr  Sr4  1  0.160672  0.648819  0.267589  1
  Sr  Sr5  1  0.267589  0.160672  0.648819  1
  Lu  Lu6  1  0.000000  0.000000  0.000000  1
  Fe  Fe7  1  0.500000  0.500000  0.500000  1
  B  B8  1  0.709088  0.620473  0.952624  1
  B  B9  1  0.952624  0.709088  0.620473  1
  B  B10  1  0.620473  0.952624  0.709088  1
  B  B11  1  0.047376  0.290912  0.379527  1
  B  B12  1  0.379527  0.047376  0.290912  1
  B  B13  1  0.290912  0.379527  0.047376  1
  O  O14  1  0.064520  0.808369  0.542069  1
  O  O15  1  0.542069  0.064520  0.808369  1
  O  O16  1  0.430390  0.499462  0.226861  1
  O  O17  1  0.499462  0.226861  0.430390  1
  O  O18  1  0.226861  0.430390  0.499462  1
  O  O19  1  0.773139  0.569610  0.500538  1
  O  O20  1  0.569610  0.500538  0.773139  1
  O  O21  1  0.500538  0.773139  0.569610  1
  O  O22  1  0.264147  0.185543  0.982810  1
  O  O23  1  0.185543  0.982810  0.264147  1
  O  O24  1  0.982810  0.264147  0.185543  1
  O  O25  1  0.735853  0.814457  0.017190  1
  O  O26  1  0.814457  0.017190  0.735853  1
  O  O27  1  0.017190  0.735853  0.814457  1
  O  O28  1  0.191631  0.457931  0.935480  1
  O  O29  1  0.457931  0.935480  0.191631  1
  O  O30  1  0.935480  0.191631  0.457931  1
  O  O31  1  0.808369  0.542069  0.064520  1
