# generated using pymatgen
data_Y6Ho10MgCd3Pd4
_symmetry_space_group_name_H-M   'P 1'
_cell_length_a   9.69177117
_cell_length_b   9.69177137
_cell_length_c   9.69177166
_cell_angle_alpha   60.08131949
_cell_angle_beta   60.08131591
_cell_angle_gamma   60.08132094
_symmetry_Int_Tables_number   1
_chemical_formula_structural   Y6Ho10MgCd3Pd4
_chemical_formula_sum   'Y6 Ho10 Mg1 Cd3 Pd4'
_cell_volume   644.90248200
_cell_formula_units_Z   1
loop_
 _symmetry_equiv_pos_site_id
 _symmetry_equiv_pos_as_xyz
  1  'x, y, z'
loop_
 _atom_site_type_symbol
 _atom_site_label
 _atom_site_symmetry_multiplicity
 _atom_site_fract_x
 _atom_site_fract_y
 _atom_site_fract_z
 _atom_site_occupancy
  Y  Y0  1  0.934899  0.566221  0.566221  1
  Y  Y1  1  0.563239  0.936440  0.936440  1
  Y  Y2  1  0.566221  0.934899  0.566221  1
  Y  Y3  1  0.936440  0.563239  0.936440  1
  Y  Y4  1  0.566221  0.566221  0.934899  1
  Y  Y5  1  0.936440  0.936440  0.563239  1
  Ho  Ho6  1  0.350519  0.350519  0.350519  1
  Ho  Ho7  1  0.355126  0.355126  0.938948  1
  Ho  Ho8  1  0.355126  0.938948  0.355126  1
  Ho  Ho9  1  0.938948  0.355126  0.355126  1
  Ho  Ho10  1  0.810073  0.191091  0.191091  1
  Ho  Ho11  1  0.187976  0.812701  0.812701  1
  Ho  Ho12  1  0.191091  0.810073  0.191091  1
  Ho  Ho13  1  0.812701  0.187976  0.812701  1
  Ho  Ho14  1  0.191091  0.191091  0.810073  1
  Ho  Ho15  1  0.812701  0.812701  0.187976  1
  Mg  Mg16  1  0.576837  0.576837  0.576837  1
  Cd  Cd17  1  0.580815  0.580815  0.254028  1
  Cd  Cd18  1  0.580815  0.254028  0.580815  1
  Cd  Cd19  1  0.254028  0.580815  0.580815  1
  Pd  Pd20  1  0.145565  0.145565  0.145565  1
  Pd  Pd21  1  0.142496  0.142496  0.568135  1
  Pd  Pd22  1  0.142496  0.568135  0.142496  1
  Pd  Pd23  1  0.568135  0.142496  0.142496  1
