# generated using pymatgen
data_Y4Tm8Tc3Rh
_symmetry_space_group_name_H-M   'P 1'
_cell_length_a   6.27127521
_cell_length_b   7.38552691
_cell_length_c   9.02630200
_cell_angle_alpha   90.00000000
_cell_angle_beta   90.00000000
_cell_angle_gamma   90.10163729
_symmetry_Int_Tables_number   1
_chemical_formula_structural   Y4Tm8Tc3Rh
_chemical_formula_sum   'Y4 Tm8 Tc3 Rh1'
_cell_volume   418.06760954
_cell_formula_units_Z   1
loop_
 _symmetry_equiv_pos_site_id
 _symmetry_equiv_pos_as_xyz
  1  'x, y, z'
loop_
 _atom_site_type_symbol
 _atom_site_label
 _atom_site_symmetry_multiplicity
 _atom_site_fract_x
 _atom_site_fract_y
 _atom_site_fract_z
 _atom_site_occupancy
  Y  Y0  1  0.628650  0.042427  0.250000  1
  Y  Y1  1  0.375489  0.959602  0.750000  1
  Y  Y2  1  0.122791  0.462081  0.750000  1
  Y  Y3  1  0.873563  0.539634  0.250000  1
  Tm  Tm4  1  0.161383  0.177947  0.061412  1
  Tm  Tm5  1  0.833756  0.823571  0.934398  1
  Tm  Tm6  1  0.660725  0.324008  0.936671  1
  Tm  Tm7  1  0.833756  0.823571  0.565602  1
  Tm  Tm8  1  0.339913  0.673633  0.061324  1
  Tm  Tm9  1  0.161383  0.177947  0.438588  1
  Tm  Tm10  1  0.339913  0.673633  0.438676  1
  Tm  Tm11  1  0.660725  0.324008  0.563329  1
  Tc  Tc12  1  0.455637  0.384179  0.250000  1
  Tc  Tc13  1  0.543851  0.615050  0.750000  1
  Tc  Tc14  1  0.958753  0.113167  0.750000  1
  Rh  Rh15  1  0.049712  0.885543  0.250000  1
