# generated using pymatgen
data_Yb2Er2TcOs7
_symmetry_space_group_name_H-M   'P 1'
_cell_length_a   5.36261300
_cell_length_b   5.36261131
_cell_length_c   8.61260200
_cell_angle_alpha   90.00000000
_cell_angle_beta   90.00000000
_cell_angle_gamma   119.99999194
_symmetry_Int_Tables_number   1
_chemical_formula_structural   Yb2Er2TcOs7
_chemical_formula_sum   'Yb2 Er2 Tc1 Os7'
_cell_volume   214.49532033
_cell_formula_units_Z   1
loop_
 _symmetry_equiv_pos_site_id
 _symmetry_equiv_pos_as_xyz
  1  'x, y, z'
loop_
 _atom_site_type_symbol
 _atom_site_label
 _atom_site_symmetry_multiplicity
 _atom_site_fract_x
 _atom_site_fract_y
 _atom_site_fract_z
 _atom_site_occupancy
  Yb  Yb0  1  0.666667  0.333333  0.940398  1
  Yb  Yb1  1  0.333333  0.666667  0.059602  1
  Er  Er2  1  0.333333  0.666667  0.425945  1
  Er  Er3  1  0.666667  0.333333  0.574055  1
  Tc  Tc4  1  0.000000  0.000000  0.500000  1
  Os  Os5  1  0.000000  0.000000  0.000000  1
  Os  Os6  1  0.826586  0.173414  0.251702  1
  Os  Os7  1  0.826586  0.653173  0.251702  1
  Os  Os8  1  0.346827  0.173414  0.251702  1
  Os  Os9  1  0.173414  0.826586  0.748298  1
  Os  Os10  1  0.173414  0.346827  0.748298  1
  Os  Os11  1  0.653173  0.826586  0.748298  1
