# generated using pymatgen
data_Nd2Al5GaPd2
_symmetry_space_group_name_H-M   'P 1'
_cell_length_a   6.13387902
_cell_length_b   6.13387984
_cell_length_c   5.88526000
_cell_angle_alpha   90.00000000
_cell_angle_beta   90.00000000
_cell_angle_gamma   117.20144189
_symmetry_Int_Tables_number   1
_chemical_formula_structural   Nd2Al5GaPd2
_chemical_formula_sum   'Nd2 Al5 Ga1 Pd2'
_cell_volume   196.94076808
_cell_formula_units_Z   1
loop_
 _symmetry_equiv_pos_site_id
 _symmetry_equiv_pos_as_xyz
  1  'x, y, z'
loop_
 _atom_site_type_symbol
 _atom_site_label
 _atom_site_symmetry_multiplicity
 _atom_site_fract_x
 _atom_site_fract_y
 _atom_site_fract_z
 _atom_site_occupancy
  Nd  Nd0  1  0.235141  0.764859  0.750000  1
  Nd  Nd1  1  0.765758  0.234242  0.250000  1
  Al  Al2  1  0.668044  0.331956  0.750000  1
  Al  Al3  1  0.718510  0.718707  0.999523  1
  Al  Al4  1  0.718510  0.718707  0.500477  1
  Al  Al5  1  0.281293  0.281490  0.999523  1
  Al  Al6  1  0.281293  0.281490  0.500477  1
  Ga  Ga7  1  0.334199  0.665801  0.250000  1
  Pd  Pd8  1  0.902898  0.097102  0.750000  1
  Pd  Pd9  1  0.094354  0.905646  0.250000  1
