# generated using pymatgen
data_Er4ZnGa23Pt9
_symmetry_space_group_name_H-M   'P 1'
_cell_length_a   7.47538097
_cell_length_b   7.58781384
_cell_length_c   13.34796187
_cell_angle_alpha   84.72125144
_cell_angle_beta   79.39881488
_cell_angle_gamma   60.45475633
_symmetry_Int_Tables_number   1
_chemical_formula_structural   Er4ZnGa23Pt9
_chemical_formula_sum   'Er4 Zn1 Ga23 Pt9'
_cell_volume   647.42625820
_cell_formula_units_Z   1
loop_
 _symmetry_equiv_pos_site_id
 _symmetry_equiv_pos_as_xyz
  1  'x, y, z'
loop_
 _atom_site_type_symbol
 _atom_site_label
 _atom_site_symmetry_multiplicity
 _atom_site_fract_x
 _atom_site_fract_y
 _atom_site_fract_z
 _atom_site_occupancy
  Er  Er0  1  0.393828  0.169711  0.810178  1
  Er  Er1  1  0.604321  0.830955  0.190522  1
  Er  Er2  1  0.732548  0.497243  0.811021  1
  Er  Er3  1  0.268415  0.501452  0.187555  1
  Zn  Zn4  1  0.686137  0.834084  0.939968  1
  Ga  Ga5  1  0.321407  0.159929  0.059744  1
  Ga  Ga6  1  0.144531  0.832715  0.559801  1
  Ga  Ga7  1  0.854952  0.167588  0.440680  1
  Ga  Ga8  1  0.477855  0.166111  0.556538  1
  Ga  Ga9  1  0.522796  0.833881  0.443461  1
  Ga  Ga10  1  0.221134  0.165327  0.320688  1
  Ga  Ga11  1  0.778505  0.834604  0.678958  1
  Ga  Ga12  1  0.435709  0.504074  0.679722  1
  Ga  Ga13  1  0.562997  0.496470  0.321517  1
  Ga  Ga14  1  0.105800  0.162511  0.678376  1
  Ga  Ga15  1  0.893910  0.836627  0.323191  1
  Ga  Ga16  1  0.360633  0.498404  0.937110  1
  Ga  Ga17  1  0.642825  0.507917  0.059531  1
  Ga  Ga18  1  0.023439  0.168941  0.942411  1
  Ga  Ga19  1  0.974767  0.831039  0.054824  1
  Ga  Ga20  1  0.188256  0.498584  0.443403  1
  Ga  Ga21  1  0.811878  0.501867  0.556909  1
  Ga  Ga22  1  0.733246  0.166325  0.181632  1
  Ga  Ga23  1  0.265392  0.835367  0.817952  1
  Ga  Ga24  1  0.051949  0.634261  0.819229  1
  Ga  Ga25  1  0.941627  0.367418  0.182285  1
  Ga  Ga26  1  0.851154  0.036272  0.818849  1
  Ga  Ga27  1  0.142275  0.958738  0.182792  1
  Pt  Pt28  1  0.117874  0.493830  0.640364  1
  Pt  Pt29  1  0.883767  0.505768  0.359605  1
  Pt  Pt30  1  0.661491  0.176983  0.999368  1
  Pt  Pt31  1  0.335681  0.829850  0.001435  1
  Pt  Pt32  1  0.540412  0.167109  0.359633  1
  Pt  Pt33  1  0.459360  0.833036  0.639642  1
  Pt  Pt34  1  0.778466  0.174213  0.638102  1
  Pt  Pt35  1  0.221835  0.827015  0.362373  1
  Pt  Pt36  1  0.008827  0.493780  0.000627  1
