# generated using pymatgen
data_Tb6CeTm9(CdRu)4
_symmetry_space_group_name_H-M   'P 1'
_cell_length_a   9.61013298
_cell_length_b   9.60999905
_cell_length_c   9.61008052
_cell_angle_alpha   59.36766376
_cell_angle_beta   59.36682430
_cell_angle_gamma   59.36674373
_symmetry_Int_Tables_number   1
_chemical_formula_structural   Tb6CeTm9(CdRu)4
_chemical_formula_sum   'Tb6 Ce1 Tm9 Cd4 Ru4'
_cell_volume   618.53297678
_cell_formula_units_Z   1
loop_
 _symmetry_equiv_pos_site_id
 _symmetry_equiv_pos_as_xyz
  1  'x, y, z'
loop_
 _atom_site_type_symbol
 _atom_site_label
 _atom_site_symmetry_multiplicity
 _atom_site_fract_x
 _atom_site_fract_y
 _atom_site_fract_z
 _atom_site_occupancy
  Tb  Tb0  1  0.561314  0.561315  0.939099  1
  Tb  Tb1  1  0.940538  0.558822  0.940537  1
  Tb  Tb2  1  0.558822  0.940539  0.940537  1
  Tb  Tb3  1  0.940536  0.940537  0.558823  1
  Tb  Tb4  1  0.561314  0.939100  0.561313  1
  Tb  Tb5  1  0.939098  0.561317  0.561313  1
  Ce  Ce6  1  0.342121  0.342119  0.342138  1
  Tm  Tm7  1  0.187678  0.187682  0.813970  1
  Tm  Tm8  1  0.811998  0.186810  0.812003  1
  Tm  Tm9  1  0.186807  0.812003  0.812003  1
  Tm  Tm10  1  0.812002  0.812006  0.186807  1
  Tm  Tm11  1  0.187677  0.813972  0.187679  1
  Tm  Tm12  1  0.813969  0.187677  0.187677  1
  Tm  Tm13  1  0.346701  0.346697  0.957914  1
  Tm  Tm14  1  0.346696  0.957916  0.346697  1
  Tm  Tm15  1  0.957914  0.346695  0.346699  1
  Cd  Cd16  1  0.579594  0.579597  0.258666  1
  Cd  Cd17  1  0.579598  0.258666  0.579593  1
  Cd  Cd18  1  0.258666  0.579598  0.579592  1
  Cd  Cd19  1  0.579459  0.579460  0.579459  1
  Ru  Ru20  1  0.145600  0.145597  0.576228  1
  Ru  Ru21  1  0.145601  0.576232  0.145598  1
  Ru  Ru22  1  0.576236  0.145588  0.145600  1
  Ru  Ru23  1  0.140056  0.140055  0.140057  1
