# generated using pymatgen
data_Tb7Er(OsC2)4
_symmetry_space_group_name_H-M   'P 1'
_cell_length_a   5.16137900
_cell_length_b   6.45339477
_cell_length_c   9.82223330
_cell_angle_alpha   89.86050413
_cell_angle_beta   90.00000000
_cell_angle_gamma   90.00000000
_symmetry_Int_Tables_number   1
_chemical_formula_structural   Tb7Er(OsC2)4
_chemical_formula_sum   'Tb7 Er1 Os4 C8'
_cell_volume   327.16206542
_cell_formula_units_Z   1
loop_
 _symmetry_equiv_pos_site_id
 _symmetry_equiv_pos_as_xyz
  1  'x, y, z'
loop_
 _atom_site_type_symbol
 _atom_site_label
 _atom_site_symmetry_multiplicity
 _atom_site_fract_x
 _atom_site_fract_y
 _atom_site_fract_z
 _atom_site_occupancy
  Tb  Tb0  1  0.250000  0.686011  0.551441  1
  Tb  Tb1  1  0.750000  0.314211  0.448160  1
  Tb  Tb2  1  0.250000  0.185075  0.948915  1
  Tb  Tb3  1  0.750000  0.475904  0.781966  1
  Tb  Tb4  1  0.250000  0.024009  0.280756  1
  Tb  Tb5  1  0.750000  0.975273  0.720370  1
  Tb  Tb6  1  0.250000  0.524560  0.218127  1
  Er  Er7  1  0.750000  0.818058  0.052915  1
  Os  Os8  1  0.750000  0.273903  0.134994  1
  Os  Os9  1  0.250000  0.226202  0.635902  1
  Os  Os10  1  0.750000  0.773530  0.363519  1
  Os  Os11  1  0.250000  0.725930  0.865520  1
  C  C12  1  0.750000  0.173561  0.948361  1
  C  C13  1  0.250000  0.823877  0.052123  1
  C  C14  1  0.750000  0.676955  0.550861  1
  C  C15  1  0.250000  0.322723  0.448678  1
  C  C16  1  0.750000  0.036941  0.256534  1
  C  C17  1  0.250000  0.462745  0.757758  1
  C  C18  1  0.750000  0.538300  0.240449  1
  C  C19  1  0.250000  0.962232  0.742654  1
