# generated using pymatgen
data_Ho5Hf5(Si5Ir2)4
_symmetry_space_group_name_H-M   'P 1'
_cell_length_a   12.48005200
_cell_length_b   12.48005200
_cell_length_c   4.15966200
_cell_angle_alpha   90.00000000
_cell_angle_beta   90.00000000
_cell_angle_gamma   90.00000000
_symmetry_Int_Tables_number   1
_chemical_formula_structural   Ho5Hf5(Si5Ir2)4
_chemical_formula_sum   'Ho5 Hf5 Si20 Ir8'
_cell_volume   647.87441928
_cell_formula_units_Z   1
loop_
 _symmetry_equiv_pos_site_id
 _symmetry_equiv_pos_as_xyz
  1  'x, y, z'
loop_
 _atom_site_type_symbol
 _atom_site_label
 _atom_site_symmetry_multiplicity
 _atom_site_fract_x
 _atom_site_fract_y
 _atom_site_fract_z
 _atom_site_occupancy
  Ho  Ho0  1  0.000000  0.000000  0.000000  1
  Ho  Ho1  1  0.884176  0.384715  0.500000  1
  Ho  Ho2  1  0.115824  0.615285  0.500000  1
  Ho  Ho3  1  0.384715  0.115824  0.500000  1
  Ho  Ho4  1  0.615285  0.884176  0.500000  1
  Hf  Hf5  1  0.500000  0.500000  0.000000  1
  Hf  Hf6  1  0.673638  0.175068  0.500000  1
  Hf  Hf7  1  0.326362  0.824932  0.500000  1
  Hf  Hf8  1  0.175068  0.326362  0.500000  1
  Hf  Hf9  1  0.824932  0.673638  0.500000  1
  Si  Si10  1  0.565681  0.067792  0.000000  1
  Si  Si11  1  0.434319  0.932208  0.000000  1
  Si  Si12  1  0.067792  0.434319  0.000000  1
  Si  Si13  1  0.932208  0.565681  0.000000  1
  Si  Si14  1  0.665517  0.701535  0.000000  1
  Si  Si15  1  0.334483  0.298465  0.000000  1
  Si  Si16  1  0.163860  0.800522  0.000000  1
  Si  Si17  1  0.836140  0.199478  0.000000  1
  Si  Si18  1  0.298465  0.665517  0.000000  1
  Si  Si19  1  0.701535  0.334483  0.000000  1
  Si  Si20  1  0.199478  0.163860  0.000000  1
  Si  Si21  1  0.800522  0.836140  0.000000  1
  Si  Si22  1  0.650785  0.507915  0.500000  1
  Si  Si23  1  0.349215  0.492085  0.500000  1
  Si  Si24  1  0.156638  0.992860  0.500000  1
  Si  Si25  1  0.843362  0.007140  0.500000  1
  Si  Si26  1  0.492085  0.650785  0.500000  1
  Si  Si27  1  0.507915  0.349215  0.500000  1
  Si  Si28  1  0.007140  0.156638  0.500000  1
  Si  Si29  1  0.992860  0.843362  0.500000  1
  Ir  Ir30  1  0.742032  0.521660  0.000000  1
  Ir  Ir31  1  0.257968  0.478340  0.000000  1
  Ir  Ir32  1  0.246617  0.977900  0.000000  1
  Ir  Ir33  1  0.753383  0.022100  0.000000  1
  Ir  Ir34  1  0.478340  0.742032  0.000000  1
  Ir  Ir35  1  0.521660  0.257968  0.000000  1
  Ir  Ir36  1  0.022100  0.246617  0.000000  1
  Ir  Ir37  1  0.977900  0.753383  0.000000  1
