# generated using pymatgen
data_Ba(ZrSe2)4
_symmetry_space_group_name_H-M   'P 1'
_cell_length_a   9.11216048
_cell_length_b   9.11215931
_cell_length_c   9.11216086
_cell_angle_alpha   49.15999132
_cell_angle_beta   49.15999741
_cell_angle_gamma   49.15998666
_symmetry_Int_Tables_number   1
_chemical_formula_structural   Ba(ZrSe2)4
_chemical_formula_sum   'Ba1 Zr4 Se8'
_cell_volume   397.75204172
_cell_formula_units_Z   1
loop_
 _symmetry_equiv_pos_site_id
 _symmetry_equiv_pos_as_xyz
  1  'x, y, z'
loop_
 _atom_site_type_symbol
 _atom_site_label
 _atom_site_symmetry_multiplicity
 _atom_site_fract_x
 _atom_site_fract_y
 _atom_site_fract_z
 _atom_site_occupancy
  Ba  Ba0  1  0.500000  0.500000  0.500000  1
  Zr  Zr1  1  0.000000  0.500000  0.500000  1
  Zr  Zr2  1  0.500000  0.000000  0.500000  1
  Zr  Zr3  1  0.500000  0.500000  0.000000  1
  Zr  Zr4  1  0.000000  0.000000  0.000000  1
  Se  Se5  1  0.259650  0.767799  0.767799  1
  Se  Se6  1  0.232201  0.232201  0.740350  1
  Se  Se7  1  0.740350  0.232201  0.232201  1
  Se  Se8  1  0.232201  0.740350  0.232201  1
  Se  Se9  1  0.266090  0.266090  0.266090  1
  Se  Se10  1  0.733910  0.733910  0.733910  1
  Se  Se11  1  0.767799  0.259650  0.767799  1
  Se  Se12  1  0.767799  0.767799  0.259650  1
