# generated using pymatgen
data_NdSnF7
_symmetry_space_group_name_H-M   'P 1'
_cell_length_a   5.75403300
_cell_length_b   9.24263289
_cell_length_c   12.44280032
_cell_angle_alpha   62.19480383
_cell_angle_beta   90.00000000
_cell_angle_gamma   90.00000000
_symmetry_Int_Tables_number   1
_chemical_formula_structural   NdSnF7
_chemical_formula_sum   'Nd4 Sn4 F28'
_cell_volume   585.33300071
_cell_formula_units_Z   4
loop_
 _symmetry_equiv_pos_site_id
 _symmetry_equiv_pos_as_xyz
  1  'x, y, z'
loop_
 _atom_site_type_symbol
 _atom_site_label
 _atom_site_symmetry_multiplicity
 _atom_site_fract_x
 _atom_site_fract_y
 _atom_site_fract_z
 _atom_site_occupancy
  Nd  Nd0  1  0.757463  0.812069  0.764407  1
  Nd  Nd1  1  0.257463  0.187931  0.735593  1
  Nd  Nd2  1  0.242537  0.187931  0.235593  1
  Nd  Nd3  1  0.742537  0.812069  0.264407  1
  Sn  Sn4  1  0.756108  0.273185  0.958072  1
  Sn  Sn5  1  0.256108  0.726815  0.541928  1
  Sn  Sn6  1  0.243892  0.726815  0.041928  1
  Sn  Sn7  1  0.743892  0.273185  0.458072  1
  F  F8  1  0.444770  0.709424  0.917232  1
  F  F9  1  0.944770  0.290576  0.582768  1
  F  F10  1  0.555230  0.290576  0.082768  1
  F  F11  1  0.055230  0.709424  0.417232  1
  F  F12  1  0.451717  0.280429  0.544050  1
  F  F13  1  0.951717  0.719571  0.955950  1
  F  F14  1  0.548283  0.719571  0.455950  1
  F  F15  1  0.048283  0.280429  0.044050  1
  F  F16  1  0.771972  0.516569  0.861827  1
  F  F17  1  0.271972  0.483431  0.638173  1
  F  F18  1  0.228028  0.483431  0.138173  1
  F  F19  1  0.728028  0.516569  0.361827  1
  F  F20  1  0.761171  0.029384  0.053827  1
  F  F21  1  0.261171  0.970616  0.446173  1
  F  F22  1  0.238829  0.970616  0.946173  1
  F  F23  1  0.738829  0.029384  0.553827  1
  F  F24  1  0.974624  0.729519  0.635829  1
  F  F25  1  0.474624  0.270481  0.864171  1
  F  F26  1  0.025376  0.270481  0.364171  1
  F  F27  1  0.525376  0.729519  0.135829  1
  F  F28  1  0.052030  0.743986  0.170195  1
  F  F29  1  0.552030  0.256014  0.329805  1
  F  F30  1  0.947970  0.256014  0.829805  1
  F  F31  1  0.447970  0.743986  0.670195  1
  F  F32  1  0.412561  0.967293  0.231934  1
  F  F33  1  0.912561  0.032707  0.268066  1
  F  F34  1  0.587439  0.032707  0.768066  1
  F  F35  1  0.087439  0.967293  0.731934  1
