# generated using pymatgen
data_Tb2ErAl12CoOs3
_symmetry_space_group_name_H-M   'P 1'
_cell_length_a   8.77554299
_cell_length_b   8.77554299
_cell_length_c   9.51982700
_cell_angle_alpha   90.00000000
_cell_angle_beta   90.00000000
_cell_angle_gamma   120.07713965
_symmetry_Int_Tables_number   1
_chemical_formula_structural   Tb2ErAl12CoOs3
_chemical_formula_sum   'Tb4 Er2 Al24 Co2 Os6'
_cell_volume   634.40935310
_cell_formula_units_Z   2
loop_
 _symmetry_equiv_pos_site_id
 _symmetry_equiv_pos_as_xyz
  1  'x, y, z'
loop_
 _atom_site_type_symbol
 _atom_site_label
 _atom_site_symmetry_multiplicity
 _atom_site_fract_x
 _atom_site_fract_y
 _atom_site_fract_z
 _atom_site_occupancy
  Tb  Tb0  1  0.193865  0.387877  0.250000  1
  Tb  Tb1  1  0.806135  0.612123  0.750000  1
  Tb  Tb2  1  0.612123  0.806135  0.250000  1
  Tb  Tb3  1  0.387877  0.193865  0.750000  1
  Er  Er4  1  0.194420  0.805580  0.250000  1
  Er  Er5  1  0.805580  0.194420  0.750000  1
  Al  Al6  1  0.333162  0.666838  0.016136  1
  Al  Al7  1  0.666838  0.333162  0.983864  1
  Al  Al8  1  0.666838  0.333162  0.516136  1
  Al  Al9  1  0.333162  0.666838  0.483864  1
  Al  Al10  1  0.159081  0.318781  0.575831  1
  Al  Al11  1  0.840919  0.681219  0.424169  1
  Al  Al12  1  0.681219  0.840919  0.575831  1
  Al  Al13  1  0.840919  0.681219  0.075831  1
  Al  Al14  1  0.318781  0.159081  0.424169  1
  Al  Al15  1  0.159081  0.318781  0.924169  1
  Al  Al16  1  0.159483  0.840517  0.575320  1
  Al  Al17  1  0.318781  0.159081  0.075831  1
  Al  Al18  1  0.840517  0.159483  0.424680  1
  Al  Al19  1  0.681219  0.840919  0.924169  1
  Al  Al20  1  0.840517  0.159483  0.075320  1
  Al  Al21  1  0.159483  0.840517  0.924680  1
  Al  Al22  1  0.561123  0.122954  0.250000  1
  Al  Al23  1  0.438877  0.877046  0.750000  1
  Al  Al24  1  0.877046  0.438877  0.250000  1
  Al  Al25  1  0.122954  0.561123  0.750000  1
  Al  Al26  1  0.561765  0.438235  0.250000  1
  Al  Al27  1  0.438235  0.561765  0.750000  1
  Al  Al28  1  0.000365  0.999635  0.250000  1
  Al  Al29  1  0.999635  0.000365  0.750000  1
  Co  Co30  1  0.000000  0.000000  0.000000  1
  Co  Co31  1  0.000000  0.000000  0.500000  1
  Os  Os32  1  0.500000  0.000000  0.000000  1
  Os  Os33  1  0.000000  0.500000  0.000000  1
  Os  Os34  1  0.500000  0.000000  0.500000  1
  Os  Os35  1  0.500000  0.500000  0.000000  1
  Os  Os36  1  0.000000  0.500000  0.500000  1
  Os  Os37  1  0.500000  0.500000  0.500000  1
