# generated using pymatgen
data_Cs3Sc2I9
_symmetry_space_group_name_H-M   'P 1'
_cell_length_a   8.53061142
_cell_length_b   8.53061204
_cell_length_c   21.13281008
_cell_angle_alpha   89.39701765
_cell_angle_beta   89.39701778
_cell_angle_gamma   119.90969332
_symmetry_Int_Tables_number   1
_chemical_formula_structural   Cs3Sc2I9
_chemical_formula_sum   'Cs6 Sc4 I18'
_cell_volume   1332.74407779
_cell_formula_units_Z   2
loop_
 _symmetry_equiv_pos_site_id
 _symmetry_equiv_pos_as_xyz
  1  'x, y, z'
loop_
 _atom_site_type_symbol
 _atom_site_label
 _atom_site_symmetry_multiplicity
 _atom_site_fract_x
 _atom_site_fract_y
 _atom_site_fract_z
 _atom_site_occupancy
  Cs  Cs0  1  0.996547  0.003453  0.750000  1
  Cs  Cs1  1  0.665790  0.328946  0.074922  1
  Cs  Cs2  1  0.003453  0.996547  0.250000  1
  Cs  Cs3  1  0.328946  0.665790  0.574922  1
  Cs  Cs4  1  0.334210  0.671054  0.925078  1
  Cs  Cs5  1  0.671054  0.334210  0.425078  1
  Sc  Sc6  1  0.655037  0.324790  0.656834  1
  Sc  Sc7  1  0.344963  0.675210  0.343166  1
  Sc  Sc8  1  0.324790  0.655037  0.156834  1
  Sc  Sc9  1  0.675210  0.344963  0.843166  1
  I  I10  1  0.641513  0.811084  0.081302  1
  I  I11  1  0.358487  0.188916  0.918698  1
  I  I12  1  0.510020  0.024921  0.756389  1
  I  I13  1  0.191130  0.847843  0.411814  1
  I  I14  1  0.847843  0.191130  0.911814  1
  I  I15  1  0.811084  0.641513  0.581302  1
  I  I16  1  0.808870  0.152157  0.588186  1
  I  I17  1  0.322893  0.155546  0.593818  1
  I  I18  1  0.489980  0.975079  0.243611  1
  I  I19  1  0.975079  0.489980  0.743611  1
  I  I20  1  0.152157  0.808870  0.088186  1
  I  I21  1  0.024921  0.510020  0.256389  1
  I  I22  1  0.509658  0.490342  0.750000  1
  I  I23  1  0.844454  0.677107  0.906182  1
  I  I24  1  0.155546  0.322893  0.093818  1
  I  I25  1  0.677107  0.844454  0.406182  1
  I  I26  1  0.490342  0.509658  0.250000  1
  I  I27  1  0.188916  0.358487  0.418698  1
