# generated using pymatgen
data_Y20Ir2Os3Pt7
_symmetry_space_group_name_H-M   'P 1'
_cell_length_a   11.04321989
_cell_length_b   11.04118587
_cell_length_c   6.43792721
_cell_angle_alpha   89.98050758
_cell_angle_beta   89.97815200
_cell_angle_gamma   90.25200280
_symmetry_Int_Tables_number   1
_chemical_formula_structural   Y20Ir2Os3Pt7
_chemical_formula_sum   'Y20 Ir2 Os3 Pt7'
_cell_volume   784.97033658
_cell_formula_units_Z   1
loop_
 _symmetry_equiv_pos_site_id
 _symmetry_equiv_pos_as_xyz
  1  'x, y, z'
loop_
 _atom_site_type_symbol
 _atom_site_label
 _atom_site_symmetry_multiplicity
 _atom_site_fract_x
 _atom_site_fract_y
 _atom_site_fract_z
 _atom_site_occupancy
  Y  Y0  1  0.297661  0.085247  0.373405  1
  Y  Y1  1  0.297272  0.910786  0.873464  1
  Y  Y2  1  0.702372  0.085438  0.873361  1
  Y  Y3  1  0.702540  0.913944  0.372837  1
  Y  Y4  1  0.582950  0.795804  0.872590  1
  Y  Y5  1  0.586198  0.203460  0.374107  1
  Y  Y6  1  0.412332  0.795020  0.377017  1
  Y  Y7  1  0.414124  0.201868  0.873939  1
  Y  Y8  1  0.206284  0.416170  0.629871  1
  Y  Y9  1  0.206045  0.588504  0.121062  1
  Y  Y10  1  0.795509  0.413143  0.123859  1
  Y  Y11  1  0.796122  0.587025  0.628069  1
  Y  Y12  1  0.913946  0.703143  0.124740  1
  Y  Y13  1  0.913245  0.295849  0.628649  1
  Y  Y14  1  0.090723  0.704398  0.628581  1
  Y  Y15  1  0.086860  0.296721  0.125415  1
  Y  Y16  1  0.999926  0.999941  0.499833  1
  Y  Y17  1  0.000018  0.000106  0.998818  1
  Y  Y18  1  0.497848  0.501325  0.998465  1
  Y  Y19  1  0.498693  0.502063  0.499743  1
  Ir  Ir20  1  0.346945  0.651857  0.749614  1
  Ir  Ir21  1  0.000001  0.499794  0.375319  1
  Os  Os22  1  0.500109  0.999734  0.128777  1
  Os  Os23  1  0.500046  0.000009  0.627070  1
  Os  Os24  1  0.999895  0.499955  0.873061  1
  Pt  Pt25  1  0.847851  0.153808  0.249722  1
  Pt  Pt26  1  0.846748  0.846459  0.750509  1
  Pt  Pt27  1  0.152675  0.154190  0.749234  1
  Pt  Pt28  1  0.151644  0.846750  0.249584  1
  Pt  Pt29  1  0.653272  0.347690  0.749770  1
  Pt  Pt30  1  0.654782  0.653062  0.249622  1
  Pt  Pt31  1  0.345363  0.346736  0.249896  1
