# generated using pymatgen
data_Y6Ho10Cd4OsPt3
_symmetry_space_group_name_H-M   'P 1'
_cell_length_a   9.69213295
_cell_length_b   9.69213391
_cell_length_c   9.69213326
_cell_angle_alpha   59.57353303
_cell_angle_beta   59.57353070
_cell_angle_gamma   59.57353205
_symmetry_Int_Tables_number   1
_chemical_formula_structural   Y6Ho10Cd4OsPt3
_chemical_formula_sum   'Y6 Ho10 Cd4 Os1 Pt3'
_cell_volume   637.54707168
_cell_formula_units_Z   1
loop_
 _symmetry_equiv_pos_site_id
 _symmetry_equiv_pos_as_xyz
  1  'x, y, z'
loop_
 _atom_site_type_symbol
 _atom_site_label
 _atom_site_symmetry_multiplicity
 _atom_site_fract_x
 _atom_site_fract_y
 _atom_site_fract_z
 _atom_site_occupancy
  Y  Y0  1  0.936242  0.564750  0.564750  1
  Y  Y1  1  0.558306  0.938100  0.938100  1
  Y  Y2  1  0.564750  0.936242  0.564750  1
  Y  Y3  1  0.938100  0.558306  0.938100  1
  Y  Y4  1  0.564750  0.564750  0.936242  1
  Y  Y5  1  0.938100  0.938100  0.558306  1
  Ho  Ho6  1  0.351554  0.351554  0.351554  1
  Ho  Ho7  1  0.349869  0.349869  0.947827  1
  Ho  Ho8  1  0.349869  0.947827  0.349869  1
  Ho  Ho9  1  0.947827  0.349869  0.349869  1
  Ho  Ho10  1  0.814576  0.188825  0.188825  1
  Ho  Ho11  1  0.188680  0.810088  0.810088  1
  Ho  Ho12  1  0.188825  0.814576  0.188825  1
  Ho  Ho13  1  0.810088  0.188680  0.810088  1
  Ho  Ho14  1  0.188825  0.188825  0.814576  1
  Ho  Ho15  1  0.810088  0.810088  0.188680  1
  Cd  Cd16  1  0.580336  0.580336  0.580336  1
  Cd  Cd17  1  0.581013  0.581013  0.254776  1
  Cd  Cd18  1  0.581013  0.254776  0.581013  1
  Cd  Cd19  1  0.254776  0.581013  0.581013  1
  Os  Os20  1  0.143307  0.143307  0.143307  1
  Pt  Pt21  1  0.143450  0.143450  0.572209  1
  Pt  Pt22  1  0.143450  0.572209  0.143450  1
  Pt  Pt23  1  0.572209  0.143450  0.143450  1
