# generated using pymatgen
data_Y2TmTh(Al8Pt3)3
_symmetry_space_group_name_H-M   'P 1'
_cell_length_a   7.55991587
_cell_length_b   7.57571285
_cell_length_c   13.18420717
_cell_angle_alpha   84.53009715
_cell_angle_beta   78.99398717
_cell_angle_gamma   59.92286347
_symmetry_Int_Tables_number   1
_chemical_formula_structural   Y2TmTh(Al8Pt3)3
_chemical_formula_sum   'Y2 Tm1 Th1 Al24 Pt9'
_cell_volume   641.39371758
_cell_formula_units_Z   1
loop_
 _symmetry_equiv_pos_site_id
 _symmetry_equiv_pos_as_xyz
  1  'x, y, z'
loop_
 _atom_site_type_symbol
 _atom_site_label
 _atom_site_symmetry_multiplicity
 _atom_site_fract_x
 _atom_site_fract_y
 _atom_site_fract_z
 _atom_site_occupancy
  Y  Y0  1  0.605844  0.831408  0.193176  1
  Y  Y1  1  0.733276  0.499137  0.807870  1
  Tm  Tm2  1  0.265849  0.501261  0.194145  1
  Th  Th3  1  0.394174  0.167914  0.807445  1
  Al  Al4  1  0.687024  0.830788  0.947183  1
  Al  Al5  1  0.314967  0.166929  0.058935  1
  Al  Al6  1  0.146873  0.832660  0.560181  1
  Al  Al7  1  0.854184  0.167579  0.437481  1
  Al  Al8  1  0.481036  0.166524  0.556436  1
  Al  Al9  1  0.520280  0.832516  0.440677  1
  Al  Al10  1  0.217458  0.165864  0.328791  1
  Al  Al11  1  0.787527  0.831161  0.667027  1
  Al  Al12  1  0.437925  0.510352  0.667573  1
  Al  Al13  1  0.562835  0.493287  0.328560  1
  Al  Al14  1  0.107167  0.159685  0.665880  1
  Al  Al15  1  0.890949  0.839812  0.330024  1
  Al  Al16  1  0.351239  0.502865  0.947559  1
  Al  Al17  1  0.645518  0.501114  0.056995  1
  Al  Al18  1  0.011788  0.167090  0.956629  1
  Al  Al19  1  0.984441  0.831143  0.049472  1
  Al  Al20  1  0.186024  0.500201  0.440593  1
  Al  Al21  1  0.813642  0.500390  0.557973  1
  Al  Al22  1  0.733358  0.164928  0.183477  1
  Al  Al23  1  0.264757  0.832377  0.816606  1
  Al  Al24  1  0.058308  0.635234  0.815453  1
  Al  Al25  1  0.938620  0.369308  0.184877  1
  Al  Al26  1  0.859781  0.040756  0.816290  1
  Al  Al27  1  0.144245  0.957306  0.184245  1
  Pt  Pt28  1  0.121437  0.490908  0.638664  1
  Pt  Pt29  1  0.880581  0.508178  0.360845  1
  Pt  Pt30  1  0.656525  0.171538  0.999941  1
  Pt  Pt31  1  0.342764  0.829437  0.000194  1
  Pt  Pt32  1  0.537157  0.167378  0.360772  1
  Pt  Pt33  1  0.461967  0.834347  0.638472  1
  Pt  Pt34  1  0.778108  0.174894  0.637222  1
  Pt  Pt35  1  0.221370  0.824516  0.362239  1
  Pt  Pt36  1  0.001001  0.499217  0.000095  1
