# generated using pymatgen
data_PrTh3(HgPt2)2
_symmetry_space_group_name_H-M   'P 1'
_cell_length_a   8.01390611
_cell_length_b   8.01390611
_cell_length_c   3.78523300
_cell_angle_alpha   90.00000000
_cell_angle_beta   90.00000000
_cell_angle_gamma   91.11463159
_symmetry_Int_Tables_number   1
_chemical_formula_structural   PrTh3(HgPt2)2
_chemical_formula_sum   'Pr1 Th3 Hg2 Pt4'
_cell_volume   243.05185033
_cell_formula_units_Z   1
loop_
 _symmetry_equiv_pos_site_id
 _symmetry_equiv_pos_as_xyz
  1  'x, y, z'
loop_
 _atom_site_type_symbol
 _atom_site_label
 _atom_site_symmetry_multiplicity
 _atom_site_fract_x
 _atom_site_fract_y
 _atom_site_fract_z
 _atom_site_occupancy
  Pr  Pr0  1  0.674036  0.825965  0.500001  1
  Th  Th1  1  0.328605  0.171396  0.500001  1
  Th  Th2  1  0.826499  0.327507  0.500001  1
  Th  Th3  1  0.172494  0.673502  0.500001  1
  Hg  Hg4  1  0.996636  0.999681  0.000000  1
  Hg  Hg5  1  0.500319  0.503364  0.000000  1
  Pt  Pt6  1  0.623232  0.135881  0.000000  1
  Pt  Pt7  1  0.132313  0.367687  0.000000  1
  Pt  Pt8  1  0.881749  0.618251  0.000000  1
  Pt  Pt9  1  0.364119  0.876768  0.000000  1
