# generated using pymatgen
data_NaGeWO5
_symmetry_space_group_name_H-M   'P 1'
_cell_length_a   5.71153924
_cell_length_b   5.71133237
_cell_length_c   7.51108095
_cell_angle_alpha   74.96888041
_cell_angle_beta   74.96772755
_cell_angle_gamma   104.54251510
_symmetry_Int_Tables_number   1
_chemical_formula_structural   NaGeWO5
_chemical_formula_sum   'Na2 Ge2 W2 O10'
_cell_volume   214.81022350
_cell_formula_units_Z   2
loop_
 _symmetry_equiv_pos_site_id
 _symmetry_equiv_pos_as_xyz
  1  'x, y, z'
loop_
 _atom_site_type_symbol
 _atom_site_label
 _atom_site_symmetry_multiplicity
 _atom_site_fract_x
 _atom_site_fract_y
 _atom_site_fract_z
 _atom_site_occupancy
  Na  Na0  1  0.674913  0.325085  0.250000  1
  Na  Na1  1  0.325087  0.674915  0.750000  1
  Ge  Ge2  1  0.682689  0.317283  0.750001  1
  Ge  Ge3  1  0.317311  0.682717  0.249999  1
  W  W4  1  0.000000  0.000000  0.500000  1
  W  W5  1  0.000000  0.000000  0.000000  1
  O  O6  1  0.062157  0.937845  0.749984  1
  O  O7  1  0.937843  0.062155  0.250016  1
  O  O8  1  0.301988  0.884400  0.393866  1
  O  O9  1  0.115598  0.698054  0.106146  1
  O  O10  1  0.698012  0.115600  0.606134  1
  O  O11  1  0.884402  0.301946  0.893854  1
  O  O12  1  0.751592  0.638428  0.599397  1
  O  O13  1  0.361569  0.248401  0.900636  1
  O  O14  1  0.248408  0.361572  0.400603  1
  O  O15  1  0.638431  0.751599  0.099364  1
