# generated using pymatgen
data_Y5Tm3Re2(B12Ir)2
_symmetry_space_group_name_H-M   'P 1'
_cell_length_a   3.65765000
_cell_length_b   9.13729547
_cell_length_c   11.53638803
_cell_angle_alpha   90.30687555
_cell_angle_beta   90.00000000
_cell_angle_gamma   90.00000000
_symmetry_Int_Tables_number   1
_chemical_formula_structural   Y5Tm3Re2(B12Ir)2
_chemical_formula_sum   'Y5 Tm3 Re2 B24 Ir2'
_cell_volume   385.55242635
_cell_formula_units_Z   1
loop_
 _symmetry_equiv_pos_site_id
 _symmetry_equiv_pos_as_xyz
  1  'x, y, z'
loop_
 _atom_site_type_symbol
 _atom_site_label
 _atom_site_symmetry_multiplicity
 _atom_site_fract_x
 _atom_site_fract_y
 _atom_site_fract_z
 _atom_site_occupancy
  Y  Y0  1  0.000000  0.317129  0.410038  1
  Y  Y1  1  0.000000  0.683083  0.590307  1
  Y  Y2  1  0.000000  0.825898  0.082276  1
  Y  Y3  1  0.000000  0.174147  0.917422  1
  Y  Y4  1  0.000000  0.946170  0.372661  1
  Tm  Tm5  1  0.000000  0.053925  0.628242  1
  Tm  Tm6  1  0.000000  0.441706  0.125648  1
  Tm  Tm7  1  0.000000  0.558340  0.874162  1
  Re  Re8  1  0.000000  0.139292  0.179735  1
  Re  Re9  1  0.000000  0.861337  0.819758  1
  B  B10  1  0.500000  0.554059  0.433850  1
  B  B11  1  0.500000  0.445577  0.566305  1
  B  B12  1  0.500000  0.053596  0.067231  1
  B  B13  1  0.500000  0.946502  0.932433  1
  B  B14  1  0.500000  0.749057  0.421079  1
  B  B15  1  0.500000  0.249990  0.579278  1
  B  B16  1  0.500000  0.248890  0.080861  1
  B  B17  1  0.500000  0.751251  0.918998  1
  B  B18  1  0.500000  0.790400  0.265788  1
  B  B19  1  0.500000  0.208788  0.733858  1
  B  B20  1  0.500000  0.292968  0.233960  1
  B  B21  1  0.500000  0.707385  0.765945  1
  B  B22  1  0.500000  0.630777  0.183676  1
  B  B23  1  0.500000  0.369016  0.816164  1
  B  B24  1  0.500000  0.131882  0.314459  1
  B  B25  1  0.500000  0.868975  0.685288  1
  B  B26  1  0.500000  0.983069  0.212782  1
  B  B27  1  0.500000  0.017413  0.786436  1
  B  B28  1  0.500000  0.482156  0.286703  1
  B  B29  1  0.500000  0.517620  0.713213  1
  B  B30  1  0.500000  0.604900  0.029384  1
  B  B31  1  0.500000  0.395084  0.970478  1
  B  B32  1  0.500000  0.107041  0.471889  1
  B  B33  1  0.500000  0.893626  0.529704  1
  Ir  Ir34  1  0.000000  0.636005  0.321592  1
  Ir  Ir35  1  0.000000  0.362947  0.678398  1
