# generated using pymatgen
data_Tb8Ti9Nb2Si16Mo
_symmetry_space_group_name_H-M   'P 1'
_cell_length_a   7.06041880
_cell_length_b   7.05283321
_cell_length_c   12.98819162
_cell_angle_alpha   89.92584965
_cell_angle_beta   90.18579580
_cell_angle_gamma   89.93682508
_symmetry_Int_Tables_number   1
_chemical_formula_structural   Tb8Ti9Nb2Si16Mo
_chemical_formula_sum   'Tb8 Ti9 Nb2 Si16 Mo1'
_cell_volume   646.75508231
_cell_formula_units_Z   1
loop_
 _symmetry_equiv_pos_site_id
 _symmetry_equiv_pos_as_xyz
  1  'x, y, z'
loop_
 _atom_site_type_symbol
 _atom_site_label
 _atom_site_symmetry_multiplicity
 _atom_site_fract_x
 _atom_site_fract_y
 _atom_site_fract_z
 _atom_site_occupancy
  Tb  Tb0  1  0.341010  0.001637  0.466480  1
  Tb  Tb1  1  0.496947  0.840288  0.718334  1
  Tb  Tb2  1  0.501378  0.158877  0.215851  1
  Tb  Tb3  1  0.839471  0.497369  0.282997  1
  Tb  Tb4  1  0.159752  0.502654  0.783181  1
  Tb  Tb5  1  0.658344  0.996890  0.966598  1
  Tb  Tb6  1  0.003050  0.339188  0.533899  1
  Tb  Tb7  1  0.998201  0.660614  0.031918  1
  Ti  Ti8  1  0.831176  0.170074  0.751301  1
  Ti  Ti9  1  0.673075  0.673072  0.500202  1
  Ti  Ti10  1  0.489520  0.655052  0.124145  1
  Ti  Ti11  1  0.507271  0.345409  0.627411  1
  Ti  Ti12  1  0.652360  0.490829  0.874577  1
  Ti  Ti13  1  0.345901  0.509289  0.374181  1
  Ti  Ti14  1  0.847451  0.991522  0.375211  1
  Ti  Ti15  1  0.007561  0.152971  0.125103  1
  Ti  Ti16  1  0.992309  0.845964  0.624605  1
  Nb  Nb17  1  0.325114  0.326348  0.999356  1
  Nb  Nb18  1  0.172024  0.827933  0.249406  1
  Si  Si19  1  0.201789  0.129079  0.686230  1
  Si  Si20  1  0.370592  0.705240  0.933077  1
  Si  Si21  1  0.629661  0.298585  0.435720  1
  Si  Si22  1  0.703199  0.370562  0.065166  1
  Si  Si23  1  0.298929  0.629123  0.565643  1
  Si  Si24  1  0.797372  0.870117  0.184600  1
  Si  Si25  1  0.129857  0.202998  0.315463  1
  Si  Si26  1  0.872800  0.800364  0.815448  1
  Si  Si27  1  0.291008  0.954362  0.062586  1
  Si  Si28  1  0.546874  0.790422  0.314656  1
  Si  Si29  1  0.452864  0.208717  0.813585  1
  Si  Si30  1  0.791395  0.546615  0.685123  1
  Si  Si31  1  0.207830  0.453129  0.186053  1
  Si  Si32  1  0.709921  0.046473  0.565396  1
  Si  Si33  1  0.953656  0.289554  0.935146  1
  Si  Si34  1  0.045671  0.708180  0.436207  1
  Mo  Mo35  1  0.154667  0.010499  0.875146  1
