# generated using pymatgen
data_Tl3Ir3RuPbO13
_symmetry_space_group_name_H-M   'P 1'
_cell_length_a   7.32744460
_cell_length_b   7.32069431
_cell_length_c   7.30540500
_cell_angle_alpha   60.06906769
_cell_angle_beta   60.09945248
_cell_angle_gamma   60.22882885
_symmetry_Int_Tables_number   1
_chemical_formula_structural   Tl3Ir3RuPbO13
_chemical_formula_sum   'Tl3 Ir3 Ru1 Pb1 O13'
_cell_volume   277.92866690
_cell_formula_units_Z   1
loop_
 _symmetry_equiv_pos_site_id
 _symmetry_equiv_pos_as_xyz
  1  'x, y, z'
loop_
 _atom_site_type_symbol
 _atom_site_label
 _atom_site_symmetry_multiplicity
 _atom_site_fract_x
 _atom_site_fract_y
 _atom_site_fract_z
 _atom_site_occupancy
  Tl  Tl0  1  0.878669  0.373849  0.373741  1
  Tl  Tl1  1  0.372635  0.372920  0.372270  1
  Tl  Tl2  1  0.372635  0.372920  0.882174  1
  Ir  Ir3  1  0.875707  0.373152  0.875570  1
  Ir  Ir4  1  0.875638  0.875766  0.373145  1
  Ir  Ir5  1  0.875638  0.875766  0.875451  1
  Ru  Ru6  1  0.373232  0.875967  0.875399  1
  Pb  Pb7  1  0.375628  0.875518  0.374426  1
  O  O8  1  0.197064  0.804035  0.801078  1
  O  O9  1  0.197064  0.804035  0.197823  1
  O  O10  1  0.553788  0.945177  0.948828  1
  O  O11  1  0.553788  0.945177  0.552206  1
  O  O12  1  0.953675  0.950971  0.547677  1
  O  O13  1  0.797351  0.798593  0.202028  1
  O  O14  1  0.553916  0.552407  0.946838  1
  O  O15  1  0.800221  0.199470  0.799719  1
  O  O16  1  0.800221  0.199470  0.200590  1
  O  O17  1  0.950070  0.549692  0.951191  1
  O  O18  1  0.950070  0.549692  0.549047  1
  O  O19  1  0.196513  0.196664  0.803411  1
  O  O20  1  0.496475  0.508754  0.497386  1
