# generated using pymatgen
data_Nd16Cd4FeNi3
_symmetry_space_group_name_H-M   'P 1'
_cell_length_a   9.85801988
_cell_length_b   9.85801917
_cell_length_c   9.85801967
_cell_angle_alpha   59.71199916
_cell_angle_beta   59.71200205
_cell_angle_gamma   59.71200008
_symmetry_Int_Tables_number   1
_chemical_formula_structural   Nd16Cd4FeNi3
_chemical_formula_sum   'Nd16 Cd4 Fe1 Ni3'
_cell_volume   672.98255342
_cell_formula_units_Z   1
loop_
 _symmetry_equiv_pos_site_id
 _symmetry_equiv_pos_as_xyz
  1  'x, y, z'
loop_
 _atom_site_type_symbol
 _atom_site_label
 _atom_site_symmetry_multiplicity
 _atom_site_fract_x
 _atom_site_fract_y
 _atom_site_fract_z
 _atom_site_occupancy
  Nd  Nd0  1  0.598167  0.598167  0.598167  1
  Nd  Nd1  1  0.596015  0.596015  0.208585  1
  Nd  Nd2  1  0.596015  0.208585  0.596015  1
  Nd  Nd3  1  0.208585  0.596015  0.596015  1
  Nd  Nd4  1  0.066668  0.438224  0.438224  1
  Nd  Nd5  1  0.438390  0.059319  0.059319  1
  Nd  Nd6  1  0.438224  0.066668  0.438224  1
  Nd  Nd7  1  0.059319  0.438390  0.059319  1
  Nd  Nd8  1  0.438224  0.438224  0.066668  1
  Nd  Nd9  1  0.059319  0.059319  0.438390  1
  Nd  Nd10  1  0.188225  0.812838  0.812838  1
  Nd  Nd11  1  0.807204  0.188530  0.188530  1
  Nd  Nd12  1  0.812838  0.188225  0.812838  1
  Nd  Nd13  1  0.188530  0.807204  0.188530  1
  Nd  Nd14  1  0.812838  0.812838  0.188225  1
  Nd  Nd15  1  0.188530  0.188530  0.807204  1
  Cd  Cd16  1  0.829229  0.829229  0.829229  1
  Cd  Cd17  1  0.829851  0.829851  0.509830  1
  Cd  Cd18  1  0.829851  0.509830  0.829851  1
  Cd  Cd19  1  0.509830  0.829851  0.829851  1
  Fe  Fe20  1  0.392163  0.392163  0.392163  1
  Ni  Ni21  1  0.393502  0.393502  0.824985  1
  Ni  Ni22  1  0.393502  0.824985  0.393502  1
  Ni  Ni23  1  0.824985  0.393502  0.393502  1
