# generated using pymatgen
data_La4Pr4Pd24Au
_symmetry_space_group_name_H-M   'P 1'
_cell_length_a   8.58886118
_cell_length_b   8.58772419
_cell_length_c   8.58772400
_cell_angle_alpha   90.00188813
_cell_angle_beta   90.03004592
_cell_angle_gamma   90.03004890
_symmetry_Int_Tables_number   1
_chemical_formula_structural   La4Pr4Pd24Au
_chemical_formula_sum   'La4 Pr4 Pd24 Au1'
_cell_volume   633.41979244
_cell_formula_units_Z   1
loop_
 _symmetry_equiv_pos_site_id
 _symmetry_equiv_pos_as_xyz
  1  'x, y, z'
loop_
 _atom_site_type_symbol
 _atom_site_label
 _atom_site_symmetry_multiplicity
 _atom_site_fract_x
 _atom_site_fract_y
 _atom_site_fract_z
 _atom_site_occupancy
  La  La0  1  0.249500  0.249493  0.750743  1
  La  La1  1  0.249500  0.750743  0.249493  1
  La  La2  1  0.249503  0.750406  0.750406  1
  La  La3  1  0.750407  0.249765  0.249765  1
  Pr  Pr4  1  0.248251  0.248143  0.248143  1
  Pr  Pr5  1  0.751712  0.751697  0.751697  1
  Pr  Pr6  1  0.751438  0.751475  0.248492  1
  Pr  Pr7  1  0.751438  0.248492  0.751475  1
  Pd  Pd8  1  0.267561  0.499703  0.000219  1
  Pd  Pd9  1  0.732228  0.500393  0.999751  1
  Pd  Pd10  1  0.000112  0.267672  0.499950  1
  Pd  Pd11  1  0.499698  0.267667  0.000083  1
  Pd  Pd12  1  0.999621  0.732262  0.500106  1
  Pd  Pd13  1  0.500377  0.732280  0.999855  1
  Pd  Pd14  1  0.499698  0.000083  0.267667  1
  Pd  Pd15  1  0.267561  0.000219  0.499703  1
  Pd  Pd16  1  0.500377  0.999855  0.732280  1
  Pd  Pd17  1  0.732228  0.999751  0.500393  1
  Pd  Pd18  1  0.000112  0.499950  0.267672  1
  Pd  Pd19  1  0.999621  0.500106  0.732262  1
  Pd  Pd20  1  0.255799  0.499607  0.499607  1
  Pd  Pd21  1  0.744365  0.500398  0.500398  1
  Pd  Pd22  1  0.499855  0.255665  0.499965  1
  Pd  Pd23  1  0.500617  0.744327  0.500070  1
  Pd  Pd24  1  0.499855  0.499965  0.255665  1
  Pd  Pd25  1  0.500617  0.500070  0.744327  1
  Pd  Pd26  1  0.314912  0.000295  0.000295  1
  Pd  Pd27  1  0.683997  0.999704  0.999704  1
  Pd  Pd28  1  0.000279  0.315394  0.000116  1
  Pd  Pd29  1  0.999669  0.684514  0.999949  1
  Pd  Pd30  1  0.000279  0.000116  0.315394  1
  Pd  Pd31  1  0.999669  0.999949  0.684514  1
  Au  Au32  1  0.999150  0.999843  0.999843  1
