# generated using pymatgen
data_Dy4Er6Ir3Ru
_symmetry_space_group_name_H-M   'P 1'
_cell_length_a   6.43343957
_cell_length_b   7.21619652
_cell_length_c   8.43632430
_cell_angle_alpha   96.65803326
_cell_angle_beta   112.08976972
_cell_angle_gamma   90.02989156
_symmetry_Int_Tables_number   1
_chemical_formula_structural   Dy4Er6Ir3Ru
_chemical_formula_sum   'Dy4 Er6 Ir3 Ru1'
_cell_volume   360.04486616
_cell_formula_units_Z   1
loop_
 _symmetry_equiv_pos_site_id
 _symmetry_equiv_pos_as_xyz
  1  'x, y, z'
loop_
 _atom_site_type_symbol
 _atom_site_label
 _atom_site_symmetry_multiplicity
 _atom_site_fract_x
 _atom_site_fract_y
 _atom_site_fract_z
 _atom_site_occupancy
  Dy  Dy0  1  0.790514  0.582359  0.813952  1
  Dy  Dy1  1  0.974084  0.917991  0.184311  1
  Dy  Dy2  1  0.210005  0.417612  0.183126  1
  Dy  Dy3  1  0.026500  0.083896  0.814773  1
  Er  Er4  1  0.210233  0.681836  0.562312  1
  Er  Er5  1  0.649679  0.816943  0.438907  1
  Er  Er6  1  0.789540  0.316271  0.439775  1
  Er  Er7  1  0.348776  0.183883  0.561604  1
  Er  Er8  1  0.425697  0.748820  0.999159  1
  Er  Er9  1  0.574201  0.249990  0.999969  1
  Ir  Ir10  1  0.603677  0.926060  0.778872  1
  Ir  Ir11  1  0.823509  0.574765  0.221099  1
  Ir  Ir12  1  0.397852  0.073557  0.220720  1
  Ru  Ru13  1  0.175732  0.426017  0.781417  1
