# generated using pymatgen
data_Na6MnVS4(O4F)4
_symmetry_space_group_name_H-M   'P 1'
_cell_length_a   6.75612100
_cell_length_b   9.01049200
_cell_length_c   14.19045000
_cell_angle_alpha   90.00000000
_cell_angle_beta   90.00000000
_cell_angle_gamma   90.00000000
_symmetry_Int_Tables_number   1
_chemical_formula_structural   Na6MnVS4(O4F)4
_chemical_formula_sum   'Na12 Mn2 V2 S8 O32 F8'
_cell_volume   863.85746839
_cell_formula_units_Z   2
loop_
 _symmetry_equiv_pos_site_id
 _symmetry_equiv_pos_as_xyz
  1  'x, y, z'
loop_
 _atom_site_type_symbol
 _atom_site_label
 _atom_site_symmetry_multiplicity
 _atom_site_fract_x
 _atom_site_fract_y
 _atom_site_fract_z
 _atom_site_occupancy
  Na  Na0  1  0.519349  0.667251  0.902997  1
  Na  Na1  1  0.019349  0.832749  0.597003  1
  Na  Na2  1  0.480651  0.167251  0.597003  1
  Na  Na3  1  0.980651  0.332749  0.902997  1
  Na  Na4  1  0.481047  0.332926  0.095391  1
  Na  Na5  1  0.981047  0.167074  0.404609  1
  Na  Na6  1  0.518953  0.832926  0.404609  1
  Na  Na7  1  0.018953  0.667074  0.095391  1
  Na  Na8  1  0.750000  0.000000  0.047988  1
  Na  Na9  1  0.250000  0.500000  0.452012  1
  Na  Na10  1  0.250000  0.000000  0.949643  1
  Na  Na11  1  0.750000  0.500000  0.550357  1
  Mn  Mn12  1  0.750000  0.000000  0.800419  1
  Mn  Mn13  1  0.250000  0.500000  0.699581  1
  V  V14  1  0.250000  0.000000  0.197299  1
  V  V15  1  0.750000  0.500000  0.302701  1
  S  S16  1  0.005747  0.689898  0.856091  1
  S  S17  1  0.505747  0.810102  0.643909  1
  S  S18  1  0.994253  0.189898  0.643909  1
  S  S19  1  0.494253  0.310102  0.856091  1
  S  S20  1  0.997802  0.306775  0.142534  1
  S  S21  1  0.497802  0.193225  0.357466  1
  S  S22  1  0.002198  0.806775  0.357466  1
  S  S23  1  0.502198  0.693225  0.142534  1
  O  O24  1  0.440980  0.451949  0.801525  1
  O  O25  1  0.940980  0.048051  0.698475  1
  O  O26  1  0.559020  0.951949  0.698475  1
  O  O27  1  0.059020  0.548051  0.801525  1
  O  O28  1  0.553562  0.554680  0.199379  1
  O  O29  1  0.053562  0.945320  0.300621  1
  O  O30  1  0.446438  0.054680  0.300621  1
  O  O31  1  0.946438  0.445320  0.199379  1
  O  O32  1  0.186302  0.763941  0.889092  1
  O  O33  1  0.686302  0.736059  0.610908  1
  O  O34  1  0.813698  0.263941  0.610908  1
  O  O35  1  0.313698  0.236059  0.889092  1
  O  O36  1  0.815686  0.234198  0.110138  1
  O  O37  1  0.315686  0.265802  0.389862  1
  O  O38  1  0.184314  0.734198  0.389862  1
  O  O39  1  0.684314  0.765802  0.110138  1
  O  O40  1  0.881092  0.638328  0.935226  1
  O  O41  1  0.381092  0.861672  0.564774  1
  O  O42  1  0.118908  0.138328  0.564774  1
  O  O43  1  0.618908  0.361672  0.935226  1
  O  O44  1  0.122600  0.356829  0.063378  1
  O  O45  1  0.622600  0.143171  0.436622  1
  O  O46  1  0.877400  0.856829  0.436622  1
  O  O47  1  0.377400  0.643171  0.063378  1
  O  O48  1  0.390126  0.715482  0.709653  1
  O  O49  1  0.890126  0.784518  0.790347  1
  O  O50  1  0.609874  0.215482  0.790347  1
  O  O51  1  0.109874  0.284518  0.709653  1
  O  O52  1  0.614406  0.291413  0.292508  1
  O  O53  1  0.114406  0.208587  0.207492  1
  O  O54  1  0.385594  0.791413  0.207492  1
  O  O55  1  0.885594  0.708587  0.292508  1
  F  F56  1  0.580070  0.930003  0.899265  1
  F  F57  1  0.080070  0.569997  0.600735  1
  F  F58  1  0.419930  0.430003  0.600735  1
  F  F59  1  0.919930  0.069997  0.899265  1
  F  F60  1  0.423823  0.070585  0.096933  1
  F  F61  1  0.923823  0.429415  0.403067  1
  F  F62  1  0.576177  0.570585  0.403067  1
  F  F63  1  0.076177  0.929415  0.096933  1
