# generated using pymatgen
data_Lu11Sc(CuTe2)2
_symmetry_space_group_name_H-M   'P 1'
_cell_length_a   3.92710200
_cell_length_b   11.32484667
_cell_length_c   21.04115888
_cell_angle_alpha   90.14956307
_cell_angle_beta   90.00000000
_cell_angle_gamma   90.00000000
_symmetry_Int_Tables_number   1
_chemical_formula_structural   Lu11Sc(CuTe2)2
_chemical_formula_sum   'Lu22 Sc2 Cu4 Te8'
_cell_volume   935.77769277
_cell_formula_units_Z   2
loop_
 _symmetry_equiv_pos_site_id
 _symmetry_equiv_pos_as_xyz
  1  'x, y, z'
loop_
 _atom_site_type_symbol
 _atom_site_label
 _atom_site_symmetry_multiplicity
 _atom_site_fract_x
 _atom_site_fract_y
 _atom_site_fract_z
 _atom_site_occupancy
  Lu  Lu0  1  0.250000  0.742491  0.269866  1
  Lu  Lu1  1  0.750000  0.257509  0.730134  1
  Lu  Lu2  1  0.750000  0.242303  0.235123  1
  Lu  Lu3  1  0.250000  0.757697  0.764877  1
  Lu  Lu4  1  0.250000  0.612397  0.006953  1
  Lu  Lu5  1  0.750000  0.387603  0.993047  1
  Lu  Lu6  1  0.750000  0.114101  0.499063  1
  Lu  Lu7  1  0.250000  0.885899  0.500937  1
  Lu  Lu8  1  0.250000  0.374932  0.481900  1
  Lu  Lu9  1  0.750000  0.625068  0.518100  1
  Lu  Lu10  1  0.750000  0.880212  0.024041  1
  Lu  Lu11  1  0.250000  0.119788  0.975959  1
  Lu  Lu12  1  0.250000  0.033196  0.155409  1
  Lu  Lu13  1  0.750000  0.966804  0.844591  1
  Lu  Lu14  1  0.750000  0.535388  0.348828  1
  Lu  Lu15  1  0.250000  0.464612  0.651172  1
  Lu  Lu16  1  0.250000  0.062569  0.361763  1
  Lu  Lu17  1  0.750000  0.937431  0.638237  1
  Lu  Lu18  1  0.750000  0.562124  0.141112  1
  Lu  Lu19  1  0.250000  0.437876  0.858888  1
  Lu  Lu20  1  0.250000  0.312177  0.109586  1
  Lu  Lu21  1  0.750000  0.687823  0.890414  1
  Sc  Sc22  1  0.750000  0.818027  0.387953  1
  Sc  Sc23  1  0.250000  0.181973  0.612047  1
  Cu  Cu24  1  0.250000  0.649899  0.421140  1
  Cu  Cu25  1  0.750000  0.350101  0.578860  1
  Cu  Cu26  1  0.750000  0.135238  0.075970  1
  Cu  Cu27  1  0.250000  0.864762  0.924030  1
  Te  Te28  1  0.250000  0.770113  0.126615  1
  Te  Te29  1  0.750000  0.229887  0.873385  1
  Te  Te30  1  0.750000  0.271423  0.378261  1
  Te  Te31  1  0.250000  0.728577  0.621739  1
  Te  Te32  1  0.250000  0.460279  0.240235  1
  Te  Te33  1  0.750000  0.539721  0.759765  1
  Te  Te34  1  0.750000  0.959258  0.263051  1
  Te  Te35  1  0.250000  0.040742  0.736949  1
