# generated using pymatgen
data_RbSnIrSe4
_symmetry_space_group_name_H-M   'P 1'
_cell_length_a   3.91279100
_cell_length_b   8.39920731
_cell_length_c   6.68646519
_cell_angle_alpha   74.11885121
_cell_angle_beta   90.00000000
_cell_angle_gamma   90.00000000
_symmetry_Int_Tables_number   1
_chemical_formula_structural   RbSnIrSe4
_chemical_formula_sum   'Rb1 Sn1 Ir1 Se4'
_cell_volume   211.35887445
_cell_formula_units_Z   1
loop_
 _symmetry_equiv_pos_site_id
 _symmetry_equiv_pos_as_xyz
  1  'x, y, z'
loop_
 _atom_site_type_symbol
 _atom_site_label
 _atom_site_symmetry_multiplicity
 _atom_site_fract_x
 _atom_site_fract_y
 _atom_site_fract_z
 _atom_site_occupancy
  Rb  Rb0  1  0.500000  0.493204  0.653023  1
  Sn  Sn1  1  0.000000  0.000238  0.002270  1
  Ir  Ir2  1  0.500000  0.001513  0.503040  1
  Se  Se3  1  0.000000  0.839527  0.414762  1
  Se  Se4  1  0.500000  0.818439  0.872302  1
  Se  Se5  1  0.000000  0.163422  0.589860  1
  Se  Se6  1  0.500000  0.182777  0.131703  1
