# generated using pymatgen
data_Li2FeTc3O8
_symmetry_space_group_name_H-M   'P 1'
_cell_length_a   5.77930112
_cell_length_b   5.76428195
_cell_length_c   10.14209795
_cell_angle_alpha   89.98792186
_cell_angle_beta   90.00970240
_cell_angle_gamma   119.91297715
_symmetry_Int_Tables_number   1
_chemical_formula_structural   Li2FeTc3O8
_chemical_formula_sum   'Li4 Fe2 Tc6 O16'
_cell_volume   292.85937069
_cell_formula_units_Z   2
loop_
 _symmetry_equiv_pos_site_id
 _symmetry_equiv_pos_as_xyz
  1  'x, y, z'
loop_
 _atom_site_type_symbol
 _atom_site_label
 _atom_site_symmetry_multiplicity
 _atom_site_fract_x
 _atom_site_fract_y
 _atom_site_fract_z
 _atom_site_occupancy
  Li  Li0  1  0.334381  0.667227  0.886266  1
  Li  Li1  1  0.001523  0.000960  0.992176  1
  Li  Li2  1  0.998622  0.999571  0.492253  1
  Li  Li3  1  0.665624  0.332822  0.386292  1
  Fe  Fe4  1  0.334417  0.667289  0.499304  1
  Fe  Fe5  1  0.665694  0.332906  0.999187  1
  Tc  Tc6  1  0.186642  0.812240  0.212156  1
  Tc  Tc7  1  0.186670  0.374402  0.212149  1
  Tc  Tc8  1  0.627259  0.813600  0.211956  1
  Tc  Tc9  1  0.372684  0.186333  0.711955  1
  Tc  Tc10  1  0.813308  0.625601  0.712142  1
  Tc  Tc11  1  0.813278  0.187713  0.712125  1
  O  O12  1  0.162134  0.836411  0.603614  1
  O  O13  1  0.031499  0.515598  0.350174  1
  O  O14  1  0.333873  0.666980  0.075153  1
  O  O15  1  0.999965  0.999855  0.305570  1
  O  O16  1  0.000061  0.999918  0.805486  1
  O  O17  1  0.162029  0.325729  0.603638  1
  O  O18  1  0.481255  0.965325  0.349480  1
  O  O19  1  0.481107  0.515738  0.349532  1
  O  O20  1  0.328008  0.164114  0.102866  1
  O  O21  1  0.671994  0.836105  0.602971  1
  O  O22  1  0.518738  0.484087  0.849407  1
  O  O23  1  0.518895  0.034644  0.849468  1
  O  O24  1  0.666082  0.333104  0.575175  1
  O  O25  1  0.837798  0.674148  0.103559  1
  O  O26  1  0.968546  0.484132  0.850188  1
  O  O27  1  0.837913  0.163749  0.103597  1
