# generated using pymatgen
data_DyU3(ZnIr)4
_symmetry_space_group_name_H-M   'P 1'
_cell_length_a   3.89743900
_cell_length_b   7.02179776
_cell_length_c   8.32431163
_cell_angle_alpha   90.84268416
_cell_angle_beta   90.00000000
_cell_angle_gamma   90.00000000
_symmetry_Int_Tables_number   1
_chemical_formula_structural   DyU3(ZnIr)4
_chemical_formula_sum   'Dy1 U3 Zn4 Ir4'
_cell_volume   227.78703428
_cell_formula_units_Z   1
loop_
 _symmetry_equiv_pos_site_id
 _symmetry_equiv_pos_as_xyz
  1  'x, y, z'
loop_
 _atom_site_type_symbol
 _atom_site_label
 _atom_site_symmetry_multiplicity
 _atom_site_fract_x
 _atom_site_fract_y
 _atom_site_fract_z
 _atom_site_occupancy
  Dy  Dy0  1  0.750000  0.948778  0.686045  1
  U  U1  1  0.250000  0.544557  0.185641  1
  U  U2  1  0.750000  0.450120  0.811396  1
  U  U3  1  0.250000  0.049218  0.314352  1
  Zn  Zn4  1  0.250000  0.119226  0.937050  1
  Zn  Zn5  1  0.750000  0.873041  0.055926  1
  Zn  Zn6  1  0.250000  0.636661  0.558484  1
  Zn  Zn7  1  0.750000  0.377782  0.442082  1
  Ir  Ir8  1  0.750000  0.764067  0.358691  1
  Ir  Ir9  1  0.250000  0.256899  0.637741  1
  Ir  Ir10  1  0.750000  0.262460  0.133814  1
  Ir  Ir11  1  0.250000  0.717192  0.878779  1
