# generated using pymatgen
data_La14PtRh5
_symmetry_space_group_name_H-M   'P 1'
_cell_length_a   10.25515106
_cell_length_b   10.25515139
_cell_length_c   6.56156375
_cell_angle_alpha   89.95230578
_cell_angle_beta   90.04769197
_cell_angle_gamma   119.94540763
_symmetry_Int_Tables_number   1
_chemical_formula_structural   La14PtRh5
_chemical_formula_sum   'La14 Pt1 Rh5'
_cell_volume   597.94407711
_cell_formula_units_Z   1
loop_
 _symmetry_equiv_pos_site_id
 _symmetry_equiv_pos_as_xyz
  1  'x, y, z'
loop_
 _atom_site_type_symbol
 _atom_site_label
 _atom_site_symmetry_multiplicity
 _atom_site_fract_x
 _atom_site_fract_y
 _atom_site_fract_z
 _atom_site_occupancy
  La  La0  1  0.665430  0.334570  0.533548  1
  La  La1  1  0.333124  0.666876  0.030568  1
  La  La2  1  0.875151  0.750935  0.751390  1
  La  La3  1  0.249065  0.124849  0.751390  1
  La  La4  1  0.874903  0.125097  0.756191  1
  La  La5  1  0.129235  0.251341  0.250738  1
  La  La6  1  0.748659  0.870765  0.250738  1
  La  La7  1  0.124899  0.875101  0.251692  1
  La  La8  1  0.460567  0.921789  0.564532  1
  La  La9  1  0.078211  0.539433  0.564532  1
  La  La10  1  0.460773  0.539227  0.566151  1
  La  La11  1  0.534821  0.075881  0.061704  1
  La  La12  1  0.924119  0.465179  0.061704  1
  La  La13  1  0.539150  0.460850  0.064524  1
  Pt  Pt14  1  0.811914  0.188086  0.310384  1
  Rh  Rh15  1  0.188910  0.377628  0.808515  1
  Rh  Rh16  1  0.622372  0.811090  0.808515  1
  Rh  Rh17  1  0.188685  0.811315  0.809415  1
  Rh  Rh18  1  0.811297  0.621283  0.309146  1
  Rh  Rh19  1  0.378717  0.188703  0.309146  1
