# generated using pymatgen
data_Mg2NbRh3
_symmetry_space_group_name_H-M   'P 1'
_cell_length_a   3.22061300
_cell_length_b   4.45451617
_cell_length_c   6.92796429
_cell_angle_alpha   71.51240174
_cell_angle_beta   90.00000000
_cell_angle_gamma   90.00000000
_symmetry_Int_Tables_number   1
_chemical_formula_structural   Mg2NbRh3
_chemical_formula_sum   'Mg2 Nb1 Rh3'
_cell_volume   94.26115297
_cell_formula_units_Z   1
loop_
 _symmetry_equiv_pos_site_id
 _symmetry_equiv_pos_as_xyz
  1  'x, y, z'
loop_
 _atom_site_type_symbol
 _atom_site_label
 _atom_site_symmetry_multiplicity
 _atom_site_fract_x
 _atom_site_fract_y
 _atom_site_fract_z
 _atom_site_occupancy
  Mg  Mg0  1  0.000000  0.333375  0.326182  1
  Mg  Mg1  1  0.000000  0.000271  0.007160  1
  Nb  Nb2  1  0.000000  0.666416  0.666651  1
  Rh  Rh3  1  0.500000  0.511532  0.984038  1
  Rh  Rh4  1  0.500000  0.821948  0.349303  1
  Rh  Rh5  1  0.500000  0.166458  0.666666  1
