# generated using pymatgen
data_Y15ErCd3AgIr4
_symmetry_space_group_name_H-M   'P 1'
_cell_length_a   9.67861307
_cell_length_b   9.67861336
_cell_length_c   9.67861332
_cell_angle_alpha   59.72695829
_cell_angle_beta   59.72695546
_cell_angle_gamma   59.72696578
_symmetry_Int_Tables_number   1
_chemical_formula_structural   Y15ErCd3AgIr4
_chemical_formula_sum   'Y15 Er1 Cd3 Ag1 Ir4'
_cell_volume   637.12250331
_cell_formula_units_Z   1
loop_
 _symmetry_equiv_pos_site_id
 _symmetry_equiv_pos_as_xyz
  1  'x, y, z'
loop_
 _atom_site_type_symbol
 _atom_site_label
 _atom_site_symmetry_multiplicity
 _atom_site_fract_x
 _atom_site_fract_y
 _atom_site_fract_z
 _atom_site_occupancy
  Y  Y0  1  0.350059  0.350059  0.952111  1
  Y  Y1  1  0.350059  0.952111  0.350059  1
  Y  Y2  1  0.952111  0.350059  0.350059  1
  Y  Y3  1  0.808937  0.190137  0.190137  1
  Y  Y4  1  0.187565  0.810060  0.810060  1
  Y  Y5  1  0.190137  0.808937  0.190137  1
  Y  Y6  1  0.810060  0.187565  0.810060  1
  Y  Y7  1  0.190137  0.190137  0.808937  1
  Y  Y8  1  0.810060  0.810060  0.187565  1
  Y  Y9  1  0.937494  0.560683  0.560683  1
  Y  Y10  1  0.561911  0.936202  0.936202  1
  Y  Y11  1  0.560683  0.937494  0.560683  1
  Y  Y12  1  0.936202  0.561911  0.936202  1
  Y  Y13  1  0.560683  0.560683  0.937494  1
  Y  Y14  1  0.936202  0.936202  0.561911  1
  Er  Er15  1  0.348500  0.348500  0.348500  1
  Cd  Cd16  1  0.581170  0.581170  0.258715  1
  Cd  Cd17  1  0.581170  0.258715  0.581170  1
  Cd  Cd18  1  0.258715  0.581170  0.581170  1
  Ag  Ag19  1  0.583004  0.583004  0.583004  1
  Ir  Ir20  1  0.141514  0.141514  0.141514  1
  Ir  Ir21  1  0.144455  0.144455  0.574718  1
  Ir  Ir22  1  0.144455  0.574718  0.144455  1
  Ir  Ir23  1  0.574718  0.144455  0.144455  1
