# generated using pymatgen
data_Tb13Ho3InHg3Rh4
_symmetry_space_group_name_H-M   'P 1'
_cell_length_a   9.62705732
_cell_length_b   9.63133872
_cell_length_c   9.62904226
_cell_angle_alpha   59.95207699
_cell_angle_beta   59.88755435
_cell_angle_gamma   59.87164117
_symmetry_Int_Tables_number   1
_chemical_formula_structural   Tb13Ho3InHg3Rh4
_chemical_formula_sum   'Tb13 Ho3 In1 Hg3 Rh4'
_cell_volume   629.93909611
_cell_formula_units_Z   1
loop_
 _symmetry_equiv_pos_site_id
 _symmetry_equiv_pos_as_xyz
  1  'x, y, z'
loop_
 _atom_site_type_symbol
 _atom_site_label
 _atom_site_symmetry_multiplicity
 _atom_site_fract_x
 _atom_site_fract_y
 _atom_site_fract_z
 _atom_site_occupancy
  Tb  Tb0  1  0.648211  0.053076  0.648470  1
  Tb  Tb1  1  0.064838  0.060646  0.437800  1
  Tb  Tb2  1  0.438614  0.436538  0.061014  1
  Tb  Tb3  1  0.650830  0.649245  0.649245  1
  Tb  Tb4  1  0.812575  0.190069  0.189682  1
  Tb  Tb5  1  0.188962  0.811647  0.810964  1
  Tb  Tb6  1  0.053554  0.647100  0.648211  1
  Tb  Tb7  1  0.439434  0.062184  0.061802  1
  Tb  Tb8  1  0.438251  0.061272  0.436980  1
  Tb  Tb9  1  0.065083  0.437434  0.060531  1
  Tb  Tb10  1  0.649012  0.648301  0.052649  1
  Tb  Tb11  1  0.189151  0.812807  0.189286  1
  Tb  Tb12  1  0.064578  0.435812  0.436319  1
  Ho  Ho13  1  0.810782  0.808953  0.190804  1
  Ho  Ho14  1  0.811268  0.190663  0.808986  1
  Ho  Ho15  1  0.188914  0.189588  0.812426  1
  In  In16  1  0.742896  0.419903  0.419865  1
  Hg  Hg17  1  0.414799  0.415654  0.415871  1
  Hg  Hg18  1  0.414745  0.414614  0.755995  1
  Hg  Hg19  1  0.414968  0.755991  0.414619  1
  Rh  Rh20  1  0.857575  0.426034  0.856938  1
  Rh  Rh21  1  0.856761  0.857858  0.858044  1
  Rh  Rh22  1  0.856641  0.856952  0.426731  1
  Rh  Rh23  1  0.427560  0.857659  0.856765  1
