# generated using pymatgen
data_Dy5LuMg2(Co4P3)4
_symmetry_space_group_name_H-M   'P 1'
_cell_length_a   3.72079900
_cell_length_b   10.60942602
_cell_length_c   12.25014503
_cell_angle_alpha   89.99237390
_cell_angle_beta   90.00000000
_cell_angle_gamma   90.00000000
_symmetry_Int_Tables_number   1
_chemical_formula_structural   Dy5LuMg2(Co4P3)4
_chemical_formula_sum   'Dy5 Lu1 Mg2 Co16 P12'
_cell_volume   483.58110704
_cell_formula_units_Z   1
loop_
 _symmetry_equiv_pos_site_id
 _symmetry_equiv_pos_as_xyz
  1  'x, y, z'
loop_
 _atom_site_type_symbol
 _atom_site_label
 _atom_site_symmetry_multiplicity
 _atom_site_fract_x
 _atom_site_fract_y
 _atom_site_fract_z
 _atom_site_occupancy
  Dy  Dy0  1  0.000000  0.499751  0.526309  1
  Dy  Dy1  1  0.500000  0.999968  0.474074  1
  Dy  Dy2  1  0.500000  0.822210  0.205902  1
  Dy  Dy3  1  0.500000  0.178010  0.206715  1
  Dy  Dy4  1  0.000000  0.677162  0.793619  1
  Lu  Lu5  1  0.000000  0.322693  0.793937  1
  Mg  Mg6  1  0.500000  0.499950  0.156237  1
  Mg  Mg7  1  0.000000  0.000435  0.843633  1
  Co  Co8  1  0.500000  0.498171  0.705823  1
  Co  Co9  1  0.000000  0.000342  0.294751  1
  Co  Co10  1  0.000000  0.499093  0.987904  1
  Co  Co11  1  0.500000  0.000802  0.010578  1
  Co  Co12  1  0.500000  0.332416  0.995943  1
  Co  Co13  1  0.500000  0.666868  0.996051  1
  Co  Co14  1  0.000000  0.168356  0.002253  1
  Co  Co15  1  0.000000  0.832560  0.002980  1
  Co  Co16  1  0.500000  0.296520  0.433146  1
  Co  Co17  1  0.500000  0.703255  0.431932  1
  Co  Co18  1  0.000000  0.203811  0.569489  1
  Co  Co19  1  0.000000  0.796144  0.568073  1
  Co  Co20  1  0.500000  0.878136  0.705456  1
  Co  Co21  1  0.500000  0.123470  0.706838  1
  Co  Co22  1  0.000000  0.622035  0.294137  1
  Co  Co23  1  0.000000  0.377969  0.294807  1
  P  P24  1  0.500000  0.498536  0.884486  1
  P  P25  1  0.000000  0.000546  0.114213  1
  P  P26  1  0.500000  0.499899  0.355404  1
  P  P27  1  0.000000  0.999713  0.644811  1
  P  P28  1  0.500000  0.309841  0.617351  1
  P  P29  1  0.500000  0.690030  0.615420  1
  P  P30  1  0.000000  0.190843  0.385533  1
  P  P31  1  0.000000  0.809374  0.384491  1
  P  P32  1  0.500000  0.838936  0.892641  1
  P  P33  1  0.500000  0.162529  0.891305  1
  P  P34  1  0.000000  0.660738  0.106548  1
  P  P35  1  0.000000  0.338889  0.107211  1
