# generated using pymatgen
data_Ho4Al17SiIr5Au
_symmetry_space_group_name_H-M   'P 1'
_cell_length_a   7.58393283
_cell_length_b   7.58434678
_cell_length_c   9.38328129
_cell_angle_alpha   89.98129820
_cell_angle_beta   89.98616615
_cell_angle_gamma   119.74199527
_symmetry_Int_Tables_number   1
_chemical_formula_structural   Ho4Al17SiIr5Au
_chemical_formula_sum   'Ho4 Al17 Si1 Ir5 Au1'
_cell_volume   468.62039625
_cell_formula_units_Z   1
loop_
 _symmetry_equiv_pos_site_id
 _symmetry_equiv_pos_as_xyz
  1  'x, y, z'
loop_
 _atom_site_type_symbol
 _atom_site_label
 _atom_site_symmetry_multiplicity
 _atom_site_fract_x
 _atom_site_fract_y
 _atom_site_fract_z
 _atom_site_occupancy
  Ho  Ho0  1  0.991146  0.671876  0.251257  1
  Ho  Ho1  1  0.001322  0.329332  0.749054  1
  Ho  Ho2  1  0.676255  0.996923  0.251066  1
  Ho  Ho3  1  0.333087  0.006876  0.748940  1
  Al  Al4  1  0.877666  0.875693  0.748396  1
  Al  Al5  1  0.011302  0.336804  0.080103  1
  Al  Al6  1  0.007420  0.674774  0.922208  1
  Al  Al7  1  0.001485  0.665814  0.573307  1
  Al  Al8  1  0.336858  0.998086  0.425408  1
  Al  Al9  1  0.000130  0.336726  0.424087  1
  Al  Al10  1  0.665889  0.999489  0.574181  1
  Al  Al11  1  0.665416  0.988565  0.922088  1
  Al  Al12  1  0.328063  0.992253  0.079467  1
  Al  Al13  1  0.330958  0.331380  0.554549  1
  Al  Al14  1  0.665233  0.665465  0.449091  1
  Al  Al15  1  0.663029  0.670078  0.060041  1
  Al  Al16  1  0.325973  0.333383  0.935781  1
  Al  Al17  1  0.337402  0.552123  0.251529  1
  Al  Al18  1  0.661873  0.458467  0.743109  1
  Al  Al19  1  0.540454  0.334943  0.256941  1
  Al  Al20  1  0.449281  0.660497  0.748579  1
  Si  Si21  1  0.130515  0.128047  0.250977  1
  Ir  Ir22  1  0.327321  0.670321  0.000201  1
  Ir  Ir23  1  0.327335  0.670234  0.499910  1
  Ir  Ir24  1  0.671001  0.326417  0.499734  1
  Ir  Ir25  1  0.000203  0.000473  0.007001  1
  Ir  Ir26  1  0.000670  0.999899  0.492546  1
  Au  Au27  1  0.672713  0.325059  0.000448  1
