# generated using pymatgen
data_Nd3Hg3RhAu2
_symmetry_space_group_name_H-M   'P 1'
_cell_length_a   8.03983100
_cell_length_b   8.03983085
_cell_length_c   3.87517200
_cell_angle_alpha   90.00000000
_cell_angle_beta   90.00000000
_cell_angle_gamma   119.99999652
_symmetry_Int_Tables_number   1
_chemical_formula_structural   Nd3Hg3RhAu2
_chemical_formula_sum   'Nd3 Hg3 Rh1 Au2'
_cell_volume   216.92792487
_cell_formula_units_Z   1
loop_
 _symmetry_equiv_pos_site_id
 _symmetry_equiv_pos_as_xyz
  1  'x, y, z'
loop_
 _atom_site_type_symbol
 _atom_site_label
 _atom_site_symmetry_multiplicity
 _atom_site_fract_x
 _atom_site_fract_y
 _atom_site_fract_z
 _atom_site_occupancy
  Nd  Nd0  1  0.587048  0.980038  0.000000  1
  Nd  Nd1  1  0.019962  0.607010  0.000000  1
  Nd  Nd2  1  0.392990  0.412952  0.000000  1
  Hg  Hg3  1  0.269313  0.996120  0.500000  1
  Hg  Hg4  1  0.003880  0.273193  0.500000  1
  Hg  Hg5  1  0.726807  0.730687  0.500000  1
  Rh  Rh6  1  0.333333  0.666667  0.500000  1
  Au  Au7  1  0.666667  0.333333  0.500000  1
  Au  Au8  1  0.000000  0.000000  0.000000  1
