# generated using pymatgen
data_Y3ZnCd(HgAu)2
_symmetry_space_group_name_H-M   'P 1'
_cell_length_a   7.91295776
_cell_length_b   7.91295801
_cell_length_c   3.77242600
_cell_angle_alpha   90.00000000
_cell_angle_beta   90.00000000
_cell_angle_gamma   120.14973606
_symmetry_Int_Tables_number   1
_chemical_formula_structural   Y3ZnCd(HgAu)2
_chemical_formula_sum   'Y3 Zn1 Cd1 Hg2 Au2'
_cell_volume   204.25458278
_cell_formula_units_Z   1
loop_
 _symmetry_equiv_pos_site_id
 _symmetry_equiv_pos_as_xyz
  1  'x, y, z'
loop_
 _atom_site_type_symbol
 _atom_site_label
 _atom_site_symmetry_multiplicity
 _atom_site_fract_x
 _atom_site_fract_y
 _atom_site_fract_z
 _atom_site_occupancy
  Y  Y0  1  0.590403  0.003665  0.000000  1
  Y  Y1  1  0.003665  0.590403  0.000000  1
  Y  Y2  1  0.403462  0.403462  0.000000  1
  Zn  Zn3  1  0.998408  0.998408  0.000000  1
  Cd  Cd4  1  0.742568  0.742568  0.500000  1
  Hg  Hg5  1  0.257654  0.997253  0.500000  1
  Hg  Hg6  1  0.997253  0.257654  0.500000  1
  Au  Au7  1  0.339622  0.666966  0.500000  1
  Au  Au8  1  0.666966  0.339622  0.500000  1
