# generated using pymatgen
data_Nb4B2PW
_symmetry_space_group_name_H-M   'P 1'
_cell_length_a   6.16375015
_cell_length_b   6.16375098
_cell_length_c   7.25803078
_cell_angle_alpha   115.12635198
_cell_angle_beta   115.12635952
_cell_angle_gamma   89.99999866
_symmetry_Int_Tables_number   1
_chemical_formula_structural   Nb4B2PW
_chemical_formula_sum   'Nb8 B4 P2 W2'
_cell_volume   220.49366866
_cell_formula_units_Z   2
loop_
 _symmetry_equiv_pos_site_id
 _symmetry_equiv_pos_as_xyz
  1  'x, y, z'
loop_
 _atom_site_type_symbol
 _atom_site_label
 _atom_site_symmetry_multiplicity
 _atom_site_fract_x
 _atom_site_fract_y
 _atom_site_fract_z
 _atom_site_occupancy
  Nb  Nb0  1  0.028438  0.528438  0.719938  1
  Nb  Nb1  1  0.691500  0.191500  0.719938  1
  Nb  Nb2  1  0.191500  0.028438  0.719938  1
  Nb  Nb3  1  0.528438  0.691500  0.719938  1
  Nb  Nb4  1  0.971562  0.471562  0.280062  1
  Nb  Nb5  1  0.308500  0.808500  0.280062  1
  Nb  Nb6  1  0.808500  0.971562  0.280062  1
  Nb  Nb7  1  0.471562  0.308500  0.280062  1
  B  B8  1  0.382427  0.882427  0.000000  1
  B  B9  1  0.617573  0.117573  0.000000  1
  B  B10  1  0.117573  0.382427  0.000000  1
  B  B11  1  0.882427  0.617573  0.000000  1
  P  P12  1  0.250000  0.250000  0.500000  1
  P  P13  1  0.750000  0.750000  0.500000  1
  W  W14  1  0.500000  0.500000  0.000000  1
  W  W15  1  0.000000  0.000000  0.000000  1
