# generated using pymatgen
data_V2Co4H5
_symmetry_space_group_name_H-M   'P 1'
_cell_length_a   2.60329070
_cell_length_b   4.98914001
_cell_length_c   11.11191180
_cell_angle_alpha   136.17906897
_cell_angle_beta   83.24792780
_cell_angle_gamma   121.46367760
_symmetry_Int_Tables_number   1
_chemical_formula_structural   V2Co4H5
_chemical_formula_sum   'V2 Co4 H5'
_cell_volume   76.60289984
_cell_formula_units_Z   1
loop_
 _symmetry_equiv_pos_site_id
 _symmetry_equiv_pos_as_xyz
  1  'x, y, z'
loop_
 _atom_site_type_symbol
 _atom_site_label
 _atom_site_symmetry_multiplicity
 _atom_site_fract_x
 _atom_site_fract_y
 _atom_site_fract_z
 _atom_site_occupancy
  V  V0  1  0.340668  0.828965  0.735405  1
  V  V1  1  0.133668  0.391263  0.273137  1
  Co  Co2  1  0.130833  0.723524  0.943376  1
  Co  Co3  1  0.320797  0.139519  0.396030  1
  Co  Co4  1  0.305492  0.454147  0.054910  1
  Co  Co5  1  0.137612  0.062453  0.607780  1
  H  H6  1  0.238987  0.612346  0.504261  1
  H  H7  1  0.677179  0.714817  0.833557  1
  H  H8  1  0.714425  0.411704  0.151242  1
  H  H9  1  0.734817  0.106568  0.501226  1
  H  H10  1  0.182894  0.879357  0.151705  1
