# generated using pymatgen
data_Yb7CeBi6
_symmetry_space_group_name_H-M   'P 1'
_cell_length_a   8.39438551
_cell_length_b   8.30568585
_cell_length_c   8.39438550
_cell_angle_alpha   109.25731109
_cell_angle_beta   109.68428357
_cell_angle_gamma   109.25731093
_symmetry_Int_Tables_number   1
_chemical_formula_structural   Yb7CeBi6
_chemical_formula_sum   'Yb7 Ce1 Bi6'
_cell_volume   451.72187022
_cell_formula_units_Z   1
loop_
 _symmetry_equiv_pos_site_id
 _symmetry_equiv_pos_as_xyz
  1  'x, y, z'
loop_
 _atom_site_type_symbol
 _atom_site_label
 _atom_site_symmetry_multiplicity
 _atom_site_fract_x
 _atom_site_fract_y
 _atom_site_fract_z
 _atom_site_occupancy
  Yb  Yb0  1  0.643064  0.644475  0.647176  1
  Yb  Yb1  1  0.852824  0.497300  0.995888  1
  Yb  Yb2  1  0.504112  0.001412  0.856936  1
  Yb  Yb3  1  0.500154  0.000374  0.350797  1
  Yb  Yb4  1  0.350643  0.500220  0.999846  1
  Yb  Yb5  1  0.000000  0.352199  0.500000  1
  Yb  Yb6  1  0.149203  0.149577  0.149357  1
  Ce  Ce7  1  0.000000  0.851991  0.500000  1
  Bi  Bi8  1  0.752827  0.873528  0.128424  1
  Bi  Bi9  1  0.371576  0.245105  0.624403  1
  Bi  Bi10  1  0.246118  0.628368  0.375871  1
  Bi  Bi11  1  0.875597  0.120702  0.747173  1
  Bi  Bi12  1  0.629753  0.382250  0.253882  1
  Bi  Bi13  1  0.124129  0.752498  0.870247  1
