# generated using pymatgen
data_Mn7TlPd16
_symmetry_space_group_name_H-M   'P 1'
_cell_length_a   4.03379101
_cell_length_b   5.56912132
_cell_length_c   16.56633473
_cell_angle_alpha   90.99176759
_cell_angle_beta   89.99898196
_cell_angle_gamma   90.00443099
_symmetry_Int_Tables_number   1
_chemical_formula_structural   Mn7TlPd16
_chemical_formula_sum   'Mn7 Tl1 Pd16'
_cell_volume   372.10151442
_cell_formula_units_Z   1
loop_
 _symmetry_equiv_pos_site_id
 _symmetry_equiv_pos_as_xyz
  1  'x, y, z'
loop_
 _atom_site_type_symbol
 _atom_site_label
 _atom_site_symmetry_multiplicity
 _atom_site_fract_x
 _atom_site_fract_y
 _atom_site_fract_z
 _atom_site_occupancy
  Mn  Mn0  1  0.525179  0.339737  0.048386  1
  Mn  Mn1  1  0.525073  0.840995  0.209715  1
  Mn  Mn2  1  0.525982  0.344209  0.368058  1
  Mn  Mn3  1  0.026464  0.040149  0.456088  1
  Mn  Mn4  1  0.526849  0.735868  0.544314  1
  Mn  Mn5  1  0.527012  0.237481  0.702529  1
  Mn  Mn6  1  0.526179  0.738028  0.863964  1
  Tl  Tl7  1  0.025610  0.038912  0.956120  1
  Pd  Pd8  1  0.525167  0.819225  0.040599  1
  Pd  Pd9  1  0.024768  0.088715  0.125660  1
  Pd  Pd10  1  0.024953  0.588485  0.124920  1
  Pd  Pd11  1  0.524946  0.339338  0.208214  1
  Pd  Pd12  1  0.025346  0.596252  0.290994  1
  Pd  Pd13  1  0.025385  0.095372  0.295665  1
  Pd  Pd14  1  0.526037  0.837132  0.381626  1
  Pd  Pd15  1  0.026501  0.540145  0.456222  1
  Pd  Pd16  1  0.526739  0.242762  0.530723  1
  Pd  Pd17  1  0.027092  0.983977  0.616637  1
  Pd  Pd18  1  0.027037  0.483002  0.621354  1
  Pd  Pd19  1  0.526970  0.739104  0.704160  1
  Pd  Pd20  1  0.026540  0.489447  0.787325  1
  Pd  Pd21  1  0.026762  0.989211  0.786608  1
  Pd  Pd22  1  0.526100  0.258526  0.871571  1
  Pd  Pd23  1  0.025643  0.538891  0.956088  1
