# generated using pymatgen
data_La6YbIrI12
_symmetry_space_group_name_H-M   'P 1'
_cell_length_a   10.19792173
_cell_length_b   10.19792062
_cell_length_c   10.19792149
_cell_angle_alpha   107.06744347
_cell_angle_beta   107.06743708
_cell_angle_gamma   107.06743797
_symmetry_Int_Tables_number   1
_chemical_formula_structural   La6YbIrI12
_chemical_formula_sum   'La6 Yb1 Ir1 I12'
_cell_volume   881.61402730
_cell_formula_units_Z   1
loop_
 _symmetry_equiv_pos_site_id
 _symmetry_equiv_pos_as_xyz
  1  'x, y, z'
loop_
 _atom_site_type_symbol
 _atom_site_label
 _atom_site_symmetry_multiplicity
 _atom_site_fract_x
 _atom_site_fract_y
 _atom_site_fract_z
 _atom_site_occupancy
  La  La0  1  0.101861  0.026976  0.306721  1
  La  La1  1  0.306721  0.101861  0.026976  1
  La  La2  1  0.026976  0.306721  0.101861  1
  La  La3  1  0.898139  0.973024  0.693279  1
  La  La4  1  0.693279  0.898139  0.973024  1
  La  La5  1  0.973024  0.693279  0.898139  1
  Yb  Yb6  1  0.500000  0.500000  0.500000  1
  Ir  Ir7  1  0.000000  0.000000  0.000000  1
  I  I8  1  0.069642  0.678619  0.225613  1
  I  I9  1  0.225613  0.069642  0.678619  1
  I  I10  1  0.678619  0.225613  0.069642  1
  I  I11  1  0.930358  0.321381  0.774387  1
  I  I12  1  0.774387  0.930358  0.321381  1
  I  I13  1  0.321381  0.774387  0.930358  1
  I  I14  1  0.464356  0.166330  0.386689  1
  I  I15  1  0.386689  0.464356  0.166330  1
  I  I16  1  0.166330  0.386689  0.464356  1
  I  I17  1  0.535644  0.833670  0.613311  1
  I  I18  1  0.613311  0.535644  0.833670  1
  I  I19  1  0.833670  0.613311  0.535644  1
