# generated using pymatgen
data_LaTb3Dy2(SbO7)2
_symmetry_space_group_name_H-M   'P 1'
_cell_length_a   6.52618910
_cell_length_b   6.52618860
_cell_length_c   7.60112413
_cell_angle_alpha   89.95503699
_cell_angle_beta   90.04496312
_cell_angle_gamma   109.08341171
_symmetry_Int_Tables_number   1
_chemical_formula_structural   LaTb3Dy2(SbO7)2
_chemical_formula_sum   'La1 Tb3 Dy2 Sb2 O14'
_cell_volume   305.94879475
_cell_formula_units_Z   1
loop_
 _symmetry_equiv_pos_site_id
 _symmetry_equiv_pos_as_xyz
  1  'x, y, z'
loop_
 _atom_site_type_symbol
 _atom_site_label
 _atom_site_symmetry_multiplicity
 _atom_site_fract_x
 _atom_site_fract_y
 _atom_site_fract_z
 _atom_site_occupancy
  La  La0  1  0.500252  0.500252  0.500000  1
  Tb  Tb1  1  0.500298  0.500298  0.000000  1
  Tb  Tb2  1  0.468276  0.999488  0.246988  1
  Tb  Tb3  1  0.999488  0.468276  0.753012  1
  Dy  Dy4  1  0.531448  0.000703  0.753101  1
  Dy  Dy5  1  0.000703  0.531448  0.246899  1
  Sb  Sb6  1  0.999986  0.999986  0.500000  1
  Sb  Sb7  1  0.999951  0.999951  0.000000  1
  O  O8  1  0.680184  0.934158  0.470530  1
  O  O9  1  0.934158  0.680184  0.529470  1
  O  O10  1  0.679928  0.928684  0.028957  1
  O  O11  1  0.928684  0.679928  0.971043  1
  O  O12  1  0.319656  0.065681  0.530790  1
  O  O13  1  0.065681  0.319656  0.469210  1
  O  O14  1  0.319862  0.071179  0.969744  1
  O  O15  1  0.071179  0.319862  0.030256  1
  O  O16  1  0.930995  0.068559  0.749998  1
  O  O17  1  0.068559  0.930995  0.250002  1
  O  O18  1  0.367233  0.635030  0.760240  1
  O  O19  1  0.635030  0.367233  0.239760  1
  O  O20  1  0.639020  0.359430  0.758803  1
  O  O21  1  0.359430  0.639020  0.241197  1
