# generated using pymatgen
data_La5Sn2Ru3
_symmetry_space_group_name_H-M   'P 1'
_cell_length_a   8.81627859
_cell_length_b   8.81627902
_cell_length_c   8.81627900
_cell_angle_alpha   109.47122288
_cell_angle_beta   109.47122388
_cell_angle_gamma   109.47121314
_symmetry_Int_Tables_number   1
_chemical_formula_structural   La5Sn2Ru3
_chemical_formula_sum   'La10 Sn4 Ru6'
_cell_volume   527.51410557
_cell_formula_units_Z   2
loop_
 _symmetry_equiv_pos_site_id
 _symmetry_equiv_pos_as_xyz
  1  'x, y, z'
loop_
 _atom_site_type_symbol
 _atom_site_label
 _atom_site_symmetry_multiplicity
 _atom_site_fract_x
 _atom_site_fract_y
 _atom_site_fract_z
 _atom_site_occupancy
  La  La0  1  0.250000  0.691276  0.441277  1
  La  La1  1  0.750000  0.808724  0.058724  1
  La  La2  1  0.441277  0.250000  0.691276  1
  La  La3  1  0.691276  0.441277  0.250000  1
  La  La4  1  0.058724  0.750000  0.808724  1
  La  La5  1  0.808724  0.058724  0.750000  1
  La  La6  1  0.202172  0.202172  0.202172  1
  La  La7  1  0.500001  0.000000  0.297828  1
  La  La8  1  0.297828  0.500001  0.000000  1
  La  La9  1  0.000000  0.297828  0.500001  1
  Sn  Sn10  1  0.500001  0.000000  0.906941  1
  Sn  Sn11  1  0.593059  0.593059  0.593059  1
  Sn  Sn12  1  0.906941  0.500001  0.000000  1
  Sn  Sn13  1  0.000000  0.906941  0.500001  1
  Ru  Ru14  1  0.250001  0.130393  0.880393  1
  Ru  Ru15  1  0.750000  0.369606  0.619606  1
  Ru  Ru16  1  0.880393  0.250001  0.130393  1
  Ru  Ru17  1  0.130393  0.880393  0.250001  1
  Ru  Ru18  1  0.619606  0.750000  0.369606  1
  Ru  Ru19  1  0.369606  0.619606  0.750000  1
