# generated using pymatgen
data_Mn3Co3(Mo3N)2
_symmetry_space_group_name_H-M   'P 1'
_cell_length_a   7.78033049
_cell_length_b   7.79541385
_cell_length_c   7.79541362
_cell_angle_alpha   60.13350171
_cell_angle_beta   60.06398764
_cell_angle_gamma   60.06398218
_symmetry_Int_Tables_number   1
_chemical_formula_structural   Mn3Co3(Mo3N)2
_chemical_formula_sum   'Mn6 Co6 Mo12 N4'
_cell_volume   334.97919930
_cell_formula_units_Z   2
loop_
 _symmetry_equiv_pos_site_id
 _symmetry_equiv_pos_as_xyz
  1  'x, y, z'
loop_
 _atom_site_type_symbol
 _atom_site_label
 _atom_site_symmetry_multiplicity
 _atom_site_fract_x
 _atom_site_fract_y
 _atom_site_fract_z
 _atom_site_occupancy
  Mn  Mn0  1  0.622249  0.127029  0.628473  1
  Mn  Mn1  1  0.627751  0.621527  0.122971  1
  Mn  Mn2  1  0.125000  0.619025  0.630975  1
  Mn  Mn3  1  0.625000  0.619025  0.630975  1
  Mn  Mn4  1  0.823877  0.527000  0.825247  1
  Mn  Mn5  1  0.426123  0.424753  0.723000  1
  Co  Co6  1  0.740318  0.420539  0.417342  1
  Co  Co7  1  0.421801  0.420539  0.417342  1
  Co  Co8  1  0.509682  0.832658  0.829461  1
  Co  Co9  1  0.828199  0.832658  0.829461  1
  Co  Co10  1  0.830606  0.831742  0.507045  1
  Co  Co11  1  0.419394  0.742955  0.418258  1
  Mo  Mo12  1  0.197256  0.199916  0.801860  1
  Mo  Mo13  1  0.450815  0.049518  0.048851  1
  Mo  Mo14  1  0.048621  0.451340  0.451419  1
  Mo  Mo15  1  0.449032  0.448140  0.050084  1
  Mo  Mo16  1  0.454003  0.046320  0.453438  1
  Mo  Mo17  1  0.052744  0.448140  0.050084  1
  Mo  Mo18  1  0.800968  0.199916  0.801860  1
  Mo  Mo19  1  0.799185  0.201149  0.200482  1
  Mo  Mo20  1  0.201379  0.798581  0.798660  1
  Mo  Mo21  1  0.203761  0.796562  0.203680  1
  Mo  Mo22  1  0.046239  0.046320  0.453438  1
  Mo  Mo23  1  0.795997  0.796562  0.203680  1
  N  N24  1  0.124020  0.626746  0.125214  1
  N  N25  1  0.125980  0.124786  0.623254  1
  N  N26  1  0.625000  0.123278  0.126722  1
  N  N27  1  0.125000  0.123278  0.126722  1
