# generated using pymatgen
data_Dy20Co3Bi8Os
_symmetry_space_group_name_H-M   'P 1'
_cell_length_a   8.00449162
_cell_length_b   8.90883100
_cell_length_c   12.44466836
_cell_angle_alpha   90.00000000
_cell_angle_beta   90.20282756
_cell_angle_gamma   90.00000000
_symmetry_Int_Tables_number   1
_chemical_formula_structural   Dy20Co3Bi8Os
_chemical_formula_sum   'Dy20 Co3 Bi8 Os1'
_cell_volume   887.43199265
_cell_formula_units_Z   1
loop_
 _symmetry_equiv_pos_site_id
 _symmetry_equiv_pos_as_xyz
  1  'x, y, z'
loop_
 _atom_site_type_symbol
 _atom_site_label
 _atom_site_symmetry_multiplicity
 _atom_site_fract_x
 _atom_site_fract_y
 _atom_site_fract_z
 _atom_site_occupancy
  Dy  Dy0  1  0.846180  0.750000  0.800824  1
  Dy  Dy1  1  0.153394  0.250000  0.197913  1
  Dy  Dy2  1  0.346867  0.250000  0.698737  1
  Dy  Dy3  1  0.655316  0.750000  0.294999  1
  Dy  Dy4  1  0.375636  0.750000  0.693314  1
  Dy  Dy5  1  0.620748  0.250000  0.311077  1
  Dy  Dy6  1  0.879167  0.250000  0.811881  1
  Dy  Dy7  1  0.120560  0.750000  0.186911  1
  Dy  Dy8  1  0.946496  0.750000  0.503895  1
  Dy  Dy9  1  0.048852  0.250000  0.496882  1
  Dy  Dy10  1  0.452374  0.250000  0.997002  1
  Dy  Dy11  1  0.547684  0.750000  0.002773  1
  Dy  Dy12  1  0.676152  0.040289  0.564948  1
  Dy  Dy13  1  0.324097  0.966104  0.436015  1
  Dy  Dy14  1  0.175602  0.966442  0.936692  1
  Dy  Dy15  1  0.324097  0.533896  0.436015  1
  Dy  Dy16  1  0.824434  0.035502  0.063302  1
  Dy  Dy17  1  0.676152  0.459711  0.564948  1
  Dy  Dy18  1  0.824434  0.464498  0.063302  1
  Dy  Dy19  1  0.175602  0.533558  0.936692  1
  Co  Co20  1  0.435484  0.250000  0.491187  1
  Co  Co21  1  0.060001  0.250000  0.992045  1
  Co  Co22  1  0.939200  0.750000  0.007417  1
  Bi  Bi23  1  0.569818  0.492339  0.827014  1
  Bi  Bi24  1  0.429933  0.506924  0.173413  1
  Bi  Bi25  1  0.069393  0.507129  0.674639  1
  Bi  Bi26  1  0.429933  0.993076  0.173413  1
  Bi  Bi27  1  0.932182  0.492435  0.325702  1
  Bi  Bi28  1  0.569818  0.007661  0.827014  1
  Bi  Bi29  1  0.932182  0.007565  0.325702  1
  Bi  Bi30  1  0.069393  0.992871  0.674639  1
  Os  Os31  1  0.568819  0.750000  0.509692  1
