# generated using pymatgen
data_Li2NdSmSi2Pb
_symmetry_space_group_name_H-M   'P 1'
_cell_length_a   9.82258770
_cell_length_b   9.82258694
_cell_length_c   6.92709200
_cell_angle_alpha   90.00000000
_cell_angle_beta   90.00000000
_cell_angle_gamma   153.56760851
_symmetry_Int_Tables_number   1
_chemical_formula_structural   Li2NdSmSi2Pb
_chemical_formula_sum   'Li4 Nd2 Sm2 Si4 Pb2'
_cell_volume   297.50949134
_cell_formula_units_Z   2
loop_
 _symmetry_equiv_pos_site_id
 _symmetry_equiv_pos_as_xyz
  1  'x, y, z'
loop_
 _atom_site_type_symbol
 _atom_site_label
 _atom_site_symmetry_multiplicity
 _atom_site_fract_x
 _atom_site_fract_y
 _atom_site_fract_z
 _atom_site_occupancy
  Li  Li0  1  0.182293  0.817707  0.053952  1
  Li  Li1  1  0.182293  0.817707  0.446048  1
  Li  Li2  1  0.817707  0.182293  0.946048  1
  Li  Li3  1  0.817707  0.182293  0.553952  1
  Nd  Nd4  1  0.547852  0.452148  0.250000  1
  Nd  Nd5  1  0.452148  0.547852  0.750000  1
  Sm  Sm6  1  0.352483  0.647517  0.250000  1
  Sm  Sm7  1  0.647517  0.352483  0.750000  1
  Si  Si8  1  0.056525  0.943475  0.924171  1
  Si  Si9  1  0.943475  0.056525  0.075829  1
  Si  Si10  1  0.943475  0.056525  0.424171  1
  Si  Si11  1  0.056525  0.943475  0.575829  1
  Pb  Pb12  1  0.719637  0.280363  0.250000  1
  Pb  Pb13  1  0.280363  0.719637  0.750000  1
