# generated using pymatgen
data_Ti3(OF)4
_symmetry_space_group_name_H-M   'P 1'
_cell_length_a   5.32290074
_cell_length_b   5.39044944
_cell_length_c   8.01603582
_cell_angle_alpha   69.95148360
_cell_angle_beta   48.72061915
_cell_angle_gamma   89.30148568
_symmetry_Int_Tables_number   1
_chemical_formula_structural   Ti3(OF)4
_chemical_formula_sum   'Ti3 O4 F4'
_cell_volume   154.73523847
_cell_formula_units_Z   1
loop_
 _symmetry_equiv_pos_site_id
 _symmetry_equiv_pos_as_xyz
  1  'x, y, z'
loop_
 _atom_site_type_symbol
 _atom_site_label
 _atom_site_symmetry_multiplicity
 _atom_site_fract_x
 _atom_site_fract_y
 _atom_site_fract_z
 _atom_site_occupancy
  Ti  Ti0  1  0.055296  0.840989  0.778113  1
  Ti  Ti1  1  0.783025  0.304082  0.303243  1
  Ti  Ti2  1  0.278227  0.843029  0.302516  1
  O  O3  1  0.023895  0.529469  0.980542  1
  O  O4  1  0.689025  0.950342  0.976786  1
  O  O5  1  0.414220  0.046397  0.401071  1
  O  O6  1  0.050194  0.069186  0.264684  1
  F  F7  1  0.025488  0.526467  0.341835  1
  F  F8  1  0.467448  0.548838  0.401836  1
  F  F9  1  0.870661  0.659796  0.694021  1
  F  F10  1  0.419933  0.082983  0.696637  1
