# generated using pymatgen
data_Sc6TaAl13Mo2Os7
_symmetry_space_group_name_H-M   'P 1'
_cell_length_a   8.82192933
_cell_length_b   8.82192932
_cell_length_c   8.83877402
_cell_angle_alpha   59.79354411
_cell_angle_beta   59.79354340
_cell_angle_gamma   59.84181393
_symmetry_Int_Tables_number   1
_chemical_formula_structural   Sc6TaAl13Mo2Os7
_chemical_formula_sum   'Sc6 Ta1 Al13 Mo2 Os7'
_cell_volume   484.30976631
_cell_formula_units_Z   1
loop_
 _symmetry_equiv_pos_site_id
 _symmetry_equiv_pos_as_xyz
  1  'x, y, z'
loop_
 _atom_site_type_symbol
 _atom_site_label
 _atom_site_symmetry_multiplicity
 _atom_site_fract_x
 _atom_site_fract_y
 _atom_site_fract_z
 _atom_site_occupancy
  Sc  Sc0  1  0.712166  0.712166  0.277518  1
  Sc  Sc1  1  0.292155  0.710410  0.288696  1
  Sc  Sc2  1  0.710410  0.292155  0.288696  1
  Sc  Sc3  1  0.288830  0.288830  0.712973  1
  Sc  Sc4  1  0.713439  0.276907  0.714868  1
  Sc  Sc5  1  0.276907  0.713439  0.714868  1
  Ta  Ta6  1  0.877548  0.877548  0.362744  1
  Al  Al7  1  0.879906  0.879906  0.880939  1
  Al  Al8  1  0.121528  0.121528  0.636703  1
  Al  Al9  1  0.120730  0.638351  0.121484  1
  Al  Al10  1  0.638351  0.120730  0.121484  1
  Al  Al11  1  0.121829  0.121829  0.122747  1
  Al  Al12  1  0.666117  0.666117  0.007546  1
  Al  Al13  1  0.664655  0.009027  0.666584  1
  Al  Al14  1  0.009027  0.664655  0.666584  1
  Al  Al15  1  0.657844  0.657844  0.658180  1
  Al  Al16  1  0.335542  0.335542  0.996182  1
  Al  Al17  1  0.335970  0.996104  0.335302  1
  Al  Al18  1  0.996104  0.335970  0.335302  1
  Al  Al19  1  0.335764  0.335764  0.335152  1
  Mo  Mo20  1  0.875530  0.364754  0.876857  1
  Mo  Mo21  1  0.364754  0.875530  0.876857  1
  Os  Os22  1  0.006035  0.006035  0.997755  1
  Os  Os23  1  0.998461  0.998461  0.499626  1
  Os  Os24  1  0.502417  0.997221  0.505209  1
  Os  Os25  1  0.997221  0.502417  0.505209  1
  Os  Os26  1  0.504156  0.504156  0.996418  1
  Os  Os27  1  0.998845  0.497760  0.998761  1
  Os  Os28  1  0.497760  0.998845  0.998761  1
