# generated using pymatgen
data_Gd4Hf3InIr4
_symmetry_space_group_name_H-M   'P 1'
_cell_length_a   7.15110994
_cell_length_b   4.43277400
_cell_length_c   8.35037000
_cell_angle_alpha   90.00000000
_cell_angle_beta   93.78364386
_cell_angle_gamma   90.00000000
_symmetry_Int_Tables_number   1
_chemical_formula_structural   Gd4Hf3InIr4
_chemical_formula_sum   'Gd4 Hf3 In1 Ir4'
_cell_volume   264.12354610
_cell_formula_units_Z   1
loop_
 _symmetry_equiv_pos_site_id
 _symmetry_equiv_pos_as_xyz
  1  'x, y, z'
loop_
 _atom_site_type_symbol
 _atom_site_label
 _atom_site_symmetry_multiplicity
 _atom_site_fract_x
 _atom_site_fract_y
 _atom_site_fract_z
 _atom_site_occupancy
  Gd  Gd0  1  0.490512  0.750001  0.167195  1
  Gd  Gd1  1  0.963602  0.750001  0.315557  1
  Gd  Gd2  1  0.023130  0.249999  0.681176  1
  Gd  Gd3  1  0.532948  0.249999  0.833688  1
  Hf  Hf4  1  0.140907  0.249999  0.063562  1
  Hf  Hf5  1  0.630105  0.249999  0.429880  1
  Hf  Hf6  1  0.362705  0.750001  0.568673  1
  In  In7  1  0.855393  0.750001  0.927544  1
  Ir  Ir8  1  0.770030  0.249999  0.134293  1
  Ir  Ir9  1  0.259759  0.249999  0.396948  1
  Ir  Ir10  1  0.727992  0.750001  0.596132  1
  Ir  Ir11  1  0.242921  0.750001  0.885351  1
