# generated using pymatgen
data_Dy2Ge4(AsRh4)3
_symmetry_space_group_name_H-M   'P 1'
_cell_length_a   9.98630200
_cell_length_b   9.98630231
_cell_length_c   3.92396900
_cell_angle_alpha   90.00000000
_cell_angle_beta   90.00000000
_cell_angle_gamma   120.00000561
_symmetry_Int_Tables_number   1
_chemical_formula_structural   Dy2Ge4(AsRh4)3
_chemical_formula_sum   'Dy2 Ge4 As3 Rh12'
_cell_volume   338.89532626
_cell_formula_units_Z   1
loop_
 _symmetry_equiv_pos_site_id
 _symmetry_equiv_pos_as_xyz
  1  'x, y, z'
loop_
 _atom_site_type_symbol
 _atom_site_label
 _atom_site_symmetry_multiplicity
 _atom_site_fract_x
 _atom_site_fract_y
 _atom_site_fract_z
 _atom_site_occupancy
  Dy  Dy0  1  0.333333  0.666667  0.751838  1
  Dy  Dy1  1  0.666667  0.333333  0.248799  1
  Ge  Ge2  1  0.000000  0.000000  0.584605  1
  Ge  Ge3  1  0.883074  0.595586  0.751266  1
  Ge  Ge4  1  0.404414  0.287488  0.751266  1
  Ge  Ge5  1  0.712512  0.116926  0.751266  1
  As  As6  1  0.114539  0.404306  0.250171  1
  As  As7  1  0.595694  0.710234  0.250171  1
  As  As8  1  0.289766  0.885461  0.250171  1
  Rh  Rh9  1  0.618265  0.554688  0.751936  1
  Rh  Rh10  1  0.445312  0.063577  0.751936  1
  Rh  Rh11  1  0.936423  0.381735  0.751936  1
  Rh  Rh12  1  0.381861  0.444682  0.249643  1
  Rh  Rh13  1  0.555318  0.937180  0.249643  1
  Rh  Rh14  1  0.062820  0.618139  0.249643  1
  Rh  Rh15  1  0.122252  0.850390  0.750728  1
  Rh  Rh16  1  0.149610  0.271861  0.750728  1
  Rh  Rh17  1  0.728139  0.877748  0.750728  1
  Rh  Rh18  1  0.884598  0.142627  0.252602  1
  Rh  Rh19  1  0.857373  0.741972  0.252602  1
  Rh  Rh20  1  0.258028  0.115402  0.252602  1
