# generated using pymatgen
data_Ca3Nd17Ir12
_symmetry_space_group_name_H-M   'P 1'
_cell_length_a   11.27682700
_cell_length_b   11.27682700
_cell_length_c   6.51235700
_cell_angle_alpha   90.00000000
_cell_angle_beta   90.00000000
_cell_angle_gamma   90.00000000
_symmetry_Int_Tables_number   1
_chemical_formula_structural   Ca3Nd17Ir12
_chemical_formula_sum   'Ca3 Nd17 Ir12'
_cell_volume   828.15577721
_cell_formula_units_Z   1
loop_
 _symmetry_equiv_pos_site_id
 _symmetry_equiv_pos_as_xyz
  1  'x, y, z'
loop_
 _atom_site_type_symbol
 _atom_site_label
 _atom_site_symmetry_multiplicity
 _atom_site_fract_x
 _atom_site_fract_y
 _atom_site_fract_z
 _atom_site_occupancy
  Ca  Ca0  1  0.000000  0.000000  0.000000  1
  Ca  Ca1  1  0.500000  0.500000  0.000000  1
  Ca  Ca2  1  0.500000  0.500000  0.500000  1
  Nd  Nd3  1  0.089768  0.289987  0.114979  1
  Nd  Nd4  1  0.789684  0.410589  0.115037  1
  Nd  Nd5  1  0.210316  0.589411  0.115037  1
  Nd  Nd6  1  0.910232  0.710013  0.114979  1
  Nd  Nd7  1  0.410689  0.789110  0.385510  1
  Nd  Nd8  1  0.589311  0.210890  0.385510  1
  Nd  Nd9  1  0.291735  0.090063  0.385338  1
  Nd  Nd10  1  0.708265  0.909937  0.385338  1
  Nd  Nd11  1  0.410589  0.210316  0.884963  1
  Nd  Nd12  1  0.710013  0.089768  0.885021  1
  Nd  Nd13  1  0.289987  0.910232  0.885021  1
  Nd  Nd14  1  0.589411  0.789684  0.884963  1
  Nd  Nd15  1  0.090063  0.708265  0.614662  1
  Nd  Nd16  1  0.909937  0.291735  0.614662  1
  Nd  Nd17  1  0.210890  0.410689  0.614490  1
  Nd  Nd18  1  0.789110  0.589311  0.614490  1
  Nd  Nd19  1  0.000000  0.000000  0.500000  1
  Ir  Ir20  1  0.155858  0.845048  0.253618  1
  Ir  Ir21  1  0.342536  0.342769  0.249322  1
  Ir  Ir22  1  0.657464  0.657231  0.249322  1
  Ir  Ir23  1  0.844142  0.154952  0.253618  1
  Ir  Ir24  1  0.342769  0.657464  0.750678  1
  Ir  Ir25  1  0.154952  0.155858  0.746382  1
  Ir  Ir26  1  0.845048  0.844142  0.746382  1
  Ir  Ir27  1  0.657231  0.342536  0.750678  1
  Ir  Ir28  1  0.000000  0.500000  0.380594  1
  Ir  Ir29  1  0.500000  0.000000  0.118459  1
  Ir  Ir30  1  0.500000  0.000000  0.619406  1
  Ir  Ir31  1  0.000000  0.500000  0.881541  1
