# generated using pymatgen
data_SmY15(C2Cl3)4
_symmetry_space_group_name_H-M   'P 1'
_cell_length_a   3.67226600
_cell_length_b   10.54197062
_cell_length_c   19.83053739
_cell_angle_alpha   90.13352921
_cell_angle_beta   90.00000000
_cell_angle_gamma   90.00000000
_symmetry_Int_Tables_number   1
_chemical_formula_structural   SmY15(C2Cl3)4
_chemical_formula_sum   'Sm1 Y15 C8 Cl12'
_cell_volume   767.69592814
_cell_formula_units_Z   1
loop_
 _symmetry_equiv_pos_site_id
 _symmetry_equiv_pos_as_xyz
  1  'x, y, z'
loop_
 _atom_site_type_symbol
 _atom_site_label
 _atom_site_symmetry_multiplicity
 _atom_site_fract_x
 _atom_site_fract_y
 _atom_site_fract_z
 _atom_site_occupancy
  Sm  Sm0  1  0.250000  0.862498  0.572633  1
  Y  Y1  1  0.750000  0.137689  0.425264  1
  Y  Y2  1  0.750000  0.636663  0.074564  1
  Y  Y3  1  0.250000  0.363255  0.925877  1
  Y  Y4  1  0.250000  0.865064  0.744856  1
  Y  Y5  1  0.750000  0.134664  0.255418  1
  Y  Y6  1  0.750000  0.635149  0.244101  1
  Y  Y7  1  0.250000  0.365284  0.756160  1
  Y  Y8  1  0.250000  0.872637  0.165170  1
  Y  Y9  1  0.750000  0.127320  0.834832  1
  Y  Y10  1  0.750000  0.626592  0.666149  1
  Y  Y11  1  0.250000  0.372949  0.334241  1
  Y  Y12  1  0.250000  0.897679  0.331576  1
  Y  Y13  1  0.750000  0.102473  0.668416  1
  Y  Y14  1  0.750000  0.603061  0.832482  1
  Y  Y15  1  0.250000  0.397370  0.167789  1
  C  C16  1  0.250000  0.613409  0.751353  1
  C  C17  1  0.750000  0.385134  0.249229  1
  C  C18  1  0.750000  0.885889  0.250047  1
  C  C19  1  0.250000  0.115518  0.749977  1
  C  C20  1  0.250000  0.633422  0.152690  1
  C  C21  1  0.750000  0.366450  0.847885  1
  C  C22  1  0.750000  0.865712  0.654553  1
  C  C23  1  0.250000  0.134337  0.346930  1
  Cl  Cl24  1  0.250000  0.608036  0.558192  1
  Cl  Cl25  1  0.750000  0.386575  0.442485  1
  Cl  Cl26  1  0.750000  0.885256  0.056834  1
  Cl  Cl27  1  0.250000  0.114796  0.943429  1
  Cl  Cl28  1  0.250000  0.622531  0.953566  1
  Cl  Cl29  1  0.750000  0.377290  0.046945  1
  Cl  Cl30  1  0.750000  0.877973  0.449130  1
  Cl  Cl31  1  0.250000  0.127592  0.546349  1
  Cl  Cl32  1  0.250000  0.637035  0.353646  1
  Cl  Cl33  1  0.750000  0.362496  0.646726  1
  Cl  Cl34  1  0.750000  0.863412  0.854791  1
  Cl  Cl35  1  0.250000  0.136790  0.145711  1
