# generated using pymatgen
data_Lu3MgZn2Si2Ag
_symmetry_space_group_name_H-M   'P 1'
_cell_length_a   6.84665403
_cell_length_b   6.89690426
_cell_length_c   4.26529200
_cell_angle_alpha   90.00000000
_cell_angle_beta   90.00000000
_cell_angle_gamma   120.24309034
_symmetry_Int_Tables_number   1
_chemical_formula_structural   Lu3MgZn2Si2Ag
_chemical_formula_sum   'Lu3 Mg1 Zn2 Si2 Ag1'
_cell_volume   173.99747200
_cell_formula_units_Z   1
loop_
 _symmetry_equiv_pos_site_id
 _symmetry_equiv_pos_as_xyz
  1  'x, y, z'
loop_
 _atom_site_type_symbol
 _atom_site_label
 _atom_site_symmetry_multiplicity
 _atom_site_fract_x
 _atom_site_fract_y
 _atom_site_fract_z
 _atom_site_occupancy
  Lu  Lu0  1  0.430651  0.433189  0.500000  1
  Lu  Lu1  1  0.000000  0.577816  0.500000  1
  Lu  Lu2  1  0.569349  0.002538  0.500000  1
  Mg  Mg3  1  0.000000  0.236142  0.000000  1
  Zn  Zn4  1  0.748305  0.746571  0.000000  1
  Zn  Zn5  1  0.251695  0.998265  0.000000  1
  Si  Si6  1  0.662051  0.337083  0.000000  1
  Si  Si7  1  0.337949  0.675035  0.000000  1
  Ag  Ag8  1  0.000000  0.993361  0.500000  1
