# generated using pymatgen
data_La2Nd3Pb4
_symmetry_space_group_name_H-M   'P 1'
_cell_length_a   8.53025100
_cell_length_b   8.63129700
_cell_length_c   16.36262200
_cell_angle_alpha   90.00000000
_cell_angle_beta   90.00000000
_cell_angle_gamma   90.00000000
_symmetry_Int_Tables_number   1
_chemical_formula_structural   La2Nd3Pb4
_chemical_formula_sum   'La8 Nd12 Pb16'
_cell_volume   1204.73289493
_cell_formula_units_Z   4
loop_
 _symmetry_equiv_pos_site_id
 _symmetry_equiv_pos_as_xyz
  1  'x, y, z'
loop_
 _atom_site_type_symbol
 _atom_site_label
 _atom_site_symmetry_multiplicity
 _atom_site_fract_x
 _atom_site_fract_y
 _atom_site_fract_z
 _atom_site_occupancy
  La  La0  1  0.028815  0.179552  0.100740  1
  La  La1  1  0.528815  0.320448  0.399260  1
  La  La2  1  0.471185  0.679552  0.899260  1
  La  La3  1  0.971185  0.820448  0.600740  1
  La  La4  1  0.971185  0.820448  0.899260  1
  La  La5  1  0.471185  0.679552  0.600740  1
  La  La6  1  0.528815  0.320448  0.100740  1
  La  La7  1  0.028815  0.179552  0.399260  1
  Nd  Nd8  1  0.879085  0.659435  0.118100  1
  Nd  Nd9  1  0.379085  0.840565  0.381900  1
  Nd  Nd10  1  0.620915  0.159435  0.881900  1
  Nd  Nd11  1  0.120915  0.340565  0.618100  1
  Nd  Nd12  1  0.120915  0.340565  0.881900  1
  Nd  Nd13  1  0.620915  0.159435  0.618100  1
  Nd  Nd14  1  0.379085  0.840565  0.118100  1
  Nd  Nd15  1  0.879085  0.659435  0.381900  1
  Nd  Nd16  1  0.709435  0.996185  0.250000  1
  Nd  Nd17  1  0.209435  0.503815  0.250000  1
  Nd  Nd18  1  0.790565  0.496185  0.750000  1
  Nd  Nd19  1  0.290565  0.003815  0.750000  1
  Pb  Pb20  1  0.075603  0.875235  0.250000  1
  Pb  Pb21  1  0.575603  0.624765  0.250000  1
  Pb  Pb22  1  0.424397  0.375235  0.750000  1
  Pb  Pb23  1  0.924397  0.124765  0.750000  1
  Pb  Pb24  1  0.837138  0.355405  0.250000  1
  Pb  Pb25  1  0.337138  0.144595  0.250000  1
  Pb  Pb26  1  0.662862  0.855405  0.750000  1
  Pb  Pb27  1  0.162862  0.644595  0.750000  1
  Pb  Pb28  1  0.780983  0.466553  0.956204  1
  Pb  Pb29  1  0.280983  0.033447  0.543796  1
  Pb  Pb30  1  0.719017  0.966553  0.043796  1
  Pb  Pb31  1  0.219017  0.533447  0.456204  1
  Pb  Pb32  1  0.219017  0.533447  0.043796  1
  Pb  Pb33  1  0.719017  0.966553  0.456204  1
  Pb  Pb34  1  0.280983  0.033447  0.956204  1
  Pb  Pb35  1  0.780983  0.466553  0.543796  1
