# generated using pymatgen
data_Y6MnCr(Co4P3)4
_symmetry_space_group_name_H-M   'P 1'
_cell_length_a   3.69461700
_cell_length_b   10.55368000
_cell_length_c   12.22436700
_cell_angle_alpha   90.00000000
_cell_angle_beta   90.00000000
_cell_angle_gamma   90.00000000
_symmetry_Int_Tables_number   1
_chemical_formula_structural   Y6MnCr(Co4P3)4
_chemical_formula_sum   'Y6 Mn1 Cr1 Co16 P12'
_cell_volume   476.65014092
_cell_formula_units_Z   1
loop_
 _symmetry_equiv_pos_site_id
 _symmetry_equiv_pos_as_xyz
  1  'x, y, z'
loop_
 _atom_site_type_symbol
 _atom_site_label
 _atom_site_symmetry_multiplicity
 _atom_site_fract_x
 _atom_site_fract_y
 _atom_site_fract_z
 _atom_site_occupancy
  Y  Y0  1  0.000000  0.500000  0.522599  1
  Y  Y1  1  0.500000  0.000000  0.477647  1
  Y  Y2  1  0.500000  0.817507  0.205207  1
  Y  Y3  1  0.500000  0.182493  0.205207  1
  Y  Y4  1  0.000000  0.681918  0.795112  1
  Y  Y5  1  0.000000  0.318082  0.795112  1
  Mn  Mn6  1  0.000000  0.000000  0.841562  1
  Cr  Cr7  1  0.500000  0.500000  0.156029  1
  Co  Co8  1  0.500000  0.500000  0.702547  1
  Co  Co9  1  0.000000  0.000000  0.297087  1
  Co  Co10  1  0.000000  0.500000  0.987234  1
  Co  Co11  1  0.500000  0.000000  0.013866  1
  Co  Co12  1  0.500000  0.332941  0.993346  1
  Co  Co13  1  0.500000  0.667059  0.993346  1
  Co  Co14  1  0.000000  0.167037  0.006245  1
  Co  Co15  1  0.000000  0.832963  0.006245  1
  Co  Co16  1  0.500000  0.296367  0.430711  1
  Co  Co17  1  0.500000  0.703633  0.430711  1
  Co  Co18  1  0.000000  0.203414  0.569388  1
  Co  Co19  1  0.000000  0.796586  0.569388  1
  Co  Co20  1  0.500000  0.879359  0.709179  1
  Co  Co21  1  0.500000  0.120641  0.709179  1
  Co  Co22  1  0.000000  0.620282  0.291062  1
  Co  Co23  1  0.000000  0.379718  0.291062  1
  P  P24  1  0.500000  0.500000  0.882659  1
  P  P25  1  0.000000  0.000000  0.117165  1
  P  P26  1  0.500000  0.500000  0.345426  1
  P  P27  1  0.000000  0.000000  0.655558  1
  P  P28  1  0.500000  0.310785  0.616067  1
  P  P29  1  0.500000  0.689215  0.616067  1
  P  P30  1  0.000000  0.189102  0.384053  1
  P  P31  1  0.000000  0.810898  0.384053  1
  P  P32  1  0.500000  0.847956  0.892767  1
  P  P33  1  0.500000  0.152044  0.892767  1
  P  P34  1  0.000000  0.652826  0.107174  1
  P  P35  1  0.000000  0.347174  0.107174  1
