# generated using pymatgen
data_TbLuHf2(Al3Ir)6
_symmetry_space_group_name_H-M   'P 1'
_cell_length_a   7.51235268
_cell_length_b   7.49764311
_cell_length_c   9.32776300
_cell_angle_alpha   90.00000000
_cell_angle_beta   90.00000000
_cell_angle_gamma   119.71497836
_symmetry_Int_Tables_number   1
_chemical_formula_structural   TbLuHf2(Al3Ir)6
_chemical_formula_sum   'Tb1 Lu1 Hf2 Al18 Ir6'
_cell_volume   456.29849763
_cell_formula_units_Z   1
loop_
 _symmetry_equiv_pos_site_id
 _symmetry_equiv_pos_as_xyz
  1  'x, y, z'
loop_
 _atom_site_type_symbol
 _atom_site_label
 _atom_site_symmetry_multiplicity
 _atom_site_fract_x
 _atom_site_fract_y
 _atom_site_fract_z
 _atom_site_occupancy
  Tb  Tb0  1  0.670688  0.994206  0.250000  1
  Lu  Lu1  1  0.328362  0.005565  0.750000  1
  Hf  Hf2  1  0.995900  0.672305  0.250000  1
  Hf  Hf3  1  0.004691  0.327999  0.750000  1
  Al  Al4  1  0.127749  0.125293  0.250000  1
  Al  Al5  1  0.873942  0.875210  0.750000  1
  Al  Al6  1  0.000650  0.337892  0.074943  1
  Al  Al7  1  0.000624  0.663256  0.923194  1
  Al  Al8  1  0.000624  0.663256  0.576806  1
  Al  Al9  1  0.331978  0.998703  0.422845  1
  Al  Al10  1  0.000650  0.337892  0.425057  1
  Al  Al11  1  0.666824  0.001530  0.580093  1
  Al  Al12  1  0.666824  0.001530  0.919907  1
  Al  Al13  1  0.331978  0.998703  0.077155  1
  Al  Al14  1  0.331341  0.333170  0.558321  1
  Al  Al15  1  0.668796  0.665693  0.443639  1
  Al  Al16  1  0.668796  0.665693  0.056361  1
  Al  Al17  1  0.331341  0.333170  0.941679  1
  Al  Al18  1  0.333965  0.547156  0.250000  1
  Al  Al19  1  0.664494  0.450970  0.750000  1
  Al  Al20  1  0.553970  0.344191  0.250000  1
  Al  Al21  1  0.445376  0.656558  0.750000  1
  Ir  Ir22  1  0.672641  0.327862  0.999071  1
  Ir  Ir23  1  0.326745  0.672012  0.000028  1
  Ir  Ir24  1  0.326745  0.672012  0.499972  1
  Ir  Ir25  1  0.672641  0.327862  0.500929  1
  Ir  Ir26  1  0.000830  0.000154  0.999406  1
  Ir  Ir27  1  0.000830  0.000154  0.500594  1
