# generated using pymatgen
data_LiAcZn12
_symmetry_space_group_name_H-M   'P 1'
_cell_length_a   8.65752555
_cell_length_b   8.65529026
_cell_length_c   8.64653257
_cell_angle_alpha   60.06595922
_cell_angle_beta   60.02885032
_cell_angle_gamma   59.91107442
_symmetry_Int_Tables_number   1
_chemical_formula_structural   LiAcZn12
_chemical_formula_sum   'Li2 Ac2 Zn24'
_cell_volume   458.16296963
_cell_formula_units_Z   2
loop_
 _symmetry_equiv_pos_site_id
 _symmetry_equiv_pos_as_xyz
  1  'x, y, z'
loop_
 _atom_site_type_symbol
 _atom_site_label
 _atom_site_symmetry_multiplicity
 _atom_site_fract_x
 _atom_site_fract_y
 _atom_site_fract_z
 _atom_site_occupancy
  Li  Li0  1  0.500000  0.500000  0.500000  1
  Li  Li1  1  0.000000  0.000000  0.000000  1
  Ac  Ac2  1  0.250001  0.249999  0.250000  1
  Ac  Ac3  1  0.749999  0.750001  0.750000  1
  Zn  Zn4  1  0.941642  0.058302  0.298218  1
  Zn  Zn5  1  0.298215  0.701775  0.941653  1
  Zn  Zn6  1  0.058358  0.941698  0.701782  1
  Zn  Zn7  1  0.701785  0.298225  0.058347  1
  Zn  Zn8  1  0.441700  0.201935  0.798087  1
  Zn  Zn9  1  0.798214  0.558350  0.441626  1
  Zn  Zn10  1  0.201786  0.441650  0.558374  1
  Zn  Zn11  1  0.558300  0.798065  0.201913  1
  Zn  Zn12  1  0.298368  0.941782  0.058212  1
  Zn  Zn13  1  0.941868  0.298228  0.701753  1
  Zn  Zn14  1  0.701632  0.058218  0.941788  1
  Zn  Zn15  1  0.058132  0.701772  0.298247  1
  Zn  Zn16  1  0.798258  0.441840  0.201702  1
  Zn  Zn17  1  0.441766  0.798350  0.558210  1
  Zn  Zn18  1  0.558234  0.201650  0.441790  1
  Zn  Zn19  1  0.201742  0.558160  0.798298  1
  Zn  Zn20  1  0.058352  0.298151  0.941586  1
  Zn  Zn21  1  0.701968  0.941631  0.298091  1
  Zn  Zn22  1  0.941648  0.701849  0.058414  1
  Zn  Zn23  1  0.298032  0.058369  0.701909  1
  Zn  Zn24  1  0.201856  0.798192  0.441599  1
  Zn  Zn25  1  0.558319  0.441609  0.798173  1
  Zn  Zn26  1  0.441681  0.558391  0.201827  1
  Zn  Zn27  1  0.798144  0.201808  0.558401  1
