# generated using pymatgen
data_CeMgSnH
_symmetry_space_group_name_H-M   'P 1'
_cell_length_a   4.41778000
_cell_length_b   8.05727300
_cell_length_c   9.30233100
_cell_angle_alpha   90.00000000
_cell_angle_beta   90.00000000
_cell_angle_gamma   90.00000000
_symmetry_Int_Tables_number   1
_chemical_formula_structural   CeMgSnH
_chemical_formula_sum   'Ce4 Mg4 Sn4 H4'
_cell_volume   331.11888603
_cell_formula_units_Z   4
loop_
 _symmetry_equiv_pos_site_id
 _symmetry_equiv_pos_as_xyz
  1  'x, y, z'
loop_
 _atom_site_type_symbol
 _atom_site_label
 _atom_site_symmetry_multiplicity
 _atom_site_fract_x
 _atom_site_fract_y
 _atom_site_fract_z
 _atom_site_occupancy
  Ce  Ce0  1  0.750000  0.479140  0.841022  1
  Ce  Ce1  1  0.250000  0.520860  0.158978  1
  Ce  Ce2  1  0.250000  0.020860  0.341022  1
  Ce  Ce3  1  0.750000  0.979140  0.658978  1
  Mg  Mg4  1  0.750000  0.345314  0.431600  1
  Mg  Mg5  1  0.250000  0.654686  0.568400  1
  Mg  Mg6  1  0.250000  0.154686  0.931600  1
  Mg  Mg7  1  0.750000  0.845314  0.068400  1
  Sn  Sn8  1  0.750000  0.211633  0.126152  1
  Sn  Sn9  1  0.250000  0.788367  0.873848  1
  Sn  Sn10  1  0.250000  0.288367  0.626152  1
  Sn  Sn11  1  0.750000  0.711633  0.373848  1
  H  H12  1  0.250000  0.923633  0.571844  1
  H  H13  1  0.750000  0.076367  0.428156  1
  H  H14  1  0.750000  0.576367  0.071844  1
  H  H15  1  0.250000  0.423633  0.928156  1
