# generated using pymatgen
data_TbHoTi6(BiO4)6
_symmetry_space_group_name_H-M   'P 1'
_cell_length_a   5.39052577
_cell_length_b   5.47307041
_cell_length_c   17.11282627
_cell_angle_alpha   81.04297393
_cell_angle_beta   89.99209863
_cell_angle_gamma   89.90729397
_symmetry_Int_Tables_number   1
_chemical_formula_structural   TbHoTi6(BiO4)6
_chemical_formula_sum   'Tb1 Ho1 Ti6 Bi6 O24'
_cell_volume   498.71763514
_cell_formula_units_Z   1
loop_
 _symmetry_equiv_pos_site_id
 _symmetry_equiv_pos_as_xyz
  1  'x, y, z'
loop_
 _atom_site_type_symbol
 _atom_site_label
 _atom_site_symmetry_multiplicity
 _atom_site_fract_x
 _atom_site_fract_y
 _atom_site_fract_z
 _atom_site_occupancy
  Tb  Tb0  1  0.265283  0.085640  0.869232  1
  Ho  Ho1  1  0.734439  0.583382  0.868943  1
  Ti  Ti2  1  0.763126  0.060696  0.986928  1
  Ti  Ti3  1  0.235879  0.561218  0.987031  1
  Ti  Ti4  1  0.760491  0.181294  0.749371  1
  Ti  Ti5  1  0.238901  0.681830  0.749261  1
  Ti  Ti6  1  0.756225  0.920314  0.258443  1
  Ti  Ti7  1  0.243300  0.420482  0.258281  1
  Bi  Bi8  1  0.272779  0.184900  0.587915  1
  Bi  Bi9  1  0.726410  0.684785  0.587980  1
  Bi  Bi10  1  0.261569  0.935574  0.132596  1
  Bi  Bi11  1  0.737952  0.435141  0.132376  1
  Bi  Bi12  1  0.233124  0.777147  0.433222  1
  Bi  Bi13  1  0.766205  0.277207  0.433254  1
  O  O14  1  0.453810  0.320337  0.959509  1
  O  O15  1  0.549714  0.818041  0.958977  1
  O  O16  1  0.506318  0.003972  0.505077  1
  O  O17  1  0.493470  0.503887  0.505166  1
  O  O18  1  0.848386  0.176409  0.876423  1
  O  O19  1  0.147294  0.673928  0.876447  1
  O  O20  1  0.676396  0.248111  0.644693  1
  O  O21  1  0.322965  0.748003  0.644517  1
  O  O22  1  0.458767  0.407926  0.787374  1
  O  O23  1  0.544964  0.905297  0.787643  1
  O  O24  1  0.941336  0.510318  0.747722  1
  O  O25  1  0.060117  0.011123  0.747197  1
  O  O26  1  0.937382  0.393984  0.003892  1
  O  O27  1  0.064571  0.895323  0.003526  1
  O  O28  1  0.993383  0.503608  0.506454  1
  O  O29  1  0.006353  0.003673  0.506567  1
  O  O30  1  0.676209  0.047219  0.099773  1
  O  O31  1  0.323495  0.547851  0.099906  1
  O  O32  1  0.796707  0.869987  0.360584  1
  O  O33  1  0.203299  0.370076  0.360507  1
  O  O34  1  0.014269  0.184238  0.219681  1
  O  O35  1  0.985383  0.684408  0.219524  1
  O  O36  1  0.527630  0.219677  0.237714  1
  O  O37  1  0.472100  0.719794  0.237894  1
