# generated using pymatgen
data_Er8Ti3Re(Si2Mo)8
_symmetry_space_group_name_H-M   'P 1'
_cell_length_a   6.88028766
_cell_length_b   6.87985236
_cell_length_c   12.76614542
_cell_angle_alpha   90.02388812
_cell_angle_beta   89.97727909
_cell_angle_gamma   89.62981970
_symmetry_Int_Tables_number   1
_chemical_formula_structural   Er8Ti3Re(Si2Mo)8
_chemical_formula_sum   'Er8 Ti3 Re1 Si16 Mo8'
_cell_volume   604.27741924
_cell_formula_units_Z   1
loop_
 _symmetry_equiv_pos_site_id
 _symmetry_equiv_pos_as_xyz
  1  'x, y, z'
loop_
 _atom_site_type_symbol
 _atom_site_label
 _atom_site_symmetry_multiplicity
 _atom_site_fract_x
 _atom_site_fract_y
 _atom_site_fract_z
 _atom_site_occupancy
  Er  Er0  1  0.337804  0.000917  0.468687  1
  Er  Er1  1  0.498709  0.835734  0.719903  1
  Er  Er2  1  0.495970  0.164831  0.217536  1
  Er  Er3  1  0.835769  0.498725  0.280088  1
  Er  Er4  1  0.164839  0.495986  0.782466  1
  Er  Er5  1  0.660135  0.001286  0.968989  1
  Er  Er6  1  0.000932  0.337788  0.531286  1
  Er  Er7  1  0.001297  0.660149  0.031042  1
  Ti  Ti8  1  0.168123  0.835102  0.247654  1
  Ti  Ti9  1  0.835100  0.168123  0.752344  1
  Ti  Ti10  1  0.667410  0.667425  0.499997  1
  Re  Re11  1  0.332638  0.332653  0.000001  1
  Si  Si12  1  0.203673  0.128163  0.683189  1
  Si  Si13  1  0.376632  0.693122  0.934730  1
  Si  Si14  1  0.628121  0.298257  0.433410  1
  Si  Si15  1  0.693128  0.376655  0.065282  1
  Si  Si16  1  0.298259  0.628121  0.566586  1
  Si  Si17  1  0.794264  0.873247  0.184089  1
  Si  Si18  1  0.128169  0.203660  0.316828  1
  Si  Si19  1  0.873245  0.794247  0.815900  1
  Si  Si20  1  0.286156  0.969717  0.059834  1
  Si  Si21  1  0.536211  0.794317  0.313640  1
  Si  Si22  1  0.460385  0.209076  0.816106  1
  Si  Si23  1  0.794307  0.536214  0.686356  1
  Si  Si24  1  0.209058  0.460431  0.183890  1
  Si  Si25  1  0.708931  0.039375  0.564002  1
  Si  Si26  1  0.969707  0.286156  0.940175  1
  Si  Si27  1  0.039398  0.708928  0.435987  1
  Mo  Mo28  1  0.158482  0.997231  0.870914  1
  Mo  Mo29  1  0.494465  0.672566  0.125499  1
  Mo  Mo30  1  0.505737  0.339309  0.624997  1
  Mo  Mo31  1  0.672559  0.494442  0.874496  1
  Mo  Mo32  1  0.339319  0.505745  0.375023  1
  Mo  Mo33  1  0.839417  0.994433  0.374036  1
  Mo  Mo34  1  0.997210  0.158477  0.129089  1
  Mo  Mo35  1  0.994439  0.839395  0.625951  1
