# generated using pymatgen
data_Hf4TcSn3B
_symmetry_space_group_name_H-M   'P 1'
_cell_length_a   8.37169100
_cell_length_b   8.37168982
_cell_length_c   5.59164600
_cell_angle_alpha   90.00000000
_cell_angle_beta   90.00000000
_cell_angle_gamma   120.00000073
_symmetry_Int_Tables_number   1
_chemical_formula_structural   Hf4TcSn3B
_chemical_formula_sum   'Hf8 Tc2 Sn6 B2'
_cell_volume   339.38810448
_cell_formula_units_Z   2
loop_
 _symmetry_equiv_pos_site_id
 _symmetry_equiv_pos_as_xyz
  1  'x, y, z'
loop_
 _atom_site_type_symbol
 _atom_site_label
 _atom_site_symmetry_multiplicity
 _atom_site_fract_x
 _atom_site_fract_y
 _atom_site_fract_z
 _atom_site_occupancy
  Hf  Hf0  1  0.333333  0.666667  0.500000  1
  Hf  Hf1  1  0.666667  0.333333  0.500000  1
  Hf  Hf2  1  0.767775  0.767775  0.742844  1
  Hf  Hf3  1  0.232225  0.000000  0.742844  1
  Hf  Hf4  1  0.000000  0.232225  0.742844  1
  Hf  Hf5  1  0.232225  0.232225  0.257156  1
  Hf  Hf6  1  0.767775  0.000000  0.257156  1
  Hf  Hf7  1  0.000000  0.767775  0.257156  1
  Tc  Tc8  1  0.666667  0.333333  0.000000  1
  Tc  Tc9  1  0.333333  0.666667  0.000000  1
  Sn  Sn10  1  0.401381  0.401381  0.762936  1
  Sn  Sn11  1  0.598619  0.000000  0.762936  1
  Sn  Sn12  1  0.000000  0.598619  0.762936  1
  Sn  Sn13  1  0.598619  0.598619  0.237064  1
  Sn  Sn14  1  0.401381  0.000000  0.237064  1
  Sn  Sn15  1  0.000000  0.401381  0.237064  1
  B  B16  1  0.000000  0.000000  0.000000  1
  B  B17  1  0.000000  0.000000  0.500000  1
