# generated using pymatgen
data_TbHo2Ga6Co5Ni4
_symmetry_space_group_name_H-M   'P 1'
_cell_length_a   4.06465200
_cell_length_b   8.69555830
_cell_length_c   8.69318248
_cell_angle_alpha   60.05736704
_cell_angle_beta   90.00000000
_cell_angle_gamma   90.00000000
_symmetry_Int_Tables_number   1
_chemical_formula_structural   TbHo2Ga6Co5Ni4
_chemical_formula_sum   'Tb1 Ho2 Ga6 Co5 Ni4'
_cell_volume   266.24473588
_cell_formula_units_Z   1
loop_
 _symmetry_equiv_pos_site_id
 _symmetry_equiv_pos_as_xyz
  1  'x, y, z'
loop_
 _atom_site_type_symbol
 _atom_site_label
 _atom_site_symmetry_multiplicity
 _atom_site_fract_x
 _atom_site_fract_y
 _atom_site_fract_z
 _atom_site_occupancy
  Tb  Tb0  1  0.500000  0.664918  0.670585  1
  Ho  Ho1  1  0.500000  0.334186  0.333666  1
  Ho  Ho2  1  0.000000  0.001406  0.998178  1
  Ga  Ga3  1  0.500000  0.727433  0.272284  1
  Ga  Ga4  1  0.500000  0.274820  0.999215  1
  Ga  Ga5  1  0.500000  0.999666  0.725212  1
  Ga  Ga6  1  0.000000  0.487988  0.508764  1
  Ga  Ga7  1  0.000000  0.508929  0.000684  1
  Ga  Ga8  1  0.000000  0.000617  0.490529  1
  Co  Co9  1  0.000000  0.187032  0.177844  1
  Co  Co10  1  0.000000  0.175742  0.637304  1
  Co  Co11  1  0.000000  0.636766  0.186690  1
  Co  Co12  1  0.000000  0.822338  0.813247  1
  Co  Co13  1  0.000000  0.365442  0.821339  1
  Ni  Ni14  1  0.000000  0.809958  0.368395  1
  Ni  Ni15  1  0.500000  0.298399  0.701349  1
  Ni  Ni16  1  0.500000  0.702178  0.000082  1
  Ni  Ni17  1  0.500000  0.002082  0.294728  1
