# generated using pymatgen
data_TbDy11Tc3Ir
_symmetry_space_group_name_H-M   'P 1'
_cell_length_a   6.29802400
_cell_length_b   7.41661747
_cell_length_c   9.15962900
_cell_angle_alpha   90.00000000
_cell_angle_beta   90.00000000
_cell_angle_gamma   89.97827743
_symmetry_Int_Tables_number   1
_chemical_formula_structural   TbDy11Tc3Ir
_chemical_formula_sum   'Tb1 Dy11 Tc3 Ir1'
_cell_volume   427.84655907
_cell_formula_units_Z   1
loop_
 _symmetry_equiv_pos_site_id
 _symmetry_equiv_pos_as_xyz
  1  'x, y, z'
loop_
 _atom_site_type_symbol
 _atom_site_label
 _atom_site_symmetry_multiplicity
 _atom_site_fract_x
 _atom_site_fract_y
 _atom_site_fract_z
 _atom_site_occupancy
  Tb  Tb0  1  0.874271  0.541962  0.250000  1
  Dy  Dy1  1  0.333182  0.675782  0.064826  1
  Dy  Dy2  1  0.162981  0.175553  0.436349  1
  Dy  Dy3  1  0.664693  0.323119  0.561875  1
  Dy  Dy4  1  0.835705  0.825401  0.937807  1
  Dy  Dy5  1  0.664693  0.323119  0.938125  1
  Dy  Dy6  1  0.835705  0.825401  0.562193  1
  Dy  Dy7  1  0.333182  0.675782  0.435174  1
  Dy  Dy8  1  0.162981  0.175553  0.063651  1
  Dy  Dy9  1  0.625221  0.039432  0.250000  1
  Dy  Dy10  1  0.131518  0.457317  0.750000  1
  Dy  Dy11  1  0.370873  0.959065  0.750000  1
  Tc  Tc12  1  0.039484  0.884122  0.250000  1
  Tc  Tc13  1  0.462749  0.386612  0.250000  1
  Tc  Tc14  1  0.959784  0.115913  0.750000  1
  Ir  Ir15  1  0.542979  0.615868  0.750000  1
