# generated using pymatgen
data_Sm2Ho3Fe12Co7P12
_symmetry_space_group_name_H-M   'P 1'
_cell_length_a   11.97996122
_cell_length_b   11.98398176
_cell_length_c   3.69671100
_cell_angle_alpha   90.00000000
_cell_angle_beta   90.00000000
_cell_angle_gamma   120.01110667
_symmetry_Int_Tables_number   1
_chemical_formula_structural   Sm2Ho3Fe12Co7P12
_chemical_formula_sum   'Sm2 Ho3 Fe12 Co7 P12'
_cell_volume   459.57253561
_cell_formula_units_Z   1
loop_
 _symmetry_equiv_pos_site_id
 _symmetry_equiv_pos_as_xyz
  1  'x, y, z'
loop_
 _atom_site_type_symbol
 _atom_site_label
 _atom_site_symmetry_multiplicity
 _atom_site_fract_x
 _atom_site_fract_y
 _atom_site_fract_z
 _atom_site_occupancy
  Sm  Sm0  1  0.814292  0.814705  0.500000  1
  Sm  Sm1  1  0.185708  0.000413  0.500000  1
  Ho  Ho2  1  0.666408  0.333040  0.000000  1
  Ho  Ho3  1  0.333592  0.666632  0.000000  1
  Ho  Ho4  1  0.000000  0.186369  0.500000  1
  Fe  Fe5  1  0.877019  0.358973  0.500000  1
  Fe  Fe6  1  0.640081  0.516796  0.500000  1
  Fe  Fe7  1  0.482636  0.123183  0.500000  1
  Fe  Fe8  1  0.359919  0.876715  0.500000  1
  Fe  Fe9  1  0.517364  0.640547  0.500000  1
  Fe  Fe10  1  0.122981  0.481954  0.500000  1
  Fe  Fe11  1  0.442805  0.443302  0.000000  1
  Fe  Fe12  1  0.557195  0.000497  0.000000  1
  Fe  Fe13  1  0.000000  0.555478  0.000000  1
  Fe  Fe14  1  0.285500  0.286721  0.500000  1
  Fe  Fe15  1  0.714500  0.001221  0.500000  1
  Fe  Fe16  1  0.000000  0.712576  0.500000  1
  Co  Co17  1  0.801756  0.180328  0.000000  1
  Co  Co18  1  0.820109  0.619831  0.000000  1
  Co  Co19  1  0.379082  0.200288  0.000000  1
  Co  Co20  1  0.179891  0.799723  0.000000  1
  Co  Co21  1  0.620918  0.821207  0.000000  1
  Co  Co22  1  0.198244  0.378573  0.000000  1
  Co  Co23  1  0.000000  0.001340  0.000000  1
  P  P24  1  0.685476  0.166255  0.500000  1
  P  P25  1  0.833823  0.518656  0.500000  1
  P  P26  1  0.480017  0.314428  0.500000  1
  P  P27  1  0.166177  0.684832  0.500000  1
  P  P28  1  0.519983  0.834410  0.500000  1
  P  P29  1  0.314524  0.480778  0.500000  1
  P  P30  1  0.183583  0.185926  0.000000  1
  P  P31  1  0.816417  0.002344  0.000000  1
  P  P32  1  0.000000  0.814189  0.000000  1
  P  P33  1  0.626497  0.626422  0.000000  1
  P  P34  1  0.373503  0.999925  0.000000  1
  P  P35  1  0.000000  0.371423  0.000000  1
