# generated using pymatgen
data_TbSmHo8(In2Pd)4
_symmetry_space_group_name_H-M   'P 1'
_cell_length_a   3.61449400
_cell_length_b   8.16707585
_cell_length_c   18.31487392
_cell_angle_alpha   90.05245918
_cell_angle_beta   90.00000000
_cell_angle_gamma   90.00000000
_symmetry_Int_Tables_number   1
_chemical_formula_structural   TbSmHo8(In2Pd)4
_chemical_formula_sum   'Tb1 Sm1 Ho8 In8 Pd4'
_cell_volume   540.65204341
_cell_formula_units_Z   1
loop_
 _symmetry_equiv_pos_site_id
 _symmetry_equiv_pos_as_xyz
  1  'x, y, z'
loop_
 _atom_site_type_symbol
 _atom_site_label
 _atom_site_symmetry_multiplicity
 _atom_site_fract_x
 _atom_site_fract_y
 _atom_site_fract_z
 _atom_site_occupancy
  Tb  Tb0  1  0.000000  0.000000  0.000000  1
  Sm  Sm1  1  0.000000  0.500000  0.500000  1
  Ho  Ho2  1  0.000000  0.739821  0.280462  1
  Ho  Ho3  1  0.000000  0.260179  0.719538  1
  Ho  Ho4  1  0.000000  0.760492  0.780888  1
  Ho  Ho5  1  0.000000  0.239508  0.219112  1
  Ho  Ho6  1  0.000000  0.617618  0.083565  1
  Ho  Ho7  1  0.000000  0.382382  0.916435  1
  Ho  Ho8  1  0.000000  0.881270  0.583761  1
  Ho  Ho9  1  0.000000  0.118730  0.416239  1
  In  In10  1  0.500000  0.707471  0.932097  1
  In  In11  1  0.500000  0.292529  0.067903  1
  In  In12  1  0.500000  0.795055  0.431419  1
  In  In13  1  0.500000  0.204945  0.568581  1
  In  In14  1  0.500000  0.580902  0.651651  1
  In  In15  1  0.500000  0.419098  0.348349  1
  In  In16  1  0.500000  0.919356  0.150531  1
  In  In17  1  0.500000  0.080644  0.849469  1
  Pd  Pd18  1  0.500000  0.523450  0.195690  1
  Pd  Pd19  1  0.500000  0.476550  0.804310  1
  Pd  Pd20  1  0.500000  0.976368  0.696064  1
  Pd  Pd21  1  0.500000  0.023632  0.303936  1
