# generated using pymatgen
data_Dy5Ho11Cd4RuPt3
_symmetry_space_group_name_H-M   'P 1'
_cell_length_a   9.66236076
_cell_length_b   9.66037680
_cell_length_c   9.66036535
_cell_angle_alpha   59.70447100
_cell_angle_beta   59.70831571
_cell_angle_gamma   59.70829350
_symmetry_Int_Tables_number   1
_chemical_formula_structural   Dy5Ho11Cd4RuPt3
_chemical_formula_sum   'Dy5 Ho11 Cd4 Ru1 Pt3'
_cell_volume   633.36807089
_cell_formula_units_Z   1
loop_
 _symmetry_equiv_pos_site_id
 _symmetry_equiv_pos_as_xyz
  1  'x, y, z'
loop_
 _atom_site_type_symbol
 _atom_site_label
 _atom_site_symmetry_multiplicity
 _atom_site_fract_x
 _atom_site_fract_y
 _atom_site_fract_z
 _atom_site_occupancy
  Dy  Dy0  1  0.560605  0.936611  0.936611  1
  Dy  Dy1  1  0.565641  0.935390  0.565466  1
  Dy  Dy2  1  0.936637  0.560590  0.936459  1
  Dy  Dy3  1  0.565642  0.565466  0.935391  1
  Dy  Dy4  1  0.936636  0.936460  0.560590  1
  Ho  Ho5  1  0.351471  0.351655  0.351656  1
  Ho  Ho6  1  0.349550  0.349572  0.948448  1
  Ho  Ho7  1  0.349548  0.948447  0.349574  1
  Ho  Ho8  1  0.948341  0.349701  0.349701  1
  Ho  Ho9  1  0.815277  0.188679  0.188679  1
  Ho  Ho10  1  0.188985  0.810033  0.810030  1
  Ho  Ho11  1  0.188567  0.815238  0.188798  1
  Ho  Ho12  1  0.810074  0.189089  0.809943  1
  Ho  Ho13  1  0.188567  0.188799  0.815236  1
  Ho  Ho14  1  0.810073  0.809943  0.189090  1
  Ho  Ho15  1  0.935603  0.565412  0.565412  1
  Cd  Cd16  1  0.580721  0.580571  0.580571  1
  Cd  Cd17  1  0.581055  0.581067  0.254487  1
  Cd  Cd18  1  0.581054  0.254487  0.581067  1
  Cd  Cd19  1  0.254308  0.581075  0.581076  1
  Ru  Ru20  1  0.142856  0.142843  0.142842  1
  Pt  Pt21  1  0.143271  0.143398  0.572183  1
  Pt  Pt22  1  0.143271  0.572183  0.143399  1
  Pt  Pt23  1  0.572245  0.143290  0.143290  1
