# generated using pymatgen
data_Tb5ThCoTe2
_symmetry_space_group_name_H-M   'P 1'
_cell_length_a   8.52339558
_cell_length_b   8.49015123
_cell_length_c   3.87369600
_cell_angle_alpha   90.00000000
_cell_angle_beta   90.00000000
_cell_angle_gamma   119.87105702
_symmetry_Int_Tables_number   1
_chemical_formula_structural   Tb5ThCoTe2
_chemical_formula_sum   'Tb5 Th1 Co1 Te2'
_cell_volume   243.07878574
_cell_formula_units_Z   1
loop_
 _symmetry_equiv_pos_site_id
 _symmetry_equiv_pos_as_xyz
  1  'x, y, z'
loop_
 _atom_site_type_symbol
 _atom_site_label
 _atom_site_symmetry_multiplicity
 _atom_site_fract_x
 _atom_site_fract_y
 _atom_site_fract_z
 _atom_site_occupancy
  Tb  Tb0  1  0.000000  0.420516  0.500000  1
  Tb  Tb1  1  0.602053  0.596022  0.500000  1
  Tb  Tb2  1  0.397947  0.993969  0.500000  1
  Tb  Tb3  1  0.236023  0.240616  0.000000  1
  Tb  Tb4  1  0.763977  0.004593  0.000000  1
  Th  Th5  1  0.000000  0.768462  0.000000  1
  Co  Co6  1  0.000000  0.985063  0.500000  1
  Te  Te7  1  0.343923  0.667342  0.000000  1
  Te  Te8  1  0.656077  0.323418  0.000000  1
