# generated using pymatgen
data_Tb4Ga18Co5Pd
_symmetry_space_group_name_H-M   'P 1'
_cell_length_a   7.43261234
_cell_length_b   7.43261237
_cell_length_c   9.44883492
_cell_angle_alpha   90.12064923
_cell_angle_beta   90.12064929
_cell_angle_gamma   119.66642548
_symmetry_Int_Tables_number   1
_chemical_formula_structural   Tb4Ga18Co5Pd
_chemical_formula_sum   'Tb4 Ga18 Co5 Pd1'
_cell_volume   453.56345590
_cell_formula_units_Z   1
loop_
 _symmetry_equiv_pos_site_id
 _symmetry_equiv_pos_as_xyz
  1  'x, y, z'
loop_
 _atom_site_type_symbol
 _atom_site_label
 _atom_site_symmetry_multiplicity
 _atom_site_fract_x
 _atom_site_fract_y
 _atom_site_fract_z
 _atom_site_occupancy
  Tb  Tb0  1  0.328410  0.002860  0.251425  1
  Tb  Tb1  1  0.997140  0.671590  0.748575  1
  Tb  Tb2  1  0.671590  0.997140  0.748575  1
  Tb  Tb3  1  0.002860  0.328410  0.251425  1
  Ga  Ga4  1  0.343922  0.000337  0.924375  1
  Ga  Ga5  1  0.999663  0.656078  0.075625  1
  Ga  Ga6  1  0.335059  0.998548  0.571269  1
  Ga  Ga7  1  0.001452  0.664941  0.428731  1
  Ga  Ga8  1  0.656078  0.999663  0.075625  1
  Ga  Ga9  1  0.000337  0.343922  0.924375  1
  Ga  Ga10  1  0.664941  0.001452  0.428731  1
  Ga  Ga11  1  0.998548  0.335059  0.571269  1
  Ga  Ga12  1  0.656579  0.656579  0.937575  1
  Ga  Ga13  1  0.343421  0.343421  0.062425  1
  Ga  Ga14  1  0.666544  0.666544  0.556574  1
  Ga  Ga15  1  0.333456  0.333456  0.443426  1
  Ga  Ga16  1  0.128805  0.128805  0.741564  1
  Ga  Ga17  1  0.871195  0.871195  0.258436  1
  Ga  Ga18  1  0.448030  0.664506  0.251593  1
  Ga  Ga19  1  0.335494  0.551970  0.748407  1
  Ga  Ga20  1  0.551970  0.335494  0.748407  1
  Ga  Ga21  1  0.664506  0.448030  0.251593  1
  Co  Co22  1  0.000000  0.000000  0.500000  1
  Co  Co23  1  0.329343  0.670657  0.000000  1
  Co  Co24  1  0.329175  0.670825  0.500000  1
  Co  Co25  1  0.670657  0.329343  0.000000  1
  Co  Co26  1  0.670825  0.329175  0.500000  1
  Pd  Pd27  1  0.000000  0.000000  0.000000  1
