# generated using pymatgen
data_Hf7Sc(Si4W)2
_symmetry_space_group_name_H-M   'P 1'
_cell_length_a   6.95352810
_cell_length_b   6.95962910
_cell_length_c   12.72027900
_cell_angle_alpha   90.00000000
_cell_angle_beta   90.00000000
_cell_angle_gamma   90.01949509
_symmetry_Int_Tables_number   1
_chemical_formula_structural   Hf7Sc(Si4W)2
_chemical_formula_sum   'Hf14 Sc2 Si16 W4'
_cell_volume   615.58484764
_cell_formula_units_Z   2
loop_
 _symmetry_equiv_pos_site_id
 _symmetry_equiv_pos_as_xyz
  1  'x, y, z'
loop_
 _atom_site_type_symbol
 _atom_site_label
 _atom_site_symmetry_multiplicity
 _atom_site_fract_x
 _atom_site_fract_y
 _atom_site_fract_z
 _atom_site_occupancy
  Hf  Hf0  1  0.655592  0.002767  0.280895  1
  Hf  Hf1  1  0.344408  0.997233  0.780895  1
  Hf  Hf2  1  0.845431  0.502454  0.969020  1
  Hf  Hf3  1  0.154569  0.497546  0.469020  1
  Hf  Hf4  1  0.003324  0.654772  0.719693  1
  Hf  Hf5  1  0.996676  0.345228  0.219693  1
  Hf  Hf6  1  0.496757  0.355736  0.125205  1
  Hf  Hf7  1  0.503243  0.644264  0.625205  1
  Hf  Hf8  1  0.855945  0.003068  0.874711  1
  Hf  Hf9  1  0.144055  0.996932  0.374711  1
  Hf  Hf10  1  0.645581  0.502996  0.374458  1
  Hf  Hf11  1  0.354419  0.497004  0.874458  1
  Hf  Hf12  1  0.002659  0.855963  0.125551  1
  Hf  Hf13  1  0.997341  0.144037  0.625551  1
  Sc  Sc14  1  0.496622  0.155220  0.530964  1
  Sc  Sc15  1  0.503378  0.844780  0.030964  1
  Si  Si16  1  0.797544  0.146471  0.071394  1
  Si  Si17  1  0.202456  0.853529  0.571394  1
  Si  Si18  1  0.647366  0.701928  0.820540  1
  Si  Si19  1  0.352634  0.298072  0.320540  1
  Si  Si20  1  0.854256  0.203009  0.428330  1
  Si  Si21  1  0.145744  0.796991  0.928330  1
  Si  Si22  1  0.702417  0.647208  0.178628  1
  Si  Si23  1  0.297583  0.352792  0.678628  1
  Si  Si24  1  0.546242  0.196352  0.933340  1
  Si  Si25  1  0.453758  0.803648  0.433340  1
  Si  Si26  1  0.695975  0.954313  0.683094  1
  Si  Si27  1  0.304025  0.045687  0.183094  1
  Si  Si28  1  0.803485  0.453368  0.566975  1
  Si  Si29  1  0.196515  0.546632  0.066975  1
  Si  Si30  1  0.954111  0.696350  0.316600  1
  Si  Si31  1  0.045889  0.303650  0.816600  1
  W  W32  1  0.673495  0.327459  0.750358  1
  W  W33  1  0.326505  0.672541  0.250358  1
  W  W34  1  0.826229  0.824240  0.500244  1
  W  W35  1  0.173771  0.175760  0.000244  1
