# generated using pymatgen
data_La2PSe
_symmetry_space_group_name_H-M   'P 1'
_cell_length_a   7.47582769
_cell_length_b   7.47582717
_cell_length_c   7.47582658
_cell_angle_alpha   33.33322215
_cell_angle_beta   33.33323112
_cell_angle_gamma   33.33322156
_symmetry_Int_Tables_number   1
_chemical_formula_structural   La2PSe
_chemical_formula_sum   'La2 P1 Se1'
_cell_volume   112.33322316
_cell_formula_units_Z   1
loop_
 _symmetry_equiv_pos_site_id
 _symmetry_equiv_pos_as_xyz
  1  'x, y, z'
loop_
 _atom_site_type_symbol
 _atom_site_label
 _atom_site_symmetry_multiplicity
 _atom_site_fract_x
 _atom_site_fract_y
 _atom_site_fract_z
 _atom_site_occupancy
  La  La0  1  0.255775  0.255775  0.255775  1
  La  La1  1  0.744225  0.744225  0.744225  1
  P  P2  1  0.000000  0.000000  0.000000  1
  Se  Se3  1  0.500000  0.500000  0.500000  1
