# generated using pymatgen
data_Sr10Cr(RuO5)4
_symmetry_space_group_name_H-M   'P 1'
_cell_length_a   8.90562573
_cell_length_b   8.90562614
_cell_length_c   8.90562552
_cell_angle_alpha   121.20557881
_cell_angle_beta   121.20557487
_cell_angle_gamma   87.92425969
_symmetry_Int_Tables_number   1
_chemical_formula_structural   Sr10Cr(RuO5)4
_chemical_formula_sum   'Sr10 Cr1 Ru4 O20'
_cell_volume   489.98423717
_cell_formula_units_Z   1
loop_
 _symmetry_equiv_pos_site_id
 _symmetry_equiv_pos_as_xyz
  1  'x, y, z'
loop_
 _atom_site_type_symbol
 _atom_site_label
 _atom_site_symmetry_multiplicity
 _atom_site_fract_x
 _atom_site_fract_y
 _atom_site_fract_z
 _atom_site_occupancy
  Sr  Sr0  1  0.756356  0.149343  0.197673  1
  Sr  Sr1  1  0.351425  0.351425  0.000000  1
  Sr  Sr2  1  0.951670  0.558681  0.802327  1
  Sr  Sr3  1  0.558681  0.756356  0.607011  1
  Sr  Sr4  1  0.149343  0.951670  0.392989  1
  Sr  Sr5  1  0.648575  0.648575  0.000000  1
  Sr  Sr6  1  0.243644  0.850657  0.802327  1
  Sr  Sr7  1  0.850657  0.048330  0.607011  1
  Sr  Sr8  1  0.441319  0.243644  0.392989  1
  Sr  Sr9  1  0.048330  0.441319  0.197673  1
  Cr  Cr10  1  0.000000  0.000000  0.000000  1
  Ru  Ru11  1  0.596953  0.200612  0.797565  1
  Ru  Ru12  1  0.200612  0.403047  0.603659  1
  Ru  Ru13  1  0.799388  0.596953  0.396341  1
  Ru  Ru14  1  0.403047  0.799388  0.202435  1
  O  O15  1  0.562587  0.962084  0.200601  1
  O  O16  1  0.161040  0.161040  0.000000  1
  O  O17  1  0.761483  0.361986  0.799399  1
  O  O18  1  0.361986  0.562587  0.600503  1
  O  O19  1  0.962084  0.761483  0.399497  1
  O  O20  1  0.838960  0.838960  0.000000  1
  O  O21  1  0.437413  0.037916  0.799399  1
  O  O22  1  0.037916  0.238517  0.600503  1
  O  O23  1  0.638014  0.437413  0.399497  1
  O  O24  1  0.238517  0.638014  0.200601  1
  O  O25  1  0.698041  0.397424  0.095466  1
  O  O26  1  0.301959  0.602576  0.904534  1
  O  O27  1  0.898937  0.797346  0.696283  1
  O  O28  1  0.500000  0.000000  0.500000  1
  O  O29  1  0.101063  0.202654  0.303717  1
  O  O30  1  0.000000  0.500000  0.500000  1
  O  O31  1  0.602576  0.698041  0.300618  1
  O  O32  1  0.202654  0.898937  0.101591  1
  O  O33  1  0.797346  0.101063  0.898409  1
  O  O34  1  0.397424  0.301959  0.699382  1
