# generated using pymatgen
data_Sm2HoSi4(PPd10)2
_symmetry_space_group_name_H-M   'P 1'
_cell_length_a   8.72414923
_cell_length_b   8.72414983
_cell_length_c   8.72065500
_cell_angle_alpha   60.01324682
_cell_angle_beta   60.01324456
_cell_angle_gamma   59.97350222
_symmetry_Int_Tables_number   1
_chemical_formula_structural   Sm2HoSi4(PPd10)2
_chemical_formula_sum   'Sm2 Ho1 Si4 P2 Pd20'
_cell_volume   469.33198128
_cell_formula_units_Z   1
loop_
 _symmetry_equiv_pos_site_id
 _symmetry_equiv_pos_as_xyz
  1  'x, y, z'
loop_
 _atom_site_type_symbol
 _atom_site_label
 _atom_site_symmetry_multiplicity
 _atom_site_fract_x
 _atom_site_fract_y
 _atom_site_fract_z
 _atom_site_occupancy
  Sm  Sm0  1  0.250000  0.250000  0.250000  1
  Sm  Sm1  1  0.750000  0.750000  0.750000  1
  Ho  Ho2  1  0.000000  0.000000  0.000000  1
  Si  Si3  1  0.734100  0.265900  0.265900  1
  Si  Si4  1  0.265900  0.734100  0.734100  1
  Si  Si5  1  0.265900  0.734100  0.265900  1
  Si  Si6  1  0.734100  0.265900  0.734100  1
  P  P7  1  0.265001  0.265001  0.734999  1
  P  P8  1  0.734999  0.734999  0.265001  1
  Pd  Pd9  1  0.384233  0.384233  0.386358  1
  Pd  Pd10  1  0.615767  0.615767  0.613642  1
  Pd  Pd11  1  0.384233  0.384233  0.845177  1
  Pd  Pd12  1  0.386358  0.845177  0.384233  1
  Pd  Pd13  1  0.615767  0.615767  0.154823  1
  Pd  Pd14  1  0.613642  0.154823  0.615767  1
  Pd  Pd15  1  0.845177  0.386358  0.384233  1
  Pd  Pd16  1  0.154823  0.613642  0.615767  1
  Pd  Pd17  1  0.344987  0.001363  0.998637  1
  Pd  Pd18  1  0.655013  0.998637  0.001363  1
  Pd  Pd19  1  0.001363  0.344987  0.655013  1
  Pd  Pd20  1  0.998637  0.655013  0.344987  1
  Pd  Pd21  1  0.001363  0.344987  0.998637  1
  Pd  Pd22  1  0.655013  0.998637  0.344987  1
  Pd  Pd23  1  0.998637  0.655013  0.001363  1
  Pd  Pd24  1  0.344987  0.001363  0.655013  1
  Pd  Pd25  1  0.000000  0.000000  0.346244  1
  Pd  Pd26  1  0.000000  0.000000  0.653756  1
  Pd  Pd27  1  0.653756  0.346244  0.000000  1
  Pd  Pd28  1  0.346244  0.653756  0.000000  1
