# generated using pymatgen
data_Sr3Ca9Al3GaAs12
_symmetry_space_group_name_H-M   'P 1'
_cell_length_a   4.27609300
_cell_length_b   12.35813370
_cell_length_c   13.69394869
_cell_angle_alpha   90.07016050
_cell_angle_beta   90.00000000
_cell_angle_gamma   90.00000000
_symmetry_Int_Tables_number   1
_chemical_formula_structural   Sr3Ca9Al3GaAs12
_chemical_formula_sum   'Sr3 Ca9 Al3 Ga1 As12'
_cell_volume   723.64972663
_cell_formula_units_Z   1
loop_
 _symmetry_equiv_pos_site_id
 _symmetry_equiv_pos_as_xyz
  1  'x, y, z'
loop_
 _atom_site_type_symbol
 _atom_site_label
 _atom_site_symmetry_multiplicity
 _atom_site_fract_x
 _atom_site_fract_y
 _atom_site_fract_z
 _atom_site_occupancy
  Sr  Sr0  1  0.250000  0.849997  0.496888  1
  Sr  Sr1  1  0.250000  0.352099  0.002908  1
  Sr  Sr2  1  0.750000  0.149356  0.503186  1
  Ca  Ca3  1  0.750000  0.225572  0.213756  1
  Ca  Ca4  1  0.750000  0.435591  0.392416  1
  Ca  Ca5  1  0.250000  0.565663  0.608885  1
  Ca  Ca6  1  0.750000  0.934168  0.106288  1
  Ca  Ca7  1  0.250000  0.064633  0.891932  1
  Ca  Ca8  1  0.250000  0.274451  0.714922  1
  Ca  Ca9  1  0.750000  0.725085  0.282740  1
  Ca  Ca10  1  0.250000  0.772579  0.788900  1
  Ca  Ca11  1  0.750000  0.648778  0.001536  1
  Al  Al12  1  0.750000  0.937270  0.705855  1
  Al  Al13  1  0.250000  0.561274  0.203977  1
  Al  Al14  1  0.750000  0.439929  0.796759  1
  Ga  Ga15  1  0.250000  0.062465  0.294422  1
  As  As16  1  0.750000  0.461833  0.152905  1
  As  As17  1  0.250000  0.542191  0.847940  1
  As  As18  1  0.750000  0.957091  0.343989  1
  As  As19  1  0.250000  0.040014  0.656347  1
  As  As20  1  0.750000  0.398353  0.615671  1
  As  As21  1  0.250000  0.603183  0.384272  1
  As  As22  1  0.750000  0.896585  0.886535  1
  As  As23  1  0.250000  0.103045  0.112490  1
  As  As24  1  0.750000  0.250681  0.869030  1
  As  As25  1  0.250000  0.745729  0.124341  1
  As  As26  1  0.750000  0.749885  0.631663  1
  As  As27  1  0.250000  0.252498  0.369445  1
