# generated using pymatgen
data_Th4Zr6Si7Ge
_symmetry_space_group_name_H-M   'P 1'
_cell_length_a   7.45163413
_cell_length_b   7.28505097
_cell_length_c   7.46410504
_cell_angle_alpha   71.08392396
_cell_angle_beta   89.97998177
_cell_angle_gamma   89.98597843
_symmetry_Int_Tables_number   1
_chemical_formula_structural   Th4Zr6Si7Ge
_chemical_formula_sum   'Th4 Zr6 Si7 Ge1'
_cell_volume   383.31023167
_cell_formula_units_Z   1
loop_
 _symmetry_equiv_pos_site_id
 _symmetry_equiv_pos_as_xyz
  1  'x, y, z'
loop_
 _atom_site_type_symbol
 _atom_site_label
 _atom_site_symmetry_multiplicity
 _atom_site_fract_x
 _atom_site_fract_y
 _atom_site_fract_z
 _atom_site_occupancy
  Th  Th0  1  0.670621  0.931560  0.692411  1
  Th  Th1  1  0.330119  0.069812  0.308309  1
  Th  Th2  1  0.172893  0.566882  0.307513  1
  Th  Th3  1  0.827873  0.429958  0.692420  1
  Zr  Zr4  1  0.672103  0.747399  0.246051  1
  Zr  Zr5  1  0.325573  0.251450  0.752387  1
  Zr  Zr6  1  0.176124  0.751516  0.754029  1
  Zr  Zr7  1  0.824642  0.250843  0.247261  1
  Zr  Zr8  1  0.000028  0.000780  0.997181  1
  Zr  Zr9  1  0.499941  0.500006  0.999893  1
  Si  Si10  1  0.037409  0.133519  0.586158  1
  Si  Si11  1  0.463162  0.630733  0.584250  1
  Si  Si12  1  0.536931  0.369453  0.415927  1
  Si  Si13  1  0.876282  0.627636  0.996325  1
  Si  Si14  1  0.123943  0.372406  0.003551  1
  Si  Si15  1  0.375825  0.873044  0.003813  1
  Si  Si16  1  0.624053  0.127177  0.996932  1
  Ge  Ge17  1  0.962477  0.865825  0.415589  1
