# generated using pymatgen
data_Y9Zr3Ga20
_symmetry_space_group_name_H-M   'P 1'
_cell_length_a   6.05469045
_cell_length_b   9.49023600
_cell_length_c   11.40608246
_cell_angle_alpha   90.00000000
_cell_angle_beta   90.12218439
_cell_angle_gamma   90.00000000
_symmetry_Int_Tables_number   1
_chemical_formula_structural   Y9Zr3Ga20
_chemical_formula_sum   'Y9 Zr3 Ga20'
_cell_volume   655.39704163
_cell_formula_units_Z   1
loop_
 _symmetry_equiv_pos_site_id
 _symmetry_equiv_pos_as_xyz
  1  'x, y, z'
loop_
 _atom_site_type_symbol
 _atom_site_label
 _atom_site_symmetry_multiplicity
 _atom_site_fract_x
 _atom_site_fract_y
 _atom_site_fract_z
 _atom_site_occupancy
  Y  Y0  1  0.350640  0.250000  0.422223  1
  Y  Y1  1  0.886780  0.509559  0.351837  1
  Y  Y2  1  0.614548  0.988624  0.852977  1
  Y  Y3  1  0.112047  0.009614  0.649588  1
  Y  Y4  1  0.388342  0.490059  0.148095  1
  Y  Y5  1  0.112047  0.490386  0.649588  1
  Y  Y6  1  0.388342  0.009941  0.148095  1
  Y  Y7  1  0.886780  0.990441  0.351837  1
  Y  Y8  1  0.614548  0.511376  0.852977  1
  Zr  Zr9  1  0.858425  0.750000  0.076384  1
  Zr  Zr10  1  0.640943  0.750000  0.579000  1
  Zr  Zr11  1  0.144629  0.250000  0.922717  1
  Ga  Ga12  1  0.874306  0.051017  0.086576  1
  Ga  Ga13  1  0.625111  0.450179  0.590911  1
  Ga  Ga14  1  0.125190  0.553391  0.912861  1
  Ga  Ga15  1  0.375717  0.938737  0.411948  1
  Ga  Ga16  1  0.125190  0.946609  0.912861  1
  Ga  Ga17  1  0.375717  0.561263  0.411948  1
  Ga  Ga18  1  0.874306  0.448983  0.086576  1
  Ga  Ga19  1  0.625111  0.049821  0.590911  1
  Ga  Ga20  1  0.164961  0.750000  0.252198  1
  Ga  Ga21  1  0.333525  0.750000  0.752939  1
  Ga  Ga22  1  0.835007  0.250000  0.748887  1
  Ga  Ga23  1  0.675842  0.250000  0.243774  1
  Ga  Ga24  1  0.387068  0.750000  0.004237  1
  Ga  Ga25  1  0.107679  0.750000  0.505662  1
  Ga  Ga26  1  0.614558  0.250000  0.993728  1
  Ga  Ga27  1  0.874762  0.250000  0.499339  1
  Ga  Ga28  1  0.603359  0.750000  0.290088  1
  Ga  Ga29  1  0.900348  0.750000  0.793675  1
  Ga  Ga30  1  0.402904  0.250000  0.710769  1
  Ga  Ga31  1  0.101269  0.250000  0.194794  1
