# generated using pymatgen
data_Nd2Ni(Sb2Rh)2
_symmetry_space_group_name_H-M   'P 1'
_cell_length_a   4.54073900
_cell_length_b   11.13534400
_cell_length_c   16.09245600
_cell_angle_alpha   90.00000000
_cell_angle_beta   90.00000000
_cell_angle_gamma   90.00000000
_symmetry_Int_Tables_number   1
_chemical_formula_structural   Nd2Ni(Sb2Rh)2
_chemical_formula_sum   'Nd8 Ni4 Sb16 Rh8'
_cell_volume   813.67787661
_cell_formula_units_Z   4
loop_
 _symmetry_equiv_pos_site_id
 _symmetry_equiv_pos_as_xyz
  1  'x, y, z'
loop_
 _atom_site_type_symbol
 _atom_site_label
 _atom_site_symmetry_multiplicity
 _atom_site_fract_x
 _atom_site_fract_y
 _atom_site_fract_z
 _atom_site_occupancy
  Nd  Nd0  1  0.250000  0.747038  0.506348  1
  Nd  Nd1  1  0.250000  0.752962  0.006348  1
  Nd  Nd2  1  0.750000  0.252962  0.493652  1
  Nd  Nd3  1  0.750000  0.247038  0.993652  1
  Nd  Nd4  1  0.250000  0.587996  0.749120  1
  Nd  Nd5  1  0.250000  0.912004  0.249120  1
  Nd  Nd6  1  0.750000  0.412004  0.250880  1
  Nd  Nd7  1  0.750000  0.087996  0.750880  1
  Ni  Ni8  1  0.250000  0.467916  0.557393  1
  Ni  Ni9  1  0.250000  0.032084  0.057393  1
  Ni  Ni10  1  0.750000  0.532084  0.442607  1
  Ni  Ni11  1  0.750000  0.967916  0.942607  1
  Sb  Sb12  1  0.250000  0.278190  0.647822  1
  Sb  Sb13  1  0.250000  0.221810  0.147822  1
  Sb  Sb14  1  0.750000  0.721810  0.352178  1
  Sb  Sb15  1  0.750000  0.778190  0.852178  1
  Sb  Sb16  1  0.250000  0.886800  0.712344  1
  Sb  Sb17  1  0.250000  0.613200  0.212344  1
  Sb  Sb18  1  0.750000  0.113200  0.287656  1
  Sb  Sb19  1  0.750000  0.386800  0.787656  1
  Sb  Sb20  1  0.250000  0.067872  0.901079  1
  Sb  Sb21  1  0.250000  0.432128  0.401079  1
  Sb  Sb22  1  0.750000  0.932128  0.098921  1
  Sb  Sb23  1  0.750000  0.567872  0.598921  1
  Sb  Sb24  1  0.250000  0.446215  0.931755  1
  Sb  Sb25  1  0.250000  0.053785  0.431755  1
  Sb  Sb26  1  0.750000  0.553785  0.068245  1
  Sb  Sb27  1  0.750000  0.946215  0.568245  1
  Rh  Rh28  1  0.250000  0.056784  0.594145  1
  Rh  Rh29  1  0.250000  0.443216  0.094145  1
  Rh  Rh30  1  0.750000  0.943216  0.405855  1
  Rh  Rh31  1  0.750000  0.556784  0.905855  1
  Rh  Rh32  1  0.250000  0.276584  0.816942  1
  Rh  Rh33  1  0.250000  0.223416  0.316942  1
  Rh  Rh34  1  0.750000  0.723416  0.183058  1
  Rh  Rh35  1  0.750000  0.776584  0.683058  1
