# generated using pymatgen
data_Yb6Er2Cu(Si4Pd)3
_symmetry_space_group_name_H-M   'P 1'
_cell_length_a   8.20227100
_cell_length_b   8.20227070
_cell_length_c   8.10236000
_cell_angle_alpha   90.00000000
_cell_angle_beta   90.00000000
_cell_angle_gamma   119.99999717
_symmetry_Int_Tables_number   1
_chemical_formula_structural   Yb6Er2Cu(Si4Pd)3
_chemical_formula_sum   'Yb6 Er2 Cu1 Si12 Pd3'
_cell_volume   472.07433738
_cell_formula_units_Z   1
loop_
 _symmetry_equiv_pos_site_id
 _symmetry_equiv_pos_as_xyz
  1  'x, y, z'
loop_
 _atom_site_type_symbol
 _atom_site_label
 _atom_site_symmetry_multiplicity
 _atom_site_fract_x
 _atom_site_fract_y
 _atom_site_fract_z
 _atom_site_occupancy
  Yb  Yb0  1  0.502858  0.005719  0.251587  1
  Yb  Yb1  1  0.497943  0.995885  0.748272  1
  Yb  Yb2  1  0.994281  0.497142  0.251587  1
  Yb  Yb3  1  0.004115  0.502057  0.748272  1
  Yb  Yb4  1  0.502858  0.497142  0.251587  1
  Yb  Yb5  1  0.497943  0.502057  0.748272  1
  Er  Er6  1  0.000000  0.000000  0.249697  1
  Er  Er7  1  0.000000  0.000000  0.749987  1
  Cu  Cu8  1  0.333333  0.666667  0.007979  1
  Si  Si9  1  0.165163  0.330327  0.000878  1
  Si  Si10  1  0.835731  0.671460  0.999148  1
  Si  Si11  1  0.669673  0.834837  0.000878  1
  Si  Si12  1  0.836279  0.672559  0.501497  1
  Si  Si13  1  0.328540  0.164269  0.999148  1
  Si  Si14  1  0.164005  0.328009  0.498216  1
  Si  Si15  1  0.165163  0.834837  0.000878  1
  Si  Si16  1  0.327441  0.163721  0.501497  1
  Si  Si17  1  0.835731  0.164269  0.999148  1
  Si  Si18  1  0.671991  0.835995  0.498216  1
  Si  Si19  1  0.836279  0.163721  0.501497  1
  Si  Si20  1  0.164005  0.835995  0.498216  1
  Pd  Pd21  1  0.666667  0.333333  0.993682  1
  Pd  Pd22  1  0.666667  0.333333  0.506319  1
  Pd  Pd23  1  0.333333  0.666667  0.493539  1
