# generated using pymatgen
data_K4Tb2(CrH9)3
_symmetry_space_group_name_H-M   'P 1'
_cell_length_a   8.87033700
_cell_length_b   8.89625248
_cell_length_c   5.16475700
_cell_angle_alpha   90.00000000
_cell_angle_beta   90.00000000
_cell_angle_gamma   119.90368655
_symmetry_Int_Tables_number   1
_chemical_formula_structural   K4Tb2(CrH9)3
_chemical_formula_sum   'K4 Tb2 Cr3 H27'
_cell_volume   353.30388858
_cell_formula_units_Z   1
loop_
 _symmetry_equiv_pos_site_id
 _symmetry_equiv_pos_as_xyz
  1  'x, y, z'
loop_
 _atom_site_type_symbol
 _atom_site_label
 _atom_site_symmetry_multiplicity
 _atom_site_fract_x
 _atom_site_fract_y
 _atom_site_fract_z
 _atom_site_occupancy
  K  K0  1  0.018511  0.285791  0.500000  1
  K  K1  1  0.732719  0.714209  0.500000  1
  K  K2  1  0.993460  0.587620  0.000000  1
  K  K3  1  0.405839  0.412380  0.000000  1
  Tb  Tb4  1  0.251446  0.000000  0.500000  1
  Tb  Tb5  1  0.589779  0.000000  0.000000  1
  Cr  Cr6  1  0.002031  0.000000  0.000000  1
  Cr  Cr7  1  0.357774  0.720694  0.500000  1
  Cr  Cr8  1  0.637082  0.279306  0.500000  1
  H  H9  1  0.858063  0.000000  0.202446  1
  H  H10  1  0.004735  0.872803  0.230327  1
  H  H11  1  0.858063  0.000000  0.797554  1
  H  H12  1  0.004735  0.872803  0.769673  1
  H  H13  1  0.131933  0.127197  0.230327  1
  H  H14  1  0.131933  0.127197  0.769673  1
  H  H15  1  0.192960  0.000000  0.000000  1
  H  H16  1  0.011654  0.184559  0.000000  1
  H  H17  1  0.827095  0.815441  0.000000  1
  H  H18  1  0.239610  0.577111  0.287622  1
  H  H19  1  0.479163  0.730238  0.252940  1
  H  H20  1  0.239610  0.577111  0.712378  1
  H  H21  1  0.496838  0.149437  0.735501  1
  H  H22  1  0.347402  0.850563  0.264499  1
  H  H23  1  0.479163  0.730238  0.747060  1
  H  H24  1  0.662500  0.422889  0.712378  1
  H  H25  1  0.496838  0.149437  0.264499  1
  H  H26  1  0.347402  0.850563  0.735501  1
  H  H27  1  0.662500  0.422889  0.287622  1
  H  H28  1  0.748925  0.269762  0.747060  1
  H  H29  1  0.748925  0.269762  0.252940  1
  H  H30  1  0.387483  0.558557  0.500000  1
  H  H31  1  0.545913  0.891685  0.500000  1
  H  H32  1  0.462460  0.300155  0.500000  1
  H  H33  1  0.162305  0.699845  0.500000  1
  H  H34  1  0.828926  0.441443  0.500000  1
  H  H35  1  0.654228  0.108315  0.500000  1
