# generated using pymatgen
data_PrNdAl20(TcIr)2
_symmetry_space_group_name_H-M   'P 1'
_cell_length_a   6.91452991
_cell_length_b   6.92358318
_cell_length_c   9.22606900
_cell_angle_alpha   90.00000000
_cell_angle_beta   90.00000000
_cell_angle_gamma   96.65644397
_symmetry_Int_Tables_number   1
_chemical_formula_structural   PrNdAl20(TcIr)2
_chemical_formula_sum   'Pr1 Nd1 Al20 Tc2 Ir2'
_cell_volume   438.70522321
_cell_formula_units_Z   1
loop_
 _symmetry_equiv_pos_site_id
 _symmetry_equiv_pos_as_xyz
  1  'x, y, z'
loop_
 _atom_site_type_symbol
 _atom_site_label
 _atom_site_symmetry_multiplicity
 _atom_site_fract_x
 _atom_site_fract_y
 _atom_site_fract_z
 _atom_site_occupancy
  Pr  Pr0  1  0.128776  0.878089  0.250000  1
  Nd  Nd1  1  0.870413  0.122117  0.750000  1
  Al  Al2  1  0.618963  0.376020  0.548639  1
  Al  Al3  1  0.381307  0.623816  0.451778  1
  Al  Al4  1  0.381307  0.623816  0.048222  1
  Al  Al5  1  0.618963  0.376020  0.951361  1
  Al  Al6  1  0.226716  0.223689  0.499047  1
  Al  Al7  1  0.773262  0.776438  0.501626  1
  Al  Al8  1  0.773262  0.776438  0.998374  1
  Al  Al9  1  0.226716  0.223689  0.000953  1
  Al  Al10  1  0.839511  0.159902  0.102143  1
  Al  Al11  1  0.160225  0.840448  0.897460  1
  Al  Al12  1  0.160225  0.840448  0.602540  1
  Al  Al13  1  0.839511  0.159902  0.397857  1
  Al  Al14  1  0.857052  0.589889  0.750000  1
  Al  Al15  1  0.142801  0.409452  0.250000  1
  Al  Al16  1  0.410232  0.142247  0.750000  1
  Al  Al17  1  0.590343  0.857843  0.250000  1
  Al  Al18  1  0.220873  0.481668  0.750000  1
  Al  Al19  1  0.778770  0.517969  0.250000  1
  Al  Al20  1  0.517659  0.780573  0.750000  1
  Al  Al21  1  0.482763  0.219741  0.250000  1
  Tc  Tc22  1  0.500229  0.000061  0.999764  1
  Tc  Tc23  1  0.500229  0.000061  0.500236  1
  Ir  Ir24  1  0.999945  0.499834  0.500216  1
  Ir  Ir25  1  0.999945  0.499834  0.999784  1
