# generated using pymatgen
data_La2DyY7(Al2Ru3)2
_symmetry_space_group_name_H-M   'P 1'
_cell_length_a   8.47441768
_cell_length_b   8.42437299
_cell_length_c   8.42549099
_cell_angle_alpha   109.55960713
_cell_angle_beta   109.79865113
_cell_angle_gamma   109.66833705
_symmetry_Int_Tables_number   1
_chemical_formula_structural   La2DyY7(Al2Ru3)2
_chemical_formula_sum   'La2 Dy1 Y7 Al4 Ru6'
_cell_volume   459.50490584
_cell_formula_units_Z   1
loop_
 _symmetry_equiv_pos_site_id
 _symmetry_equiv_pos_as_xyz
  1  'x, y, z'
loop_
 _atom_site_type_symbol
 _atom_site_label
 _atom_site_symmetry_multiplicity
 _atom_site_fract_x
 _atom_site_fract_y
 _atom_site_fract_z
 _atom_site_occupancy
  La  La0  1  0.938946  0.251887  0.190927  1
  La  La1  1  0.192391  0.935649  0.253222  1
  Dy  Dy2  1  0.785402  0.788338  0.782688  1
  Y  Y3  1  0.320997  0.569709  0.756268  1
  Y  Y4  1  0.752841  0.321595  0.571788  1
  Y  Y5  1  0.568368  0.748687  0.315260  1
  Y  Y6  1  0.714686  0.502989  0.997081  1
  Y  Y7  1  0.999797  0.717285  0.507159  1
  Y  Y8  1  0.501144  0.992843  0.713975  1
  Y  Y9  1  0.254173  0.186666  0.928818  1
  Al  Al10  1  0.421712  0.418837  0.418947  1
  Al  Al11  1  0.088650  0.492322  0.994948  1
  Al  Al12  1  0.996635  0.085485  0.500631  1
  Al  Al13  1  0.497577  0.005837  0.087090  1
  Ru  Ru14  1  0.873093  0.119312  0.740048  1
  Ru  Ru15  1  0.742511  0.884613  0.120169  1
  Ru  Ru16  1  0.124369  0.751150  0.886972  1
  Ru  Ru17  1  0.241878  0.607871  0.368355  1
  Ru  Ru18  1  0.364950  0.240220  0.613328  1
  Ru  Ru19  1  0.619879  0.378710  0.252323  1
