# generated using pymatgen
data_La2NiH8Rh
_symmetry_space_group_name_H-M   'P 1'
_cell_length_a   3.95306364
_cell_length_b   5.00511500
_cell_length_c   6.40647529
_cell_angle_alpha   90.00000000
_cell_angle_beta   107.29373067
_cell_angle_gamma   90.00000000
_symmetry_Int_Tables_number   1
_chemical_formula_structural   La2NiH8Rh
_chemical_formula_sum   'La2 Ni1 H8 Rh1'
_cell_volume   121.02536458
_cell_formula_units_Z   1
loop_
 _symmetry_equiv_pos_site_id
 _symmetry_equiv_pos_as_xyz
  1  'x, y, z'
loop_
 _atom_site_type_symbol
 _atom_site_label
 _atom_site_symmetry_multiplicity
 _atom_site_fract_x
 _atom_site_fract_y
 _atom_site_fract_z
 _atom_site_occupancy
  La  La0  1  0.140675  0.249999  0.269059  1
  La  La1  1  0.872238  0.749999  0.740984  1
  Ni  Ni2  1  0.348393  0.249999  0.799525  1
  H  H3  1  0.487298  0.005492  0.989311  1
  H  H4  1  0.487298  0.494508  0.989311  1
  H  H5  1  0.089964  0.749999  0.178487  1
  H  H6  1  0.697936  0.503852  0.386081  1
  H  H7  1  0.697936  0.996149  0.386081  1
  H  H8  1  0.314466  0.005931  0.621640  1
  H  H9  1  0.314466  0.494069  0.621640  1
  H  H10  1  0.943451  0.249999  0.831393  1
  Rh  Rh11  1  0.605878  0.749999  0.186493  1
