# generated using pymatgen
data_Tm5LuTcOs
_symmetry_space_group_name_H-M   'P 1'
_cell_length_a   7.34311400
_cell_length_b   8.92523700
_cell_length_c   6.18278700
_cell_angle_alpha   90.00000000
_cell_angle_beta   90.00000000
_cell_angle_gamma   90.00000000
_symmetry_Int_Tables_number   1
_chemical_formula_structural   Tm5LuTcOs
_chemical_formula_sum   'Tm10 Lu2 Tc2 Os2'
_cell_volume   405.21387979
_cell_formula_units_Z   2
loop_
 _symmetry_equiv_pos_site_id
 _symmetry_equiv_pos_as_xyz
  1  'x, y, z'
loop_
 _atom_site_type_symbol
 _atom_site_label
 _atom_site_symmetry_multiplicity
 _atom_site_fract_x
 _atom_site_fract_y
 _atom_site_fract_z
 _atom_site_occupancy
  Tm  Tm0  1  0.674979  0.061201  0.337149  1
  Tm  Tm1  1  0.174979  0.438799  0.162851  1
  Tm  Tm2  1  0.324722  0.562473  0.664819  1
  Tm  Tm3  1  0.824722  0.937527  0.835181  1
  Tm  Tm4  1  0.324722  0.937527  0.664819  1
  Tm  Tm5  1  0.824722  0.562473  0.835181  1
  Tm  Tm6  1  0.674979  0.438799  0.337149  1
  Tm  Tm7  1  0.174979  0.061201  0.162851  1
  Tm  Tm8  1  0.539059  0.250000  0.875702  1
  Tm  Tm9  1  0.039059  0.250000  0.624298  1
  Lu  Lu10  1  0.459815  0.750000  0.128710  1
  Lu  Lu11  1  0.959815  0.750000  0.371290  1
  Tc  Tc12  1  0.883607  0.250000  0.039175  1
  Tc  Tc13  1  0.383607  0.250000  0.460825  1
  Os  Os14  1  0.118116  0.750000  0.961335  1
  Os  Os15  1  0.618116  0.750000  0.538665  1
