# generated using pymatgen
data_Dy3Ho(TcB6)2
_symmetry_space_group_name_H-M   'P 1'
_cell_length_a   3.68383900
_cell_length_b   9.15211102
_cell_length_c   11.53370702
_cell_angle_alpha   90.00682471
_cell_angle_beta   90.00000000
_cell_angle_gamma   90.00000000
_symmetry_Int_Tables_number   1
_chemical_formula_structural   Dy3Ho(TcB6)2
_chemical_formula_sum   'Dy6 Ho2 Tc4 B24'
_cell_volume   388.85781636
_cell_formula_units_Z   2
loop_
 _symmetry_equiv_pos_site_id
 _symmetry_equiv_pos_as_xyz
  1  'x, y, z'
loop_
 _atom_site_type_symbol
 _atom_site_label
 _atom_site_symmetry_multiplicity
 _atom_site_fract_x
 _atom_site_fract_y
 _atom_site_fract_z
 _atom_site_occupancy
  Dy  Dy0  1  0.000000  0.324056  0.414116  1
  Dy  Dy1  1  0.000000  0.675944  0.585884  1
  Dy  Dy2  1  0.000000  0.823864  0.085816  1
  Dy  Dy3  1  0.000000  0.176136  0.914184  1
  Dy  Dy4  1  0.000000  0.942801  0.369230  1
  Dy  Dy5  1  0.000000  0.057199  0.630770  1
  Ho  Ho6  1  0.000000  0.442838  0.130723  1
  Ho  Ho7  1  0.000000  0.557162  0.869277  1
  Tc  Tc8  1  0.000000  0.638674  0.320362  1
  Tc  Tc9  1  0.000000  0.361326  0.679638  1
  Tc  Tc10  1  0.000000  0.139154  0.179396  1
  Tc  Tc11  1  0.000000  0.860846  0.820604  1
  B  B12  1  0.500000  0.553500  0.432836  1
  B  B13  1  0.500000  0.446500  0.567164  1
  B  B14  1  0.500000  0.053543  0.067122  1
  B  B15  1  0.500000  0.946457  0.932878  1
  B  B16  1  0.500000  0.748752  0.418561  1
  B  B17  1  0.500000  0.251248  0.581439  1
  B  B18  1  0.500000  0.249138  0.081433  1
  B  B19  1  0.500000  0.750862  0.918567  1
  B  B20  1  0.500000  0.791848  0.265310  1
  B  B21  1  0.500000  0.208152  0.734690  1
  B  B22  1  0.500000  0.292227  0.234587  1
  B  B23  1  0.500000  0.707773  0.765413  1
  B  B24  1  0.500000  0.630861  0.185600  1
  B  B25  1  0.500000  0.369139  0.814400  1
  B  B26  1  0.500000  0.131207  0.314212  1
  B  B27  1  0.500000  0.868793  0.685788  1
  B  B28  1  0.500000  0.982634  0.211590  1
  B  B29  1  0.500000  0.017366  0.788410  1
  B  B30  1  0.500000  0.482464  0.288183  1
  B  B31  1  0.500000  0.517536  0.711817  1
  B  B32  1  0.500000  0.600182  0.028011  1
  B  B33  1  0.500000  0.399818  0.971989  1
  B  B34  1  0.500000  0.100722  0.471866  1
  B  B35  1  0.500000  0.899278  0.528134  1
