# generated using pymatgen
data_Dy5Y2Sn23Ir6
_symmetry_space_group_name_H-M   'P 1'
_cell_length_a   9.85872001
_cell_length_b   9.85871382
_cell_length_c   10.12191400
_cell_angle_alpha   89.99764045
_cell_angle_beta   90.00235373
_cell_angle_gamma   119.99705470
_symmetry_Int_Tables_number   1
_chemical_formula_structural   Dy5Y2Sn23Ir6
_chemical_formula_sum   'Dy5 Y2 Sn23 Ir6'
_cell_volume   852.01444069
_cell_formula_units_Z   1
loop_
 _symmetry_equiv_pos_site_id
 _symmetry_equiv_pos_as_xyz
  1  'x, y, z'
loop_
 _atom_site_type_symbol
 _atom_site_label
 _atom_site_symmetry_multiplicity
 _atom_site_fract_x
 _atom_site_fract_y
 _atom_site_fract_z
 _atom_site_occupancy
  Dy  Dy0  1  0.519877  0.039779  0.693095  1
  Dy  Dy1  1  0.960222  0.480123  0.693095  1
  Dy  Dy2  1  0.039773  0.519869  0.306900  1
  Dy  Dy3  1  0.480130  0.960226  0.306900  1
  Dy  Dy4  1  0.480118  0.519882  0.306868  1
  Y  Y5  1  0.999999  0.999999  0.999999  1
  Y  Y6  1  0.520062  0.479938  0.692920  1
  Sn  Sn7  1  0.666666  0.333334  0.173992  1
  Sn  Sn8  1  0.666811  0.333189  0.877086  1
  Sn  Sn9  1  0.333331  0.666669  0.123074  1
  Sn  Sn10  1  0.352311  0.352376  0.000024  1
  Sn  Sn11  1  0.999993  0.647579  0.999998  1
  Sn  Sn12  1  0.647584  0.000012  0.000050  1
  Sn  Sn13  1  0.647624  0.647689  0.000025  1
  Sn  Sn14  1  0.333316  0.666685  0.826020  1
  Sn  Sn15  1  0.445158  0.222435  0.455879  1
  Sn  Sn16  1  0.222607  0.777394  0.543940  1
  Sn  Sn17  1  0.222432  0.445166  0.543985  1
  Sn  Sn18  1  0.554834  0.777568  0.543984  1
  Sn  Sn19  1  0.119284  0.880715  0.283973  1
  Sn  Sn20  1  0.777565  0.554842  0.455878  1
  Sn  Sn21  1  0.777403  0.222597  0.456033  1
  Sn  Sn22  1  0.352421  0.000007  0.999999  1
  Sn  Sn23  1  0.119324  0.238622  0.283973  1
  Sn  Sn24  1  0.761378  0.880676  0.283973  1
  Sn  Sn25  1  0.238451  0.119217  0.716076  1
  Sn  Sn26  1  0.880783  0.761549  0.716076  1
  Sn  Sn27  1  0.880704  0.119296  0.716010  1
  Sn  Sn28  1  0.000011  0.999990  0.499987  1
  Sn  Sn29  1  0.999987  0.352416  0.000051  1
  Ir  Ir30  1  0.168768  0.831232  0.801702  1
  Ir  Ir31  1  0.168467  0.337423  0.801764  1
  Ir  Ir32  1  0.662578  0.831533  0.801764  1
  Ir  Ir33  1  0.337539  0.168748  0.198299  1
  Ir  Ir34  1  0.831252  0.662460  0.198299  1
  Ir  Ir35  1  0.831238  0.168762  0.198309  1
