# generated using pymatgen
data_Er4Ga18Ir2Pd3Ru
_symmetry_space_group_name_H-M   'P 1'
_cell_length_a   7.60988202
_cell_length_b   7.60988158
_cell_length_c   9.49763357
_cell_angle_alpha   90.03711739
_cell_angle_beta   90.03712615
_cell_angle_gamma   119.89295903
_symmetry_Int_Tables_number   1
_chemical_formula_structural   Er4Ga18Ir2Pd3Ru
_chemical_formula_sum   'Er4 Ga18 Ir2 Pd3 Ru1'
_cell_volume   476.83588053
_cell_formula_units_Z   1
loop_
 _symmetry_equiv_pos_site_id
 _symmetry_equiv_pos_as_xyz
  1  'x, y, z'
loop_
 _atom_site_type_symbol
 _atom_site_label
 _atom_site_symmetry_multiplicity
 _atom_site_fract_x
 _atom_site_fract_y
 _atom_site_fract_z
 _atom_site_occupancy
  Er  Er0  1  0.996923  0.669066  0.749896  1
  Er  Er1  1  0.002797  0.330850  0.249696  1
  Er  Er2  1  0.669150  0.997203  0.750304  1
  Er  Er3  1  0.330934  0.003077  0.250104  1
  Ga  Ga4  1  0.129445  0.127452  0.750404  1
  Ga  Ga5  1  0.872548  0.870555  0.249596  1
  Ga  Ga6  1  0.002622  0.337792  0.581422  1
  Ga  Ga7  1  0.005166  0.665250  0.418960  1
  Ga  Ga8  1  0.001244  0.663373  0.080148  1
  Ga  Ga9  1  0.336627  0.998756  0.919852  1
  Ga  Ga10  1  0.998130  0.336913  0.918984  1
  Ga  Ga11  1  0.663087  0.001870  0.081016  1
  Ga  Ga12  1  0.662208  0.997378  0.418578  1
  Ga  Ga13  1  0.334750  0.994834  0.581040  1
  Ga  Ga14  1  0.334077  0.334135  0.068784  1
  Ga  Ga15  1  0.665865  0.665923  0.931216  1
  Ga  Ga16  1  0.663262  0.667503  0.571078  1
  Ga  Ga17  1  0.332497  0.336738  0.428922  1
  Ga  Ga18  1  0.336993  0.547055  0.748744  1
  Ga  Ga19  1  0.664765  0.456221  0.248416  1
  Ga  Ga20  1  0.543779  0.335235  0.751584  1
  Ga  Ga21  1  0.452945  0.663007  0.251256  1
  Ir  Ir22  1  0.328664  0.671336  0.000000  1
  Ir  Ir23  1  0.671425  0.328575  0.000000  1
  Pd  Pd24  1  0.671108  0.328892  0.500000  1
  Pd  Pd25  1  0.000580  0.999420  0.500000  1
  Pd  Pd26  1  0.999349  0.000651  0.000000  1
  Ru  Ru27  1  0.329059  0.670941  0.500000  1
