# generated using pymatgen
data_Er2Tm3Be3P9Ir19
_symmetry_space_group_name_H-M   'P 1'
_cell_length_a   12.60747300
_cell_length_b   12.60735492
_cell_length_c   3.93877800
_cell_angle_alpha   90.00000000
_cell_angle_beta   90.00000000
_cell_angle_gamma   119.99824703
_symmetry_Int_Tables_number   1
_chemical_formula_structural   Er2Tm3Be3P9Ir19
_chemical_formula_sum   'Er2 Tm3 Be3 P9 Ir19'
_cell_volume   542.19041094
_cell_formula_units_Z   1
loop_
 _symmetry_equiv_pos_site_id
 _symmetry_equiv_pos_as_xyz
  1  'x, y, z'
loop_
 _atom_site_type_symbol
 _atom_site_label
 _atom_site_symmetry_multiplicity
 _atom_site_fract_x
 _atom_site_fract_y
 _atom_site_fract_z
 _atom_site_occupancy
  Er  Er0  1  0.190871  0.006514  0.500000  1
  Er  Er1  1  0.993494  0.184355  0.500000  1
  Tm  Tm2  1  0.666667  0.333328  0.000000  1
  Tm  Tm3  1  0.333329  0.666666  0.000000  1
  Tm  Tm4  1  0.815650  0.809132  0.500000  1
  Be  Be5  1  0.683119  0.162591  0.500000  1
  Be  Be6  1  0.837409  0.520532  0.500000  1
  Be  Be7  1  0.479462  0.316871  0.500000  1
  P  P8  1  0.178114  0.696352  0.500000  1
  P  P9  1  0.518231  0.821888  0.500000  1
  P  P10  1  0.303648  0.481753  0.500000  1
  P  P11  1  0.639926  0.627071  0.000000  1
  P  P12  1  0.372958  0.012859  0.000000  1
  P  P13  1  0.987150  0.360103  0.000000  1
  P  P14  1  0.178545  0.181209  0.000000  1
  P  P15  1  0.818792  0.997313  0.000000  1
  P  P16  1  0.002634  0.821454  0.000000  1
  Ir  Ir17  1  0.801906  0.175480  0.000000  1
  Ir  Ir18  1  0.824511  0.626499  0.000000  1
  Ir  Ir19  1  0.373572  0.198087  0.000000  1
  Ir  Ir20  1  0.190315  0.813200  0.000000  1
  Ir  Ir21  1  0.622945  0.809669  0.000000  1
  Ir  Ir22  1  0.186789  0.377116  0.000000  1
  Ir  Ir23  1  0.455266  0.446535  0.000000  1
  Ir  Ir24  1  0.553475  0.008732  0.000000  1
  Ir  Ir25  1  0.991274  0.544739  0.000000  1
  Ir  Ir26  1  0.280262  0.287579  0.500000  1
  Ir  Ir27  1  0.712430  0.992658  0.500000  1
  Ir  Ir28  1  0.007300  0.719750  0.500000  1
  Ir  Ir29  1  0.870560  0.354379  0.500000  1
  Ir  Ir30  1  0.645625  0.516195  0.500000  1
  Ir  Ir31  1  0.483826  0.129452  0.500000  1
  Ir  Ir32  1  0.369289  0.870307  0.500000  1
  Ir  Ir33  1  0.501028  0.630720  0.500000  1
  Ir  Ir34  1  0.129703  0.498988  0.500000  1
  Ir  Ir35  1  0.999925  0.999922  0.000000  1
