# generated using pymatgen
data_Y3Fe8CoP6
_symmetry_space_group_name_H-M   'P 1'
_cell_length_a   3.71397200
_cell_length_b   10.50253900
_cell_length_c   12.19451900
_cell_angle_alpha   90.00000000
_cell_angle_beta   90.00000000
_cell_angle_gamma   90.00000000
_symmetry_Int_Tables_number   1
_chemical_formula_structural   Y3Fe8CoP6
_chemical_formula_sum   'Y6 Fe16 Co2 P12'
_cell_volume   475.66106382
_cell_formula_units_Z   2
loop_
 _symmetry_equiv_pos_site_id
 _symmetry_equiv_pos_as_xyz
  1  'x, y, z'
loop_
 _atom_site_type_symbol
 _atom_site_label
 _atom_site_symmetry_multiplicity
 _atom_site_fract_x
 _atom_site_fract_y
 _atom_site_fract_z
 _atom_site_occupancy
  Y  Y0  1  0.000000  0.500000  0.525410  1
  Y  Y1  1  0.500000  0.000000  0.474590  1
  Y  Y2  1  0.500000  0.819308  0.206859  1
  Y  Y3  1  0.500000  0.180692  0.206859  1
  Y  Y4  1  0.000000  0.680692  0.793141  1
  Y  Y5  1  0.000000  0.319308  0.793141  1
  Fe  Fe6  1  0.500000  0.500000  0.152103  1
  Fe  Fe7  1  0.000000  0.000000  0.847897  1
  Fe  Fe8  1  0.000000  0.500000  0.988602  1
  Fe  Fe9  1  0.500000  0.000000  0.011398  1
  Fe  Fe10  1  0.500000  0.327698  0.996512  1
  Fe  Fe11  1  0.500000  0.672302  0.996512  1
  Fe  Fe12  1  0.000000  0.172302  0.003488  1
  Fe  Fe13  1  0.000000  0.827698  0.003488  1
  Fe  Fe14  1  0.500000  0.299286  0.429813  1
  Fe  Fe15  1  0.500000  0.700714  0.429813  1
  Fe  Fe16  1  0.000000  0.200714  0.570187  1
  Fe  Fe17  1  0.000000  0.799286  0.570187  1
  Fe  Fe18  1  0.500000  0.882831  0.709292  1
  Fe  Fe19  1  0.500000  0.117169  0.709292  1
  Fe  Fe20  1  0.000000  0.617169  0.290708  1
  Fe  Fe21  1  0.000000  0.382831  0.290708  1
  Co  Co22  1  0.500000  0.500000  0.699810  1
  Co  Co23  1  0.000000  0.000000  0.300190  1
  P  P24  1  0.500000  0.500000  0.884244  1
  P  P25  1  0.000000  0.000000  0.115756  1
  P  P26  1  0.500000  0.500000  0.339963  1
  P  P27  1  0.000000  0.000000  0.660037  1
  P  P28  1  0.500000  0.305457  0.614102  1
  P  P29  1  0.500000  0.694543  0.614102  1
  P  P30  1  0.000000  0.194543  0.385898  1
  P  P31  1  0.000000  0.805457  0.385898  1
  P  P32  1  0.500000  0.851283  0.889149  1
  P  P33  1  0.500000  0.148717  0.889149  1
  P  P34  1  0.000000  0.648717  0.110851  1
  P  P35  1  0.000000  0.351283  0.110851  1
