# generated using pymatgen
data_SmU(P2O7)2
_symmetry_space_group_name_H-M   'P 1'
_cell_length_a   8.93393385
_cell_length_b   5.33464411
_cell_length_c   7.44533442
_cell_angle_alpha   71.60924167
_cell_angle_beta   90.61606509
_cell_angle_gamma   90.49126753
_symmetry_Int_Tables_number   1
_chemical_formula_structural   SmU(P2O7)2
_chemical_formula_sum   'Sm1 U1 P4 O14'
_cell_volume   336.69260331
_cell_formula_units_Z   1
loop_
 _symmetry_equiv_pos_site_id
 _symmetry_equiv_pos_as_xyz
  1  'x, y, z'
loop_
 _atom_site_type_symbol
 _atom_site_label
 _atom_site_symmetry_multiplicity
 _atom_site_fract_x
 _atom_site_fract_y
 _atom_site_fract_z
 _atom_site_occupancy
  Sm  Sm0  1  0.545607  0.800772  0.724689  1
  U  U1  1  0.048302  0.196726  0.284152  1
  P  P2  1  0.271347  0.762870  0.097467  1
  P  P3  1  0.780958  0.239162  0.902036  1
  P  P4  1  0.373307  0.409722  0.468476  1
  P  P5  1  0.866570  0.592879  0.530980  1
  O  O6  1  0.370234  0.582914  0.593704  1
  O  O7  1  0.653946  0.415283  0.917996  1
  O  O8  1  0.139843  0.566997  0.100005  1
  O  O9  1  0.215642  0.272505  0.465063  1
  O  O10  1  0.883661  0.163977  0.084353  1
  O  O11  1  0.209897  0.988658  0.165125  1
  O  O12  1  0.351223  0.859298  0.912317  1
  O  O13  1  0.988568  0.813835  0.484393  1
  O  O14  1  0.392313  0.601292  0.250256  1
  O  O15  1  0.894847  0.412800  0.406298  1
  O  O16  1  0.495250  0.206408  0.504635  1
  O  O17  1  0.737717  0.997136  0.849701  1
  O  O18  1  0.711069  0.703007  0.513460  1
  O  O19  1  0.901424  0.413763  0.744894  1
