# generated using pymatgen
data_Tb6YbNiI12
_symmetry_space_group_name_H-M   'P 1'
_cell_length_a   9.82041122
_cell_length_b   9.82041060
_cell_length_c   9.82041201
_cell_angle_alpha   106.84785331
_cell_angle_beta   106.84784868
_cell_angle_gamma   106.84785539
_symmetry_Int_Tables_number   1
_chemical_formula_structural   Tb6YbNiI12
_chemical_formula_sum   'Tb6 Yb1 Ni1 I12'
_cell_volume   791.99238258
_cell_formula_units_Z   1
loop_
 _symmetry_equiv_pos_site_id
 _symmetry_equiv_pos_as_xyz
  1  'x, y, z'
loop_
 _atom_site_type_symbol
 _atom_site_label
 _atom_site_symmetry_multiplicity
 _atom_site_fract_x
 _atom_site_fract_y
 _atom_site_fract_z
 _atom_site_occupancy
  Tb  Tb0  1  0.904841  0.975738  0.706943  1
  Tb  Tb1  1  0.706943  0.904841  0.975738  1
  Tb  Tb2  1  0.975738  0.706943  0.904841  1
  Tb  Tb3  1  0.095159  0.024262  0.293057  1
  Tb  Tb4  1  0.293057  0.095159  0.024262  1
  Tb  Tb5  1  0.024262  0.293057  0.095159  1
  Yb  Yb6  1  0.500000  0.500000  0.500000  1
  Ni  Ni7  1  0.000000  0.000000  0.000000  1
  I  I8  1  0.926978  0.320898  0.777000  1
  I  I9  1  0.777000  0.926978  0.320898  1
  I  I10  1  0.320898  0.777000  0.926978  1
  I  I11  1  0.073022  0.679102  0.223000  1
  I  I12  1  0.223000  0.073022  0.679102  1
  I  I13  1  0.679102  0.223000  0.073022  1
  I  I14  1  0.543706  0.848187  0.620893  1
  I  I15  1  0.620893  0.543706  0.848187  1
  I  I16  1  0.848187  0.620893  0.543706  1
  I  I17  1  0.456294  0.151813  0.379107  1
  I  I18  1  0.379107  0.456294  0.151813  1
  I  I19  1  0.151813  0.379107  0.456294  1
