# generated using pymatgen
data_Pr12Nd2PdPt5
_symmetry_space_group_name_H-M   'P 1'
_cell_length_a   6.50780135
_cell_length_b   10.25559036
_cell_length_c   10.25558900
_cell_angle_alpha   120.01714079
_cell_angle_beta   89.86392264
_cell_angle_gamma   90.13606498
_symmetry_Int_Tables_number   1
_chemical_formula_structural   Pr12Nd2PdPt5
_chemical_formula_sum   'Pr12 Nd2 Pd1 Pt5'
_cell_volume   592.66532974
_cell_formula_units_Z   1
loop_
 _symmetry_equiv_pos_site_id
 _symmetry_equiv_pos_as_xyz
  1  'x, y, z'
loop_
 _atom_site_type_symbol
 _atom_site_label
 _atom_site_symmetry_multiplicity
 _atom_site_fract_x
 _atom_site_fract_y
 _atom_site_fract_z
 _atom_site_occupancy
  Pr  Pr0  1  0.242192  0.128013  0.871987  1
  Pr  Pr1  1  0.243083  0.744627  0.870892  1
  Pr  Pr2  1  0.243083  0.129108  0.255373  1
  Pr  Pr3  1  0.741343  0.873198  0.126802  1
  Pr  Pr4  1  0.742199  0.255540  0.127541  1
  Pr  Pr5  1  0.742199  0.872459  0.744460  1
  Pr  Pr6  1  0.443624  0.537318  0.462682  1
  Pr  Pr7  1  0.445328  0.923899  0.462979  1
  Pr  Pr8  1  0.445328  0.537021  0.076101  1
  Pr  Pr9  1  0.943481  0.462726  0.537274  1
  Pr  Pr10  1  0.943465  0.075677  0.537779  1
  Pr  Pr11  1  0.943465  0.462221  0.924323  1
  Nd  Nd12  1  0.458771  0.333067  0.666933  1
  Nd  Nd13  1  0.959055  0.665556  0.334444  1
  Pd  Pd14  1  0.191435  0.811205  0.188795  1
  Pt  Pt15  1  0.192254  0.377545  0.189202  1
  Pt  Pt16  1  0.192254  0.810798  0.622455  1
  Pt  Pt17  1  0.691092  0.188767  0.811233  1
  Pt  Pt18  1  0.691174  0.622700  0.811446  1
  Pt  Pt19  1  0.691174  0.188554  0.377300  1
