# generated using pymatgen
data_K8Ga3FeF20
_symmetry_space_group_name_H-M   'P 1'
_cell_length_a   5.73594800
_cell_length_b   7.47635824
_cell_length_c   11.65617673
_cell_angle_alpha   89.87739572
_cell_angle_beta   90.00000000
_cell_angle_gamma   90.00000000
_symmetry_Int_Tables_number   1
_chemical_formula_structural   K8Ga3FeF20
_chemical_formula_sum   'K8 Ga3 Fe1 F20'
_cell_volume   499.86236300
_cell_formula_units_Z   1
loop_
 _symmetry_equiv_pos_site_id
 _symmetry_equiv_pos_as_xyz
  1  'x, y, z'
loop_
 _atom_site_type_symbol
 _atom_site_label
 _atom_site_symmetry_multiplicity
 _atom_site_fract_x
 _atom_site_fract_y
 _atom_site_fract_z
 _atom_site_occupancy
  K  K0  1  0.250000  0.157692  0.584571  1
  K  K1  1  0.250000  0.656013  0.913902  1
  K  K2  1  0.750000  0.842604  0.416871  1
  K  K3  1  0.750000  0.342192  0.084535  1
  K  K4  1  0.250000  0.483452  0.275934  1
  K  K5  1  0.250000  0.987874  0.227042  1
  K  K6  1  0.750000  0.513542  0.724086  1
  K  K7  1  0.750000  0.013695  0.773419  1
  Ga  Ga8  1  0.250000  0.669880  0.561880  1
  Ga  Ga9  1  0.250000  0.171103  0.937636  1
  Ga  Ga10  1  0.750000  0.330185  0.438034  1
  Fe  Fe11  1  0.750000  0.830766  0.061769  1
  F  F12  1  0.999783  0.500129  0.500033  1
  F  F13  1  0.496985  0.001379  0.999736  1
  F  F14  1  0.500217  0.500129  0.500033  1
  F  F15  1  0.003015  0.001379  0.999736  1
  F  F16  1  0.250000  0.527552  0.694015  1
  F  F17  1  0.250000  0.029898  0.804842  1
  F  F18  1  0.750000  0.471981  0.305654  1
  F  F19  1  0.750000  0.973522  0.197814  1
  F  F20  1  0.250000  0.772761  0.411779  1
  F  F21  1  0.250000  0.274220  0.088016  1
  F  F22  1  0.750000  0.226509  0.587941  1
  F  F23  1  0.750000  0.724144  0.908300  1
  F  F24  1  0.007674  0.820918  0.612436  1
  F  F25  1  0.492765  0.322005  0.887101  1
  F  F26  1  0.506739  0.179711  0.387934  1
  F  F27  1  0.994182  0.676066  0.113741  1
  F  F28  1  0.993261  0.179711  0.387934  1
  F  F29  1  0.505818  0.676066  0.113741  1
  F  F30  1  0.492326  0.820918  0.612436  1
  F  F31  1  0.007235  0.322005  0.887101  1
