# generated using pymatgen
data_Yb2YUO6
_symmetry_space_group_name_H-M   'P 1'
_cell_length_a   6.73749320
_cell_length_b   6.74243875
_cell_length_c   6.71807502
_cell_angle_alpha   91.67481601
_cell_angle_beta   91.39748424
_cell_angle_gamma   91.32342839
_symmetry_Int_Tables_number   1
_chemical_formula_structural   Yb2YUO6
_chemical_formula_sum   'Yb4 Y2 U2 O12'
_cell_volume   304.87522080
_cell_formula_units_Z   2
loop_
 _symmetry_equiv_pos_site_id
 _symmetry_equiv_pos_as_xyz
  1  'x, y, z'
loop_
 _atom_site_type_symbol
 _atom_site_label
 _atom_site_symmetry_multiplicity
 _atom_site_fract_x
 _atom_site_fract_y
 _atom_site_fract_z
 _atom_site_occupancy
  Yb  Yb0  1  0.554326  0.250618  0.059965  1
  Yb  Yb1  1  0.252475  0.060508  0.558596  1
  Yb  Yb2  1  0.063988  0.557134  0.250151  1
  Yb  Yb3  1  0.443598  0.749502  0.939782  1
  Y  Y4  1  0.937589  0.443216  0.750051  1
  Y  Y5  1  0.748260  0.937629  0.440512  1
  U  U6  1  0.000956  0.999078  0.000258  1
  U  U7  1  0.496402  0.498505  0.499204  1
  O  O8  1  0.296695  0.063269  0.920298  1
  O  O9  1  0.060755  0.919522  0.305049  1
  O  O10  1  0.921031  0.304002  0.059012  1
  O  O11  1  0.700842  0.934797  0.088949  1
  O  O12  1  0.927389  0.086403  0.691671  1
  O  O13  1  0.078808  0.693140  0.929109  1
  O  O14  1  0.191220  0.406649  0.542791  1
  O  O15  1  0.409162  0.537984  0.199999  1
  O  O16  1  0.469140  0.805803  0.589300  1
  O  O17  1  0.598463  0.461036  0.800001  1
  O  O18  1  0.806722  0.597370  0.467167  1
  O  O19  1  0.542176  0.193834  0.408135  1
