# generated using pymatgen
data_Hf4In2CoNi3
_symmetry_space_group_name_H-M   'P 1'
_cell_length_a   7.21565576
_cell_length_b   7.21565576
_cell_length_c   6.50457977
_cell_angle_alpha   90.07431752
_cell_angle_beta   90.07431752
_cell_angle_gamma   90.36320598
_symmetry_Int_Tables_number   1
_chemical_formula_structural   Hf4In2CoNi3
_chemical_formula_sum   'Hf8 In4 Co2 Ni6'
_cell_volume   338.65804303
_cell_formula_units_Z   2
loop_
 _symmetry_equiv_pos_site_id
 _symmetry_equiv_pos_as_xyz
  1  'x, y, z'
loop_
 _atom_site_type_symbol
 _atom_site_label
 _atom_site_symmetry_multiplicity
 _atom_site_fract_x
 _atom_site_fract_y
 _atom_site_fract_z
 _atom_site_occupancy
  Hf  Hf0  1  0.167697  0.832303  0.500000  1
  Hf  Hf1  1  0.326054  0.326054  0.002631  1
  Hf  Hf2  1  0.662159  0.662159  0.502829  1
  Hf  Hf3  1  0.832303  0.167697  0.500000  1
  Hf  Hf4  1  0.157459  0.842541  0.000000  1
  Hf  Hf5  1  0.337841  0.337841  0.497171  1
  Hf  Hf6  1  0.673946  0.673946  0.997369  1
  Hf  Hf7  1  0.842541  0.157459  0.000000  1
  In  In8  1  0.501949  0.999909  0.749811  1
  In  In9  1  0.000091  0.498051  0.250189  1
  In  In10  1  0.999909  0.501949  0.749811  1
  In  In11  1  0.498051  0.000091  0.250189  1
  Co  Co12  1  0.124992  0.124992  0.261416  1
  Co  Co13  1  0.875008  0.875008  0.738584  1
  Ni  Ni14  1  0.871708  0.871708  0.264404  1
  Ni  Ni15  1  0.128292  0.128292  0.735596  1
  Ni  Ni16  1  0.375263  0.625596  0.234464  1
  Ni  Ni17  1  0.624737  0.374404  0.765536  1
  Ni  Ni18  1  0.374404  0.624737  0.765536  1
  Ni  Ni19  1  0.625596  0.375263  0.234464  1
