# generated using pymatgen
data_Na8Hf3ThBr24
_symmetry_space_group_name_H-M   'P 1'
_cell_length_a   7.35813000
_cell_length_b   7.35813043
_cell_length_c   27.35162600
_cell_angle_alpha   90.00000000
_cell_angle_beta   90.00000000
_cell_angle_gamma   119.99999807
_symmetry_Int_Tables_number   1
_chemical_formula_structural   Na8Hf3ThBr24
_chemical_formula_sum   'Na8 Hf3 Th1 Br24'
_cell_volume   1282.47446813
_cell_formula_units_Z   1
loop_
 _symmetry_equiv_pos_site_id
 _symmetry_equiv_pos_as_xyz
  1  'x, y, z'
loop_
 _atom_site_type_symbol
 _atom_site_label
 _atom_site_symmetry_multiplicity
 _atom_site_fract_x
 _atom_site_fract_y
 _atom_site_fract_z
 _atom_site_occupancy
  Na  Na0  1  0.000000  0.000000  0.250214  1
  Na  Na1  1  0.000000  0.000000  0.749786  1
  Na  Na2  1  0.333333  0.666667  0.000426  1
  Na  Na3  1  0.333333  0.666667  0.499530  1
  Na  Na4  1  0.333333  0.666667  0.250078  1
  Na  Na5  1  0.666667  0.333333  0.749922  1
  Na  Na6  1  0.666667  0.333333  0.999574  1
  Na  Na7  1  0.666667  0.333333  0.500470  1
  Hf  Hf8  1  0.000000  0.000000  0.500000  1
  Hf  Hf9  1  0.333333  0.666667  0.749803  1
  Hf  Hf10  1  0.666667  0.333333  0.250197  1
  Th  Th11  1  0.000000  0.000000  0.000000  1
  Br  Br12  1  0.374650  0.040914  0.306088  1
  Br  Br13  1  0.333300  0.958915  0.805693  1
  Br  Br14  1  0.999222  0.317677  0.059839  1
  Br  Br15  1  0.000988  0.292634  0.555927  1
  Br  Br16  1  0.959086  0.333737  0.306088  1
  Br  Br17  1  0.041085  0.374384  0.805693  1
  Br  Br18  1  0.374384  0.333300  0.194307  1
  Br  Br19  1  0.333737  0.374650  0.693912  1
  Br  Br20  1  0.292634  0.291646  0.444073  1
  Br  Br21  1  0.317677  0.318455  0.940161  1
  Br  Br22  1  0.708354  0.000988  0.444073  1
  Br  Br23  1  0.318455  0.000778  0.059839  1
  Br  Br24  1  0.291646  0.999012  0.555927  1
  Br  Br25  1  0.682323  0.681545  0.059839  1
  Br  Br26  1  0.707366  0.708354  0.555927  1
  Br  Br27  1  0.666263  0.625350  0.306088  1
  Br  Br28  1  0.625616  0.666700  0.805693  1
  Br  Br29  1  0.958915  0.625616  0.194307  1
  Br  Br30  1  0.040914  0.666263  0.693912  1
  Br  Br31  1  0.999012  0.707366  0.444073  1
  Br  Br32  1  0.000778  0.682323  0.940161  1
  Br  Br33  1  0.681545  0.999222  0.940161  1
  Br  Br34  1  0.666700  0.041085  0.194307  1
  Br  Br35  1  0.625350  0.959086  0.693912  1
