# generated using pymatgen
data_Ho6Er10Cd4Ni3Os
_symmetry_space_group_name_H-M   'P 1'
_cell_length_a   9.53129898
_cell_length_b   9.53129889
_cell_length_c   9.53129930
_cell_angle_alpha   59.49235862
_cell_angle_beta   59.49235959
_cell_angle_gamma   59.49235745
_symmetry_Int_Tables_number   1
_chemical_formula_structural   Ho6Er10Cd4Ni3Os
_chemical_formula_sum   'Ho6 Er10 Cd4 Ni3 Os1'
_cell_volume   605.19858266
_cell_formula_units_Z   1
loop_
 _symmetry_equiv_pos_site_id
 _symmetry_equiv_pos_as_xyz
  1  'x, y, z'
loop_
 _atom_site_type_symbol
 _atom_site_label
 _atom_site_symmetry_multiplicity
 _atom_site_fract_x
 _atom_site_fract_y
 _atom_site_fract_z
 _atom_site_occupancy
  Ho  Ho0  1  0.935824  0.565702  0.565702  1
  Ho  Ho1  1  0.556958  0.939308  0.939308  1
  Ho  Ho2  1  0.565702  0.935824  0.565702  1
  Ho  Ho3  1  0.939308  0.556958  0.939308  1
  Ho  Ho4  1  0.565702  0.565702  0.935824  1
  Ho  Ho5  1  0.939308  0.939308  0.556958  1
  Er  Er6  1  0.347278  0.347278  0.347278  1
  Er  Er7  1  0.351526  0.351526  0.953306  1
  Er  Er8  1  0.351526  0.953306  0.351526  1
  Er  Er9  1  0.953306  0.351526  0.351526  1
  Er  Er10  1  0.810339  0.187858  0.187858  1
  Er  Er11  1  0.185927  0.811800  0.811800  1
  Er  Er12  1  0.187858  0.810339  0.187858  1
  Er  Er13  1  0.811800  0.185927  0.811800  1
  Er  Er14  1  0.187858  0.187858  0.810339  1
  Er  Er15  1  0.811800  0.811800  0.185927  1
  Cd  Cd16  1  0.580171  0.580171  0.580171  1
  Cd  Cd17  1  0.579989  0.579989  0.255857  1
  Cd  Cd18  1  0.579989  0.255857  0.579989  1
  Cd  Cd19  1  0.255857  0.579989  0.579989  1
  Ni  Ni20  1  0.141852  0.141852  0.574876  1
  Ni  Ni21  1  0.141852  0.574876  0.141852  1
  Ni  Ni22  1  0.574876  0.141852  0.141852  1
  Os  Os23  1  0.143391  0.143391  0.143391  1
