# generated using pymatgen
data_KYTa2(Nb2Br9)2
_symmetry_space_group_name_H-M   'P 1'
_cell_length_a   10.70881728
_cell_length_b   10.70505720
_cell_length_c   10.70137400
_cell_angle_alpha   55.30804514
_cell_angle_beta   55.31162466
_cell_angle_gamma   55.31486964
_symmetry_Int_Tables_number   1
_chemical_formula_structural   KYTa2(Nb2Br9)2
_chemical_formula_sum   'K1 Y1 Ta2 Nb4 Br18'
_cell_volume   772.96384528
_cell_formula_units_Z   1
loop_
 _symmetry_equiv_pos_site_id
 _symmetry_equiv_pos_as_xyz
  1  'x, y, z'
loop_
 _atom_site_type_symbol
 _atom_site_label
 _atom_site_symmetry_multiplicity
 _atom_site_fract_x
 _atom_site_fract_y
 _atom_site_fract_z
 _atom_site_occupancy
  K  K0  1  0.220101  0.220090  0.221711  1
  Y  Y1  1  0.498146  0.498533  0.498502  1
  Ta  Ta2  1  0.809257  0.142710  0.916237  1
  Ta  Ta3  1  0.916504  0.809002  0.142762  1
  Nb  Nb4  1  0.143806  0.915817  0.807593  1
  Nb  Nb5  1  0.193837  0.856614  0.083441  1
  Nb  Nb6  1  0.083625  0.193748  0.856450  1
  Nb  Nb7  1  0.856917  0.083321  0.193423  1
  Br  Br8  1  0.860795  0.414370  0.725601  1
  Br  Br9  1  0.725376  0.860770  0.414585  1
  Br  Br10  1  0.415838  0.724621  0.862239  1
  Br  Br11  1  0.135257  0.584397  0.276838  1
  Br  Br12  1  0.276628  0.137940  0.583054  1
  Br  Br13  1  0.584216  0.276652  0.135408  1
  Br  Br14  1  0.532726  0.339816  0.807511  1
  Br  Br15  1  0.806553  0.533154  0.340467  1
  Br  Br16  1  0.341783  0.806189  0.530011  1
  Br  Br17  1  0.466722  0.658321  0.196171  1
  Br  Br18  1  0.195812  0.467052  0.658957  1
  Br  Br19  1  0.658625  0.196351  0.466291  1
  Br  Br20  1  0.661351  0.938373  0.072438  1
  Br  Br21  1  0.071442  0.659243  0.940879  1
  Br  Br22  1  0.936299  0.074320  0.660816  1
  Br  Br23  1  0.341050  0.061854  0.926607  1
  Br  Br24  1  0.926713  0.341173  0.061828  1
  Br  Br25  1  0.061761  0.926705  0.341321  1
