# generated using pymatgen
data_Tm8Ta12Si15Ge
_symmetry_space_group_name_H-M   'P 1'
_cell_length_a   6.82511852
_cell_length_b   7.01775904
_cell_length_c   13.31864500
_cell_angle_alpha   90.00000000
_cell_angle_beta   90.00000000
_cell_angle_gamma   90.00885704
_symmetry_Int_Tables_number   1
_chemical_formula_structural   Tm8Ta12Si15Ge
_chemical_formula_sum   'Tm8 Ta12 Si15 Ge1'
_cell_volume   637.92362737
_cell_formula_units_Z   1
loop_
 _symmetry_equiv_pos_site_id
 _symmetry_equiv_pos_as_xyz
  1  'x, y, z'
loop_
 _atom_site_type_symbol
 _atom_site_label
 _atom_site_symmetry_multiplicity
 _atom_site_fract_x
 _atom_site_fract_y
 _atom_site_fract_z
 _atom_site_occupancy
  Tm  Tm0  1  0.501378  0.671595  0.595415  1
  Tm  Tm1  1  0.001136  0.828206  0.904519  1
  Tm  Tm2  1  0.497371  0.329026  0.094568  1
  Tm  Tm3  1  0.000654  0.169575  0.406485  1
  Tm  Tm4  1  0.497371  0.329026  0.405432  1
  Tm  Tm5  1  0.000654  0.169575  0.093515  1
  Tm  Tm6  1  0.501378  0.671595  0.904585  1
  Tm  Tm7  1  0.001136  0.828206  0.595481  1
  Ta  Ta8  1  0.662041  0.175520  0.624946  1
  Ta  Ta9  1  0.162105  0.324735  0.875147  1
  Ta  Ta10  1  0.337681  0.825093  0.124589  1
  Ta  Ta11  1  0.837871  0.677640  0.375733  1
  Ta  Ta12  1  0.337681  0.825093  0.375411  1
  Ta  Ta13  1  0.837871  0.677640  0.124267  1
  Ta  Ta14  1  0.662041  0.175520  0.875054  1
  Ta  Ta15  1  0.162105  0.324735  0.624853  1
  Ta  Ta16  1  0.835290  0.491642  0.750000  1
  Ta  Ta17  1  0.335665  0.009009  0.750000  1
  Ta  Ta18  1  0.166952  0.509914  0.250000  1
  Ta  Ta19  1  0.663473  0.988378  0.250000  1
  Si  Si20  1  0.665595  0.965197  0.459889  1
  Si  Si21  1  0.164985  0.535660  0.040525  1
  Si  Si22  1  0.334130  0.035328  0.959065  1
  Si  Si23  1  0.834133  0.464821  0.540475  1
  Si  Si24  1  0.334130  0.035328  0.540935  1
  Si  Si25  1  0.834133  0.464821  0.959525  1
  Si  Si26  1  0.665595  0.965197  0.040111  1
  Si  Si27  1  0.164985  0.535660  0.459475  1
  Si  Si28  1  0.457428  0.379382  0.750000  1
  Si  Si29  1  0.957310  0.121338  0.750000  1
  Si  Si30  1  0.541241  0.622409  0.250000  1
  Si  Si31  1  0.042889  0.878959  0.250000  1
  Si  Si32  1  0.702578  0.870087  0.750000  1
  Si  Si33  1  0.202906  0.630240  0.750000  1
  Si  Si34  1  0.297429  0.130504  0.250000  1
  Ge  Ge35  1  0.798681  0.363345  0.250000  1
