# generated using pymatgen
data_ErTm11Co4BiRu
_symmetry_space_group_name_H-M   'P 1'
_cell_length_a   8.19718453
_cell_length_b   8.19718362
_cell_length_c   8.19596169
_cell_angle_alpha   110.71614856
_cell_angle_beta   111.34669595
_cell_angle_gamma   106.40100089
_symmetry_Int_Tables_number   1
_chemical_formula_structural   ErTm11Co4BiRu
_chemical_formula_sum   'Er1 Tm11 Co4 Bi1 Ru1'
_cell_volume   422.98726360
_cell_formula_units_Z   1
loop_
 _symmetry_equiv_pos_site_id
 _symmetry_equiv_pos_as_xyz
  1  'x, y, z'
loop_
 _atom_site_type_symbol
 _atom_site_label
 _atom_site_symmetry_multiplicity
 _atom_site_fract_x
 _atom_site_fract_y
 _atom_site_fract_z
 _atom_site_occupancy
  Er  Er0  1  0.284492  0.183006  0.467499  1
  Tm  Tm1  1  0.716054  0.817511  0.533565  1
  Tm  Tm2  1  0.283936  0.817210  0.101145  1
  Tm  Tm3  1  0.716094  0.182571  0.898666  1
  Tm  Tm4  1  0.619909  0.311090  0.308594  1
  Tm  Tm5  1  0.380170  0.689099  0.691324  1
  Tm  Tm6  1  0.002225  0.311154  0.691324  1
  Tm  Tm7  1  0.997504  0.688685  0.308594  1
  Tm  Tm8  1  0.212292  0.408962  0.196318  1
  Tm  Tm9  1  0.787787  0.591234  0.803582  1
  Tm  Tm10  1  0.212349  0.015796  0.803582  1
  Tm  Tm11  1  0.787355  0.984026  0.196318  1
  Co  Co12  1  0.999888  0.375856  0.375745  1
  Co  Co13  1  0.999929  0.624195  0.624124  1
  Co  Co14  1  0.388804  0.888483  0.500003  1
  Co  Co15  1  0.611520  0.111199  0.500003  1
  Bi  Bi16  1  0.499977  0.500000  0.999977  1
  Ru  Ru17  1  0.999714  0.999922  0.999636  1
