# generated using pymatgen
data_Pr14Th2Mg3HgIr4
_symmetry_space_group_name_H-M   'P 1'
_cell_length_a   10.05945988
_cell_length_b   10.05945996
_cell_length_c   10.09854698
_cell_angle_alpha   60.00981014
_cell_angle_beta   60.00980928
_cell_angle_gamma   60.12090581
_symmetry_Int_Tables_number   1
_chemical_formula_structural   Pr14Th2Mg3HgIr4
_chemical_formula_sum   'Pr14 Th2 Mg3 Hg1 Ir4'
_cell_volume   723.35748816
_cell_formula_units_Z   1
loop_
 _symmetry_equiv_pos_site_id
 _symmetry_equiv_pos_as_xyz
  1  'x, y, z'
loop_
 _atom_site_type_symbol
 _atom_site_label
 _atom_site_symmetry_multiplicity
 _atom_site_fract_x
 _atom_site_fract_y
 _atom_site_fract_z
 _atom_site_occupancy
  Pr  Pr0  1  0.348687  0.954847  0.348936  1
  Pr  Pr1  1  0.954847  0.348687  0.348936  1
  Pr  Pr2  1  0.811455  0.189058  0.188005  1
  Pr  Pr3  1  0.189299  0.809645  0.808613  1
  Pr  Pr4  1  0.189058  0.811455  0.188005  1
  Pr  Pr5  1  0.809645  0.189299  0.808613  1
  Pr  Pr6  1  0.188851  0.188851  0.811066  1
  Pr  Pr7  1  0.808461  0.808461  0.190289  1
  Pr  Pr8  1  0.940532  0.560773  0.562236  1
  Pr  Pr9  1  0.559304  0.940451  0.936386  1
  Pr  Pr10  1  0.560773  0.940532  0.562236  1
  Pr  Pr11  1  0.940451  0.559304  0.936386  1
  Pr  Pr12  1  0.561057  0.561057  0.938567  1
  Pr  Pr13  1  0.937785  0.937785  0.559818  1
  Th  Th14  1  0.342646  0.342646  0.344759  1
  Th  Th15  1  0.344276  0.344276  0.966732  1
  Mg  Mg16  1  0.577469  0.577469  0.266785  1
  Mg  Mg17  1  0.576725  0.266347  0.580407  1
  Mg  Mg18  1  0.266347  0.576725  0.580407  1
  Hg  Hg19  1  0.580776  0.580776  0.583371  1
  Ir  Ir20  1  0.146777  0.146777  0.137228  1
  Ir  Ir21  1  0.146624  0.146624  0.570193  1
  Ir  Ir22  1  0.151870  0.566287  0.141012  1
  Ir  Ir23  1  0.566287  0.151870  0.141012  1
