# generated using pymatgen
data_Dy3Er(Al8Pt3)3
_symmetry_space_group_name_H-M   'P 1'
_cell_length_a   7.52150819
_cell_length_b   7.54197636
_cell_length_c   13.15762116
_cell_angle_alpha   84.56994117
_cell_angle_beta   79.11044102
_cell_angle_gamma   59.97466883
_symmetry_Int_Tables_number   1
_chemical_formula_structural   Dy3Er(Al8Pt3)3
_chemical_formula_sum   'Dy3 Er1 Al24 Pt9'
_cell_volume   634.59355140
_cell_formula_units_Z   1
loop_
 _symmetry_equiv_pos_site_id
 _symmetry_equiv_pos_as_xyz
  1  'x, y, z'
loop_
 _atom_site_type_symbol
 _atom_site_label
 _atom_site_symmetry_multiplicity
 _atom_site_fract_x
 _atom_site_fract_y
 _atom_site_fract_z
 _atom_site_occupancy
  Dy  Dy0  1  0.606607  0.831564  0.192067  1
  Dy  Dy1  1  0.734168  0.498442  0.807584  1
  Dy  Dy2  1  0.265887  0.501503  0.192401  1
  Er  Er3  1  0.393400  0.168500  0.807795  1
  Al  Al4  1  0.684334  0.833857  0.944367  1
  Al  Al5  1  0.315521  0.166371  0.055415  1
  Al  Al6  1  0.146961  0.832298  0.561197  1
  Al  Al7  1  0.853026  0.167703  0.438807  1
  Al  Al8  1  0.479713  0.166849  0.558737  1
  Al  Al9  1  0.520275  0.833163  0.441334  1
  Al  Al10  1  0.217137  0.165280  0.329981  1
  Al  Al11  1  0.782628  0.834925  0.670111  1
  Al  Al12  1  0.437893  0.505951  0.670116  1
  Al  Al13  1  0.562075  0.493827  0.329988  1
  Al  Al14  1  0.109968  0.160017  0.669382  1
  Al  Al15  1  0.890204  0.839996  0.330741  1
  Al  Al16  1  0.353297  0.498770  0.944539  1
  Al  Al17  1  0.646712  0.501013  0.055364  1
  Al  Al18  1  0.015038  0.167886  0.952987  1
  Al  Al19  1  0.985208  0.832092  0.046900  1
  Al  Al20  1  0.186778  0.498863  0.441256  1
  Al  Al21  1  0.813229  0.501131  0.558744  1
  Al  Al22  1  0.734311  0.163927  0.183264  1
  Al  Al23  1  0.265728  0.836329  0.816726  1
  Al  Al24  1  0.062073  0.631326  0.815473  1
  Al  Al25  1  0.938157  0.368399  0.184523  1
  Al  Al26  1  0.854534  0.041698  0.815968  1
  Al  Al27  1  0.145197  0.958363  0.184021  1
  Pt  Pt28  1  0.120284  0.491983  0.638922  1
  Pt  Pt29  1  0.879884  0.507784  0.361218  1
  Pt  Pt30  1  0.657218  0.171162  0.999872  1
  Pt  Pt31  1  0.342751  0.828872  0.000025  1
  Pt  Pt32  1  0.538131  0.166725  0.361202  1
  Pt  Pt33  1  0.461844  0.833484  0.638908  1
  Pt  Pt34  1  0.778898  0.174842  0.637354  1
  Pt  Pt35  1  0.220877  0.825165  0.362765  1
  Pt  Pt36  1  0.000055  0.499940  0.999947  1
