# generated using pymatgen
data_Hf5TaB4(IrRu4)2
_symmetry_space_group_name_H-M   'P 1'
_cell_length_a   9.53278309
_cell_length_b   9.51145409
_cell_length_c   3.10680900
_cell_angle_alpha   90.00000000
_cell_angle_beta   90.00000000
_cell_angle_gamma   90.01560842
_symmetry_Int_Tables_number   1
_chemical_formula_structural   Hf5TaB4(IrRu4)2
_chemical_formula_sum   'Hf5 Ta1 B4 Ir2 Ru8'
_cell_volume   281.69631476
_cell_formula_units_Z   1
loop_
 _symmetry_equiv_pos_site_id
 _symmetry_equiv_pos_as_xyz
  1  'x, y, z'
loop_
 _atom_site_type_symbol
 _atom_site_label
 _atom_site_symmetry_multiplicity
 _atom_site_fract_x
 _atom_site_fract_y
 _atom_site_fract_z
 _atom_site_occupancy
  Hf  Hf0  1  0.828752  0.675178  0.000000  1
  Hf  Hf1  1  0.171248  0.324822  0.000000  1
  Hf  Hf2  1  0.319446  0.824713  0.000000  1
  Hf  Hf3  1  0.680554  0.175287  0.000000  1
  Hf  Hf4  1  0.500000  0.500000  0.000000  1
  Ta  Ta5  1  0.000000  0.000000  0.000000  1
  B  B6  1  0.624485  0.884637  0.000000  1
  B  B7  1  0.375515  0.115363  0.000000  1
  B  B8  1  0.122316  0.620524  0.000000  1
  B  B9  1  0.877684  0.379476  0.000000  1
  Ir  Ir10  1  0.573240  0.722626  0.500000  1
  Ir  Ir11  1  0.426760  0.277374  0.500000  1
  Ru  Ru12  1  0.069686  0.782503  0.500000  1
  Ru  Ru13  1  0.930314  0.217497  0.500000  1
  Ru  Ru14  1  0.279223  0.572685  0.500000  1
  Ru  Ru15  1  0.720777  0.427315  0.500000  1
  Ru  Ru16  1  0.217490  0.070366  0.500000  1
  Ru  Ru17  1  0.782510  0.929634  0.500000  1
  Ru  Ru18  1  0.500000  0.000000  0.500000  1
  Ru  Ru19  1  0.000000  0.500000  0.500000  1
