# generated using pymatgen
data_NdTh2Sn5Pd6
_symmetry_space_group_name_H-M   'P 1'
_cell_length_a   4.55057200
_cell_length_b   9.62832000
_cell_length_c   14.08418700
_cell_angle_alpha   90.00000000
_cell_angle_beta   90.00000000
_cell_angle_gamma   90.00000000
_symmetry_Int_Tables_number   1
_chemical_formula_structural   NdTh2Sn5Pd6
_chemical_formula_sum   'Nd2 Th4 Sn10 Pd12'
_cell_volume   617.08968740
_cell_formula_units_Z   2
loop_
 _symmetry_equiv_pos_site_id
 _symmetry_equiv_pos_as_xyz
  1  'x, y, z'
loop_
 _atom_site_type_symbol
 _atom_site_label
 _atom_site_symmetry_multiplicity
 _atom_site_fract_x
 _atom_site_fract_y
 _atom_site_fract_z
 _atom_site_occupancy
  Nd  Nd0  1  0.000000  0.218952  0.000000  1
  Nd  Nd1  1  0.500000  0.781048  0.500000  1
  Th  Th2  1  0.000000  0.242450  0.320992  1
  Th  Th3  1  0.500000  0.757550  0.179008  1
  Th  Th4  1  0.000000  0.242450  0.679008  1
  Th  Th5  1  0.500000  0.757550  0.820992  1
  Sn  Sn6  1  0.000000  0.520790  0.115083  1
  Sn  Sn7  1  0.500000  0.479210  0.384917  1
  Sn  Sn8  1  0.000000  0.520790  0.884917  1
  Sn  Sn9  1  0.500000  0.479210  0.615083  1
  Sn  Sn10  1  0.000000  0.864768  0.333866  1
  Sn  Sn11  1  0.500000  0.135232  0.166134  1
  Sn  Sn12  1  0.000000  0.864768  0.666134  1
  Sn  Sn13  1  0.500000  0.135232  0.833866  1
  Sn  Sn14  1  0.000000  0.802543  0.000000  1
  Sn  Sn15  1  0.500000  0.197457  0.500000  1
  Pd  Pd16  1  0.000000  0.985984  0.151825  1
  Pd  Pd17  1  0.500000  0.014016  0.348175  1
  Pd  Pd18  1  0.000000  0.985984  0.848175  1
  Pd  Pd19  1  0.500000  0.014016  0.651825  1
  Pd  Pd20  1  0.500000  0.970938  0.000000  1
  Pd  Pd21  1  0.000000  0.029062  0.500000  1
  Pd  Pd22  1  0.000000  0.586089  0.304342  1
  Pd  Pd23  1  0.500000  0.413911  0.195658  1
  Pd  Pd24  1  0.000000  0.586089  0.695658  1
  Pd  Pd25  1  0.500000  0.413911  0.804342  1
  Pd  Pd26  1  0.500000  0.491083  0.000000  1
  Pd  Pd27  1  0.000000  0.508917  0.500000  1
