# generated using pymatgen
data_YbTiB6Ru
_symmetry_space_group_name_H-M   'P 1'
_cell_length_a   3.46657600
_cell_length_b   8.87048500
_cell_length_c   11.21320700
_cell_angle_alpha   90.00000000
_cell_angle_beta   90.00000000
_cell_angle_gamma   90.00000000
_symmetry_Int_Tables_number   1
_chemical_formula_structural   YbTiB6Ru
_chemical_formula_sum   'Yb4 Ti4 B24 Ru4'
_cell_volume   344.80847461
_cell_formula_units_Z   4
loop_
 _symmetry_equiv_pos_site_id
 _symmetry_equiv_pos_as_xyz
  1  'x, y, z'
loop_
 _atom_site_type_symbol
 _atom_site_label
 _atom_site_symmetry_multiplicity
 _atom_site_fract_x
 _atom_site_fract_y
 _atom_site_fract_z
 _atom_site_occupancy
  Yb  Yb0  1  0.000000  0.322224  0.414538  1
  Yb  Yb1  1  0.000000  0.677776  0.585462  1
  Yb  Yb2  1  0.000000  0.822224  0.085462  1
  Yb  Yb3  1  0.000000  0.177776  0.914538  1
  Ti  Ti4  1  0.000000  0.946385  0.374558  1
  Ti  Ti5  1  0.000000  0.053615  0.625442  1
  Ti  Ti6  1  0.000000  0.446385  0.125442  1
  Ti  Ti7  1  0.000000  0.553615  0.874558  1
  B  B8  1  0.500000  0.555015  0.432795  1
  B  B9  1  0.500000  0.444985  0.567205  1
  B  B10  1  0.500000  0.055015  0.067205  1
  B  B11  1  0.500000  0.944985  0.932795  1
  B  B12  1  0.500000  0.755738  0.417086  1
  B  B13  1  0.500000  0.244262  0.582914  1
  B  B14  1  0.500000  0.255738  0.082914  1
  B  B15  1  0.500000  0.744262  0.917086  1
  B  B16  1  0.500000  0.797268  0.263326  1
  B  B17  1  0.500000  0.202732  0.736674  1
  B  B18  1  0.500000  0.297268  0.236674  1
  B  B19  1  0.500000  0.702732  0.763326  1
  B  B20  1  0.500000  0.629346  0.180142  1
  B  B21  1  0.500000  0.370654  0.819858  1
  B  B22  1  0.500000  0.129346  0.319858  1
  B  B23  1  0.500000  0.870654  0.680142  1
  B  B24  1  0.500000  0.982507  0.214659  1
  B  B25  1  0.500000  0.017493  0.785341  1
  B  B26  1  0.500000  0.482507  0.285341  1
  B  B27  1  0.500000  0.517493  0.714659  1
  B  B28  1  0.500000  0.596857  0.025144  1
  B  B29  1  0.500000  0.403143  0.974856  1
  B  B30  1  0.500000  0.096857  0.474856  1
  B  B31  1  0.500000  0.903143  0.525144  1
  Ru  Ru32  1  0.000000  0.643521  0.315925  1
  Ru  Ru33  1  0.000000  0.356479  0.684075  1
  Ru  Ru34  1  0.000000  0.143521  0.184075  1
  Ru  Ru35  1  0.000000  0.856479  0.815925  1
