# generated using pymatgen
data_Er3Sc2(In2Rh)2
_symmetry_space_group_name_H-M   'P 1'
_cell_length_a   3.52322700
_cell_length_b   7.85608900
_cell_length_c   17.91406200
_cell_angle_alpha   90.00000000
_cell_angle_beta   90.00000000
_cell_angle_gamma   90.00000000
_symmetry_Int_Tables_number   1
_chemical_formula_structural   Er3Sc2(In2Rh)2
_chemical_formula_sum   'Er6 Sc4 In8 Rh4'
_cell_volume   495.83946841
_cell_formula_units_Z   2
loop_
 _symmetry_equiv_pos_site_id
 _symmetry_equiv_pos_as_xyz
  1  'x, y, z'
loop_
 _atom_site_type_symbol
 _atom_site_label
 _atom_site_symmetry_multiplicity
 _atom_site_fract_x
 _atom_site_fract_y
 _atom_site_fract_z
 _atom_site_occupancy
  Er  Er0  1  0.000000  0.000000  0.000000  1
  Er  Er1  1  0.000000  0.500000  0.500000  1
  Er  Er2  1  0.000000  0.748123  0.781803  1
  Er  Er3  1  0.000000  0.251877  0.218197  1
  Er  Er4  1  0.000000  0.248123  0.718197  1
  Er  Er5  1  0.000000  0.751877  0.281803  1
  Sc  Sc6  1  0.000000  0.877466  0.588558  1
  Sc  Sc7  1  0.000000  0.122534  0.411442  1
  Sc  Sc8  1  0.000000  0.377466  0.911442  1
  Sc  Sc9  1  0.000000  0.622534  0.088558  1
  In  In10  1  0.500000  0.808409  0.438024  1
  In  In11  1  0.500000  0.191591  0.561976  1
  In  In12  1  0.500000  0.308409  0.061976  1
  In  In13  1  0.500000  0.691591  0.938024  1
  In  In14  1  0.500000  0.925930  0.149429  1
  In  In15  1  0.500000  0.074070  0.850571  1
  In  In16  1  0.500000  0.425930  0.350571  1
  In  In17  1  0.500000  0.574070  0.649429  1
  Rh  Rh18  1  0.500000  0.962811  0.692677  1
  Rh  Rh19  1  0.500000  0.037189  0.307323  1
  Rh  Rh20  1  0.500000  0.462811  0.807323  1
  Rh  Rh21  1  0.500000  0.537189  0.192677  1
