# generated using pymatgen
data_YTh(CrN3)2
_symmetry_space_group_name_H-M   'P 1'
_cell_length_a   7.01690495
_cell_length_b   7.01690500
_cell_length_c   5.88403569
_cell_angle_alpha   77.78231776
_cell_angle_beta   77.78231333
_cell_angle_gamma   86.78433962
_symmetry_Int_Tables_number   1
_chemical_formula_structural   YTh(CrN3)2
_chemical_formula_sum   'Y2 Th2 Cr4 N12'
_cell_volume   276.71763591
_cell_formula_units_Z   2
loop_
 _symmetry_equiv_pos_site_id
 _symmetry_equiv_pos_as_xyz
  1  'x, y, z'
loop_
 _atom_site_type_symbol
 _atom_site_label
 _atom_site_symmetry_multiplicity
 _atom_site_fract_x
 _atom_site_fract_y
 _atom_site_fract_z
 _atom_site_occupancy
  Y  Y0  1  0.089664  0.910336  0.250000  1
  Y  Y1  1  0.910336  0.089664  0.750000  1
  Th  Th2  1  0.325595  0.674405  0.750000  1
  Th  Th3  1  0.674405  0.325595  0.250000  1
  Cr  Cr4  1  0.379590  0.198058  0.762020  1
  Cr  Cr5  1  0.620410  0.801942  0.237980  1
  Cr  Cr6  1  0.801942  0.620410  0.737980  1
  Cr  Cr7  1  0.198058  0.379590  0.262020  1
  N  N8  1  0.999790  0.774078  0.653192  1
  N  N9  1  0.868863  0.391725  0.852160  1
  N  N10  1  0.774078  0.999790  0.153192  1
  N  N11  1  0.131137  0.608275  0.147840  1
  N  N12  1  0.000210  0.225922  0.346808  1
  N  N13  1  0.225922  0.000210  0.846808  1
  N  N14  1  0.608275  0.131137  0.647840  1
  N  N15  1  0.625325  0.672753  0.993214  1
  N  N16  1  0.374675  0.327247  0.006786  1
  N  N17  1  0.391725  0.868863  0.352160  1
  N  N18  1  0.672753  0.625325  0.493214  1
  N  N19  1  0.327247  0.374675  0.506786  1
