# generated using pymatgen
data_ErPa(AlC)6
_symmetry_space_group_name_H-M   'P 1'
_cell_length_a   3.41622200
_cell_length_b   3.41622283
_cell_length_c   17.38404500
_cell_angle_alpha   90.00000000
_cell_angle_beta   90.00000000
_cell_angle_gamma   119.99999192
_symmetry_Int_Tables_number   1
_chemical_formula_structural   ErPa(AlC)6
_chemical_formula_sum   'Er1 Pa1 Al6 C6'
_cell_volume   175.70081698
_cell_formula_units_Z   1
loop_
 _symmetry_equiv_pos_site_id
 _symmetry_equiv_pos_as_xyz
  1  'x, y, z'
loop_
 _atom_site_type_symbol
 _atom_site_label
 _atom_site_symmetry_multiplicity
 _atom_site_fract_x
 _atom_site_fract_y
 _atom_site_fract_z
 _atom_site_occupancy
  Er  Er0  1  0.000000  0.000000  0.000000  1
  Pa  Pa1  1  0.000000  0.000000  0.500000  1
  Al  Al2  1  0.333333  0.666667  0.362929  1
  Al  Al3  1  0.666667  0.333333  0.637071  1
  Al  Al4  1  0.666667  0.333333  0.869317  1
  Al  Al5  1  0.333333  0.666667  0.130683  1
  Al  Al6  1  0.333333  0.666667  0.759442  1
  Al  Al7  1  0.666667  0.333333  0.240558  1
  C  C8  1  0.333333  0.666667  0.906193  1
  C  C9  1  0.666667  0.333333  0.093807  1
  C  C10  1  0.666667  0.333333  0.405365  1
  C  C11  1  0.333333  0.666667  0.594635  1
  C  C12  1  0.333333  0.666667  0.247590  1
  C  C13  1  0.666667  0.333333  0.752410  1
