# generated using pymatgen
data_YbTh7TiSe17
_symmetry_space_group_name_H-M   'P 1'
_cell_length_a   8.43589891
_cell_length_b   8.43101848
_cell_length_c   11.16606628
_cell_angle_alpha   80.80301184
_cell_angle_beta   80.55551960
_cell_angle_gamma   65.42826326
_symmetry_Int_Tables_number   1
_chemical_formula_structural   YbTh7TiSe17
_chemical_formula_sum   'Yb1 Th7 Ti1 Se17'
_cell_volume   708.73475724
_cell_formula_units_Z   1
loop_
 _symmetry_equiv_pos_site_id
 _symmetry_equiv_pos_as_xyz
  1  'x, y, z'
loop_
 _atom_site_type_symbol
 _atom_site_label
 _atom_site_symmetry_multiplicity
 _atom_site_fract_x
 _atom_site_fract_y
 _atom_site_fract_z
 _atom_site_occupancy
  Yb  Yb0  1  0.811683  0.306114  0.296464  1
  Th  Th1  1  0.302943  0.815455  0.295905  1
  Th  Th2  1  0.183804  0.697435  0.702418  1
  Th  Th3  1  0.699403  0.187120  0.699146  1
  Th  Th4  1  0.204920  0.203761  0.540118  1
  Th  Th5  1  0.794566  0.794194  0.457298  1
  Th  Th6  1  0.681645  0.678588  0.983744  1
  Th  Th7  1  0.317986  0.322104  0.021483  1
  Ti  Ti8  1  0.998204  0.009872  0.006447  1
  Se  Se9  1  0.826274  0.429985  0.537397  1
  Se  Se10  1  0.432028  0.819289  0.534200  1
  Se  Se11  1  0.178815  0.566147  0.465900  1
  Se  Se12  1  0.571028  0.173029  0.469554  1
  Se  Se13  1  0.942935  0.321421  0.022829  1
  Se  Se14  1  0.321118  0.944468  0.023432  1
  Se  Se15  1  0.055365  0.680321  0.972147  1
  Se  Se16  1  0.680247  0.058603  0.972270  1
  Se  Se17  1  0.216737  0.201787  0.275406  1
  Se  Se18  1  0.788030  0.790766  0.725543  1
  Se  Se19  1  0.060940  0.055568  0.776176  1
  Se  Se20  1  0.943420  0.935007  0.224624  1
  Se  Se21  1  0.303322  0.303363  0.754938  1
  Se  Se22  1  0.690598  0.705344  0.243462  1
  Se  Se23  1  0.519578  0.520290  0.832633  1
  Se  Se24  1  0.470287  0.489042  0.161513  1
  Se  Se25  1  0.004124  0.990927  0.504954  1
