# generated using pymatgen
data_Yb3GaSiPt2
_symmetry_space_group_name_H-M   'P 1'
_cell_length_a   5.64102600
_cell_length_b   8.00198400
_cell_length_c   13.33957300
_cell_angle_alpha   90.00000000
_cell_angle_beta   90.00000000
_cell_angle_gamma   90.00000000
_symmetry_Int_Tables_number   1
_chemical_formula_structural   Yb3GaSiPt2
_chemical_formula_sum   'Yb12 Ga4 Si4 Pt8'
_cell_volume   602.14031875
_cell_formula_units_Z   4
loop_
 _symmetry_equiv_pos_site_id
 _symmetry_equiv_pos_as_xyz
  1  'x, y, z'
loop_
 _atom_site_type_symbol
 _atom_site_label
 _atom_site_symmetry_multiplicity
 _atom_site_fract_x
 _atom_site_fract_y
 _atom_site_fract_z
 _atom_site_occupancy
  Yb  Yb0  1  0.147518  0.607404  0.100256  1
  Yb  Yb1  1  0.147518  0.892596  0.899744  1
  Yb  Yb2  1  0.852482  0.107404  0.399744  1
  Yb  Yb3  1  0.852482  0.392596  0.600256  1
  Yb  Yb4  1  0.852482  0.392596  0.899744  1
  Yb  Yb5  1  0.852482  0.107404  0.100256  1
  Yb  Yb6  1  0.147518  0.892596  0.600256  1
  Yb  Yb7  1  0.147518  0.607404  0.399744  1
  Yb  Yb8  1  0.353672  0.252719  0.250000  1
  Yb  Yb9  1  0.353672  0.247281  0.750000  1
  Yb  Yb10  1  0.646328  0.752719  0.250000  1
  Yb  Yb11  1  0.646328  0.747281  0.750000  1
  Ga  Ga12  1  0.356355  0.250000  0.000000  1
  Ga  Ga13  1  0.643645  0.750000  0.500000  1
  Ga  Ga14  1  0.643645  0.750000  0.000000  1
  Ga  Ga15  1  0.356355  0.250000  0.500000  1
  Si  Si16  1  0.849896  0.401588  0.250000  1
  Si  Si17  1  0.849896  0.098412  0.750000  1
  Si  Si18  1  0.150104  0.901588  0.250000  1
  Si  Si19  1  0.150104  0.598412  0.750000  1
  Pt  Pt20  1  0.632816  0.463103  0.096519  1
  Pt  Pt21  1  0.632816  0.036897  0.903481  1
  Pt  Pt22  1  0.367184  0.963103  0.403481  1
  Pt  Pt23  1  0.367184  0.536897  0.596519  1
  Pt  Pt24  1  0.367184  0.536897  0.903481  1
  Pt  Pt25  1  0.367184  0.963103  0.096519  1
  Pt  Pt26  1  0.632816  0.036897  0.596519  1
  Pt  Pt27  1  0.632816  0.463103  0.403481  1
