# generated using pymatgen
data_NdEu3(Tc2O7)2
_symmetry_space_group_name_H-M   'P 1'
_cell_length_a   7.44373732
_cell_length_b   7.44373697
_cell_length_c   7.45957840
_cell_angle_alpha   60.07022967
_cell_angle_beta   60.07022880
_cell_angle_gamma   60.00000235
_symmetry_Int_Tables_number   1
_chemical_formula_structural   NdEu3(Tc2O7)2
_chemical_formula_sum   'Nd1 Eu3 Tc4 O14'
_cell_volume   292.57791826
_cell_formula_units_Z   1
loop_
 _symmetry_equiv_pos_site_id
 _symmetry_equiv_pos_as_xyz
  1  'x, y, z'
loop_
 _atom_site_type_symbol
 _atom_site_label
 _atom_site_symmetry_multiplicity
 _atom_site_fract_x
 _atom_site_fract_y
 _atom_site_fract_z
 _atom_site_occupancy
  Nd  Nd0  1  0.625000  0.625000  0.125000  1
  Eu  Eu1  1  0.125000  0.625000  0.625000  1
  Eu  Eu2  1  0.625000  0.125000  0.625000  1
  Eu  Eu3  1  0.625000  0.625000  0.625000  1
  Tc  Tc4  1  0.625000  0.125000  0.125000  1
  Tc  Tc5  1  0.125000  0.625000  0.125000  1
  Tc  Tc6  1  0.125000  0.125000  0.625000  1
  Tc  Tc7  1  0.125000  0.125000  0.125000  1
  O  O8  1  0.797670  0.797670  0.199681  1
  O  O9  1  0.199522  0.199522  0.800603  1
  O  O10  1  0.800353  0.199522  0.800603  1
  O  O11  1  0.204980  0.797670  0.199681  1
  O  O12  1  0.199522  0.800353  0.800603  1
  O  O13  1  0.797670  0.204980  0.199681  1
  O  O14  1  0.452330  0.452330  0.050319  1
  O  O15  1  0.050478  0.050478  0.449397  1
  O  O16  1  0.449647  0.050478  0.449397  1
  O  O17  1  0.045020  0.452330  0.050319  1
  O  O18  1  0.050478  0.449647  0.449397  1
  O  O19  1  0.452330  0.045020  0.050319  1
  O  O20  1  0.499911  0.499911  0.500266  1
  O  O21  1  0.750089  0.750089  0.749734  1
