# generated using pymatgen
data_La5Yb7(HoPb2)8
_symmetry_space_group_name_H-M   'P 1'
_cell_length_a   8.11401434
_cell_length_b   8.56808334
_cell_length_c   16.22387400
_cell_angle_alpha   90.14698300
_cell_angle_beta   90.19363632
_cell_angle_gamma   89.95893943
_symmetry_Int_Tables_number   1
_chemical_formula_structural   La5Yb7(HoPb2)8
_chemical_formula_sum   'La5 Yb7 Ho8 Pb16'
_cell_volume   1127.89844956
_cell_formula_units_Z   1
loop_
 _symmetry_equiv_pos_site_id
 _symmetry_equiv_pos_as_xyz
  1  'x, y, z'
loop_
 _atom_site_type_symbol
 _atom_site_label
 _atom_site_symmetry_multiplicity
 _atom_site_fract_x
 _atom_site_fract_y
 _atom_site_fract_z
 _atom_site_occupancy
  La  La0  1  0.993122  0.818297  0.406703  1
  La  La1  1  0.492142  0.683653  0.092626  1
  La  La2  1  0.507185  0.317039  0.592166  1
  La  La3  1  0.006732  0.184228  0.904098  1
  La  La4  1  0.009668  0.182186  0.595513  1
  Yb  Yb5  1  0.504954  0.313741  0.906968  1
  Yb  Yb6  1  0.495780  0.687010  0.406197  1
  Yb  Yb7  1  0.992760  0.811773  0.093348  1
  Yb  Yb8  1  0.341215  0.002537  0.750778  1
  Yb  Yb9  1  0.838491  0.497986  0.750741  1
  Yb  Yb10  1  0.160004  0.504638  0.250398  1
  Yb  Yb11  1  0.660081  0.996296  0.249920  1
  Ho  Ho12  1  0.325621  0.164452  0.122655  1
  Ho  Ho13  1  0.824470  0.335624  0.376976  1
  Ho  Ho14  1  0.176603  0.663128  0.877456  1
  Ho  Ho15  1  0.671681  0.833688  0.622302  1
  Ho  Ho16  1  0.323812  0.163643  0.376372  1
  Ho  Ho17  1  0.821742  0.339177  0.123280  1
  Ho  Ho18  1  0.176295  0.663834  0.623890  1
  Ho  Ho19  1  0.676911  0.836168  0.877886  1
  Pb  Pb20  1  0.827041  0.539706  0.540670  1
  Pb  Pb21  1  0.325143  0.960964  0.959355  1
  Pb  Pb22  1  0.677723  0.042133  0.460323  1
  Pb  Pb23  1  0.173063  0.459665  0.041086  1
  Pb  Pb24  1  0.179420  0.462782  0.457927  1
  Pb  Pb25  1  0.679128  0.037668  0.043128  1
  Pb  Pb26  1  0.322395  0.958502  0.540665  1
  Pb  Pb27  1  0.821200  0.536432  0.957156  1
  Pb  Pb28  1  0.978480  0.875000  0.750165  1
  Pb  Pb29  1  0.479322  0.631268  0.749741  1
  Pb  Pb30  1  0.521008  0.372114  0.250245  1
  Pb  Pb31  1  0.020769  0.126044  0.248418  1
  Pb  Pb32  1  0.213434  0.359360  0.750901  1
  Pb  Pb33  1  0.710809  0.137334  0.749783  1
  Pb  Pb34  1  0.286525  0.862300  0.249936  1
  Pb  Pb35  1  0.785270  0.639628  0.250231  1
