# generated using pymatgen
data_Ti12Al3Ga5O4
_symmetry_space_group_name_H-M   'P 1'
_cell_length_a   6.88194039
_cell_length_b   6.88194039
_cell_length_c   6.88194039
_cell_angle_alpha   90.02743765
_cell_angle_beta   90.02743765
_cell_angle_gamma   90.02743765
_symmetry_Int_Tables_number   1
_chemical_formula_structural   Ti12Al3Ga5O4
_chemical_formula_sum   'Ti12 Al3 Ga5 O4'
_cell_volume   325.93617981
_cell_formula_units_Z   1
loop_
 _symmetry_equiv_pos_site_id
 _symmetry_equiv_pos_as_xyz
  1  'x, y, z'
loop_
 _atom_site_type_symbol
 _atom_site_label
 _atom_site_symmetry_multiplicity
 _atom_site_fract_x
 _atom_site_fract_y
 _atom_site_fract_z
 _atom_site_occupancy
  Ti  Ti0  1  0.793309  0.958432  0.374580  1
  Ti  Ti1  1  0.707091  0.041433  0.875564  1
  Ti  Ti2  1  0.207447  0.458824  0.124005  1
  Ti  Ti3  1  0.292791  0.541569  0.625202  1
  Ti  Ti4  1  0.958432  0.374580  0.793309  1
  Ti  Ti5  1  0.041433  0.875564  0.707091  1
  Ti  Ti6  1  0.458824  0.124005  0.207447  1
  Ti  Ti7  1  0.541569  0.625202  0.292791  1
  Ti  Ti8  1  0.374580  0.793309  0.958432  1
  Ti  Ti9  1  0.875564  0.707091  0.041433  1
  Ti  Ti10  1  0.124005  0.207447  0.458824  1
  Ti  Ti11  1  0.625202  0.292791  0.541569  1
  Al  Al12  1  0.179186  0.820756  0.320848  1
  Al  Al13  1  0.320848  0.179186  0.820756  1
  Al  Al14  1  0.820756  0.320848  0.179186  1
  Ga  Ga15  1  0.680587  0.680587  0.680587  1
  Ga  Ga16  1  0.570002  0.429158  0.930445  1
  Ga  Ga17  1  0.429158  0.930445  0.570002  1
  Ga  Ga18  1  0.930445  0.570002  0.429158  1
  Ga  Ga19  1  0.069909  0.069909  0.069909  1
  O  O20  1  0.873531  0.124945  0.625779  1
  O  O21  1  0.625779  0.873531  0.124945  1
  O  O22  1  0.124945  0.625779  0.873531  1
  O  O23  1  0.374608  0.374608  0.374608  1
