# generated using pymatgen
data_Nd5In4PtAu
_symmetry_space_group_name_H-M   'P 1'
_cell_length_a   3.79542700
_cell_length_b   8.35169209
_cell_length_c   18.88655118
_cell_angle_alpha   89.98377114
_cell_angle_beta   90.00000000
_cell_angle_gamma   90.00000000
_symmetry_Int_Tables_number   1
_chemical_formula_structural   Nd5In4PtAu
_chemical_formula_sum   'Nd10 In8 Pt2 Au2'
_cell_volume   598.67036361
_cell_formula_units_Z   2
loop_
 _symmetry_equiv_pos_site_id
 _symmetry_equiv_pos_as_xyz
  1  'x, y, z'
loop_
 _atom_site_type_symbol
 _atom_site_label
 _atom_site_symmetry_multiplicity
 _atom_site_fract_x
 _atom_site_fract_y
 _atom_site_fract_z
 _atom_site_occupancy
  Nd  Nd0  1  0.000000  0.122162  0.419426  1
  Nd  Nd1  1  0.000000  0.877838  0.580574  1
  Nd  Nd2  1  0.000000  0.381270  0.916424  1
  Nd  Nd3  1  0.000000  0.618730  0.083576  1
  Nd  Nd4  1  0.000000  0.252049  0.217354  1
  Nd  Nd5  1  0.000000  0.747951  0.782646  1
  Nd  Nd6  1  0.000000  0.272229  0.720372  1
  Nd  Nd7  1  0.000000  0.727771  0.279628  1
  Nd  Nd8  1  0.000000  0.000000  0.000000  1
  Nd  Nd9  1  0.000000  0.500000  0.500000  1
  In  In10  1  0.500000  0.426203  0.351711  1
  In  In11  1  0.500000  0.573797  0.648289  1
  In  In12  1  0.500000  0.075068  0.851636  1
  In  In13  1  0.500000  0.924932  0.148364  1
  In  In14  1  0.500000  0.291427  0.068115  1
  In  In15  1  0.500000  0.708573  0.931885  1
  In  In16  1  0.500000  0.209644  0.569433  1
  In  In17  1  0.500000  0.790356  0.430567  1
  Pt  Pt18  1  0.500000  0.474546  0.803721  1
  Pt  Pt19  1  0.500000  0.525454  0.196279  1
  Au  Au20  1  0.500000  0.025696  0.301858  1
  Au  Au21  1  0.500000  0.974304  0.698142  1
