# generated using pymatgen
data_Dy4Sn6Ir5Rh2
_symmetry_space_group_name_H-M   'P 1'
_cell_length_a   7.61120687
_cell_length_b   7.61120717
_cell_length_c   7.61120779
_cell_angle_alpha   109.39264625
_cell_angle_beta   109.51052187
_cell_angle_gamma   109.51051888
_symmetry_Int_Tables_number   1
_chemical_formula_structural   Dy4Sn6Ir5Rh2
_chemical_formula_sum   'Dy4 Sn6 Ir5 Rh2'
_cell_volume   339.42057349
_cell_formula_units_Z   1
loop_
 _symmetry_equiv_pos_site_id
 _symmetry_equiv_pos_as_xyz
  1  'x, y, z'
loop_
 _atom_site_type_symbol
 _atom_site_label
 _atom_site_symmetry_multiplicity
 _atom_site_fract_x
 _atom_site_fract_y
 _atom_site_fract_z
 _atom_site_occupancy
  Dy  Dy0  1  0.001065  0.000533  0.500533  1
  Dy  Dy1  1  0.998935  0.499467  0.999467  1
  Dy  Dy2  1  0.500000  0.000533  0.999467  1
  Dy  Dy3  1  0.500000  0.499467  0.500533  1
  Sn  Sn4  1  0.685592  0.686128  0.000536  1
  Sn  Sn5  1  0.314408  0.999464  0.313872  1
  Sn  Sn6  1  0.000000  0.313368  0.313368  1
  Sn  Sn7  1  0.314408  0.314944  0.000536  1
  Sn  Sn8  1  0.685592  0.999464  0.685056  1
  Sn  Sn9  1  0.000000  0.686632  0.686632  1
  Ir  Ir10  1  0.750120  0.250285  0.500165  1
  Ir  Ir11  1  0.750120  0.499835  0.249955  1
  Ir  Ir12  1  0.500000  0.250000  0.750000  1
  Ir  Ir13  1  0.249880  0.499835  0.749715  1
  Ir  Ir14  1  0.249880  0.750045  0.500165  1
  Rh  Rh15  1  0.500000  0.750000  0.250000  1
  Rh  Rh16  1  0.000000  0.000000  0.000000  1
