# generated using pymatgen
data_Ba2Dy2CuTe6Au
_symmetry_space_group_name_H-M   'P 1'
_cell_length_a   4.47260700
_cell_length_b   7.86466798
_cell_length_c   11.46925600
_cell_angle_alpha   90.00000000
_cell_angle_beta   90.00000000
_cell_angle_gamma   73.48011008
_symmetry_Int_Tables_number   1
_chemical_formula_structural   Ba2Dy2CuTe6Au
_chemical_formula_sum   'Ba2 Dy2 Cu1 Te6 Au1'
_cell_volume   386.78413886
_cell_formula_units_Z   1
loop_
 _symmetry_equiv_pos_site_id
 _symmetry_equiv_pos_as_xyz
  1  'x, y, z'
loop_
 _atom_site_type_symbol
 _atom_site_label
 _atom_site_symmetry_multiplicity
 _atom_site_fract_x
 _atom_site_fract_y
 _atom_site_fract_z
 _atom_site_occupancy
  Ba  Ba0  1  0.256504  0.486991  0.250000  1
  Ba  Ba1  1  0.748901  0.502195  0.750000  1
  Dy  Dy2  1  0.499845  0.000309  0.001939  1
  Dy  Dy3  1  0.499845  0.000309  0.498061  1
  Cu  Cu4  1  0.032085  0.935829  0.750000  1
  Te  Te5  1  0.859097  0.281805  0.050192  1
  Te  Te6  1  0.579954  0.840091  0.250000  1
  Te  Te7  1  0.859097  0.281805  0.449807  1
  Te  Te8  1  0.134572  0.730855  0.560853  1
  Te  Te9  1  0.430669  0.138661  0.750000  1
  Te  Te10  1  0.134572  0.730855  0.939147  1
  Au  Au11  1  0.964852  0.070295  0.250000  1
