# generated using pymatgen
data_Pr18Nd2Si15Pb
_symmetry_space_group_name_H-M   'P 1'
_cell_length_a   7.95954127
_cell_length_b   7.91612208
_cell_length_c   15.38349400
_cell_angle_alpha   89.74393092
_cell_angle_beta   89.27781809
_cell_angle_gamma   90.00141159
_symmetry_Int_Tables_number   1
_chemical_formula_structural   Pr18Nd2Si15Pb
_chemical_formula_sum   'Pr18 Nd2 Si15 Pb1'
_cell_volume   969.20728590
_cell_formula_units_Z   1
loop_
 _symmetry_equiv_pos_site_id
 _symmetry_equiv_pos_as_xyz
  1  'x, y, z'
loop_
 _atom_site_type_symbol
 _atom_site_label
 _atom_site_symmetry_multiplicity
 _atom_site_fract_x
 _atom_site_fract_y
 _atom_site_fract_z
 _atom_site_occupancy
  Pr  Pr0  1  0.796996  0.190361  0.753631  1
  Pr  Pr1  1  0.687730  0.691538  0.495740  1
  Pr  Pr2  1  0.375575  0.012949  0.448003  1
  Pr  Pr3  1  0.496152  0.869361  0.698532  1
  Pr  Pr4  1  0.510854  0.120579  0.196629  1
  Pr  Pr5  1  0.877420  0.487436  0.300882  1
  Pr  Pr6  1  0.121494  0.518859  0.806345  1
  Pr  Pr7  1  0.624293  0.986765  0.950072  1
  Pr  Pr8  1  0.001575  0.385341  0.545972  1
  Pr  Pr9  1  0.989718  0.621405  0.054649  1
  Pr  Pr10  1  0.127102  0.980747  0.880830  1
  Pr  Pr11  1  0.520849  0.627618  0.126975  1
  Pr  Pr12  1  0.492415  0.384665  0.626056  1
  Pr  Pr13  1  0.629650  0.522225  0.876658  1
  Pr  Pr14  1  0.372548  0.480055  0.372149  1
  Pr  Pr15  1  0.871421  0.019257  0.375913  1
  Pr  Pr16  1  0.982021  0.127677  0.124429  1
  Pr  Pr17  1  0.005891  0.857563  0.618709  1
  Nd  Nd18  1  0.310985  0.309084  0.001431  1
  Nd  Nd19  1  0.191258  0.808485  0.249356  1
  Si  Si20  1  0.331442  0.694573  0.954855  1
  Si  Si21  1  0.665105  0.303946  0.451578  1
  Si  Si22  1  0.697068  0.331345  0.048328  1
  Si  Si23  1  0.304072  0.669488  0.545331  1
  Si  Si24  1  0.805797  0.831042  0.203338  1
  Si  Si25  1  0.168428  0.194103  0.297332  1
  Si  Si26  1  0.835669  0.805608  0.797812  1
  Si  Si27  1  0.287979  0.921973  0.061185  1
  Si  Si28  1  0.576545  0.788881  0.308834  1
  Si  Si29  1  0.431164  0.212781  0.817351  1
  Si  Si30  1  0.790140  0.577108  0.691847  1
  Si  Si31  1  0.213034  0.420946  0.190108  1
  Si  Si32  1  0.709728  0.080277  0.560192  1
  Si  Si33  1  0.925317  0.289398  0.941527  1
  Si  Si34  1  0.079665  0.713857  0.437202  1
  Pb  Pb35  1  0.192902  0.162701  0.690218  1
