# generated using pymatgen
data_Sm8Lu9Sc3Si15Sn
_symmetry_space_group_name_H-M   'P 1'
_cell_length_a   7.33756558
_cell_length_b   7.64009415
_cell_length_c   14.47876440
_cell_angle_alpha   90.13828613
_cell_angle_beta   89.55031467
_cell_angle_gamma   90.11866484
_symmetry_Int_Tables_number   1
_chemical_formula_structural   Sm8Lu9Sc3Si15Sn
_chemical_formula_sum   'Sm8 Lu9 Sc3 Si15 Sn1'
_cell_volume   811.64599858
_cell_formula_units_Z   1
loop_
 _symmetry_equiv_pos_site_id
 _symmetry_equiv_pos_as_xyz
  1  'x, y, z'
loop_
 _atom_site_type_symbol
 _atom_site_label
 _atom_site_symmetry_multiplicity
 _atom_site_fract_x
 _atom_site_fract_y
 _atom_site_fract_z
 _atom_site_occupancy
  Sm  Sm0  1  0.013183  0.176026  0.096031  1
  Sm  Sm1  1  0.987861  0.826730  0.905514  1
  Sm  Sm2  1  0.486161  0.676818  0.903988  1
  Sm  Sm3  1  0.987814  0.828996  0.600965  1
  Sm  Sm4  1  0.512027  0.324111  0.095032  1
  Sm  Sm5  1  0.008302  0.169939  0.397770  1
  Sm  Sm6  1  0.514727  0.320990  0.398724  1
  Sm  Sm7  1  0.498512  0.684099  0.602699  1
  Lu  Lu8  1  0.162697  0.504202  0.756638  1
  Lu  Lu9  1  0.836393  0.493124  0.248013  1
  Lu  Lu10  1  0.335679  0.006684  0.246503  1
  Lu  Lu11  1  0.665996  0.994370  0.754251  1
  Lu  Lu12  1  0.340888  0.163699  0.630947  1
  Lu  Lu13  1  0.664444  0.823661  0.373485  1
  Lu  Lu14  1  0.164935  0.683489  0.369935  1
  Lu  Lu15  1  0.669128  0.822680  0.119811  1
  Lu  Lu16  1  0.823487  0.324668  0.627158  1
  Sc  Sc17  1  0.329341  0.175052  0.877267  1
  Sc  Sc18  1  0.830399  0.324011  0.876384  1
  Sc  Sc19  1  0.169654  0.676235  0.122933  1
  Si  Si20  1  0.036600  0.121831  0.755904  1
  Si  Si21  1  0.963015  0.883147  0.244381  1
  Si  Si22  1  0.462003  0.614878  0.244376  1
  Si  Si23  1  0.534797  0.382023  0.757581  1
  Si  Si24  1  0.284061  0.874683  0.755428  1
  Si  Si25  1  0.715088  0.123536  0.246044  1
  Si  Si26  1  0.215600  0.377619  0.246453  1
  Si  Si27  1  0.786682  0.623786  0.754640  1
  Si  Si28  1  0.831690  0.537348  0.459246  1
  Si  Si29  1  0.339586  0.966219  0.460191  1
  Si  Si30  1  0.851266  0.531198  0.037551  1
  Si  Si31  1  0.661950  0.035478  0.538677  1
  Si  Si32  1  0.153217  0.464146  0.962218  1
  Si  Si33  1  0.652417  0.039230  0.958715  1
  Si  Si34  1  0.338275  0.965311  0.037095  1
  Sn  Sn35  1  0.172124  0.459983  0.537454  1
