# generated using pymatgen
data_Ce(NpCu8)3
_symmetry_space_group_name_H-M   'P 1'
_cell_length_a   5.28622500
_cell_length_b   8.33500038
_cell_length_c   10.57338615
_cell_angle_alpha   90.04896412
_cell_angle_beta   90.00000000
_cell_angle_gamma   90.00000000
_symmetry_Int_Tables_number   1
_chemical_formula_structural   Ce(NpCu8)3
_chemical_formula_sum   'Ce1 Np3 Cu24'
_cell_volume   465.87049207
_cell_formula_units_Z   1
loop_
 _symmetry_equiv_pos_site_id
 _symmetry_equiv_pos_as_xyz
  1  'x, y, z'
loop_
 _atom_site_type_symbol
 _atom_site_label
 _atom_site_symmetry_multiplicity
 _atom_site_fract_x
 _atom_site_fract_y
 _atom_site_fract_z
 _atom_site_occupancy
  Ce  Ce0  1  0.750000  0.240609  0.065045  1
  Np  Np1  1  0.250000  0.759463  0.935642  1
  Np  Np2  1  0.750000  0.739942  0.435056  1
  Np  Np3  1  0.250000  0.258663  0.564944  1
  Cu  Cu4  1  0.750000  0.354308  0.357728  1
  Cu  Cu5  1  0.250000  0.644129  0.642997  1
  Cu  Cu6  1  0.750000  0.853901  0.143767  1
  Cu  Cu7  1  0.250000  0.145830  0.854508  1
  Cu  Cu8  1  0.750000  0.683390  0.743164  1
  Cu  Cu9  1  0.250000  0.316523  0.258457  1
  Cu  Cu10  1  0.750000  0.183983  0.754721  1
  Cu  Cu11  1  0.250000  0.816832  0.243482  1
  Cu  Cu12  1  0.750000  0.938778  0.905679  1
  Cu  Cu13  1  0.250000  0.061108  0.094326  1
  Cu  Cu14  1  0.750000  0.435907  0.593707  1
  Cu  Cu15  1  0.250000  0.559256  0.407230  1
  Cu  Cu16  1  0.750000  0.599920  0.983233  1
  Cu  Cu17  1  0.250000  0.400555  0.016383  1
  Cu  Cu18  1  0.750000  0.101585  0.517279  1
  Cu  Cu19  1  0.250000  0.902891  0.483883  1
  Cu  Cu20  1  0.505571  0.065117  0.309709  1
  Cu  Cu21  1  0.007344  0.936466  0.690974  1
  Cu  Cu22  1  0.993817  0.564920  0.191681  1
  Cu  Cu23  1  0.492353  0.434710  0.807021  1
  Cu  Cu24  1  0.492656  0.936466  0.690974  1
  Cu  Cu25  1  0.994429  0.065117  0.309709  1
  Cu  Cu26  1  0.007647  0.434710  0.807021  1
  Cu  Cu27  1  0.506183  0.564920  0.191681  1
