# generated using pymatgen
data_Nd5P12Ru16Rh3
_symmetry_space_group_name_H-M   'P 1'
_cell_length_a   12.63787700
_cell_length_b   12.63787729
_cell_length_c   4.01442300
_cell_angle_alpha   90.00000000
_cell_angle_beta   90.00000000
_cell_angle_gamma   120.00000710
_symmetry_Int_Tables_number   1
_chemical_formula_structural   Nd5P12Ru16Rh3
_chemical_formula_sum   'Nd5 P12 Ru16 Rh3'
_cell_volume   555.26716298
_cell_formula_units_Z   1
loop_
 _symmetry_equiv_pos_site_id
 _symmetry_equiv_pos_as_xyz
  1  'x, y, z'
loop_
 _atom_site_type_symbol
 _atom_site_label
 _atom_site_symmetry_multiplicity
 _atom_site_fract_x
 _atom_site_fract_y
 _atom_site_fract_z
 _atom_site_occupancy
  Nd  Nd0  1  0.000000  0.183660  0.500000  1
  Nd  Nd1  1  0.816340  0.816340  0.500000  1
  Nd  Nd2  1  0.183660  0.000000  0.500000  1
  Nd  Nd3  1  0.666667  0.333333  0.000000  1
  Nd  Nd4  1  0.333333  0.666667  0.000000  1
  P  P5  1  0.000000  0.812360  0.000000  1
  P  P6  1  0.187640  0.187640  0.000000  1
  P  P7  1  0.812360  0.000000  0.000000  1
  P  P8  1  0.697644  0.174584  0.500000  1
  P  P9  1  0.825416  0.523060  0.500000  1
  P  P10  1  0.476940  0.302356  0.500000  1
  P  P11  1  0.174584  0.697644  0.500000  1
  P  P12  1  0.523060  0.825416  0.500000  1
  P  P13  1  0.302356  0.476940  0.500000  1
  P  P14  1  0.000000  0.372400  0.000000  1
  P  P15  1  0.627600  0.627600  0.000000  1
  P  P16  1  0.372400  0.000000  0.000000  1
  Ru  Ru17  1  0.000000  0.712982  0.500000  1
  Ru  Ru18  1  0.287018  0.287018  0.500000  1
  Ru  Ru19  1  0.712982  0.000000  0.500000  1
  Ru  Ru20  1  0.806413  0.185091  0.000000  1
  Ru  Ru21  1  0.814909  0.621322  0.000000  1
  Ru  Ru22  1  0.378678  0.193587  0.000000  1
  Ru  Ru23  1  0.185091  0.806413  0.000000  1
  Ru  Ru24  1  0.621322  0.814909  0.000000  1
  Ru  Ru25  1  0.193587  0.378678  0.000000  1
  Ru  Ru26  1  0.876340  0.368081  0.500000  1
  Ru  Ru27  1  0.631919  0.508259  0.500000  1
  Ru  Ru28  1  0.491741  0.123660  0.500000  1
  Ru  Ru29  1  0.368081  0.876340  0.500000  1
  Ru  Ru30  1  0.508259  0.631919  0.500000  1
  Ru  Ru31  1  0.123660  0.491741  0.500000  1
  Ru  Ru32  1  0.000000  0.000000  0.000000  1
  Rh  Rh33  1  0.000000  0.553384  0.000000  1
  Rh  Rh34  1  0.446616  0.446616  0.000000  1
  Rh  Rh35  1  0.553384  0.000000  0.000000  1
