# generated using pymatgen
data_Yb20(ZnAg3)3
_symmetry_space_group_name_H-M   'P 1'
_cell_length_a   7.94405100
_cell_length_b   7.94405100
_cell_length_c   14.61696400
_cell_angle_alpha   90.00000000
_cell_angle_beta   90.00000000
_cell_angle_gamma   90.00000000
_symmetry_Int_Tables_number   1
_chemical_formula_structural   Yb20(ZnAg3)3
_chemical_formula_sum   'Yb20 Zn3 Ag9'
_cell_volume   922.44657904
_cell_formula_units_Z   1
loop_
 _symmetry_equiv_pos_site_id
 _symmetry_equiv_pos_as_xyz
  1  'x, y, z'
loop_
 _atom_site_type_symbol
 _atom_site_label
 _atom_site_symmetry_multiplicity
 _atom_site_fract_x
 _atom_site_fract_y
 _atom_site_fract_z
 _atom_site_occupancy
  Yb  Yb0  1  0.000000  0.000000  0.754960  1
  Yb  Yb1  1  0.500000  0.500000  0.251221  1
  Yb  Yb2  1  0.000000  0.000000  0.245040  1
  Yb  Yb3  1  0.500000  0.500000  0.748779  1
  Yb  Yb4  1  0.169318  0.664748  0.105373  1
  Yb  Yb5  1  0.668287  0.166652  0.607521  1
  Yb  Yb6  1  0.830682  0.335252  0.105373  1
  Yb  Yb7  1  0.331713  0.833348  0.607521  1
  Yb  Yb8  1  0.335252  0.169318  0.105373  1
  Yb  Yb9  1  0.833348  0.668287  0.607521  1
  Yb  Yb10  1  0.664748  0.830682  0.105373  1
  Yb  Yb11  1  0.166652  0.331713  0.607521  1
  Yb  Yb12  1  0.335252  0.830682  0.894627  1
  Yb  Yb13  1  0.833348  0.331713  0.392479  1
  Yb  Yb14  1  0.664748  0.169318  0.894627  1
  Yb  Yb15  1  0.166652  0.668287  0.392479  1
  Yb  Yb16  1  0.169318  0.335252  0.894627  1
  Yb  Yb17  1  0.668287  0.833348  0.392479  1
  Yb  Yb18  1  0.830682  0.664748  0.894627  1
  Yb  Yb19  1  0.331713  0.166652  0.392479  1
  Zn  Zn20  1  0.000000  0.000000  0.500000  1
  Zn  Zn21  1  0.000000  0.000000  0.000000  1
  Zn  Zn22  1  0.500000  0.500000  0.500000  1
  Ag  Ag23  1  0.628374  0.127854  0.248754  1
  Ag  Ag24  1  0.127854  0.628374  0.751246  1
  Ag  Ag25  1  0.872146  0.371626  0.751246  1
  Ag  Ag26  1  0.371626  0.872146  0.248754  1
  Ag  Ag27  1  0.371626  0.127854  0.751246  1
  Ag  Ag28  1  0.872146  0.628374  0.248754  1
  Ag  Ag29  1  0.127854  0.371626  0.248754  1
  Ag  Ag30  1  0.628374  0.872146  0.751246  1
  Ag  Ag31  1  0.500000  0.500000  0.000000  1
