# generated using pymatgen
data_Tb4PdPt3F28
_symmetry_space_group_name_H-M   'P 1'
_cell_length_a   5.56766355
_cell_length_b   8.92866698
_cell_length_c   12.02250692
_cell_angle_alpha   62.34921532
_cell_angle_beta   89.98286659
_cell_angle_gamma   90.03108320
_symmetry_Int_Tables_number   1
_chemical_formula_structural   Tb4PdPt3F28
_chemical_formula_sum   'Tb4 Pd1 Pt3 F28'
_cell_volume   529.40316842
_cell_formula_units_Z   1
loop_
 _symmetry_equiv_pos_site_id
 _symmetry_equiv_pos_as_xyz
  1  'x, y, z'
loop_
 _atom_site_type_symbol
 _atom_site_label
 _atom_site_symmetry_multiplicity
 _atom_site_fract_x
 _atom_site_fract_y
 _atom_site_fract_z
 _atom_site_occupancy
  Tb  Tb0  1  0.260495  0.813582  0.263451  1
  Tb  Tb1  1  0.739418  0.186060  0.735565  1
  Tb  Tb2  1  0.760968  0.187212  0.235207  1
  Tb  Tb3  1  0.238355  0.813670  0.764974  1
  Pd  Pd4  1  0.758135  0.727296  0.042995  1
  Pt  Pt5  1  0.242437  0.272575  0.957229  1
  Pt  Pt6  1  0.258466  0.272821  0.456816  1
  Pt  Pt7  1  0.741219  0.727421  0.543084  1
  F  F8  1  0.936254  0.703977  0.415604  1
  F  F9  1  0.063666  0.296236  0.584371  1
  F  F10  1  0.437375  0.296379  0.084420  1
  F  F11  1  0.563511  0.704159  0.917285  1
  F  F12  1  0.469400  0.726156  0.134810  1
  F  F13  1  0.535069  0.271480  0.866001  1
  F  F14  1  0.966303  0.273427  0.364742  1
  F  F15  1  0.033144  0.726344  0.635664  1
  F  F16  1  0.947343  0.744271  0.173650  1
  F  F17  1  0.052169  0.254309  0.825800  1
  F  F18  1  0.447682  0.255062  0.324967  1
  F  F19  1  0.551719  0.745250  0.675021  1
  F  F20  1  0.772161  0.481364  0.141280  1
  F  F21  1  0.231582  0.520717  0.858865  1
  F  F22  1  0.271338  0.520918  0.357893  1
  F  F23  1  0.727784  0.479194  0.642021  1
  F  F24  1  0.943158  0.281103  0.041882  1
  F  F25  1  0.054021  0.719476  0.958092  1
  F  F26  1  0.442341  0.720371  0.457414  1
  F  F27  1  0.557842  0.280125  0.542012  1
  F  F28  1  0.744137  0.975505  0.449455  1
  F  F29  1  0.256353  0.024715  0.550518  1
  F  F30  1  0.243331  0.024543  0.050259  1
  F  F31  1  0.755628  0.972857  0.950395  1
  F  F32  1  0.585234  0.970200  0.232032  1
  F  F33  1  0.413190  0.031110  0.767542  1
  F  F34  1  0.085376  0.030469  0.267148  1
  F  F35  1  0.913399  0.969644  0.731539  1
