# generated using pymatgen
data_Nd16Dy4(IrRh3)3
_symmetry_space_group_name_H-M   'P 1'
_cell_length_a   11.19107813
_cell_length_b   11.19107876
_cell_length_c   6.53349920
_cell_angle_alpha   90.01855947
_cell_angle_beta   90.01856471
_cell_angle_gamma   89.98169552
_symmetry_Int_Tables_number   1
_chemical_formula_structural   Nd16Dy4(IrRh3)3
_chemical_formula_sum   'Nd16 Dy4 Ir3 Rh9'
_cell_volume   818.25685885
_cell_formula_units_Z   1
loop_
 _symmetry_equiv_pos_site_id
 _symmetry_equiv_pos_as_xyz
  1  'x, y, z'
loop_
 _atom_site_type_symbol
 _atom_site_label
 _atom_site_symmetry_multiplicity
 _atom_site_fract_x
 _atom_site_fract_y
 _atom_site_fract_z
 _atom_site_occupancy
  Nd  Nd0  1  0.289619  0.089597  0.380852  1
  Nd  Nd1  1  0.289917  0.910016  0.880667  1
  Nd  Nd2  1  0.710467  0.088309  0.880624  1
  Nd  Nd3  1  0.710119  0.910261  0.380608  1
  Nd  Nd4  1  0.587576  0.787905  0.881834  1
  Nd  Nd5  1  0.587018  0.211261  0.380829  1
  Nd  Nd6  1  0.412428  0.788365  0.381428  1
  Nd  Nd7  1  0.410946  0.211325  0.881959  1
  Nd  Nd8  1  0.212095  0.412424  0.618166  1
  Nd  Nd9  1  0.211635  0.587572  0.118572  1
  Nd  Nd10  1  0.788739  0.412982  0.119171  1
  Nd  Nd11  1  0.788675  0.589054  0.618041  1
  Nd  Nd12  1  0.910403  0.710381  0.119148  1
  Nd  Nd13  1  0.911691  0.289533  0.619376  1
  Nd  Nd14  1  0.089984  0.710083  0.619333  1
  Nd  Nd15  1  0.089739  0.289881  0.119392  1
  Dy  Dy16  1  0.999789  0.999896  0.499775  1
  Dy  Dy17  1  0.000104  0.000211  0.000225  1
  Dy  Dy18  1  0.499480  0.500115  0.000064  1
  Dy  Dy19  1  0.499885  0.500520  0.499936  1
  Ir  Ir20  1  0.650518  0.649968  0.249944  1
  Ir  Ir21  1  0.350032  0.349482  0.250056  1
  Ir  Ir22  1  0.349427  0.650573  0.750000  1
  Rh  Rh23  1  0.849828  0.150172  0.250000  1
  Rh  Rh24  1  0.850245  0.850603  0.750222  1
  Rh  Rh25  1  0.149397  0.149755  0.749778  1
  Rh  Rh26  1  0.149528  0.850472  0.250000  1
  Rh  Rh27  1  0.651427  0.348573  0.750000  1
  Rh  Rh28  1  0.500273  0.000476  0.121651  1
  Rh  Rh29  1  0.500416  0.000926  0.622447  1
  Rh  Rh30  1  0.999074  0.499584  0.877553  1
  Rh  Rh31  1  0.999524  0.499727  0.378349  1
