# generated using pymatgen
data_LaY3(Si4Tc3)2
_symmetry_space_group_name_H-M   'P 1'
_cell_length_a   8.12434094
_cell_length_b   5.64449249
_cell_length_c   6.96125519
_cell_angle_alpha   76.59897398
_cell_angle_beta   90.65879250
_cell_angle_gamma   90.19827294
_symmetry_Int_Tables_number   1
_chemical_formula_structural   LaY3(Si4Tc3)2
_chemical_formula_sum   'La1 Y3 Si8 Tc6'
_cell_volume   310.51506894
_cell_formula_units_Z   1
loop_
 _symmetry_equiv_pos_site_id
 _symmetry_equiv_pos_as_xyz
  1  'x, y, z'
loop_
 _atom_site_type_symbol
 _atom_site_label
 _atom_site_symmetry_multiplicity
 _atom_site_fract_x
 _atom_site_fract_y
 _atom_site_fract_z
 _atom_site_occupancy
  La  La0  1  0.564004  0.063040  0.254763  1
  Y  Y1  1  0.930734  0.564959  0.248208  1
  Y  Y2  1  0.431796  0.939880  0.748399  1
  Y  Y3  1  0.067115  0.433817  0.753174  1
  Si  Si4  1  0.589681  0.616825  0.105646  1
  Si  Si5  1  0.092517  0.886739  0.885727  1
  Si  Si6  1  0.410291  0.395671  0.878158  1
  Si  Si7  1  0.913238  0.109124  0.115847  1
  Si  Si8  1  0.757324  0.706352  0.588150  1
  Si  Si9  1  0.244139  0.767843  0.413536  1
  Si  Si10  1  0.240064  0.294215  0.415579  1
  Si  Si11  1  0.752470  0.225853  0.589098  1
  Tc  Tc12  1  0.293062  0.611387  0.114641  1
  Tc  Tc13  1  0.795527  0.887071  0.876710  1
  Tc  Tc14  1  0.710623  0.385754  0.884845  1
  Tc  Tc15  1  0.209467  0.115096  0.120719  1
  Tc  Tc16  1  0.497462  0.497251  0.507837  1
  Tc  Tc17  1  0.000485  0.999122  0.498964  1
