# generated using pymatgen
data_Pr7Lu13Si16
_symmetry_space_group_name_H-M   'P 1'
_cell_length_a   7.66926766
_cell_length_b   7.67709425
_cell_length_c   14.13470167
_cell_angle_alpha   89.98852456
_cell_angle_beta   90.19466652
_cell_angle_gamma   90.08711059
_symmetry_Int_Tables_number   1
_chemical_formula_structural   Pr7Lu13Si16
_chemical_formula_sum   'Pr7 Lu13 Si16'
_cell_volume   832.21281062
_cell_formula_units_Z   1
loop_
 _symmetry_equiv_pos_site_id
 _symmetry_equiv_pos_as_xyz
  1  'x, y, z'
loop_
 _atom_site_type_symbol
 _atom_site_label
 _atom_site_symmetry_multiplicity
 _atom_site_fract_x
 _atom_site_fract_y
 _atom_site_fract_z
 _atom_site_occupancy
  Pr  Pr0  1  0.644429  0.992095  0.959882  1
  Pr  Pr1  1  0.858399  0.490867  0.291977  1
  Pr  Pr2  1  0.142803  0.510917  0.789890  1
  Pr  Pr3  1  0.991629  0.644486  0.041426  1
  Pr  Pr4  1  0.008663  0.354188  0.538848  1
  Pr  Pr5  1  0.510876  0.144351  0.211487  1
  Pr  Pr6  1  0.489401  0.858589  0.708377  1
  Lu  Lu7  1  0.318132  0.319428  0.000550  1
  Lu  Lu8  1  0.680232  0.682555  0.499659  1
  Lu  Lu9  1  0.816229  0.182942  0.748573  1
  Lu  Lu10  1  0.185110  0.818590  0.250870  1
  Lu  Lu11  1  0.139383  0.993006  0.874575  1
  Lu  Lu12  1  0.861673  0.005260  0.375232  1
  Lu  Lu13  1  0.640054  0.507642  0.875307  1
  Lu  Lu14  1  0.358312  0.490391  0.376594  1
  Lu  Lu15  1  0.006686  0.862440  0.623764  1
  Lu  Lu16  1  0.995334  0.140073  0.127205  1
  Lu  Lu17  1  0.489280  0.358216  0.622059  1
  Lu  Lu18  1  0.507273  0.640767  0.125085  1
  Lu  Lu19  1  0.362966  0.002432  0.456668  1
  Si  Si20  1  0.289470  0.938775  0.062592  1
  Si  Si21  1  0.705927  0.058850  0.560224  1
  Si  Si22  1  0.786084  0.562044  0.686666  1
  Si  Si23  1  0.213537  0.436612  0.188409  1
  Si  Si24  1  0.066233  0.714155  0.437398  1
  Si  Si25  1  0.936986  0.288597  0.937874  1
  Si  Si26  1  0.436728  0.213201  0.812442  1
  Si  Si27  1  0.559345  0.789692  0.314285  1
  Si  Si28  1  0.200385  0.152972  0.690382  1
  Si  Si29  1  0.797214  0.849685  0.189374  1
  Si  Si30  1  0.704332  0.349397  0.061257  1
  Si  Si31  1  0.298532  0.656557  0.558606  1
  Si  Si32  1  0.848112  0.798074  0.809716  1
  Si  Si33  1  0.155562  0.196509  0.316418  1
  Si  Si34  1  0.645330  0.291268  0.437078  1
  Si  Si35  1  0.349353  0.704372  0.939252  1
