# generated using pymatgen
data_Be4Ru5W
_symmetry_space_group_name_H-M   'P 1'
_cell_length_a   6.32584600
_cell_length_b   6.32584600
_cell_length_c   2.91200500
_cell_angle_alpha   90.00000000
_cell_angle_beta   90.00000000
_cell_angle_gamma   90.00000000
_symmetry_Int_Tables_number   1
_chemical_formula_structural   Be4Ru5W
_chemical_formula_sum   'Be4 Ru5 W1'
_cell_volume   116.52774610
_cell_formula_units_Z   1
loop_
 _symmetry_equiv_pos_site_id
 _symmetry_equiv_pos_as_xyz
  1  'x, y, z'
loop_
 _atom_site_type_symbol
 _atom_site_label
 _atom_site_symmetry_multiplicity
 _atom_site_fract_x
 _atom_site_fract_y
 _atom_site_fract_z
 _atom_site_occupancy
  Be  Be0  1  0.139993  0.613754  0.000000  1
  Be  Be1  1  0.860007  0.386246  0.000000  1
  Be  Be2  1  0.613754  0.860007  0.000000  1
  Be  Be3  1  0.386246  0.139993  0.000000  1
  Ru  Ru4  1  0.500000  0.500000  0.000000  1
  Ru  Ru5  1  0.678785  0.151279  0.500000  1
  Ru  Ru6  1  0.321215  0.848721  0.500000  1
  Ru  Ru7  1  0.151279  0.321215  0.500000  1
  Ru  Ru8  1  0.848721  0.678785  0.500000  1
  W  W9  1  0.000000  0.000000  0.000000  1
