# generated using pymatgen
data_Eu(Rh2Pb3)2
_symmetry_space_group_name_H-M   'P 1'
_cell_length_a   7.20284200
_cell_length_b   7.20284310
_cell_length_c   7.20284200
_cell_angle_alpha   119.60512544
_cell_angle_beta   119.60513042
_cell_angle_gamma   90.68531335
_symmetry_Int_Tables_number   1
_chemical_formula_structural   Eu(Rh2Pb3)2
_chemical_formula_sum   'Eu1 Rh4 Pb6'
_cell_volume   265.79540182
_cell_formula_units_Z   1
loop_
 _symmetry_equiv_pos_site_id
 _symmetry_equiv_pos_as_xyz
  1  'x, y, z'
loop_
 _atom_site_type_symbol
 _atom_site_label
 _atom_site_symmetry_multiplicity
 _atom_site_fract_x
 _atom_site_fract_y
 _atom_site_fract_z
 _atom_site_occupancy
  Eu  Eu0  1  0.000000  0.000000  0.000000  1
  Rh  Rh1  1  0.751168  0.399178  0.000000  1
  Rh  Rh2  1  0.399178  0.751168  0.000000  1
  Rh  Rh3  1  0.600821  0.600821  0.351989  1
  Rh  Rh4  1  0.248832  0.248832  0.648011  1
  Pb  Pb5  1  0.463032  0.124157  0.000000  1
  Pb  Pb6  1  0.124157  0.463032  0.000000  1
  Pb  Pb7  1  0.875843  0.875843  0.338875  1
  Pb  Pb8  1  0.500000  0.000000  0.500000  1
  Pb  Pb9  1  0.000000  0.500000  0.500000  1
  Pb  Pb10  1  0.536968  0.536968  0.661125  1
