# generated using pymatgen
data_DyY23Te12
_symmetry_space_group_name_H-M   'P 1'
_cell_length_a   4.08861700
_cell_length_b   11.54189306
_cell_length_c   22.23017912
_cell_angle_alpha   89.98809182
_cell_angle_beta   90.00000000
_cell_angle_gamma   90.00000000
_symmetry_Int_Tables_number   1
_chemical_formula_structural   DyY23Te12
_chemical_formula_sum   'Dy1 Y23 Te12'
_cell_volume   1049.05058164
_cell_formula_units_Z   1
loop_
 _symmetry_equiv_pos_site_id
 _symmetry_equiv_pos_as_xyz
  1  'x, y, z'
loop_
 _atom_site_type_symbol
 _atom_site_label
 _atom_site_symmetry_multiplicity
 _atom_site_fract_x
 _atom_site_fract_y
 _atom_site_fract_z
 _atom_site_occupancy
  Dy  Dy0  1  0.250000  0.886952  0.482916  1
  Y  Y1  1  0.250000  0.151788  0.391206  1
  Y  Y2  1  0.750000  0.848040  0.608603  1
  Y  Y3  1  0.750000  0.652017  0.108838  1
  Y  Y4  1  0.250000  0.348019  0.891154  1
  Y  Y5  1  0.250000  0.456315  0.339970  1
  Y  Y6  1  0.750000  0.543699  0.660050  1
  Y  Y7  1  0.750000  0.956268  0.160021  1
  Y  Y8  1  0.250000  0.043713  0.839964  1
  Y  Y9  1  0.250000  0.734131  0.233546  1
  Y  Y10  1  0.750000  0.265806  0.766449  1
  Y  Y11  1  0.750000  0.234145  0.266448  1
  Y  Y12  1  0.250000  0.765823  0.733551  1
  Y  Y13  1  0.250000  0.115487  0.034395  1
  Y  Y14  1  0.750000  0.884492  0.965616  1
  Y  Y15  1  0.750000  0.615591  0.465614  1
  Y  Y16  1  0.250000  0.384485  0.534379  1
  Y  Y17  1  0.250000  0.414526  0.146981  1
  Y  Y18  1  0.750000  0.585478  0.853026  1
  Y  Y19  1  0.750000  0.914452  0.353203  1
  Y  Y20  1  0.250000  0.085499  0.646974  1
  Y  Y21  1  0.250000  0.613567  0.982810  1
  Y  Y22  1  0.750000  0.386466  0.017174  1
  Y  Y23  1  0.750000  0.113321  0.517157  1
  Te  Te24  1  0.250000  0.850293  0.069028  1
  Te  Te25  1  0.750000  0.149719  0.930968  1
  Te  Te26  1  0.750000  0.350349  0.430966  1
  Te  Te27  1  0.250000  0.649657  0.569010  1
  Te  Te28  1  0.250000  0.712119  0.372844  1
  Te  Te29  1  0.750000  0.287843  0.627141  1
  Te  Te30  1  0.750000  0.212148  0.127162  1
  Te  Te31  1  0.250000  0.787823  0.872845  1
  Te  Te32  1  0.250000  0.020619  0.261067  1
  Te  Te33  1  0.750000  0.979315  0.738933  1
  Te  Te34  1  0.750000  0.520648  0.238912  1
  Te  Te35  1  0.250000  0.479384  0.761080  1
