# generated using pymatgen
data_Er2Al9IrPdRh
_symmetry_space_group_name_H-M   'P 1'
_cell_length_a   7.57071134
_cell_length_b   7.57061419
_cell_length_c   9.43376716
_cell_angle_alpha   89.98872446
_cell_angle_beta   89.99009792
_cell_angle_gamma   119.60154649
_symmetry_Int_Tables_number   1
_chemical_formula_structural   Er2Al9IrPdRh
_chemical_formula_sum   'Er4 Al18 Ir2 Pd2 Rh2'
_cell_volume   470.12497155
_cell_formula_units_Z   2
loop_
 _symmetry_equiv_pos_site_id
 _symmetry_equiv_pos_as_xyz
  1  'x, y, z'
loop_
 _atom_site_type_symbol
 _atom_site_label
 _atom_site_symmetry_multiplicity
 _atom_site_fract_x
 _atom_site_fract_y
 _atom_site_fract_z
 _atom_site_occupancy
  Er  Er0  1  0.995665  0.671295  0.250485  1
  Er  Er1  1  0.004335  0.328705  0.749515  1
  Er  Er2  1  0.671304  0.995668  0.250501  1
  Er  Er3  1  0.328696  0.004332  0.749499  1
  Al  Al4  1  0.130514  0.130512  0.249973  1
  Al  Al5  1  0.869486  0.869488  0.750027  1
  Al  Al6  1  0.000207  0.338570  0.076440  1
  Al  Al7  1  0.999793  0.661430  0.923560  1
  Al  Al8  1  0.999327  0.661535  0.576728  1
  Al  Al9  1  0.338467  0.000675  0.423282  1
  Al  Al10  1  0.000673  0.338465  0.423272  1
  Al  Al11  1  0.661533  0.999325  0.576718  1
  Al  Al12  1  0.661430  0.999796  0.923570  1
  Al  Al13  1  0.338570  0.000204  0.076430  1
  Al  Al14  1  0.336576  0.336575  0.555529  1
  Al  Al15  1  0.663424  0.663425  0.444471  1
  Al  Al16  1  0.663428  0.663427  0.055784  1
  Al  Al17  1  0.336572  0.336573  0.944216  1
  Al  Al18  1  0.338045  0.549019  0.249280  1
  Al  Al19  1  0.661955  0.450981  0.750720  1
  Al  Al20  1  0.549015  0.338040  0.249280  1
  Al  Al21  1  0.450985  0.661960  0.750720  1
  Ir  Ir22  1  0.327716  0.672243  0.500001  1
  Ir  Ir23  1  0.672284  0.327757  0.499999  1
  Pd  Pd24  1  0.000000  0.000000  0.000000  1
  Pd  Pd25  1  0.000000  0.000000  0.500000  1
  Rh  Rh26  1  0.672169  0.327870  0.999996  1
  Rh  Rh27  1  0.327831  0.672130  0.000004  1
