# generated using pymatgen
data_Dy3Th11(Os2Ru)2
_symmetry_space_group_name_H-M   'P 1'
_cell_length_a   9.87841521
_cell_length_b   9.94283929
_cell_length_c   6.37401785
_cell_angle_alpha   90.04495043
_cell_angle_beta   89.79287613
_cell_angle_gamma   120.21045685
_symmetry_Int_Tables_number   1
_chemical_formula_structural   Dy3Th11(Os2Ru)2
_chemical_formula_sum   'Dy3 Th11 Os4 Ru2'
_cell_volume   541.02026564
_cell_formula_units_Z   1
loop_
 _symmetry_equiv_pos_site_id
 _symmetry_equiv_pos_as_xyz
  1  'x, y, z'
loop_
 _atom_site_type_symbol
 _atom_site_label
 _atom_site_symmetry_multiplicity
 _atom_site_fract_x
 _atom_site_fract_y
 _atom_site_fract_z
 _atom_site_occupancy
  Dy  Dy0  1  0.460585  0.535599  0.296990  1
  Dy  Dy1  1  0.072692  0.535846  0.298391  1
  Dy  Dy2  1  0.926450  0.462805  0.799908  1
  Th  Th3  1  0.251677  0.127890  0.510452  1
  Th  Th4  1  0.542745  0.082016  0.795878  1
  Th  Th5  1  0.746503  0.872869  0.014561  1
  Th  Th6  1  0.666836  0.333909  0.277099  1
  Th  Th7  1  0.126254  0.870176  0.007352  1
  Th  Th8  1  0.459062  0.918097  0.296937  1
  Th  Th9  1  0.539443  0.466529  0.799374  1
  Th  Th10  1  0.876335  0.129576  0.511887  1
  Th  Th11  1  0.125205  0.253520  0.013838  1
  Th  Th12  1  0.874860  0.747660  0.508597  1
  Th  Th13  1  0.333298  0.666045  0.773458  1
  Os  Os14  1  0.812966  0.628809  0.049086  1
  Os  Os15  1  0.814202  0.184078  0.048815  1
  Os  Os16  1  0.628355  0.813034  0.547618  1
  Os  Os17  1  0.371033  0.187598  0.041454  1
  Ru  Ru18  1  0.183432  0.364744  0.550896  1
  Ru  Ru19  1  0.188070  0.819199  0.541407  1
