# generated using pymatgen
data_Lu8Hf12Si15Ni
_symmetry_space_group_name_H-M   'P 1'
_cell_length_a   7.21677058
_cell_length_b   7.24456749
_cell_length_c   13.29799300
_cell_angle_alpha   90.19223147
_cell_angle_beta   89.92263194
_cell_angle_gamma   90.14684907
_symmetry_Int_Tables_number   1
_chemical_formula_structural   Lu8Hf12Si15Ni
_chemical_formula_sum   'Lu8 Hf12 Si15 Ni1'
_cell_volume   695.24392065
_cell_formula_units_Z   1
loop_
 _symmetry_equiv_pos_site_id
 _symmetry_equiv_pos_as_xyz
  1  'x, y, z'
loop_
 _atom_site_type_symbol
 _atom_site_label
 _atom_site_symmetry_multiplicity
 _atom_site_fract_x
 _atom_site_fract_y
 _atom_site_fract_z
 _atom_site_occupancy
  Lu  Lu0  1  0.997622  0.348584  0.215490  1
  Lu  Lu1  1  0.005651  0.653250  0.714576  1
  Lu  Lu2  1  0.160159  0.489188  0.461189  1
  Lu  Lu3  1  0.504323  0.845820  0.034664  1
  Lu  Lu4  1  0.844016  0.504369  0.965975  1
  Lu  Lu5  1  0.495611  0.152297  0.537071  1
  Lu  Lu6  1  0.345223  0.996480  0.785480  1
  Lu  Lu7  1  0.656527  0.003755  0.284362  1
  Hf  Hf8  1  0.175329  0.177388  0.999326  1
  Hf  Hf9  1  0.825712  0.822187  0.499513  1
  Hf  Hf10  1  0.322778  0.677150  0.250312  1
  Hf  Hf11  1  0.676246  0.323932  0.750196  1
  Hf  Hf12  1  0.151953  0.009031  0.374236  1
  Hf  Hf13  1  0.852510  0.002686  0.875817  1
  Hf  Hf14  1  0.502605  0.646871  0.624603  1
  Hf  Hf15  1  0.353649  0.497590  0.874707  1
  Hf  Hf16  1  0.494660  0.351915  0.128892  1
  Hf  Hf17  1  0.638233  0.497529  0.376094  1
  Hf  Hf18  1  0.997945  0.145585  0.626082  1
  Hf  Hf19  1  0.999603  0.853218  0.124037  1
  Si  Si20  1  0.641790  0.705019  0.818701  1
  Si  Si21  1  0.203782  0.856772  0.566887  1
  Si  Si22  1  0.141581  0.796754  0.931748  1
  Si  Si23  1  0.795865  0.143300  0.068313  1
  Si  Si24  1  0.855668  0.198971  0.435181  1
  Si  Si25  1  0.296311  0.357999  0.682879  1
  Si  Si26  1  0.704108  0.643793  0.181641  1
  Si  Si27  1  0.293773  0.051823  0.185394  1
  Si  Si28  1  0.703592  0.949395  0.685970  1
  Si  Si29  1  0.449327  0.796395  0.435700  1
  Si  Si30  1  0.202550  0.551064  0.062998  1
  Si  Si31  1  0.548729  0.203612  0.936131  1
  Si  Si32  1  0.798153  0.449571  0.564675  1
  Si  Si33  1  0.048717  0.298328  0.814956  1
  Si  Si34  1  0.949946  0.705712  0.313983  1
  Ni  Ni35  1  0.365754  0.292667  0.312225  1
