# generated using pymatgen
data_Gd4Sn3Sb3Rh7
_symmetry_space_group_name_H-M   'P 1'
_cell_length_a   7.77562898
_cell_length_b   7.77099487
_cell_length_c   7.77562800
_cell_angle_alpha   109.45914952
_cell_angle_beta   109.48329366
_cell_angle_gamma   109.45915348
_symmetry_Int_Tables_number   1
_chemical_formula_structural   Gd4Sn3Sb3Rh7
_chemical_formula_sum   'Gd4 Sn3 Sb3 Rh7'
_cell_volume   361.73486317
_cell_formula_units_Z   1
loop_
 _symmetry_equiv_pos_site_id
 _symmetry_equiv_pos_as_xyz
  1  'x, y, z'
loop_
 _atom_site_type_symbol
 _atom_site_label
 _atom_site_symmetry_multiplicity
 _atom_site_fract_x
 _atom_site_fract_y
 _atom_site_fract_z
 _atom_site_occupancy
  Gd  Gd0  1  0.503218  0.998501  0.000000  1
  Gd  Gd1  1  0.000000  0.486734  0.000000  1
  Gd  Gd2  1  0.000000  0.998501  0.503218  1
  Gd  Gd3  1  0.496782  0.495283  0.496782  1
  Sn  Sn4  1  0.310346  0.992945  0.310346  1
  Sn  Sn5  1  0.000000  0.682599  0.689654  1
  Sn  Sn6  1  0.689654  0.682599  0.000000  1
  Sb  Sb7  1  0.671299  0.995267  0.671299  1
  Sb  Sb8  1  0.000000  0.323967  0.328701  1
  Sb  Sb9  1  0.328701  0.323967  0.000000  1
  Rh  Rh10  1  0.255008  0.503950  0.753113  1
  Rh  Rh11  1  0.498104  0.248942  0.744992  1
  Rh  Rh12  1  0.744992  0.248942  0.498104  1
  Rh  Rh13  1  0.501896  0.750838  0.246887  1
  Rh  Rh14  1  0.000000  0.012182  0.000000  1
  Rh  Rh15  1  0.246887  0.750838  0.501896  1
  Rh  Rh16  1  0.753113  0.503950  0.255008  1
