# generated using pymatgen
data_Ga4Ir4Se5S7
_symmetry_space_group_name_H-M   'P 1'
_cell_length_a   3.74756400
_cell_length_b   9.80778987
_cell_length_c   12.35741977
_cell_angle_alpha   90.28583320
_cell_angle_beta   90.00000000
_cell_angle_gamma   90.00000000
_symmetry_Int_Tables_number   1
_chemical_formula_structural   Ga4Ir4Se5S7
_chemical_formula_sum   'Ga4 Ir4 Se5 S7'
_cell_volume   454.19526895
_cell_formula_units_Z   1
loop_
 _symmetry_equiv_pos_site_id
 _symmetry_equiv_pos_as_xyz
  1  'x, y, z'
loop_
 _atom_site_type_symbol
 _atom_site_label
 _atom_site_symmetry_multiplicity
 _atom_site_fract_x
 _atom_site_fract_y
 _atom_site_fract_z
 _atom_site_occupancy
  Ga  Ga0  1  0.750000  0.248315  0.801846  1
  Ga  Ga1  1  0.250000  0.746778  0.199367  1
  Ga  Ga2  1  0.750000  0.752937  0.698717  1
  Ga  Ga3  1  0.250000  0.247075  0.299327  1
  Ir  Ir4  1  0.250000  0.409823  0.604716  1
  Ir  Ir5  1  0.750000  0.594541  0.393482  1
  Ir  Ir6  1  0.250000  0.902669  0.894823  1
  Ir  Ir7  1  0.750000  0.092259  0.104691  1
  Se  Se8  1  0.250000  0.407650  0.810313  1
  Se  Se9  1  0.250000  0.264742  0.102188  1
  Se  Se10  1  0.750000  0.729960  0.895612  1
  Se  Se11  1  0.250000  0.767073  0.396351  1
  Se  Se12  1  0.750000  0.236712  0.604103  1
  S  S13  1  0.250000  0.938494  0.086620  1
  S  S14  1  0.750000  0.055496  0.913133  1
  S  S15  1  0.250000  0.440774  0.411924  1
  S  S16  1  0.750000  0.561394  0.584747  1
  S  S17  1  0.750000  0.103915  0.299334  1
  S  S18  1  0.250000  0.895480  0.700207  1
  S  S19  1  0.750000  0.603911  0.198502  1
