# generated using pymatgen
data_Ho4MgCd3Pt4
_symmetry_space_group_name_H-M   'P 1'
_cell_length_a   4.12122100
_cell_length_b   7.15867772
_cell_length_c   8.79644617
_cell_angle_alpha   89.40445810
_cell_angle_beta   90.00000000
_cell_angle_gamma   90.00000000
_symmetry_Int_Tables_number   1
_chemical_formula_structural   Ho4MgCd3Pt4
_chemical_formula_sum   'Ho4 Mg1 Cd3 Pt4'
_cell_volume   259.50307242
_cell_formula_units_Z   1
loop_
 _symmetry_equiv_pos_site_id
 _symmetry_equiv_pos_as_xyz
  1  'x, y, z'
loop_
 _atom_site_type_symbol
 _atom_site_label
 _atom_site_symmetry_multiplicity
 _atom_site_fract_x
 _atom_site_fract_y
 _atom_site_fract_z
 _atom_site_occupancy
  Ho  Ho0  1  0.250000  0.950425  0.323631  1
  Ho  Ho1  1  0.250000  0.455875  0.178596  1
  Ho  Ho2  1  0.750000  0.045034  0.675267  1
  Ho  Ho3  1  0.750000  0.549616  0.824180  1
  Mg  Mg4  1  0.750000  0.132713  0.057456  1
  Cd  Cd5  1  0.250000  0.361002  0.561432  1
  Cd  Cd6  1  0.250000  0.867337  0.938376  1
  Cd  Cd7  1  0.750000  0.632116  0.440580  1
  Pt  Pt8  1  0.250000  0.267831  0.879670  1
  Pt  Pt9  1  0.250000  0.766029  0.631201  1
  Pt  Pt10  1  0.750000  0.740655  0.131273  1
  Pt  Pt11  1  0.750000  0.231370  0.358337  1
