# generated using pymatgen
data_TbDyEr2(ReC2)2
_symmetry_space_group_name_H-M   'P 1'
_cell_length_a   5.09935100
_cell_length_b   6.57044200
_cell_length_c   9.83101300
_cell_angle_alpha   90.00000000
_cell_angle_beta   90.00000000
_cell_angle_gamma   90.00000000
_symmetry_Int_Tables_number   1
_chemical_formula_structural   TbDyEr2(ReC2)2
_chemical_formula_sum   'Tb2 Dy2 Er4 Re4 C8'
_cell_volume   329.38799209
_cell_formula_units_Z   2
loop_
 _symmetry_equiv_pos_site_id
 _symmetry_equiv_pos_as_xyz
  1  'x, y, z'
loop_
 _atom_site_type_symbol
 _atom_site_label
 _atom_site_symmetry_multiplicity
 _atom_site_fract_x
 _atom_site_fract_y
 _atom_site_fract_z
 _atom_site_occupancy
  Tb  Tb0  1  0.250000  0.467663  0.216016  1
  Tb  Tb1  1  0.250000  0.967663  0.283984  1
  Dy  Dy2  1  0.750000  0.532505  0.783834  1
  Dy  Dy3  1  0.750000  0.032505  0.716166  1
  Er  Er4  1  0.250000  0.821518  0.942698  1
  Er  Er5  1  0.250000  0.321518  0.557302  1
  Er  Er6  1  0.750000  0.178424  0.057028  1
  Er  Er7  1  0.750000  0.678424  0.442972  1
  Re  Re8  1  0.250000  0.278477  0.866496  1
  Re  Re9  1  0.250000  0.778477  0.633504  1
  Re  Re10  1  0.750000  0.721640  0.133278  1
  Re  Re11  1  0.750000  0.221640  0.366722  1
  C  C12  1  0.250000  0.045905  0.740783  1
  C  C13  1  0.250000  0.545905  0.759217  1
  C  C14  1  0.750000  0.954190  0.259097  1
  C  C15  1  0.750000  0.454190  0.240903  1
  C  C16  1  0.250000  0.674425  0.450375  1
  C  C17  1  0.250000  0.174425  0.049625  1
  C  C18  1  0.750000  0.325253  0.550061  1
  C  C19  1  0.750000  0.825253  0.949939  1
