# generated using pymatgen
data_Zr17Si16W3
_symmetry_space_group_name_H-M   'P 1'
_cell_length_a   7.04722932
_cell_length_b   7.04722932
_cell_length_c   12.91813053
_cell_angle_alpha   89.93995894
_cell_angle_beta   89.93995894
_cell_angle_gamma   90.03616383
_symmetry_Int_Tables_number   1
_chemical_formula_structural   Zr17Si16W3
_chemical_formula_sum   'Zr17 Si16 W3'
_cell_volume   641.55798247
_cell_formula_units_Z   1
loop_
 _symmetry_equiv_pos_site_id
 _symmetry_equiv_pos_as_xyz
  1  'x, y, z'
loop_
 _atom_site_type_symbol
 _atom_site_label
 _atom_site_symmetry_multiplicity
 _atom_site_fract_x
 _atom_site_fract_y
 _atom_site_fract_z
 _atom_site_occupancy
  Zr  Zr0  1  0.324995  0.675006  0.250001  1
  Zr  Zr1  1  0.997804  0.348756  0.216065  1
  Zr  Zr2  1  0.001002  0.652133  0.719114  1
  Zr  Zr3  1  0.500652  0.152338  0.534547  1
  Zr  Zr4  1  0.502865  0.849630  0.031954  1
  Zr  Zr5  1  0.651244  0.002196  0.283935  1
  Zr  Zr6  1  0.347867  0.998998  0.780887  1
  Zr  Zr7  1  0.847663  0.499348  0.965452  1
  Zr  Zr8  1  0.150371  0.497135  0.468047  1
  Zr  Zr9  1  0.997093  0.145002  0.624050  1
  Zr  Zr10  1  0.002995  0.856045  0.122438  1
  Zr  Zr11  1  0.499593  0.353929  0.123506  1
  Zr  Zr12  1  0.504935  0.645135  0.627807  1
  Zr  Zr13  1  0.854998  0.002907  0.875951  1
  Zr  Zr14  1  0.143955  0.997005  0.377562  1
  Zr  Zr15  1  0.646072  0.500406  0.376493  1
  Zr  Zr16  1  0.354866  0.495064  0.872193  1
  Si  Si17  1  0.298382  0.352676  0.678284  1
  Si  Si18  1  0.706503  0.646397  0.178517  1
  Si  Si19  1  0.798272  0.146681  0.071165  1
  Si  Si20  1  0.201985  0.851618  0.572578  1
  Si  Si21  1  0.647324  0.701619  0.821716  1
  Si  Si22  1  0.353603  0.293498  0.321484  1
  Si  Si23  1  0.853318  0.201727  0.428834  1
  Si  Si24  1  0.148381  0.798014  0.927422  1
  Si  Si25  1  0.046718  0.299825  0.815008  1
  Si  Si26  1  0.945010  0.701553  0.316513  1
  Si  Si27  1  0.547434  0.199156  0.933749  1
  Si  Si28  1  0.456056  0.803759  0.437723  1
  Si  Si29  1  0.700176  0.953281  0.684992  1
  Si  Si30  1  0.298448  0.054989  0.183487  1
  Si  Si31  1  0.800844  0.452566  0.566252  1
  Si  Si32  1  0.196241  0.543944  0.062276  1
  W  W33  1  0.173473  0.176345  0.998054  1
  W  W34  1  0.823656  0.826528  0.501946  1
  W  W35  1  0.675208  0.324793  0.750000  1
