# generated using pymatgen
data_Tb2Dy11Er7Sn16
_symmetry_space_group_name_H-M   'P 1'
_cell_length_a   8.01335434
_cell_length_b   8.15675306
_cell_length_c   15.42129150
_cell_angle_alpha   90.00034988
_cell_angle_beta   90.03473845
_cell_angle_gamma   90.01663924
_symmetry_Int_Tables_number   1
_chemical_formula_structural   Tb2Dy11Er7Sn16
_chemical_formula_sum   'Tb2 Dy11 Er7 Sn16'
_cell_volume   1007.98091713
_cell_formula_units_Z   1
loop_
 _symmetry_equiv_pos_site_id
 _symmetry_equiv_pos_as_xyz
  1  'x, y, z'
loop_
 _atom_site_type_symbol
 _atom_site_label
 _atom_site_symmetry_multiplicity
 _atom_site_fract_x
 _atom_site_fract_y
 _atom_site_fract_z
 _atom_site_occupancy
  Tb  Tb0  1  0.518711  0.321095  0.596757  1
  Tb  Tb1  1  0.019085  0.178492  0.902444  1
  Dy  Dy2  1  0.134184  0.337160  0.121959  1
  Dy  Dy3  1  0.633503  0.163089  0.122574  1
  Dy  Dy4  1  0.133523  0.337012  0.377934  1
  Dy  Dy5  1  0.366629  0.837102  0.622431  1
  Dy  Dy6  1  0.866795  0.662671  0.877786  1
  Dy  Dy7  1  0.519460  0.320607  0.902807  1
  Dy  Dy8  1  0.019587  0.179367  0.597169  1
  Dy  Dy9  1  0.480779  0.679613  0.403290  1
  Dy  Dy10  1  0.980029  0.820694  0.097140  1
  Dy  Dy11  1  0.480945  0.679596  0.096769  1
  Dy  Dy12  1  0.981439  0.820656  0.403564  1
  Er  Er13  1  0.365762  0.837682  0.876379  1
  Er  Er14  1  0.865103  0.662502  0.622898  1
  Er  Er15  1  0.634652  0.162422  0.377495  1
  Er  Er16  1  0.197486  0.503368  0.750265  1
  Er  Er17  1  0.697633  0.996775  0.749481  1
  Er  Er18  1  0.802353  0.496887  0.250777  1
  Er  Er19  1  0.302791  0.003100  0.249776  1
  Sn  Sn20  1  0.294279  0.035980  0.040975  1
  Sn  Sn21  1  0.793225  0.462059  0.459027  1
  Sn  Sn22  1  0.707216  0.961948  0.541408  1
  Sn  Sn23  1  0.207652  0.538641  0.957744  1
  Sn  Sn24  1  0.703110  0.962309  0.957674  1
  Sn  Sn25  1  0.203063  0.538031  0.542500  1
  Sn  Sn26  1  0.296467  0.037639  0.457853  1
  Sn  Sn27  1  0.794078  0.463149  0.042342  1
  Sn  Sn28  1  0.563503  0.618607  0.749891  1
  Sn  Sn29  1  0.063199  0.881126  0.749797  1
  Sn  Sn30  1  0.436930  0.381429  0.250417  1
  Sn  Sn31  1  0.936498  0.117976  0.250438  1
  Sn  Sn32  1  0.328941  0.148764  0.749969  1
  Sn  Sn33  1  0.828893  0.351890  0.749663  1
  Sn  Sn34  1  0.671170  0.851757  0.250429  1
  Sn  Sn35  1  0.171329  0.648805  0.250176  1
