# generated using pymatgen
data_TaNb(SiRh)2
_symmetry_space_group_name_H-M   'P 1'
_cell_length_a   3.77585000
_cell_length_b   6.43595624
_cell_length_c   7.35773689
_cell_angle_alpha   90.13186196
_cell_angle_beta   90.00000000
_cell_angle_gamma   90.00000000
_symmetry_Int_Tables_number   1
_chemical_formula_structural   TaNb(SiRh)2
_chemical_formula_sum   'Ta2 Nb2 Si4 Rh4'
_cell_volume   178.80140183
_cell_formula_units_Z   2
loop_
 _symmetry_equiv_pos_site_id
 _symmetry_equiv_pos_as_xyz
  1  'x, y, z'
loop_
 _atom_site_type_symbol
 _atom_site_label
 _atom_site_symmetry_multiplicity
 _atom_site_fract_x
 _atom_site_fract_y
 _atom_site_fract_z
 _atom_site_occupancy
  Ta  Ta0  1  0.250000  0.025772  0.827015  1
  Ta  Ta1  1  0.750000  0.974228  0.172985  1
  Nb  Nb2  1  0.250000  0.526459  0.673470  1
  Nb  Nb3  1  0.750000  0.473541  0.326530  1
  Si  Si4  1  0.250000  0.267884  0.124629  1
  Si  Si5  1  0.750000  0.732116  0.875371  1
  Si  Si6  1  0.250000  0.767731  0.375464  1
  Si  Si7  1  0.750000  0.232269  0.624536  1
  Rh  Rh8  1  0.750000  0.856333  0.563590  1
  Rh  Rh9  1  0.250000  0.143667  0.436410  1
  Rh  Rh10  1  0.750000  0.353136  0.937279  1
  Rh  Rh11  1  0.250000  0.646864  0.062721  1
