# generated using pymatgen
data_Dy13Ho3(CoAg)4
_symmetry_space_group_name_H-M   'P 1'
_cell_length_a   9.37779213
_cell_length_b   9.37801540
_cell_length_c   9.34556900
_cell_angle_alpha   60.11438816
_cell_angle_beta   60.11360421
_cell_angle_gamma   60.23207865
_symmetry_Int_Tables_number   1
_chemical_formula_structural   Dy13Ho3(CoAg)4
_chemical_formula_sum   'Dy13 Ho3 Co4 Ag4'
_cell_volume   583.18591274
_cell_formula_units_Z   1
loop_
 _symmetry_equiv_pos_site_id
 _symmetry_equiv_pos_as_xyz
  1  'x, y, z'
loop_
 _atom_site_type_symbol
 _atom_site_label
 _atom_site_symmetry_multiplicity
 _atom_site_fract_x
 _atom_site_fract_y
 _atom_site_fract_z
 _atom_site_occupancy
  Dy  Dy0  1  0.936969  0.563592  0.562284  1
  Dy  Dy1  1  0.544421  0.151208  0.152185  1
  Dy  Dy2  1  0.151113  0.151837  0.544124  1
  Dy  Dy3  1  0.936704  0.937257  0.563020  1
  Dy  Dy4  1  0.312704  0.688222  0.311408  1
  Dy  Dy5  1  0.563914  0.937201  0.936734  1
  Dy  Dy6  1  0.563914  0.937201  0.562150  1
  Dy  Dy7  1  0.689123  0.688071  0.311403  1
  Dy  Dy8  1  0.562992  0.562613  0.937197  1
  Dy  Dy9  1  0.936969  0.563592  0.937154  1
  Dy  Dy10  1  0.312704  0.688222  0.687665  1
  Dy  Dy11  1  0.151113  0.151837  0.152924  1
  Dy  Dy12  1  0.313304  0.312698  0.686998  1
  Ho  Ho13  1  0.150954  0.543734  0.152655  1
  Ho  Ho14  1  0.688539  0.312668  0.686871  1
  Ho  Ho15  1  0.688539  0.312668  0.311922  1
  Co  Co16  1  0.358050  0.358607  0.924168  1
  Co  Co17  1  0.357750  0.923890  0.359180  1
  Co  Co18  1  0.923904  0.358172  0.358963  1
  Co  Co19  1  0.358050  0.358607  0.359176  1
  Ag  Ag20  1  0.918507  0.243213  0.919140  1
  Ag  Ag21  1  0.918377  0.918205  0.918759  1
  Ag  Ag22  1  0.918377  0.918205  0.244659  1
  Ag  Ag23  1  0.243009  0.918475  0.919258  1
