# generated using pymatgen
data_Nd19DySi15Pt
_symmetry_space_group_name_H-M   'P 1'
_cell_length_a   7.78189817
_cell_length_b   7.93331856
_cell_length_c   15.13952997
_cell_angle_alpha   89.70531921
_cell_angle_beta   89.60444711
_cell_angle_gamma   90.09115798
_symmetry_Int_Tables_number   1
_chemical_formula_structural   Nd19DySi15Pt
_chemical_formula_sum   'Nd19 Dy1 Si15 Pt1'
_cell_volume   934.62234728
_cell_formula_units_Z   1
loop_
 _symmetry_equiv_pos_site_id
 _symmetry_equiv_pos_as_xyz
  1  'x, y, z'
loop_
 _atom_site_type_symbol
 _atom_site_label
 _atom_site_symmetry_multiplicity
 _atom_site_fract_x
 _atom_site_fract_y
 _atom_site_fract_z
 _atom_site_occupancy
  Nd  Nd0  1  0.813081  0.328390  0.617805  1
  Nd  Nd1  1  0.457607  0.686092  0.898473  1
  Nd  Nd2  1  0.958102  0.813585  0.897982  1
  Nd  Nd3  1  0.185888  0.683396  0.120520  1
  Nd  Nd4  1  0.691112  0.819260  0.120833  1
  Nd  Nd5  1  0.308545  0.179689  0.878035  1
  Nd  Nd6  1  0.187744  0.677634  0.379887  1
  Nd  Nd7  1  0.042106  0.187092  0.102376  1
  Nd  Nd8  1  0.312556  0.179565  0.622205  1
  Nd  Nd9  1  0.856806  0.490477  0.257133  1
  Nd  Nd10  1  0.363362  0.008590  0.251933  1
  Nd  Nd11  1  0.536588  0.315929  0.397989  1
  Nd  Nd12  1  0.810989  0.317977  0.878498  1
  Nd  Nd13  1  0.964355  0.815901  0.600506  1
  Nd  Nd14  1  0.460509  0.686325  0.603251  1
  Nd  Nd15  1  0.042559  0.183795  0.398281  1
  Nd  Nd16  1  0.689770  0.816478  0.382564  1
  Nd  Nd17  1  0.638427  0.992888  0.749020  1
  Nd  Nd18  1  0.542484  0.312799  0.101839  1
  Dy  Dy19  1  0.137157  0.512596  0.748368  1
  Si  Si20  1  0.478640  0.602941  0.245952  1
  Si  Si21  1  0.250282  0.379107  0.247075  1
  Si  Si22  1  0.514767  0.401891  0.751021  1
  Si  Si23  1  0.632231  0.025558  0.958585  1
  Si  Si24  1  0.016871  0.102676  0.749503  1
  Si  Si25  1  0.750475  0.621289  0.750873  1
  Si  Si26  1  0.750848  0.120656  0.248530  1
  Si  Si27  1  0.364877  0.970680  0.460860  1
  Si  Si28  1  0.981879  0.900196  0.248590  1
  Si  Si29  1  0.365536  0.974615  0.040991  1
  Si  Si30  1  0.635332  0.025073  0.542214  1
  Si  Si31  1  0.135087  0.474314  0.957705  1
  Si  Si32  1  0.146295  0.475567  0.544280  1
  Si  Si33  1  0.866741  0.525357  0.039621  1
  Si  Si34  1  0.246192  0.874194  0.751059  1
  Pt  Pt35  1  0.864200  0.517429  0.455648  1
