# generated using pymatgen
data_LaVAs3Rh4
_symmetry_space_group_name_H-M   'P 1'
_cell_length_a   4.05889200
_cell_length_b   7.51836741
_cell_length_c   9.89003800
_cell_angle_alpha   79.24113554
_cell_angle_beta   90.00000000
_cell_angle_gamma   90.00000000
_symmetry_Int_Tables_number   1
_chemical_formula_structural   LaVAs3Rh4
_chemical_formula_sum   'La2 V2 As6 Rh8'
_cell_volume   296.50148430
_cell_formula_units_Z   2
loop_
 _symmetry_equiv_pos_site_id
 _symmetry_equiv_pos_as_xyz
  1  'x, y, z'
loop_
 _atom_site_type_symbol
 _atom_site_label
 _atom_site_symmetry_multiplicity
 _atom_site_fract_x
 _atom_site_fract_y
 _atom_site_fract_z
 _atom_site_occupancy
  La  La0  1  0.250000  0.807590  0.785530  1
  La  La1  1  0.750000  0.192191  0.215199  1
  V  V2  1  0.250000  0.313926  0.713284  1
  V  V3  1  0.750000  0.686305  0.285380  1
  As  As4  1  0.250000  0.256956  0.969992  1
  As  As5  1  0.750000  0.743210  0.030076  1
  As  As6  1  0.250000  0.433322  0.335363  1
  As  As7  1  0.750000  0.566836  0.664939  1
  As  As8  1  0.250000  0.897791  0.343175  1
  As  As9  1  0.750000  0.102040  0.656696  1
  Rh  Rh10  1  0.250000  0.534698  0.092880  1
  Rh  Rh11  1  0.750000  0.464685  0.907626  1
  Rh  Rh12  1  0.250000  0.922721  0.095893  1
  Rh  Rh13  1  0.750000  0.077491  0.904265  1
  Rh  Rh14  1  0.250000  0.620276  0.508862  1
  Rh  Rh15  1  0.750000  0.380234  0.490981  1
  Rh  Rh16  1  0.250000  0.130714  0.484692  1
  Rh  Rh17  1  0.750000  0.869010  0.515166  1
