# generated using pymatgen
data_Eu6RuAu2
_symmetry_space_group_name_H-M   'P 1'
_cell_length_a   8.40083600
_cell_length_b   8.40083666
_cell_length_c   4.44671200
_cell_angle_alpha   90.00000000
_cell_angle_beta   90.00000000
_cell_angle_gamma   120.00001314
_symmetry_Int_Tables_number   1
_chemical_formula_structural   Eu6RuAu2
_chemical_formula_sum   'Eu6 Ru1 Au2'
_cell_volume   271.77820378
_cell_formula_units_Z   1
loop_
 _symmetry_equiv_pos_site_id
 _symmetry_equiv_pos_as_xyz
  1  'x, y, z'
loop_
 _atom_site_type_symbol
 _atom_site_label
 _atom_site_symmetry_multiplicity
 _atom_site_fract_x
 _atom_site_fract_y
 _atom_site_fract_z
 _atom_site_occupancy
  Eu  Eu0  1  0.756224  0.000000  0.000000  1
  Eu  Eu1  1  0.243777  0.243776  0.000000  1
  Eu  Eu2  1  0.000000  0.756224  0.000000  1
  Eu  Eu3  1  0.403639  0.000000  0.500001  1
  Eu  Eu4  1  0.000000  0.403639  0.500001  1
  Eu  Eu5  1  0.596361  0.596361  0.500001  1
  Ru  Ru6  1  0.000000  0.000000  0.500001  1
  Au  Au7  1  0.666667  0.333333  0.000000  1
  Au  Au8  1  0.333333  0.666666  0.000000  1
