# generated using pymatgen
data_Ho3TaGa2Ir3
_symmetry_space_group_name_H-M   'P 1'
_cell_length_a   7.05850125
_cell_length_b   6.84444785
_cell_length_c   4.21619000
_cell_angle_alpha   90.00000000
_cell_angle_beta   90.00000000
_cell_angle_gamma   119.00181149
_symmetry_Int_Tables_number   1
_chemical_formula_structural   Ho3TaGa2Ir3
_chemical_formula_sum   'Ho3 Ta1 Ga2 Ir3'
_cell_volume   178.14873214
_cell_formula_units_Z   1
loop_
 _symmetry_equiv_pos_site_id
 _symmetry_equiv_pos_as_xyz
  1  'x, y, z'
loop_
 _atom_site_type_symbol
 _atom_site_label
 _atom_site_symmetry_multiplicity
 _atom_site_fract_x
 _atom_site_fract_y
 _atom_site_fract_z
 _atom_site_occupancy
  Ho  Ho0  1  0.577280  0.583320  0.000000  1
  Ho  Ho1  1  0.422720  0.006039  0.000000  1
  Ho  Ho2  1  0.000000  0.394997  0.000000  1
  Ta  Ta3  1  0.000000  0.760467  0.500000  1
  Ga  Ga4  1  0.247264  0.250579  0.500000  1
  Ga  Ga5  1  0.752736  0.003315  0.500000  1
  Ir  Ir6  1  0.000000  0.975558  0.000000  1
  Ir  Ir7  1  0.678676  0.352200  0.500000  1
  Ir  Ir8  1  0.321324  0.673525  0.500000  1
