# generated using pymatgen
data_Nd8Y11ErSi16
_symmetry_space_group_name_H-M   'P 1'
_cell_length_a   7.75825343
_cell_length_b   7.75825343
_cell_length_c   14.46016100
_cell_angle_alpha   89.99831042
_cell_angle_beta   90.00168958
_cell_angle_gamma   90.03813687
_symmetry_Int_Tables_number   1
_chemical_formula_structural   Nd8Y11ErSi16
_chemical_formula_sum   'Nd8 Y11 Er1 Si16'
_cell_volume   870.36407368
_cell_formula_units_Z   1
loop_
 _symmetry_equiv_pos_site_id
 _symmetry_equiv_pos_as_xyz
  1  'x, y, z'
loop_
 _atom_site_type_symbol
 _atom_site_label
 _atom_site_symmetry_multiplicity
 _atom_site_fract_x
 _atom_site_fract_y
 _atom_site_fract_z
 _atom_site_occupancy
  Nd  Nd0  1  0.634614  0.990380  0.454916  1
  Nd  Nd1  1  0.365130  0.009806  0.954852  1
  Nd  Nd2  1  0.990380  0.634614  0.545084  1
  Nd  Nd3  1  0.490249  0.865262  0.204957  1
  Nd  Nd4  1  0.509497  0.134918  0.704548  1
  Nd  Nd5  1  0.865262  0.490249  0.795043  1
  Nd  Nd6  1  0.134918  0.509497  0.295452  1
  Nd  Nd7  1  0.009806  0.365130  0.045148  1
  Y  Y8  1  0.488005  0.364988  0.125109  1
  Y  Y9  1  0.988255  0.135246  0.624848  1
  Y  Y10  1  0.864955  0.011824  0.874808  1
  Y  Y11  1  0.135246  0.988255  0.375152  1
  Y  Y12  1  0.511682  0.634870  0.624688  1
  Y  Y13  1  0.364988  0.488005  0.874891  1
  Y  Y14  1  0.634870  0.511682  0.375312  1
  Y  Y15  1  0.011824  0.864955  0.125192  1
  Y  Y16  1  0.185622  0.814536  0.749856  1
  Y  Y17  1  0.814536  0.185622  0.250144  1
  Y  Y18  1  0.685533  0.685533  0.000000  1
  Er  Er19  1  0.314739  0.314739  0.500000  1
  Si  Si20  1  0.288112  0.931955  0.561268  1
  Si  Si21  1  0.712173  0.068827  0.061388  1
  Si  Si22  1  0.931955  0.288112  0.438732  1
  Si  Si23  1  0.430591  0.212545  0.312069  1
  Si  Si24  1  0.568952  0.787732  0.811278  1
  Si  Si25  1  0.212545  0.430591  0.687931  1
  Si  Si26  1  0.787732  0.568952  0.188722  1
  Si  Si27  1  0.068827  0.712173  0.938612  1
  Si  Si28  1  0.800698  0.840418  0.693274  1
  Si  Si29  1  0.199268  0.159676  0.193491  1
  Si  Si30  1  0.840418  0.800698  0.306726  1
  Si  Si31  1  0.339942  0.698532  0.443637  1
  Si  Si32  1  0.659635  0.300835  0.943399  1
  Si  Si33  1  0.698532  0.339942  0.556363  1
  Si  Si34  1  0.300835  0.659635  0.056601  1
  Si  Si35  1  0.159676  0.199268  0.806509  1
