# generated using pymatgen
data_Dy9Y(Bi2Rh)2
_symmetry_space_group_name_H-M   'P 1'
_cell_length_a   8.04116720
_cell_length_b   9.00343400
_cell_length_c   12.49127732
_cell_angle_alpha   90.00000000
_cell_angle_beta   89.97418815
_cell_angle_gamma   90.00000000
_symmetry_Int_Tables_number   1
_chemical_formula_structural   Dy9Y(Bi2Rh)2
_chemical_formula_sum   'Dy18 Y2 Bi8 Rh4'
_cell_volume   904.34487994
_cell_formula_units_Z   2
loop_
 _symmetry_equiv_pos_site_id
 _symmetry_equiv_pos_as_xyz
  1  'x, y, z'
loop_
 _atom_site_type_symbol
 _atom_site_label
 _atom_site_symmetry_multiplicity
 _atom_site_fract_x
 _atom_site_fract_y
 _atom_site_fract_z
 _atom_site_occupancy
  Dy  Dy0  1  0.341118  0.250000  0.706042  1
  Dy  Dy1  1  0.658882  0.750000  0.293958  1
  Dy  Dy2  1  0.375453  0.750000  0.693726  1
  Dy  Dy3  1  0.624547  0.250000  0.306274  1
  Dy  Dy4  1  0.875463  0.250000  0.806219  1
  Dy  Dy5  1  0.124537  0.750000  0.193781  1
  Dy  Dy6  1  0.953375  0.750000  0.501166  1
  Dy  Dy7  1  0.046625  0.250000  0.498834  1
  Dy  Dy8  1  0.453433  0.250000  0.998718  1
  Dy  Dy9  1  0.546567  0.750000  0.001282  1
  Dy  Dy10  1  0.677761  0.041138  0.565907  1
  Dy  Dy11  1  0.322239  0.958862  0.434093  1
  Dy  Dy12  1  0.177877  0.958940  0.934194  1
  Dy  Dy13  1  0.322239  0.541138  0.434093  1
  Dy  Dy14  1  0.822123  0.041060  0.065806  1
  Dy  Dy15  1  0.677761  0.458862  0.565907  1
  Dy  Dy16  1  0.822123  0.458940  0.065806  1
  Dy  Dy17  1  0.177877  0.541060  0.934194  1
  Y  Y18  1  0.840786  0.750000  0.792989  1
  Y  Y19  1  0.159214  0.250000  0.207011  1
  Bi  Bi20  1  0.569189  0.491534  0.826495  1
  Bi  Bi21  1  0.430811  0.508466  0.173505  1
  Bi  Bi22  1  0.069279  0.508482  0.673520  1
  Bi  Bi23  1  0.430811  0.991534  0.173505  1
  Bi  Bi24  1  0.930721  0.491518  0.326480  1
  Bi  Bi25  1  0.569189  0.008466  0.826495  1
  Bi  Bi26  1  0.930721  0.008482  0.326480  1
  Bi  Bi27  1  0.069279  0.991518  0.673520  1
  Rh  Rh28  1  0.570571  0.750000  0.510096  1
  Rh  Rh29  1  0.429429  0.250000  0.489904  1
  Rh  Rh30  1  0.070181  0.250000  0.989130  1
  Rh  Rh31  1  0.929819  0.750000  0.010870  1
