# generated using pymatgen
data_Lu2Zr2Si4Mo3W
_symmetry_space_group_name_H-M   'P 1'
_cell_length_a   3.57408900
_cell_length_b   7.09668635
_cell_length_c   8.32661158
_cell_angle_alpha   89.92932770
_cell_angle_beta   90.00000000
_cell_angle_gamma   90.00000000
_symmetry_Int_Tables_number   1
_chemical_formula_structural   Lu2Zr2Si4Mo3W
_chemical_formula_sum   'Lu2 Zr2 Si4 Mo3 W1'
_cell_volume   211.19758610
_cell_formula_units_Z   1
loop_
 _symmetry_equiv_pos_site_id
 _symmetry_equiv_pos_as_xyz
  1  'x, y, z'
loop_
 _atom_site_type_symbol
 _atom_site_label
 _atom_site_symmetry_multiplicity
 _atom_site_fract_x
 _atom_site_fract_y
 _atom_site_fract_z
 _atom_site_occupancy
  Lu  Lu0  1  0.250000  0.042754  0.335190  1
  Lu  Lu1  1  0.250000  0.542481  0.164747  1
  Zr  Zr2  1  0.750000  0.956981  0.669531  1
  Zr  Zr3  1  0.750000  0.456959  0.830500  1
  Si  Si4  1  0.250000  0.258590  0.637165  1
  Si  Si5  1  0.250000  0.758622  0.862605  1
  Si  Si6  1  0.750000  0.738432  0.366392  1
  Si  Si7  1  0.750000  0.238881  0.134115  1
  Mo  Mo8  1  0.250000  0.629639  0.563103  1
  Mo  Mo9  1  0.750000  0.873841  0.056031  1
  Mo  Mo10  1  0.750000  0.373564  0.443987  1
  W  W11  1  0.250000  0.129258  0.936634  1
