# generated using pymatgen
data_Er8GaPI12
_symmetry_space_group_name_H-M   'P 1'
_cell_length_a   4.16835700
_cell_length_b   13.79022638
_cell_length_c   14.56180900
_cell_angle_alpha   90.08831054
_cell_angle_beta   90.00000000
_cell_angle_gamma   90.00000000
_symmetry_Int_Tables_number   1
_chemical_formula_structural   Er8GaPI12
_chemical_formula_sum   'Er8 Ga1 P1 I12'
_cell_volume   837.04945356
_cell_formula_units_Z   1
loop_
 _symmetry_equiv_pos_site_id
 _symmetry_equiv_pos_as_xyz
  1  'x, y, z'
loop_
 _atom_site_type_symbol
 _atom_site_label
 _atom_site_symmetry_multiplicity
 _atom_site_fract_x
 _atom_site_fract_y
 _atom_site_fract_z
 _atom_site_occupancy
  Er  Er0  1  0.500000  0.111529  0.351433  1
  Er  Er1  1  0.500000  0.888471  0.648567  1
  Er  Er2  1  0.500000  0.616565  0.155178  1
  Er  Er3  1  0.500000  0.383435  0.844822  1
  Er  Er4  1  0.000000  0.105274  0.571071  1
  Er  Er5  1  0.000000  0.894726  0.428929  1
  Er  Er6  1  0.000000  0.613169  0.923457  1
  Er  Er7  1  0.000000  0.386831  0.076543  1
  Ga  Ga8  1  0.500000  0.500000  0.000000  1
  P  P9  1  0.500000  0.000000  0.500000  1
  I  I10  1  0.500000  0.246633  0.165643  1
  I  I11  1  0.500000  0.753367  0.834357  1
  I  I12  1  0.500000  0.750230  0.337291  1
  I  I13  1  0.500000  0.249770  0.662709  1
  I  I14  1  0.000000  0.257689  0.416737  1
  I  I15  1  0.000000  0.742311  0.583263  1
  I  I16  1  0.000000  0.762390  0.084770  1
  I  I17  1  0.000000  0.237610  0.915230  1
  I  I18  1  0.000000  0.999173  0.241638  1
  I  I19  1  0.000000  0.000827  0.758362  1
  I  I20  1  0.000000  0.499733  0.263715  1
  I  I21  1  0.000000  0.500267  0.736285  1
