# generated using pymatgen
data_Na5Bi2Au
_symmetry_space_group_name_H-M   'P 1'
_cell_length_a   6.33337747
_cell_length_b   6.33337784
_cell_length_c   5.93793690
_cell_angle_alpha   85.53656695
_cell_angle_beta   85.53656735
_cell_angle_gamma   95.75443274
_symmetry_Int_Tables_number   1
_chemical_formula_structural   Na5Bi2Au
_chemical_formula_sum   'Na5 Bi2 Au1'
_cell_volume   235.37973924
_cell_formula_units_Z   1
loop_
 _symmetry_equiv_pos_site_id
 _symmetry_equiv_pos_as_xyz
  1  'x, y, z'
loop_
 _atom_site_type_symbol
 _atom_site_label
 _atom_site_symmetry_multiplicity
 _atom_site_fract_x
 _atom_site_fract_y
 _atom_site_fract_z
 _atom_site_occupancy
  Na  Na0  1  0.028482  0.666593  0.230479  1
  Na  Na1  1  0.971518  0.333407  0.769521  1
  Na  Na2  1  0.666593  0.028482  0.230479  1
  Na  Na3  1  0.333407  0.971518  0.769521  1
  Na  Na4  1  0.500000  0.500000  0.500000  1
  Bi  Bi5  1  0.804022  0.804022  0.747364  1
  Bi  Bi6  1  0.195978  0.195978  0.252636  1
  Au  Au7  1  0.500000  0.500000  0.000000  1
