# generated using pymatgen
data_Ho12Ni4BiAu
_symmetry_space_group_name_H-M   'P 1'
_cell_length_a   8.35231817
_cell_length_b   8.36570618
_cell_length_c   8.35231732
_cell_angle_alpha   112.98115038
_cell_angle_beta   108.74572174
_cell_angle_gamma   106.68543565
_symmetry_Int_Tables_number   1
_chemical_formula_structural   Ho12Ni4BiAu
_chemical_formula_sum   'Ho12 Ni4 Bi1 Au1'
_cell_volume   448.19771482
_cell_formula_units_Z   1
loop_
 _symmetry_equiv_pos_site_id
 _symmetry_equiv_pos_as_xyz
  1  'x, y, z'
loop_
 _atom_site_type_symbol
 _atom_site_label
 _atom_site_symmetry_multiplicity
 _atom_site_fract_x
 _atom_site_fract_y
 _atom_site_fract_z
 _atom_site_occupancy
  Ho  Ho0  1  0.418485  0.217653  0.200763  1
  Ho  Ho1  1  0.581515  0.782347  0.799237  1
  Ho  Ho2  1  0.016889  0.217653  0.799169  1
  Ho  Ho3  1  0.983111  0.782347  0.200831  1
  Ho  Ho4  1  0.177714  0.293374  0.471364  1
  Ho  Ho5  1  0.822286  0.706626  0.528636  1
  Ho  Ho6  1  0.177989  0.706626  0.884341  1
  Ho  Ho7  1  0.822011  0.293374  0.115659  1
  Ho  Ho8  1  0.322438  0.631660  0.309221  1
  Ho  Ho9  1  0.677562  0.368340  0.690779  1
  Ho  Ho10  1  0.322611  0.013410  0.690799  1
  Ho  Ho11  1  0.677389  0.986590  0.309201  1
  Ni  Ni12  1  0.361380  0.000000  0.361380  1
  Ni  Ni13  1  0.638620  0.000000  0.638620  1
  Ni  Ni14  1  0.125099  0.625528  0.500429  1
  Ni  Ni15  1  0.874901  0.374472  0.499571  1
  Bi  Bi16  1  0.500000  0.500000  0.000000  1
  Au  Au17  1  0.000000  0.000000  0.000000  1
