# generated using pymatgen
data_Tc5(O4F)3
_symmetry_space_group_name_H-M   'P 1'
_cell_length_a   5.47201565
_cell_length_b   6.62573046
_cell_length_c   8.41136130
_cell_angle_alpha   103.90708407
_cell_angle_beta   108.64261540
_cell_angle_gamma   89.12404613
_symmetry_Int_Tables_number   1
_chemical_formula_structural   Tc5(O4F)3
_chemical_formula_sum   'Tc5 O12 F3'
_cell_volume   279.86299373
_cell_formula_units_Z   1
loop_
 _symmetry_equiv_pos_site_id
 _symmetry_equiv_pos_as_xyz
  1  'x, y, z'
loop_
 _atom_site_type_symbol
 _atom_site_label
 _atom_site_symmetry_multiplicity
 _atom_site_fract_x
 _atom_site_fract_y
 _atom_site_fract_z
 _atom_site_occupancy
  Tc  Tc0  1  0.953277  0.985282  0.992177  1
  Tc  Tc1  1  0.369320  0.612244  0.803259  1
  Tc  Tc2  1  0.829592  0.189822  0.595346  1
  Tc  Tc3  1  0.245731  0.816778  0.406482  1
  Tc  Tc4  1  0.599767  0.401037  0.199328  1
  O  O5  1  0.671923  0.800019  0.901183  1
  O  O6  1  0.169596  0.794142  0.894646  1
  O  O7  1  0.100131  0.400588  0.698992  1
  O  O8  1  0.894056  0.096421  0.798864  1
  O  O9  1  0.526086  0.003145  0.498004  1
  O  O10  1  0.027839  0.006895  0.503372  1
  O  O11  1  0.305135  0.705904  0.599920  1
  O  O12  1  0.707516  0.302484  0.397990  1
  O  O13  1  0.418462  0.608129  0.303129  1
  O  O14  1  0.781642  0.194340  0.095907  1
  O  O15  1  0.099548  0.900844  0.199253  1
  O  O16  1  0.491511  0.499568  0.000668  1
  F  F17  1  0.600756  0.401913  0.699707  1
  F  F18  1  0.912146  0.601156  0.296563  1
  F  F19  1  0.288335  0.199633  0.101647  1
