# generated using pymatgen
data_Sc6CuSe2
_symmetry_space_group_name_H-M   'P 1'
_cell_length_a   3.66822000
_cell_length_b   10.36515300
_cell_length_c   19.68626900
_cell_angle_alpha   90.00000000
_cell_angle_beta   90.00000000
_cell_angle_gamma   90.00000000
_symmetry_Int_Tables_number   1
_chemical_formula_structural   Sc6CuSe2
_chemical_formula_sum   'Sc24 Cu4 Se8'
_cell_volume   748.50465686
_cell_formula_units_Z   4
loop_
 _symmetry_equiv_pos_site_id
 _symmetry_equiv_pos_as_xyz
  1  'x, y, z'
loop_
 _atom_site_type_symbol
 _atom_site_label
 _atom_site_symmetry_multiplicity
 _atom_site_fract_x
 _atom_site_fract_y
 _atom_site_fract_z
 _atom_site_occupancy
  Sc  Sc0  1  0.250000  0.385847  0.988212  1
  Sc  Sc1  1  0.750000  0.614153  0.011788  1
  Sc  Sc2  1  0.750000  0.885847  0.511788  1
  Sc  Sc3  1  0.250000  0.114153  0.488212  1
  Sc  Sc4  1  0.250000  0.924730  0.645887  1
  Sc  Sc5  1  0.750000  0.075270  0.354113  1
  Sc  Sc6  1  0.750000  0.424730  0.854113  1
  Sc  Sc7  1  0.250000  0.575270  0.145887  1
  Sc  Sc8  1  0.250000  0.878700  0.030731  1
  Sc  Sc9  1  0.750000  0.121300  0.969269  1
  Sc  Sc10  1  0.750000  0.378700  0.469269  1
  Sc  Sc11  1  0.250000  0.621300  0.530731  1
  Sc  Sc12  1  0.250000  0.821361  0.390553  1
  Sc  Sc13  1  0.750000  0.178639  0.609447  1
  Sc  Sc14  1  0.750000  0.321361  0.109447  1
  Sc  Sc15  1  0.250000  0.678639  0.890553  1
  Sc  Sc16  1  0.250000  0.530182  0.337362  1
  Sc  Sc17  1  0.750000  0.469818  0.662638  1
  Sc  Sc18  1  0.750000  0.030182  0.162638  1
  Sc  Sc19  1  0.250000  0.969818  0.837362  1
  Sc  Sc20  1  0.250000  0.252355  0.235867  1
  Sc  Sc21  1  0.750000  0.747645  0.764133  1
  Sc  Sc22  1  0.750000  0.752355  0.264133  1
  Sc  Sc23  1  0.250000  0.247645  0.735867  1
  Cu  Cu24  1  0.250000  0.139355  0.076793  1
  Cu  Cu25  1  0.750000  0.860645  0.923207  1
  Cu  Cu26  1  0.750000  0.639355  0.423207  1
  Cu  Cu27  1  0.250000  0.360645  0.576793  1
  Se  Se28  1  0.250000  0.227365  0.874295  1
  Se  Se29  1  0.750000  0.772635  0.125705  1
  Se  Se30  1  0.750000  0.727365  0.625705  1
  Se  Se31  1  0.250000  0.272635  0.374295  1
  Se  Se32  1  0.250000  0.534977  0.765112  1
  Se  Se33  1  0.750000  0.465023  0.234888  1
  Se  Se34  1  0.750000  0.034977  0.734888  1
  Se  Se35  1  0.250000  0.965023  0.265112  1
