# generated using pymatgen
data_Tb5ErSi24OsRu7
_symmetry_space_group_name_H-M   'P 1'
_cell_length_a   10.11491000
_cell_length_b   10.11490945
_cell_length_c   8.15343407
_cell_angle_alpha   90.00417210
_cell_angle_beta   90.00416836
_cell_angle_gamma   132.46827861
_symmetry_Int_Tables_number   1
_chemical_formula_structural   Tb5ErSi24OsRu7
_chemical_formula_sum   'Tb5 Er1 Si24 Os1 Ru7'
_cell_volume   615.34073703
_cell_formula_units_Z   1
loop_
 _symmetry_equiv_pos_site_id
 _symmetry_equiv_pos_as_xyz
  1  'x, y, z'
loop_
 _atom_site_type_symbol
 _atom_site_label
 _atom_site_symmetry_multiplicity
 _atom_site_fract_x
 _atom_site_fract_y
 _atom_site_fract_z
 _atom_site_occupancy
  Tb  Tb0  1  0.000033  0.999967  0.000000  1
  Tb  Tb1  1  0.502460  0.002391  0.750131  1
  Tb  Tb2  1  0.997609  0.497540  0.249869  1
  Tb  Tb3  1  0.497623  0.997311  0.249754  1
  Tb  Tb4  1  0.002689  0.502377  0.750246  1
  Er  Er5  1  0.499922  0.500078  0.500000  1
  Si  Si6  1  0.795363  0.204637  0.500000  1
  Si  Si7  1  0.294837  0.705163  0.000000  1
  Si  Si8  1  0.205229  0.794771  0.500000  1
  Si  Si9  1  0.705282  0.294718  0.000000  1
  Si  Si10  1  0.332437  0.332650  0.833390  1
  Si  Si11  1  0.667350  0.667563  0.166610  1
  Si  Si12  1  0.167059  0.166848  0.332843  1
  Si  Si13  1  0.833152  0.832941  0.667157  1
  Si  Si14  1  0.121961  0.887757  0.728626  1
  Si  Si15  1  0.112243  0.878039  0.271374  1
  Si  Si16  1  0.611993  0.378142  0.227298  1
  Si  Si17  1  0.621858  0.388007  0.772702  1
  Si  Si18  1  0.877355  0.111394  0.270876  1
  Si  Si19  1  0.888606  0.122645  0.729124  1
  Si  Si20  1  0.387870  0.622280  0.771754  1
  Si  Si21  1  0.377720  0.612130  0.228246  1
  Si  Si22  1  0.344152  0.110989  0.505264  1
  Si  Si23  1  0.889011  0.655848  0.494736  1
  Si  Si24  1  0.387986  0.154290  0.004855  1
  Si  Si25  1  0.845710  0.612014  0.995145  1
  Si  Si26  1  0.653970  0.887716  0.493771  1
  Si  Si27  1  0.112284  0.346030  0.506229  1
  Si  Si28  1  0.611837  0.845464  0.995098  1
  Si  Si29  1  0.154536  0.388163  0.004902  1
  Os  Os30  1  0.668675  0.331325  0.500000  1
  Ru  Ru31  1  0.169137  0.830863  0.000000  1
  Ru  Ru32  1  0.331340  0.668660  0.500000  1
  Ru  Ru33  1  0.830883  0.169117  0.000000  1
  Ru  Ru34  1  0.127546  0.127804  0.625940  1
  Ru  Ru35  1  0.872196  0.872454  0.374060  1
  Ru  Ru36  1  0.374700  0.374612  0.128127  1
  Ru  Ru37  1  0.625388  0.625300  0.871873  1
