# generated using pymatgen
data_Zr15Cd(CoIr)4
_symmetry_space_group_name_H-M   'P 1'
_cell_length_a   8.67304003
_cell_length_b   8.66712941
_cell_length_c   8.66712900
_cell_angle_alpha   59.61712183
_cell_angle_beta   59.97744103
_cell_angle_gamma   59.97744154
_symmetry_Int_Tables_number   1
_chemical_formula_structural   Zr15Cd(CoIr)4
_chemical_formula_sum   'Zr15 Cd1 Co4 Ir4'
_cell_volume   459.18440207
_cell_formula_units_Z   1
loop_
 _symmetry_equiv_pos_site_id
 _symmetry_equiv_pos_as_xyz
  1  'x, y, z'
loop_
 _atom_site_type_symbol
 _atom_site_label
 _atom_site_symmetry_multiplicity
 _atom_site_fract_x
 _atom_site_fract_y
 _atom_site_fract_z
 _atom_site_occupancy
  Zr  Zr0  1  0.059878  0.646732  0.646732  1
  Zr  Zr1  1  0.644328  0.062777  0.648566  1
  Zr  Zr2  1  0.644328  0.648566  0.062777  1
  Zr  Zr3  1  0.646658  0.646732  0.646732  1
  Zr  Zr4  1  0.797956  0.805581  0.196622  1
  Zr  Zr5  1  0.199839  0.196622  0.805581  1
  Zr  Zr6  1  0.797956  0.196622  0.805581  1
  Zr  Zr7  1  0.199839  0.805581  0.196622  1
  Zr  Zr8  1  0.195395  0.804605  0.804605  1
  Zr  Zr9  1  0.800587  0.199413  0.199413  1
  Zr  Zr10  1  0.435296  0.432950  0.064330  1
  Zr  Zr11  1  0.067423  0.064330  0.432950  1
  Zr  Zr12  1  0.435296  0.064330  0.432950  1
  Zr  Zr13  1  0.067423  0.432950  0.064330  1
  Zr  Zr14  1  0.061338  0.438662  0.438662  1
  Cd  Cd15  1  0.437668  0.062332  0.062332  1
  Co  Co16  1  0.425072  0.854538  0.854538  1
  Co  Co17  1  0.860596  0.423093  0.855716  1
  Co  Co18  1  0.860596  0.855716  0.423093  1
  Co  Co19  1  0.865850  0.854538  0.854538  1
  Ir  Ir20  1  0.750597  0.416800  0.416800  1
  Ir  Ir21  1  0.415138  0.744192  0.425531  1
  Ir  Ir22  1  0.415138  0.425531  0.744192  1
  Ir  Ir23  1  0.415802  0.416800  0.416800  1
