# generated using pymatgen
data_ErZr3(MoN2)4
_symmetry_space_group_name_H-M   'P 1'
_cell_length_a   3.09313300
_cell_length_b   5.57185847
_cell_length_c   10.58822017
_cell_angle_alpha   90.15967038
_cell_angle_beta   90.00000000
_cell_angle_gamma   90.00000000
_symmetry_Int_Tables_number   1
_chemical_formula_structural   ErZr3(MoN2)4
_chemical_formula_sum   'Er1 Zr3 Mo4 N8'
_cell_volume   182.48196445
_cell_formula_units_Z   1
loop_
 _symmetry_equiv_pos_site_id
 _symmetry_equiv_pos_as_xyz
  1  'x, y, z'
loop_
 _atom_site_type_symbol
 _atom_site_label
 _atom_site_symmetry_multiplicity
 _atom_site_fract_x
 _atom_site_fract_y
 _atom_site_fract_z
 _atom_site_occupancy
  Er  Er0  1  0.750000  0.416630  0.354075  1
  Zr  Zr1  1  0.250000  0.089447  0.849536  1
  Zr  Zr2  1  0.250000  0.583282  0.649831  1
  Zr  Zr3  1  0.750000  0.911730  0.149656  1
  Mo  Mo4  1  0.250000  0.428262  0.093340  1
  Mo  Mo5  1  0.250000  0.928627  0.402493  1
  Mo  Mo6  1  0.750000  0.572615  0.907016  1
  Mo  Mo7  1  0.750000  0.066806  0.596456  1
  N  N8  1  0.250000  0.152946  0.240332  1
  N  N9  1  0.250000  0.668975  0.248073  1
  N  N10  1  0.750000  0.839090  0.756439  1
  N  N11  1  0.750000  0.340221  0.748316  1
  N  N12  1  0.250000  0.775647  0.997318  1
  N  N13  1  0.250000  0.269343  0.505635  1
  N  N14  1  0.750000  0.224565  0.999050  1
  N  N15  1  0.750000  0.731814  0.502434  1
