# generated using pymatgen
data_Tb2DyMg3Sn2Au
_symmetry_space_group_name_H-M   'P 1'
_cell_length_a   7.56497920
_cell_length_b   7.56497920
_cell_length_c   4.44494100
_cell_angle_alpha   90.00000000
_cell_angle_beta   90.00000000
_cell_angle_gamma   119.97336267
_symmetry_Int_Tables_number   1
_chemical_formula_structural   Tb2DyMg3Sn2Au
_chemical_formula_sum   'Tb2 Dy1 Mg3 Sn2 Au1'
_cell_volume   220.35789637
_cell_formula_units_Z   1
loop_
 _symmetry_equiv_pos_site_id
 _symmetry_equiv_pos_as_xyz
  1  'x, y, z'
loop_
 _atom_site_type_symbol
 _atom_site_label
 _atom_site_symmetry_multiplicity
 _atom_site_fract_x
 _atom_site_fract_y
 _atom_site_fract_z
 _atom_site_occupancy
  Tb  Tb0  1  0.595110  0.999926  0.000000  1
  Tb  Tb1  1  0.999926  0.595110  0.000000  1
  Dy  Dy2  1  0.404744  0.404744  0.000000  1
  Mg  Mg3  1  0.237648  0.000072  0.500000  1
  Mg  Mg4  1  0.000072  0.237648  0.500000  1
  Mg  Mg5  1  0.762328  0.762328  0.500000  1
  Sn  Sn6  1  0.333447  0.666529  0.500000  1
  Sn  Sn7  1  0.666529  0.333447  0.500000  1
  Au  Au8  1  0.000195  0.000195  0.000000  1
