# generated using pymatgen
data_HoEr4In4PdAu
_symmetry_space_group_name_H-M   'P 1'
_cell_length_a   3.62604400
_cell_length_b   8.13898201
_cell_length_c   18.26174606
_cell_angle_alpha   90.00174235
_cell_angle_beta   90.00000000
_cell_angle_gamma   90.00000000
_symmetry_Int_Tables_number   1
_chemical_formula_structural   HoEr4In4PdAu
_chemical_formula_sum   'Ho2 Er8 In8 Pd2 Au2'
_cell_volume   538.94625374
_cell_formula_units_Z   2
loop_
 _symmetry_equiv_pos_site_id
 _symmetry_equiv_pos_as_xyz
  1  'x, y, z'
loop_
 _atom_site_type_symbol
 _atom_site_label
 _atom_site_symmetry_multiplicity
 _atom_site_fract_x
 _atom_site_fract_y
 _atom_site_fract_z
 _atom_site_occupancy
  Ho  Ho0  1  0.000000  0.500000  0.500000  1
  Ho  Ho1  1  0.000000  0.000000  0.000000  1
  Er  Er2  1  0.000000  0.745472  0.282136  1
  Er  Er3  1  0.000000  0.254528  0.717864  1
  Er  Er4  1  0.000000  0.767189  0.779132  1
  Er  Er5  1  0.000000  0.232811  0.220868  1
  Er  Er6  1  0.000000  0.617587  0.080011  1
  Er  Er7  1  0.000000  0.382413  0.919989  1
  Er  Er8  1  0.000000  0.886520  0.582513  1
  Er  Er9  1  0.000000  0.113480  0.417487  1
  In  In10  1  0.500000  0.712952  0.932262  1
  In  In11  1  0.500000  0.287048  0.067738  1
  In  In12  1  0.500000  0.788930  0.432269  1
  In  In13  1  0.500000  0.211070  0.567731  1
  In  In14  1  0.500000  0.583834  0.647255  1
  In  In15  1  0.500000  0.416166  0.352745  1
  In  In16  1  0.500000  0.920559  0.148412  1
  In  In17  1  0.500000  0.079441  0.851588  1
  Pd  Pd18  1  0.500000  0.975367  0.696069  1
  Pd  Pd19  1  0.500000  0.024633  0.303931  1
  Au  Au20  1  0.500000  0.525651  0.196815  1
  Au  Au21  1  0.500000  0.474349  0.803185  1
