# generated using pymatgen
data_Yb3(HoSi2)2
_symmetry_space_group_name_H-M   'P 1'
_cell_length_a   7.38311400
_cell_length_b   7.80292800
_cell_length_c   15.10483800
_cell_angle_alpha   90.00000000
_cell_angle_beta   90.00000000
_cell_angle_gamma   90.00000000
_symmetry_Int_Tables_number   1
_chemical_formula_structural   Yb3(HoSi2)2
_chemical_formula_sum   'Yb12 Ho8 Si16'
_cell_volume   870.18831179
_cell_formula_units_Z   4
loop_
 _symmetry_equiv_pos_site_id
 _symmetry_equiv_pos_as_xyz
  1  'x, y, z'
loop_
 _atom_site_type_symbol
 _atom_site_label
 _atom_site_symmetry_multiplicity
 _atom_site_fract_x
 _atom_site_fract_y
 _atom_site_fract_z
 _atom_site_occupancy
  Yb  Yb0  1  0.651261  0.979037  0.250000  1
  Yb  Yb1  1  0.151261  0.520963  0.250000  1
  Yb  Yb2  1  0.848739  0.479037  0.750000  1
  Yb  Yb3  1  0.348739  0.020963  0.750000  1
  Yb  Yb4  1  0.976199  0.816801  0.095920  1
  Yb  Yb5  1  0.476199  0.683199  0.404080  1
  Yb  Yb6  1  0.523801  0.316801  0.904080  1
  Yb  Yb7  1  0.023801  0.183199  0.595920  1
  Yb  Yb8  1  0.023801  0.183199  0.904080  1
  Yb  Yb9  1  0.523801  0.316801  0.595920  1
  Yb  Yb10  1  0.476199  0.683199  0.095920  1
  Yb  Yb11  1  0.976199  0.816801  0.404080  1
  Ho  Ho12  1  0.682805  0.822780  0.878562  1
  Ho  Ho13  1  0.182805  0.677220  0.621438  1
  Ho  Ho14  1  0.817195  0.322780  0.121438  1
  Ho  Ho15  1  0.317195  0.177220  0.378562  1
  Ho  Ho16  1  0.317195  0.177220  0.121438  1
  Ho  Ho17  1  0.817195  0.322780  0.378562  1
  Ho  Ho18  1  0.182805  0.677220  0.878562  1
  Ho  Ho19  1  0.682805  0.822780  0.621438  1
  Si  Si20  1  0.755395  0.605175  0.250000  1
  Si  Si21  1  0.255395  0.894825  0.250000  1
  Si  Si22  1  0.744605  0.105175  0.750000  1
  Si  Si23  1  0.244605  0.394825  0.750000  1
  Si  Si24  1  0.026232  0.116976  0.250000  1
  Si  Si25  1  0.526232  0.383024  0.250000  1
  Si  Si26  1  0.473768  0.616976  0.750000  1
  Si  Si27  1  0.973768  0.883024  0.750000  1
  Si  Si28  1  0.856247  0.533893  0.962223  1
  Si  Si29  1  0.356247  0.966107  0.537777  1
  Si  Si30  1  0.643753  0.033893  0.037777  1
  Si  Si31  1  0.143753  0.466107  0.462223  1
  Si  Si32  1  0.143753  0.466107  0.037777  1
  Si  Si33  1  0.643753  0.033893  0.462223  1
  Si  Si34  1  0.356247  0.966107  0.962223  1
  Si  Si35  1  0.856247  0.533893  0.537777  1
