# generated using pymatgen
data_Tb4Ga4RuPt2Rh
_symmetry_space_group_name_H-M   'P 1'
_cell_length_a   4.38814700
_cell_length_b   6.88880166
_cell_length_c   7.77752347
_cell_angle_alpha   90.43617787
_cell_angle_beta   90.00000000
_cell_angle_gamma   90.00000000
_symmetry_Int_Tables_number   1
_chemical_formula_structural   Tb4Ga4RuPt2Rh
_chemical_formula_sum   'Tb4 Ga4 Ru1 Pt2 Rh1'
_cell_volume   235.10052253
_cell_formula_units_Z   1
loop_
 _symmetry_equiv_pos_site_id
 _symmetry_equiv_pos_as_xyz
  1  'x, y, z'
loop_
 _atom_site_type_symbol
 _atom_site_label
 _atom_site_symmetry_multiplicity
 _atom_site_fract_x
 _atom_site_fract_y
 _atom_site_fract_z
 _atom_site_occupancy
  Tb  Tb0  1  0.750000  0.520155  0.800816  1
  Tb  Tb1  1  0.250000  0.975377  0.312733  1
  Tb  Tb2  1  0.250000  0.474987  0.189235  1
  Tb  Tb3  1  0.750000  0.017034  0.696460  1
  Ga  Ga4  1  0.750000  0.666906  0.429340  1
  Ga  Ga5  1  0.250000  0.339406  0.575147  1
  Ga  Ga6  1  0.750000  0.163642  0.070384  1
  Ga  Ga7  1  0.250000  0.841106  0.924211  1
  Ru  Ru8  1  0.250000  0.727867  0.603857  1
  Pt  Pt9  1  0.750000  0.773115  0.104305  1
  Pt  Pt10  1  0.750000  0.272166  0.396557  1
  Rh  Rh11  1  0.250000  0.228236  0.896953  1
