# generated using pymatgen
data_Ac6Ge3Se14
_symmetry_space_group_name_H-M   'P 1'
_cell_length_a   11.20535700
_cell_length_b   11.20535741
_cell_length_c   6.24803900
_cell_angle_alpha   90.00000000
_cell_angle_beta   90.00000000
_cell_angle_gamma   120.00000176
_symmetry_Int_Tables_number   1
_chemical_formula_structural   Ac6Ge3Se14
_chemical_formula_sum   'Ac6 Ge3 Se14'
_cell_volume   679.40035064
_cell_formula_units_Z   1
loop_
 _symmetry_equiv_pos_site_id
 _symmetry_equiv_pos_as_xyz
  1  'x, y, z'
loop_
 _atom_site_type_symbol
 _atom_site_label
 _atom_site_symmetry_multiplicity
 _atom_site_fract_x
 _atom_site_fract_y
 _atom_site_fract_z
 _atom_site_occupancy
  Ac  Ac0  1  0.309890  0.102094  0.755161  1
  Ac  Ac1  1  0.792204  0.690110  0.755161  1
  Ac  Ac2  1  0.897906  0.207796  0.755161  1
  Ac  Ac3  1  0.024120  0.564189  0.250742  1
  Ac  Ac4  1  0.540069  0.975880  0.250742  1
  Ac  Ac5  1  0.435811  0.459931  0.250742  1
  Ge  Ge6  1  0.000000  0.000000  0.169850  1
  Ge  Ge7  1  0.333333  0.666667  0.664300  1
  Ge  Ge8  1  0.666667  0.333333  0.514534  1
  Se  Se9  1  0.146307  0.225223  0.019535  1
  Se  Se10  1  0.078916  0.853693  0.019535  1
  Se  Se11  1  0.774777  0.921084  0.019535  1
  Se  Se12  1  0.187455  0.441277  0.515528  1
  Se  Se13  1  0.253822  0.812545  0.515528  1
  Se  Se14  1  0.558723  0.746178  0.515528  1
  Se  Se15  1  0.000000  0.000000  0.547488  1
  Se  Se16  1  0.333333  0.666667  0.042373  1
  Se  Se17  1  0.415229  0.171266  0.274572  1
  Se  Se18  1  0.756037  0.584771  0.274572  1
  Se  Se19  1  0.828734  0.243963  0.274572  1
  Se  Se20  1  0.919099  0.498698  0.757302  1
  Se  Se21  1  0.579600  0.080901  0.757302  1
  Se  Se22  1  0.501302  0.420400  0.757302  1
