# generated using pymatgen
data_Th4IrPd8Pt3
_symmetry_space_group_name_H-M   'P 1'
_cell_length_a   5.98400399
_cell_length_b   5.95053866
_cell_length_c   9.77199329
_cell_angle_alpha   89.87171983
_cell_angle_beta   89.30384826
_cell_angle_gamma   120.12141851
_symmetry_Int_Tables_number   1
_chemical_formula_structural   Th4IrPd8Pt3
_chemical_formula_sum   'Th4 Ir1 Pd8 Pt3'
_cell_volume   300.93802031
_cell_formula_units_Z   1
loop_
 _symmetry_equiv_pos_site_id
 _symmetry_equiv_pos_as_xyz
  1  'x, y, z'
loop_
 _atom_site_type_symbol
 _atom_site_label
 _atom_site_symmetry_multiplicity
 _atom_site_fract_x
 _atom_site_fract_y
 _atom_site_fract_z
 _atom_site_occupancy
  Th  Th0  1  0.000000  0.000000  0.500000  1
  Th  Th1  1  0.000000  0.000000  0.000000  1
  Th  Th2  1  0.325624  0.663399  0.254480  1
  Th  Th3  1  0.674376  0.336601  0.745520  1
  Ir  Ir4  1  0.000000  0.500000  0.500000  1
  Pd  Pd5  1  0.500000  0.500000  0.000000  1
  Pd  Pd6  1  0.000000  0.500000  0.000000  1
  Pd  Pd7  1  0.821315  0.649232  0.248500  1
  Pd  Pd8  1  0.348642  0.174638  0.246630  1
  Pd  Pd9  1  0.821095  0.172905  0.248062  1
  Pd  Pd10  1  0.178685  0.350768  0.751500  1
  Pd  Pd11  1  0.651358  0.825362  0.753370  1
  Pd  Pd12  1  0.178905  0.827095  0.751938  1
  Pt  Pt13  1  0.500000  0.500000  0.500000  1
  Pt  Pt14  1  0.500000  0.000000  0.500000  1
  Pt  Pt15  1  0.500000  0.000000  0.000000  1
