# generated using pymatgen
data_Cs2Te3RuO12
_symmetry_space_group_name_H-M   'P 1'
_cell_length_a   7.26442402
_cell_length_b   7.37326228
_cell_length_c   7.26471337
_cell_angle_alpha   89.99914201
_cell_angle_beta   60.99593545
_cell_angle_gamma   120.49614902
_symmetry_Int_Tables_number   1
_chemical_formula_structural   Cs2Te3RuO12
_chemical_formula_sum   'Cs2 Te3 Ru1 O12'
_cell_volume   277.16323503
_cell_formula_units_Z   1
loop_
 _symmetry_equiv_pos_site_id
 _symmetry_equiv_pos_as_xyz
  1  'x, y, z'
loop_
 _atom_site_type_symbol
 _atom_site_label
 _atom_site_symmetry_multiplicity
 _atom_site_fract_x
 _atom_site_fract_y
 _atom_site_fract_z
 _atom_site_occupancy
  Cs  Cs0  1  0.253735  0.124299  0.626939  1
  Cs  Cs1  1  0.746183  0.870526  0.373162  1
  Te  Te2  1  0.500054  0.497334  0.000006  1
  Te  Te3  1  0.499928  0.997293  0.000012  1
  Te  Te4  1  0.999989  0.497356  0.499987  1
  Ru  Ru5  1  0.000019  0.497372  0.999946  1
  O  O6  1  0.642797  0.818720  0.929554  1
  O  O7  1  0.854291  0.424509  0.324741  1
  O  O8  1  0.251890  0.424402  0.927141  1
  O  O9  1  0.251009  0.818732  0.321383  1
  O  O10  1  0.251901  0.822099  0.927114  1
  O  O11  1  0.250936  0.426871  0.321382  1
  O  O12  1  0.357189  0.175917  0.070476  1
  O  O13  1  0.145757  0.570180  0.675207  1
  O  O14  1  0.748083  0.570143  0.072879  1
  O  O15  1  0.749060  0.175952  0.678624  1
  O  O16  1  0.748139  0.172551  0.072812  1
  O  O17  1  0.749038  0.567746  0.678633  1
