# generated using pymatgen
data_Ta2Ni4P4Ru3
_symmetry_space_group_name_H-M   'P 1'
_cell_length_a   6.98423456
_cell_length_b   6.98423414
_cell_length_c   6.83450899
_cell_angle_alpha   94.77891993
_cell_angle_beta   93.38356789
_cell_angle_gamma   149.39753952
_symmetry_Int_Tables_number   1
_chemical_formula_structural   Ta2Ni4P4Ru3
_chemical_formula_sum   'Ta2 Ni4 P4 Ru3'
_cell_volume   163.41682391
_cell_formula_units_Z   1
loop_
 _symmetry_equiv_pos_site_id
 _symmetry_equiv_pos_as_xyz
  1  'x, y, z'
loop_
 _atom_site_type_symbol
 _atom_site_label
 _atom_site_symmetry_multiplicity
 _atom_site_fract_x
 _atom_site_fract_y
 _atom_site_fract_z
 _atom_site_occupancy
  Ta  Ta0  1  0.191274  0.122135  0.313410  1
  Ta  Ta1  1  0.808726  0.877865  0.686590  1
  Ni  Ni2  1  0.607512  0.090513  0.698026  1
  Ni  Ni3  1  0.392488  0.909487  0.301974  1
  Ni  Ni4  1  0.093792  0.394767  0.488558  1
  Ni  Ni5  1  0.906208  0.605233  0.511442  1
  P  P6  1  0.749734  0.422915  0.172649  1
  P  P7  1  0.250266  0.577085  0.827351  1
  P  P8  1  0.440976  0.245804  0.686781  1
  P  P9  1  0.559024  0.754196  0.313219  1
  Ru  Ru10  1  0.876186  0.189551  0.065737  1
  Ru  Ru11  1  0.123814  0.810449  0.934263  1
  Ru  Ru12  1  0.500000  0.500000  0.000000  1
