# generated using pymatgen
data_La6Pr4Si5Au
_symmetry_space_group_name_H-M   'P 1'
_cell_length_a   7.88042788
_cell_length_b   7.88042825
_cell_length_c   9.17412993
_cell_angle_alpha   115.43531049
_cell_angle_beta   115.43531565
_cell_angle_gamma   90.00000163
_symmetry_Int_Tables_number   1
_chemical_formula_structural   La6Pr4Si5Au
_chemical_formula_sum   'La6 Pr4 Si5 Au1'
_cell_volume   452.58952817
_cell_formula_units_Z   1
loop_
 _symmetry_equiv_pos_site_id
 _symmetry_equiv_pos_as_xyz
  1  'x, y, z'
loop_
 _atom_site_type_symbol
 _atom_site_label
 _atom_site_symmetry_multiplicity
 _atom_site_fract_x
 _atom_site_fract_y
 _atom_site_fract_z
 _atom_site_occupancy
  La  La0  1  0.474370  0.474370  0.948740  1
  La  La1  1  0.026289  0.026289  0.052577  1
  La  La2  1  0.959972  0.816528  0.285914  1
  La  La3  1  0.325942  0.469386  0.285914  1
  La  La4  1  0.816528  0.325942  0.285914  1
  La  La5  1  0.469386  0.959972  0.285914  1
  Pr  Pr6  1  0.030896  0.174233  0.715127  1
  Pr  Pr7  1  0.684230  0.540894  0.715127  1
  Pr  Pr8  1  0.174233  0.684230  0.715127  1
  Pr  Pr9  1  0.540894  0.030896  0.715127  1
  Si  Si10  1  0.251252  0.251252  0.502504  1
  Si  Si11  1  0.611784  0.885919  0.997524  1
  Si  Si12  1  0.385740  0.111605  0.997524  1
  Si  Si13  1  0.885919  0.385740  0.997524  1
  Si  Si14  1  0.111605  0.611784  0.997524  1
  Au  Au15  1  0.750960  0.750960  0.501921  1
