# generated using pymatgen
data_CaGaPRh4
_symmetry_space_group_name_H-M   'P 1'
_cell_length_a   4.18567600
_cell_length_b   8.98584400
_cell_length_c   11.37885100
_cell_angle_alpha   90.00000000
_cell_angle_beta   90.00000000
_cell_angle_gamma   90.00000000
_symmetry_Int_Tables_number   1
_chemical_formula_structural   CaGaPRh4
_chemical_formula_sum   'Ca4 Ga4 P4 Rh16'
_cell_volume   427.97942728
_cell_formula_units_Z   4
loop_
 _symmetry_equiv_pos_site_id
 _symmetry_equiv_pos_as_xyz
  1  'x, y, z'
loop_
 _atom_site_type_symbol
 _atom_site_label
 _atom_site_symmetry_multiplicity
 _atom_site_fract_x
 _atom_site_fract_y
 _atom_site_fract_z
 _atom_site_occupancy
  Ca  Ca0  1  0.250000  0.150279  0.823959  1
  Ca  Ca1  1  0.250000  0.349721  0.323959  1
  Ca  Ca2  1  0.750000  0.849721  0.176041  1
  Ca  Ca3  1  0.750000  0.650279  0.676041  1
  Ga  Ga4  1  0.250000  0.613691  0.060037  1
  Ga  Ga5  1  0.250000  0.886309  0.560037  1
  Ga  Ga6  1  0.750000  0.386309  0.939963  1
  Ga  Ga7  1  0.750000  0.113691  0.439963  1
  P  P8  1  0.250000  0.415982  0.643386  1
  P  P9  1  0.250000  0.084018  0.143386  1
  P  P10  1  0.750000  0.584018  0.356614  1
  P  P11  1  0.750000  0.915982  0.856614  1
  Rh  Rh12  1  0.250000  0.604239  0.506794  1
  Rh  Rh13  1  0.250000  0.895761  0.006794  1
  Rh  Rh14  1  0.750000  0.395761  0.493206  1
  Rh  Rh15  1  0.750000  0.104239  0.993206  1
  Rh  Rh16  1  0.250000  0.679675  0.281564  1
  Rh  Rh17  1  0.250000  0.820325  0.781564  1
  Rh  Rh18  1  0.750000  0.320325  0.718436  1
  Rh  Rh19  1  0.750000  0.179675  0.218436  1
  Rh  Rh20  1  0.250000  0.185870  0.564400  1
  Rh  Rh21  1  0.250000  0.314130  0.064400  1
  Rh  Rh22  1  0.750000  0.814130  0.435600  1
  Rh  Rh23  1  0.750000  0.685870  0.935600  1
  Rh  Rh24  1  0.250000  0.001099  0.337690  1
  Rh  Rh25  1  0.250000  0.498901  0.837690  1
  Rh  Rh26  1  0.750000  0.998901  0.662310  1
  Rh  Rh27  1  0.750000  0.501099  0.162310  1
