# generated using pymatgen
data_Er8BOs3WC7
_symmetry_space_group_name_H-M   'P 1'
_cell_length_a   5.06731200
_cell_length_b   6.54052252
_cell_length_c   9.79191573
_cell_angle_alpha   89.79792384
_cell_angle_beta   90.00000000
_cell_angle_gamma   90.00000000
_symmetry_Int_Tables_number   1
_chemical_formula_structural   Er8BOs3WC7
_chemical_formula_sum   'Er8 B1 Os3 W1 C7'
_cell_volume   324.53015457
_cell_formula_units_Z   1
loop_
 _symmetry_equiv_pos_site_id
 _symmetry_equiv_pos_as_xyz
  1  'x, y, z'
loop_
 _atom_site_type_symbol
 _atom_site_label
 _atom_site_symmetry_multiplicity
 _atom_site_fract_x
 _atom_site_fract_y
 _atom_site_fract_z
 _atom_site_occupancy
  Er  Er0  1  0.250000  0.675852  0.555397  1
  Er  Er1  1  0.750000  0.319885  0.446914  1
  Er  Er2  1  0.750000  0.827857  0.054177  1
  Er  Er3  1  0.250000  0.178442  0.941502  1
  Er  Er4  1  0.250000  0.529972  0.213097  1
  Er  Er5  1  0.750000  0.464971  0.781243  1
  Er  Er6  1  0.750000  0.968293  0.716337  1
  Er  Er7  1  0.250000  0.029563  0.283589  1
  B  B8  1  0.750000  0.550295  0.242321  1
  Os  Os9  1  0.750000  0.276979  0.133557  1
  Os  Os10  1  0.750000  0.787987  0.370518  1
  Os  Os11  1  0.250000  0.220527  0.631382  1
  W  W12  1  0.250000  0.719089  0.867678  1
  C  C13  1  0.250000  0.450792  0.759050  1
  C  C14  1  0.750000  0.047401  0.259384  1
  C  C15  1  0.250000  0.955575  0.739495  1
  C  C16  1  0.250000  0.826222  0.056377  1
  C  C17  1  0.750000  0.175352  0.947569  1
  C  C18  1  0.750000  0.671349  0.552916  1
  C  C19  1  0.250000  0.323597  0.447498  1
