# generated using pymatgen
data_Ho4Sb3As3Rh7
_symmetry_space_group_name_H-M   'P 1'
_cell_length_a   7.47102464
_cell_length_b   7.41603912
_cell_length_c   7.41603963
_cell_angle_alpha   109.32054008
_cell_angle_beta   109.62147113
_cell_angle_gamma   109.62149393
_symmetry_Int_Tables_number   1
_chemical_formula_structural   Ho4Sb3As3Rh7
_chemical_formula_sum   'Ho4 Sb3 As3 Rh7'
_cell_volume   315.71383063
_cell_formula_units_Z   1
loop_
 _symmetry_equiv_pos_site_id
 _symmetry_equiv_pos_as_xyz
  1  'x, y, z'
loop_
 _atom_site_type_symbol
 _atom_site_label
 _atom_site_symmetry_multiplicity
 _atom_site_fract_x
 _atom_site_fract_y
 _atom_site_fract_z
 _atom_site_occupancy
  Ho  Ho0  1  0.544858  0.000000  0.000000  1
  Ho  Ho1  1  0.988017  0.479538  0.000000  1
  Ho  Ho2  1  0.988017  0.000000  0.479538  1
  Ho  Ho3  1  0.508479  0.520462  0.520462  1
  Sb  Sb4  1  0.010536  0.699092  0.699092  1
  Sb  Sb5  1  0.311444  0.000000  0.300908  1
  Sb  Sb6  1  0.311444  0.300908  0.000000  1
  As  As7  1  0.008593  0.333782  0.333782  1
  As  As8  1  0.674811  0.000000  0.666218  1
  As  As9  1  0.674811  0.666218  0.000000  1
  Rh  Rh10  1  0.966804  0.000000  0.000000  1
  Rh  Rh11  1  0.500322  0.747832  0.247040  1
  Rh  Rh12  1  0.752490  0.499209  0.252168  1
  Rh  Rh13  1  0.253281  0.752960  0.500791  1
  Rh  Rh14  1  0.253281  0.500791  0.752960  1
  Rh  Rh15  1  0.500322  0.247040  0.747832  1
  Rh  Rh16  1  0.752490  0.252168  0.499209  1
