# generated using pymatgen
data_TbHo3(TiAl3)2
_symmetry_space_group_name_H-M   'P 1'
_cell_length_a   9.51314584
_cell_length_b   9.51314601
_cell_length_c   9.51314687
_cell_angle_alpha   34.82753125
_cell_angle_beta   34.82752872
_cell_angle_gamma   34.82753542
_symmetry_Int_Tables_number   1
_chemical_formula_structural   TbHo3(TiAl3)2
_chemical_formula_sum   'Tb1 Ho3 Ti2 Al6'
_cell_volume   250.65412912
_cell_formula_units_Z   1
loop_
 _symmetry_equiv_pos_site_id
 _symmetry_equiv_pos_as_xyz
  1  'x, y, z'
loop_
 _atom_site_type_symbol
 _atom_site_label
 _atom_site_symmetry_multiplicity
 _atom_site_fract_x
 _atom_site_fract_y
 _atom_site_fract_z
 _atom_site_occupancy
  Tb  Tb0  1  0.813168  0.813168  0.813168  1
  Ho  Ho1  1  0.313320  0.313320  0.313320  1
  Ho  Ho2  1  0.686630  0.686630  0.686630  1
  Ho  Ho3  1  0.186720  0.186720  0.186720  1
  Ti  Ti4  1  0.500057  0.500057  0.500057  1
  Ti  Ti5  1  0.000054  0.000054  0.000054  1
  Al  Al6  1  0.249988  0.249988  0.749752  1
  Al  Al7  1  0.750007  0.750007  0.250310  1
  Al  Al8  1  0.249988  0.749752  0.249988  1
  Al  Al9  1  0.750007  0.250310  0.750007  1
  Al  Al10  1  0.749752  0.249988  0.249988  1
  Al  Al11  1  0.250310  0.750007  0.750007  1
