# generated using pymatgen
data_Tm4Al6FeRe
_symmetry_space_group_name_H-M   'P 1'
_cell_length_a   5.45196500
_cell_length_b   5.45196545
_cell_length_c   8.74561000
_cell_angle_alpha   90.00000000
_cell_angle_beta   90.00000000
_cell_angle_gamma   119.99999120
_symmetry_Int_Tables_number   1
_chemical_formula_structural   Tm4Al6FeRe
_chemical_formula_sum   'Tm4 Al6 Fe1 Re1'
_cell_volume   225.12666147
_cell_formula_units_Z   1
loop_
 _symmetry_equiv_pos_site_id
 _symmetry_equiv_pos_as_xyz
  1  'x, y, z'
loop_
 _atom_site_type_symbol
 _atom_site_label
 _atom_site_symmetry_multiplicity
 _atom_site_fract_x
 _atom_site_fract_y
 _atom_site_fract_z
 _atom_site_occupancy
  Tm  Tm0  1  0.666665  0.333333  0.054125  1
  Tm  Tm1  1  0.666665  0.333333  0.448080  1
  Tm  Tm2  1  0.333334  0.666667  0.551921  1
  Tm  Tm3  1  0.333334  0.666667  0.945875  1
  Al  Al4  1  0.162512  0.325023  0.254593  1
  Al  Al5  1  0.162511  0.837488  0.254593  1
  Al  Al6  1  0.674978  0.837488  0.254593  1
  Al  Al7  1  0.325023  0.162512  0.745407  1
  Al  Al8  1  0.837488  0.162512  0.745407  1
  Al  Al9  1  0.837487  0.674977  0.745407  1
  Fe  Fe10  1  0.000000  0.000000  0.500000  1
  Re  Re11  1  0.000000  0.000000  0.000000  1
