# generated using pymatgen
data_Y13Th3MgCd3Co4
_symmetry_space_group_name_H-M   'P 1'
_cell_length_a   9.60938497
_cell_length_b   9.62129516
_cell_length_c   9.62129500
_cell_angle_alpha   59.99999713
_cell_angle_beta   59.95898850
_cell_angle_gamma   59.95898928
_symmetry_Int_Tables_number   1
_chemical_formula_structural   Y13Th3MgCd3Co4
_chemical_formula_sum   'Y13 Th3 Mg1 Cd3 Co4'
_cell_volume   628.60548196
_cell_formula_units_Z   1
loop_
 _symmetry_equiv_pos_site_id
 _symmetry_equiv_pos_as_xyz
  1  'x, y, z'
loop_
 _atom_site_type_symbol
 _atom_site_label
 _atom_site_symmetry_multiplicity
 _atom_site_fract_x
 _atom_site_fract_y
 _atom_site_fract_z
 _atom_site_occupancy
  Y  Y0  1  0.953620  0.348793  0.348793  1
  Y  Y1  1  0.811722  0.188757  0.188757  1
  Y  Y2  1  0.187017  0.813066  0.813066  1
  Y  Y3  1  0.187017  0.813066  0.186850  1
  Y  Y4  1  0.811722  0.188757  0.810764  1
  Y  Y5  1  0.187017  0.186850  0.813066  1
  Y  Y6  1  0.811722  0.810764  0.188757  1
  Y  Y7  1  0.934118  0.564781  0.564781  1
  Y  Y8  1  0.561820  0.937209  0.937209  1
  Y  Y9  1  0.561820  0.937209  0.563761  1
  Y  Y10  1  0.934118  0.564781  0.936320  1
  Y  Y11  1  0.561820  0.563761  0.937209  1
  Y  Y12  1  0.934118  0.936320  0.564781  1
  Th  Th13  1  0.340991  0.345600  0.345600  1
  Th  Th14  1  0.340991  0.345600  0.967810  1
  Th  Th15  1  0.340991  0.967810  0.345600  1
  Mg  Mg16  1  0.266900  0.577700  0.577700  1
  Cd  Cd17  1  0.582724  0.580842  0.580842  1
  Cd  Cd18  1  0.582724  0.580842  0.255593  1
  Cd  Cd19  1  0.582724  0.255593  0.580842  1
  Co  Co20  1  0.153385  0.139151  0.139151  1
  Co  Co21  1  0.153385  0.139151  0.568313  1
  Co  Co22  1  0.153385  0.568313  0.139151  1
  Co  Co23  1  0.564141  0.145287  0.145287  1
