# generated using pymatgen
data_Yb2ZnNi6SnB2
_symmetry_space_group_name_H-M   'P 1'
_cell_length_a   5.20804400
_cell_length_b   5.20804415
_cell_length_c   6.87447900
_cell_angle_alpha   90.00000000
_cell_angle_beta   90.00000000
_cell_angle_gamma   120.00001177
_symmetry_Int_Tables_number   1
_chemical_formula_structural   Yb2ZnNi6SnB2
_chemical_formula_sum   'Yb2 Zn1 Ni6 Sn1 B2'
_cell_volume   161.48034605
_cell_formula_units_Z   1
loop_
 _symmetry_equiv_pos_site_id
 _symmetry_equiv_pos_as_xyz
  1  'x, y, z'
loop_
 _atom_site_type_symbol
 _atom_site_label
 _atom_site_symmetry_multiplicity
 _atom_site_fract_x
 _atom_site_fract_y
 _atom_site_fract_z
 _atom_site_occupancy
  Yb  Yb0  1  0.000000  0.000000  0.000000  1
  Yb  Yb1  1  0.000000  0.000000  0.500000  1
  Zn  Zn2  1  0.333333  0.666667  0.500000  1
  Ni  Ni3  1  0.498423  0.501577  0.807689  1
  Ni  Ni4  1  0.498423  0.996846  0.807689  1
  Ni  Ni5  1  0.003154  0.501577  0.807689  1
  Ni  Ni6  1  0.498423  0.501577  0.192311  1
  Ni  Ni7  1  0.498423  0.996846  0.192311  1
  Ni  Ni8  1  0.003154  0.501577  0.192311  1
  Sn  Sn9  1  0.666667  0.333333  0.500000  1
  B  B10  1  0.666667  0.333333  0.000000  1
  B  B11  1  0.333333  0.666667  0.000000  1
