# generated using pymatgen
data_La(Yb5Sb4)3
_symmetry_space_group_name_H-M   'P 1'
_cell_length_a   9.43079035
_cell_length_b   9.43079059
_cell_length_c   9.43079000
_cell_angle_alpha   89.73833790
_cell_angle_beta   89.73833789
_cell_angle_gamma   90.26165517
_symmetry_Int_Tables_number   1
_chemical_formula_structural   La(Yb5Sb4)3
_chemical_formula_sum   'La1 Yb15 Sb12'
_cell_volume   838.74633961
_cell_formula_units_Z   1
loop_
 _symmetry_equiv_pos_site_id
 _symmetry_equiv_pos_as_xyz
  1  'x, y, z'
loop_
 _atom_site_type_symbol
 _atom_site_label
 _atom_site_symmetry_multiplicity
 _atom_site_fract_x
 _atom_site_fract_y
 _atom_site_fract_z
 _atom_site_occupancy
  La  La0  1  0.074888  0.574888  0.925112  1
  Yb  Yb1  1  0.821455  0.321455  0.178545  1
  Yb  Yb2  1  0.923566  0.931508  0.926459  1
  Yb  Yb3  1  0.824231  0.674878  0.325327  1
  Yb  Yb4  1  0.175162  0.825838  0.325677  1
  Yb  Yb5  1  0.174878  0.174673  0.175769  1
  Yb  Yb6  1  0.328498  0.828498  0.671502  1
  Yb  Yb7  1  0.073541  0.423566  0.568492  1
  Yb  Yb8  1  0.325838  0.174323  0.824838  1
  Yb  Yb9  1  0.674673  0.324231  0.825122  1
  Yb  Yb10  1  0.674323  0.675162  0.674162  1
  Yb  Yb11  1  0.574464  0.074464  0.425536  1
  Yb  Yb12  1  0.431508  0.573541  0.076434  1
  Yb  Yb13  1  0.923739  0.073893  0.573888  1
  Yb  Yb14  1  0.426112  0.423739  0.426107  1
  Yb  Yb15  1  0.573893  0.926112  0.076261  1
  Sb  Sb16  1  0.748832  0.375008  0.501083  1
  Sb  Sb17  1  0.875008  0.998917  0.251168  1
  Sb  Sb18  1  0.000676  0.750111  0.625738  1
  Sb  Sb19  1  0.248869  0.125978  0.500638  1
  Sb  Sb20  1  0.126530  0.500729  0.250041  1
  Sb  Sb21  1  0.000729  0.249959  0.873470  1
  Sb  Sb22  1  0.250111  0.874262  0.999324  1
  Sb  Sb23  1  0.374262  0.500676  0.749889  1
  Sb  Sb24  1  0.498917  0.248832  0.124992  1
  Sb  Sb25  1  0.749959  0.626530  0.999271  1
  Sb  Sb26  1  0.625978  0.999362  0.751131  1
  Sb  Sb27  1  0.499362  0.748869  0.374022  1
