# generated using pymatgen
data_Dy15Er(HgRh)4
_symmetry_space_group_name_H-M   'P 1'
_cell_length_a   9.59167953
_cell_length_b   9.59140828
_cell_length_c   9.59140761
_cell_angle_alpha   59.96073497
_cell_angle_beta   59.99905665
_cell_angle_gamma   59.99906171
_symmetry_Int_Tables_number   1
_chemical_formula_structural   Dy15Er(HgRh)4
_chemical_formula_sum   'Dy15 Er1 Hg4 Rh4'
_cell_volume   623.74801336
_cell_formula_units_Z   1
loop_
 _symmetry_equiv_pos_site_id
 _symmetry_equiv_pos_as_xyz
  1  'x, y, z'
loop_
 _atom_site_type_symbol
 _atom_site_label
 _atom_site_symmetry_multiplicity
 _atom_site_fract_x
 _atom_site_fract_y
 _atom_site_fract_z
 _atom_site_occupancy
  Dy  Dy0  1  0.689182  0.689462  0.310897  1
  Dy  Dy1  1  0.310459  0.689462  0.310897  1
  Dy  Dy2  1  0.936482  0.937191  0.562694  1
  Dy  Dy3  1  0.148952  0.148207  0.553890  1
  Dy  Dy4  1  0.563632  0.937191  0.562694  1
  Dy  Dy5  1  0.149101  0.148808  0.148808  1
  Dy  Dy6  1  0.310459  0.310897  0.689462  1
  Dy  Dy7  1  0.936770  0.563230  0.563230  1
  Dy  Dy8  1  0.563632  0.562694  0.937191  1
  Dy  Dy9  1  0.563243  0.936757  0.936757  1
  Dy  Dy10  1  0.936482  0.562694  0.937191  1
  Dy  Dy11  1  0.148952  0.553890  0.148207  1
  Dy  Dy12  1  0.310489  0.689511  0.689511  1
  Dy  Dy13  1  0.689182  0.310897  0.689462  1
  Dy  Dy14  1  0.553283  0.148808  0.148808  1
  Er  Er15  1  0.689336  0.310664  0.310664  1
  Hg  Hg16  1  0.914780  0.915025  0.255413  1
  Hg  Hg17  1  0.254820  0.915090  0.915090  1
  Hg  Hg18  1  0.914780  0.255413  0.915025  1
  Hg  Hg19  1  0.914999  0.915090  0.915090  1
  Rh  Rh20  1  0.358508  0.357056  0.357056  1
  Rh  Rh21  1  0.927381  0.357056  0.357056  1
  Rh  Rh22  1  0.357549  0.356887  0.928018  1
  Rh  Rh23  1  0.357549  0.928018  0.356887  1
