# generated using pymatgen
data_Sc3Al5Pt
_symmetry_space_group_name_H-M   'P 1'
_cell_length_a   6.80051200
_cell_length_b   6.80051187
_cell_length_c   4.15313900
_cell_angle_alpha   90.00000000
_cell_angle_beta   90.00000000
_cell_angle_gamma   120.00000064
_symmetry_Int_Tables_number   1
_chemical_formula_structural   Sc3Al5Pt
_chemical_formula_sum   'Sc3 Al5 Pt1'
_cell_volume   166.33755358
_cell_formula_units_Z   1
loop_
 _symmetry_equiv_pos_site_id
 _symmetry_equiv_pos_as_xyz
  1  'x, y, z'
loop_
 _atom_site_type_symbol
 _atom_site_label
 _atom_site_symmetry_multiplicity
 _atom_site_fract_x
 _atom_site_fract_y
 _atom_site_fract_z
 _atom_site_occupancy
  Sc  Sc0  1  0.416638  0.000000  0.000000  1
  Sc  Sc1  1  0.000000  0.416639  0.000000  1
  Sc  Sc2  1  0.583363  0.583362  0.000000  1
  Al  Al3  1  0.760970  0.000000  0.500000  1
  Al  Al4  1  0.239030  0.239029  0.500000  1
  Al  Al5  1  0.000000  0.760970  0.500000  1
  Al  Al6  1  0.666667  0.333333  0.500000  1
  Al  Al7  1  0.333333  0.666666  0.500000  1
  Pt  Pt8  1  0.000000  0.000000  0.000000  1
