# generated using pymatgen
data_Rb2PaNbBr12
_symmetry_space_group_name_H-M   'P 1'
_cell_length_a   11.10808967
_cell_length_b   7.89977186
_cell_length_c   7.87930414
_cell_angle_alpha   90.00283969
_cell_angle_beta   89.44391486
_cell_angle_gamma   89.95919113
_symmetry_Int_Tables_number   1
_chemical_formula_structural   Rb2PaNbBr12
_chemical_formula_sum   'Rb2 Pa1 Nb1 Br12'
_cell_volume   691.38702516
_cell_formula_units_Z   1
loop_
 _symmetry_equiv_pos_site_id
 _symmetry_equiv_pos_as_xyz
  1  'x, y, z'
loop_
 _atom_site_type_symbol
 _atom_site_label
 _atom_site_symmetry_multiplicity
 _atom_site_fract_x
 _atom_site_fract_y
 _atom_site_fract_z
 _atom_site_occupancy
  Rb  Rb0  1  0.725126  0.255782  0.292880  1
  Rb  Rb1  1  0.233148  0.744868  0.704144  1
  Pa  Pa2  1  0.993710  0.248902  0.756691  1
  Nb  Nb3  1  0.494132  0.751289  0.241070  1
  Br  Br4  1  0.490711  0.977608  0.476202  1
  Br  Br5  1  0.748168  0.246388  0.764039  1
  Br  Br6  1  0.998301  0.004460  0.998306  1
  Br  Br7  1  0.996308  0.495389  0.996543  1
  Br  Br8  1  0.498538  0.980351  0.017801  1
  Br  Br9  1  0.722510  0.747928  0.250768  1
  Br  Br10  1  0.264691  0.753009  0.238580  1
  Br  Br11  1  0.488026  0.525457  0.477893  1
  Br  Br12  1  0.991555  0.006590  0.509281  1
  Br  Br13  1  0.988457  0.490422  0.507784  1
  Br  Br14  1  0.238960  0.251565  0.748481  1
  Br  Br15  1  0.496568  0.519991  0.019539  1
