# generated using pymatgen
data_Ta3CoNi19B6
_symmetry_space_group_name_H-M   'P 1'
_cell_length_a   7.47351315
_cell_length_b   7.47351330
_cell_length_c   7.48111393
_cell_angle_alpha   60.03359799
_cell_angle_beta   60.03359791
_cell_angle_gamma   60.00000069
_symmetry_Int_Tables_number   1
_chemical_formula_structural   Ta3CoNi19B6
_chemical_formula_sum   'Ta3 Co1 Ni19 B6'
_cell_volume   295.61144894
_cell_formula_units_Z   1
loop_
 _symmetry_equiv_pos_site_id
 _symmetry_equiv_pos_as_xyz
  1  'x, y, z'
loop_
 _atom_site_type_symbol
 _atom_site_label
 _atom_site_symmetry_multiplicity
 _atom_site_fract_x
 _atom_site_fract_y
 _atom_site_fract_z
 _atom_site_occupancy
  Ta  Ta0  1  0.999870  0.999870  0.000391  1
  Ta  Ta1  1  0.747768  0.747768  0.756695  1
  Ta  Ta2  1  0.249909  0.249909  0.250272  1
  Co  Co3  1  0.616530  0.616530  0.150411  1
  Ni  Ni4  1  0.615488  0.153770  0.615253  1
  Ni  Ni5  1  0.153770  0.615488  0.615253  1
  Ni  Ni6  1  0.615488  0.615488  0.615253  1
  Ni  Ni7  1  0.384418  0.384418  0.846745  1
  Ni  Ni8  1  0.384426  0.846953  0.384196  1
  Ni  Ni9  1  0.846953  0.384426  0.384196  1
  Ni  Ni10  1  0.384426  0.384426  0.384196  1
  Ni  Ni11  1  0.999817  0.999817  0.342877  1
  Ni  Ni12  1  0.657489  0.999817  0.342877  1
  Ni  Ni13  1  0.999817  0.657489  0.342877  1
  Ni  Ni14  1  0.656679  0.342334  0.000160  1
  Ni  Ni15  1  0.000826  0.342334  0.000160  1
  Ni  Ni16  1  0.000146  0.343244  0.656465  1
  Ni  Ni17  1  0.342334  0.656679  0.000160  1
  Ni  Ni18  1  0.343244  0.000146  0.656465  1
  Ni  Ni19  1  0.342334  0.000826  0.000160  1
  Ni  Ni20  1  0.000146  0.000146  0.656465  1
  Ni  Ni21  1  0.000826  0.656679  0.000160  1
  Ni  Ni22  1  0.656679  0.000826  0.000160  1
  B  B23  1  0.730634  0.730634  0.267327  1
  B  B24  1  0.271405  0.730634  0.267327  1
  B  B25  1  0.730634  0.271405  0.267327  1
  B  B26  1  0.267838  0.267838  0.732058  1
  B  B27  1  0.732266  0.267838  0.732058  1
  B  B28  1  0.267838  0.732266  0.732058  1
