# generated using pymatgen
data_Nd6TaTi(Co4P3)4
_symmetry_space_group_name_H-M   'P 1'
_cell_length_a   3.76548600
_cell_length_b   10.76313600
_cell_length_c   12.50140000
_cell_angle_alpha   90.00000000
_cell_angle_beta   90.00000000
_cell_angle_gamma   90.00000000
_symmetry_Int_Tables_number   1
_chemical_formula_structural   Nd6TaTi(Co4P3)4
_chemical_formula_sum   'Nd6 Ta1 Ti1 Co16 P12'
_cell_volume   506.66221386
_cell_formula_units_Z   1
loop_
 _symmetry_equiv_pos_site_id
 _symmetry_equiv_pos_as_xyz
  1  'x, y, z'
loop_
 _atom_site_type_symbol
 _atom_site_label
 _atom_site_symmetry_multiplicity
 _atom_site_fract_x
 _atom_site_fract_y
 _atom_site_fract_z
 _atom_site_occupancy
  Nd  Nd0  1  0.000000  0.500000  0.526260  1
  Nd  Nd1  1  0.500000  0.000000  0.475552  1
  Nd  Nd2  1  0.500000  0.820257  0.205387  1
  Nd  Nd3  1  0.500000  0.179743  0.205387  1
  Nd  Nd4  1  0.000000  0.680593  0.794619  1
  Nd  Nd5  1  0.000000  0.319407  0.794619  1
  Ta  Ta6  1  0.500000  0.500000  0.154043  1
  Ti  Ti7  1  0.000000  0.000000  0.848167  1
  Co  Co8  1  0.500000  0.500000  0.704077  1
  Co  Co9  1  0.000000  0.000000  0.295337  1
  Co  Co10  1  0.000000  0.500000  0.988050  1
  Co  Co11  1  0.500000  0.000000  0.011425  1
  Co  Co12  1  0.500000  0.332410  0.993424  1
  Co  Co13  1  0.500000  0.667590  0.993424  1
  Co  Co14  1  0.000000  0.167499  0.004641  1
  Co  Co15  1  0.000000  0.832501  0.004641  1
  Co  Co16  1  0.500000  0.295753  0.431772  1
  Co  Co17  1  0.500000  0.704247  0.431772  1
  Co  Co18  1  0.000000  0.203822  0.568250  1
  Co  Co19  1  0.000000  0.796178  0.568250  1
  Co  Co20  1  0.500000  0.880444  0.707072  1
  Co  Co21  1  0.500000  0.119556  0.707072  1
  Co  Co22  1  0.000000  0.619804  0.293603  1
  Co  Co23  1  0.000000  0.380196  0.293603  1
  P  P24  1  0.500000  0.500000  0.885966  1
  P  P25  1  0.000000  0.000000  0.112400  1
  P  P26  1  0.500000  0.500000  0.352077  1
  P  P27  1  0.000000  0.000000  0.651303  1
  P  P28  1  0.500000  0.306021  0.614319  1
  P  P29  1  0.500000  0.693979  0.614319  1
  P  P30  1  0.000000  0.192972  0.386045  1
  P  P31  1  0.000000  0.807028  0.386045  1
  P  P32  1  0.500000  0.845065  0.894368  1
  P  P33  1  0.500000  0.154935  0.894368  1
  P  P34  1  0.000000  0.657589  0.104171  1
  P  P35  1  0.000000  0.342411  0.104171  1
