# generated using pymatgen
data_Gd2CrRhO6
_symmetry_space_group_name_H-M   'P 1'
_cell_length_a   5.41136600
_cell_length_b   5.70048334
_cell_length_c   7.78941740
_cell_angle_alpha   90.85940168
_cell_angle_beta   90.00000000
_cell_angle_gamma   90.00000000
_symmetry_Int_Tables_number   1
_chemical_formula_structural   Gd2CrRhO6
_chemical_formula_sum   'Gd4 Cr2 Rh2 O12'
_cell_volume   240.25625834
_cell_formula_units_Z   2
loop_
 _symmetry_equiv_pos_site_id
 _symmetry_equiv_pos_as_xyz
  1  'x, y, z'
loop_
 _atom_site_type_symbol
 _atom_site_label
 _atom_site_symmetry_multiplicity
 _atom_site_fract_x
 _atom_site_fract_y
 _atom_site_fract_z
 _atom_site_occupancy
  Gd  Gd0  1  0.019069  0.932692  0.750876  1
  Gd  Gd1  1  0.519069  0.567308  0.249124  1
  Gd  Gd2  1  0.480931  0.432692  0.750876  1
  Gd  Gd3  1  0.980931  0.067308  0.249124  1
  Cr  Cr4  1  0.500000  0.000000  0.000000  1
  Cr  Cr5  1  0.000000  0.500000  0.000000  1
  Rh  Rh6  1  0.000000  0.500000  0.500000  1
  Rh  Rh7  1  0.500000  0.000000  0.500000  1
  O  O8  1  0.686921  0.304526  0.438150  1
  O  O9  1  0.186921  0.195474  0.561850  1
  O  O10  1  0.803718  0.800799  0.054659  1
  O  O11  1  0.303718  0.699201  0.945341  1
  O  O12  1  0.313079  0.695474  0.561850  1
  O  O13  1  0.813079  0.804526  0.438150  1
  O  O14  1  0.196282  0.199201  0.945341  1
  O  O15  1  0.696282  0.300799  0.054659  1
  O  O16  1  0.112027  0.460367  0.245686  1
  O  O17  1  0.612027  0.039633  0.754314  1
  O  O18  1  0.387973  0.960367  0.245686  1
  O  O19  1  0.887973  0.539633  0.754314  1
