# generated using pymatgen
data_SmTm(ReN3)2
_symmetry_space_group_name_H-M   'P 1'
_cell_length_a   7.35891954
_cell_length_b   7.36177267
_cell_length_c   6.25561074
_cell_angle_alpha   73.85333506
_cell_angle_beta   73.85146061
_cell_angle_gamma   83.09696810
_symmetry_Int_Tables_number   1
_chemical_formula_structural   SmTm(ReN3)2
_chemical_formula_sum   'Sm2 Tm2 Re4 N12'
_cell_volume   312.34603588
_cell_formula_units_Z   2
loop_
 _symmetry_equiv_pos_site_id
 _symmetry_equiv_pos_as_xyz
  1  'x, y, z'
loop_
 _atom_site_type_symbol
 _atom_site_label
 _atom_site_symmetry_multiplicity
 _atom_site_fract_x
 _atom_site_fract_y
 _atom_site_fract_z
 _atom_site_occupancy
  Sm  Sm0  1  0.706669  0.293545  0.250000  1
  Sm  Sm1  1  0.293331  0.706455  0.750000  1
  Tm  Tm2  1  0.907303  0.092729  0.750024  1
  Tm  Tm3  1  0.092697  0.907271  0.249976  1
  Re  Re4  1  0.622927  0.797787  0.271160  1
  Re  Re5  1  0.202389  0.376918  0.228831  1
  Re  Re6  1  0.377073  0.202213  0.728840  1
  Re  Re7  1  0.797611  0.623082  0.771169  1
  N  N8  1  0.661909  0.641122  0.069054  1
  N  N9  1  0.374018  0.872781  0.332728  1
  N  N10  1  0.359173  0.337897  0.431004  1
  N  N11  1  0.127482  0.625747  0.167312  1
  N  N12  1  0.007658  0.212967  0.346262  1
  N  N13  1  0.787020  0.992465  0.153789  1
  N  N14  1  0.212980  0.007535  0.846211  1
  N  N15  1  0.625982  0.127219  0.667272  1
  N  N16  1  0.338091  0.358878  0.930946  1
  N  N17  1  0.872518  0.374253  0.832688  1
  N  N18  1  0.640827  0.662103  0.568996  1
  N  N19  1  0.992342  0.787033  0.653738  1
