# generated using pymatgen
data_Tb2Er4ZnGa17Pd4
_symmetry_space_group_name_H-M   'P 1'
_cell_length_a   8.13138822
_cell_length_b   8.13138932
_cell_length_c   15.69974750
_cell_angle_alpha   74.55995161
_cell_angle_beta   74.55994873
_cell_angle_gamma   30.77381905
_symmetry_Int_Tables_number   1
_chemical_formula_structural   Tb2Er4ZnGa17Pd4
_chemical_formula_sum   'Tb2 Er4 Zn1 Ga17 Pd4'
_cell_volume   510.47378440
_cell_formula_units_Z   1
loop_
 _symmetry_equiv_pos_site_id
 _symmetry_equiv_pos_as_xyz
  1  'x, y, z'
loop_
 _atom_site_type_symbol
 _atom_site_label
 _atom_site_symmetry_multiplicity
 _atom_site_fract_x
 _atom_site_fract_y
 _atom_site_fract_z
 _atom_site_occupancy
  Tb  Tb0  1  0.749948  0.749948  0.750615  1
  Tb  Tb1  1  0.250052  0.250052  0.249385  1
  Er  Er2  1  0.600109  0.600109  0.600985  1
  Er  Er3  1  0.098839  0.098839  0.099591  1
  Er  Er4  1  0.901161  0.901161  0.900409  1
  Er  Er5  1  0.399891  0.399891  0.399015  1
  Zn  Zn6  1  0.500000  0.500000  0.000000  1
  Ga  Ga7  1  0.821459  0.821459  0.538417  1
  Ga  Ga8  1  0.324525  0.324525  0.038958  1
  Ga  Ga9  1  0.675475  0.675475  0.961042  1
  Ga  Ga10  1  0.178541  0.178541  0.461583  1
  Ga  Ga11  1  0.539433  0.539433  0.824916  1
  Ga  Ga12  1  0.038859  0.038859  0.321200  1
  Ga  Ga13  1  0.961141  0.961141  0.678800  1
  Ga  Ga14  1  0.460567  0.460567  0.175084  1
  Ga  Ga15  1  0.262193  0.262193  0.895956  1
  Ga  Ga16  1  0.760943  0.760943  0.394484  1
  Ga  Ga17  1  0.239057  0.239057  0.605516  1
  Ga  Ga18  1  0.737807  0.737807  0.104044  1
  Ga  Ga19  1  0.395359  0.395359  0.761840  1
  Ga  Ga20  1  0.894769  0.894769  0.261634  1
  Ga  Ga21  1  0.105231  0.105231  0.738366  1
  Ga  Ga22  1  0.604641  0.604641  0.238160  1
  Ga  Ga23  1  0.000000  0.000000  0.500000  1
  Pd  Pd24  1  0.093745  0.093745  0.906057  1
  Pd  Pd25  1  0.590141  0.590141  0.409157  1
  Pd  Pd26  1  0.409859  0.409859  0.590843  1
  Pd  Pd27  1  0.906255  0.906255  0.093943  1
