# generated using pymatgen
data_Dy7Ho3(In2Ir)4
_symmetry_space_group_name_H-M   'P 1'
_cell_length_a   3.65603900
_cell_length_b   8.02366339
_cell_length_c   18.28819575
_cell_angle_alpha   89.99270607
_cell_angle_beta   90.00000000
_cell_angle_gamma   90.00000000
_symmetry_Int_Tables_number   1
_chemical_formula_structural   Dy7Ho3(In2Ir)4
_chemical_formula_sum   'Dy7 Ho3 In8 Ir4'
_cell_volume   536.48104059
_cell_formula_units_Z   1
loop_
 _symmetry_equiv_pos_site_id
 _symmetry_equiv_pos_as_xyz
  1  'x, y, z'
loop_
 _atom_site_type_symbol
 _atom_site_label
 _atom_site_symmetry_multiplicity
 _atom_site_fract_x
 _atom_site_fract_y
 _atom_site_fract_z
 _atom_site_occupancy
  Dy  Dy0  1  0.500000  0.754560  0.721524  1
  Dy  Dy1  1  0.500000  0.254364  0.778571  1
  Dy  Dy2  1  0.500000  0.500103  0.999932  1
  Dy  Dy3  1  0.500000  0.745944  0.221461  1
  Dy  Dy4  1  0.500000  0.245779  0.278281  1
  Dy  Dy5  1  0.500000  0.999598  0.500261  1
  Dy  Dy6  1  0.500000  0.616813  0.411204  1
  Ho  Ho7  1  0.500000  0.382991  0.589105  1
  Ho  Ho8  1  0.500000  0.882610  0.910909  1
  Ho  Ho9  1  0.500000  0.117531  0.088899  1
  In  In10  1  0.000000  0.794754  0.067840  1
  In  In11  1  0.000000  0.928571  0.349651  1
  In  In12  1  0.000000  0.072905  0.650529  1
  In  In13  1  0.000000  0.571739  0.849580  1
  In  In14  1  0.000000  0.705798  0.568204  1
  In  In15  1  0.000000  0.205506  0.932031  1
  In  In16  1  0.000000  0.292775  0.432116  1
  In  In17  1  0.000000  0.428156  0.150196  1
  Ir  Ir18  1  0.000000  0.977693  0.804692  1
  Ir  Ir19  1  0.000000  0.521785  0.304382  1
  Ir  Ir20  1  0.000000  0.477490  0.695413  1
  Ir  Ir21  1  0.000000  0.022536  0.195220  1
