# generated using pymatgen
data_YSc2Pa(ReB6)2
_symmetry_space_group_name_H-M   'P 1'
_cell_length_a   3.62021800
_cell_length_b   9.00068854
_cell_length_c   11.38173451
_cell_angle_alpha   90.16908069
_cell_angle_beta   90.00000000
_cell_angle_gamma   90.00000000
_symmetry_Int_Tables_number   1
_chemical_formula_structural   YSc2Pa(ReB6)2
_chemical_formula_sum   'Y2 Sc4 Pa2 Re4 B24'
_cell_volume   370.86599717
_cell_formula_units_Z   2
loop_
 _symmetry_equiv_pos_site_id
 _symmetry_equiv_pos_as_xyz
  1  'x, y, z'
loop_
 _atom_site_type_symbol
 _atom_site_label
 _atom_site_symmetry_multiplicity
 _atom_site_fract_x
 _atom_site_fract_y
 _atom_site_fract_z
 _atom_site_occupancy
  Y  Y0  1  0.000000  0.821504  0.085628  1
  Y  Y1  1  0.000000  0.178496  0.914372  1
  Sc  Sc2  1  0.000000  0.945876  0.372852  1
  Sc  Sc3  1  0.000000  0.054124  0.627148  1
  Sc  Sc4  1  0.000000  0.444559  0.125853  1
  Sc  Sc5  1  0.000000  0.555441  0.874147  1
  Pa  Pa6  1  0.000000  0.319776  0.413908  1
  Pa  Pa7  1  0.000000  0.680224  0.586092  1
  Re  Re8  1  0.000000  0.637585  0.321551  1
  Re  Re9  1  0.000000  0.362415  0.678449  1
  Re  Re10  1  0.000000  0.142666  0.183634  1
  Re  Re11  1  0.000000  0.857334  0.816366  1
  B  B12  1  0.500000  0.554816  0.432550  1
  B  B13  1  0.500000  0.445184  0.567450  1
  B  B14  1  0.500000  0.054538  0.067541  1
  B  B15  1  0.500000  0.945462  0.932459  1
  B  B16  1  0.500000  0.753468  0.418444  1
  B  B17  1  0.500000  0.246532  0.581556  1
  B  B18  1  0.500000  0.252902  0.080899  1
  B  B19  1  0.500000  0.747098  0.919101  1
  B  B20  1  0.500000  0.793980  0.264360  1
  B  B21  1  0.500000  0.206020  0.735640  1
  B  B22  1  0.500000  0.294269  0.234516  1
  B  B23  1  0.500000  0.705731  0.765484  1
  B  B24  1  0.500000  0.629233  0.182836  1
  B  B25  1  0.500000  0.370767  0.817164  1
  B  B26  1  0.500000  0.129377  0.316589  1
  B  B27  1  0.500000  0.870623  0.683411  1
  B  B28  1  0.500000  0.981227  0.213609  1
  B  B29  1  0.500000  0.018773  0.786391  1
  B  B30  1  0.500000  0.481913  0.284960  1
  B  B31  1  0.500000  0.518087  0.715040  1
  B  B32  1  0.500000  0.597660  0.026709  1
  B  B33  1  0.500000  0.402340  0.973291  1
  B  B34  1  0.500000  0.100383  0.472710  1
  B  B35  1  0.500000  0.899617  0.527290  1
