# generated using pymatgen
data_Tb3Th2AgSn3
_symmetry_space_group_name_H-M   'P 1'
_cell_length_a   6.51365400
_cell_length_b   9.44079052
_cell_length_c   9.44079000
_cell_angle_alpha   120.00000517
_cell_angle_beta   90.00000000
_cell_angle_gamma   90.00000000
_symmetry_Int_Tables_number   1
_chemical_formula_structural   Tb3Th2AgSn3
_chemical_formula_sum   'Tb6 Th4 Ag2 Sn6'
_cell_volume   502.77305355
_cell_formula_units_Z   2
loop_
 _symmetry_equiv_pos_site_id
 _symmetry_equiv_pos_as_xyz
  1  'x, y, z'
loop_
 _atom_site_type_symbol
 _atom_site_label
 _atom_site_symmetry_multiplicity
 _atom_site_fract_x
 _atom_site_fract_y
 _atom_site_fract_z
 _atom_site_occupancy
  Tb  Tb0  1  0.750000  0.722103  0.722103  1
  Tb  Tb1  1  0.250000  0.277897  0.277897  1
  Tb  Tb2  1  0.750000  0.000000  0.277897  1
  Tb  Tb3  1  0.250000  0.000000  0.722103  1
  Tb  Tb4  1  0.750000  0.277897  0.000000  1
  Tb  Tb5  1  0.250000  0.722103  0.000000  1
  Th  Th6  1  0.000000  0.666667  0.333333  1
  Th  Th7  1  0.000000  0.333333  0.666667  1
  Th  Th8  1  0.500000  0.333333  0.666667  1
  Th  Th9  1  0.500000  0.666667  0.333333  1
  Ag  Ag10  1  0.000000  0.000000  0.000000  1
  Ag  Ag11  1  0.500000  0.000000  0.000000  1
  Sn  Sn12  1  0.750000  0.372422  0.372422  1
  Sn  Sn13  1  0.250000  0.627578  0.627578  1
  Sn  Sn14  1  0.750000  0.000000  0.627578  1
  Sn  Sn15  1  0.250000  0.000000  0.372422  1
  Sn  Sn16  1  0.750000  0.627578  0.000000  1
  Sn  Sn17  1  0.250000  0.372422  0.000000  1
