# generated using pymatgen
data_NaV(ReO4)4
_symmetry_space_group_name_H-M   'P 1'
_cell_length_a   5.71942478
_cell_length_b   9.86594461
_cell_length_c   6.55045800
_cell_angle_alpha   89.97601531
_cell_angle_beta   89.97004692
_cell_angle_gamma   90.02231122
_symmetry_Int_Tables_number   1
_chemical_formula_structural   NaV(ReO4)4
_chemical_formula_sum   'Na1 V1 Re4 O16'
_cell_volume   369.62604201
_cell_formula_units_Z   1
loop_
 _symmetry_equiv_pos_site_id
 _symmetry_equiv_pos_as_xyz
  1  'x, y, z'
loop_
 _atom_site_type_symbol
 _atom_site_label
 _atom_site_symmetry_multiplicity
 _atom_site_fract_x
 _atom_site_fract_y
 _atom_site_fract_z
 _atom_site_occupancy
  Na  Na0  1  0.999987  0.999996  0.999995  1
  V  V1  1  0.499991  0.500003  0.000003  1
  Re  Re2  1  0.999068  0.345677  0.289828  1
  Re  Re3  1  0.500740  0.820394  0.303328  1
  Re  Re4  1  0.499264  0.179613  0.696678  1
  Re  Re5  1  0.000925  0.654324  0.710167  1
  O  O6  1  0.500767  0.203778  0.433633  1
  O  O7  1  0.999515  0.642701  0.445217  1
  O  O8  1  0.000488  0.357291  0.554787  1
  O  O9  1  0.499243  0.796216  0.566363  1
  O  O10  1  0.737424  0.081296  0.766187  1
  O  O11  1  0.249566  0.574190  0.815141  1
  O  O12  1  0.991462  0.176722  0.223705  1
  O  O13  1  0.488837  0.661631  0.171609  1
  O  O14  1  0.253725  0.418014  0.182582  1
  O  O15  1  0.752572  0.906626  0.233977  1
  O  O16  1  0.750435  0.425811  0.184858  1
  O  O17  1  0.262578  0.918706  0.233827  1
  O  O18  1  0.511160  0.338375  0.828381  1
  O  O19  1  0.008542  0.823280  0.776287  1
  O  O20  1  0.247430  0.093373  0.766028  1
  O  O21  1  0.746282  0.581986  0.817422  1
