# generated using pymatgen
data_TbNdTh2(Sn5Rh3)2
_symmetry_space_group_name_H-M   'P 1'
_cell_length_a   13.58900497
_cell_length_b   13.58900528
_cell_length_c   7.31121842
_cell_angle_alpha   89.47946307
_cell_angle_beta   90.52053776
_cell_angle_gamma   160.91639090
_symmetry_Int_Tables_number   1
_chemical_formula_structural   TbNdTh2(Sn5Rh3)2
_chemical_formula_sum   'Tb1 Nd1 Th2 Sn10 Rh6'
_cell_volume   441.39230035
_cell_formula_units_Z   1
loop_
 _symmetry_equiv_pos_site_id
 _symmetry_equiv_pos_as_xyz
  1  'x, y, z'
loop_
 _atom_site_type_symbol
 _atom_site_label
 _atom_site_symmetry_multiplicity
 _atom_site_fract_x
 _atom_site_fract_y
 _atom_site_fract_z
 _atom_site_occupancy
  Tb  Tb0  1  0.525714  0.474286  0.236396  1
  Nd  Nd1  1  0.172162  0.827838  0.754510  1
  Th  Th2  1  0.828102  0.171898  0.258504  1
  Th  Th3  1  0.475288  0.524712  0.734443  1
  Sn  Sn4  1  0.877852  0.122148  0.731308  1
  Sn  Sn5  1  0.120608  0.879392  0.234718  1
  Sn  Sn6  1  0.704002  0.295998  0.051374  1
  Sn  Sn7  1  0.294784  0.705216  0.552392  1
  Sn  Sn8  1  0.596503  0.403497  0.609807  1
  Sn  Sn9  1  0.404301  0.595699  0.111960  1
  Sn  Sn10  1  0.953389  0.046611  0.390613  1
  Sn  Sn11  1  0.049142  0.950858  0.902580  1
  Sn  Sn12  1  0.289483  0.710517  0.975863  1
  Sn  Sn13  1  0.709343  0.290657  0.477182  1
  Rh  Rh14  1  0.049734  0.950266  0.518443  1
  Rh  Rh15  1  0.948895  0.051105  0.010347  1
  Rh  Rh16  1  0.776728  0.223272  0.767400  1
  Rh  Rh17  1  0.223550  0.776450  0.267360  1
  Rh  Rh18  1  0.395689  0.604311  0.485992  1
  Rh  Rh19  1  0.604727  0.395273  0.984806  1
