# generated using pymatgen
data_Tb3In3Ag2Pd
_symmetry_space_group_name_H-M   'P 1'
_cell_length_a   8.01437500
_cell_length_b   8.01437495
_cell_length_c   3.76397600
_cell_angle_alpha   90.00000000
_cell_angle_beta   90.00000000
_cell_angle_gamma   120.00000433
_symmetry_Int_Tables_number   1
_chemical_formula_structural   Tb3In3Ag2Pd
_chemical_formula_sum   'Tb3 In3 Ag2 Pd1'
_cell_volume   209.37111935
_cell_formula_units_Z   1
loop_
 _symmetry_equiv_pos_site_id
 _symmetry_equiv_pos_as_xyz
  1  'x, y, z'
loop_
 _atom_site_type_symbol
 _atom_site_label
 _atom_site_symmetry_multiplicity
 _atom_site_fract_x
 _atom_site_fract_y
 _atom_site_fract_z
 _atom_site_occupancy
  Tb  Tb0  1  0.588764  0.982451  0.500000  1
  Tb  Tb1  1  0.393688  0.411236  0.500000  1
  Tb  Tb2  1  0.017549  0.606312  0.500000  1
  In  In3  1  0.731983  0.727458  0.000000  1
  In  In4  1  0.272542  0.004526  0.000000  1
  In  In5  1  0.995474  0.268017  0.000000  1
  Ag  Ag6  1  0.000000  0.000000  0.500000  1
  Ag  Ag7  1  0.666667  0.333333  0.000000  1
  Pd  Pd8  1  0.333333  0.666667  0.000000  1
