# generated using pymatgen
data_SmSn6Ru3Rh
_symmetry_space_group_name_H-M   'P 1'
_cell_length_a   6.96397937
_cell_length_b   6.96397999
_cell_length_c   6.97105654
_cell_angle_alpha   120.18913511
_cell_angle_beta   120.18913493
_cell_angle_gamma   89.65649016
_symmetry_Int_Tables_number   1
_chemical_formula_structural   SmSn6Ru3Rh
_chemical_formula_sum   'Sm1 Sn6 Ru3 Rh1'
_cell_volume   238.40134790
_cell_formula_units_Z   1
loop_
 _symmetry_equiv_pos_site_id
 _symmetry_equiv_pos_as_xyz
  1  'x, y, z'
loop_
 _atom_site_type_symbol
 _atom_site_label
 _atom_site_symmetry_multiplicity
 _atom_site_fract_x
 _atom_site_fract_y
 _atom_site_fract_z
 _atom_site_occupancy
  Sm  Sm0  1  0.998200  0.998200  0.995889  1
  Sn  Sn1  1  0.997757  0.500300  0.501611  1
  Sn  Sn2  1  0.469639  0.469639  0.348707  1
  Sn  Sn3  1  0.530935  0.883781  0.003523  1
  Sn  Sn4  1  0.883781  0.530935  0.003523  1
  Sn  Sn5  1  0.119126  0.119126  0.651648  1
  Sn  Sn6  1  0.500300  0.997757  0.501611  1
  Ru  Ru7  1  0.751330  0.751330  0.346224  1
  Ru  Ru8  1  0.249897  0.595107  0.998861  1
  Ru  Ru9  1  0.595107  0.249897  0.998861  1
  Rh  Rh10  1  0.403929  0.403929  0.649543  1
