# generated using pymatgen
data_LiNd4Si3H
_symmetry_space_group_name_H-M   'P 1'
_cell_length_a   8.91792279
_cell_length_b   8.91792336
_cell_length_c   8.91792279
_cell_angle_alpha   129.77136719
_cell_angle_beta   129.77135976
_cell_angle_gamma   73.77253592
_symmetry_Int_Tables_number   1
_chemical_formula_structural   LiNd4Si3H
_chemical_formula_sum   'Li2 Nd8 Si6 H2'
_cell_volume   408.74401877
_cell_formula_units_Z   2
loop_
 _symmetry_equiv_pos_site_id
 _symmetry_equiv_pos_as_xyz
  1  'x, y, z'
loop_
 _atom_site_type_symbol
 _atom_site_label
 _atom_site_symmetry_multiplicity
 _atom_site_fract_x
 _atom_site_fract_y
 _atom_site_fract_z
 _atom_site_occupancy
  Li  Li0  1  0.500000  0.500000  0.000000  1
  Li  Li1  1  0.000000  0.000000  0.000000  1
  Nd  Nd2  1  0.532523  0.032523  0.850757  1
  Nd  Nd3  1  0.181768  0.681768  0.149243  1
  Nd  Nd4  1  0.032523  0.181768  0.500000  1
  Nd  Nd5  1  0.681768  0.532523  0.500000  1
  Nd  Nd6  1  0.467477  0.967477  0.149243  1
  Nd  Nd7  1  0.818232  0.318232  0.850757  1
  Nd  Nd8  1  0.967477  0.818232  0.500000  1
  Nd  Nd9  1  0.318232  0.467477  0.500000  1
  Si  Si10  1  0.250000  0.250000  0.000000  1
  Si  Si11  1  0.750000  0.750000  0.000000  1
  Si  Si12  1  0.886921  0.386921  0.273841  1
  Si  Si13  1  0.113079  0.613079  0.726159  1
  Si  Si14  1  0.386921  0.113079  0.500000  1
  Si  Si15  1  0.613079  0.886921  0.500000  1
  H  H16  1  0.250000  0.750000  0.500000  1
  H  H17  1  0.750000  0.250000  0.500000  1
