# generated using pymatgen
data_Ca12Np7Mo(WN4)12
_symmetry_space_group_name_H-M   'P 1'
_cell_length_a   11.39880722
_cell_length_b   11.39880704
_cell_length_c   11.38356900
_cell_angle_alpha   109.44414297
_cell_angle_beta   109.44414266
_cell_angle_gamma   109.49828516
_symmetry_Int_Tables_number   1
_chemical_formula_structural   Ca12Np7Mo(WN4)12
_chemical_formula_sum   'Ca12 Np7 Mo1 W12 N48'
_cell_volume   1138.99124205
_cell_formula_units_Z   1
loop_
 _symmetry_equiv_pos_site_id
 _symmetry_equiv_pos_as_xyz
  1  'x, y, z'
loop_
 _atom_site_type_symbol
 _atom_site_label
 _atom_site_symmetry_multiplicity
 _atom_site_fract_x
 _atom_site_fract_y
 _atom_site_fract_z
 _atom_site_occupancy
  Ca  Ca0  1  0.250269  0.374905  0.124730  1
  Ca  Ca1  1  0.377380  0.752811  0.123131  1
  Ca  Ca2  1  0.375431  0.122620  0.245750  1
  Ca  Ca3  1  0.874906  0.624636  0.250175  1
  Ca  Ca4  1  0.747189  0.124570  0.370319  1
  Ca  Ca5  1  0.124636  0.249731  0.374461  1
  Ca  Ca6  1  0.875364  0.750269  0.625539  1
  Ca  Ca7  1  0.252811  0.875432  0.629681  1
  Ca  Ca8  1  0.125096  0.375364  0.749825  1
  Ca  Ca9  1  0.624569  0.877380  0.754250  1
  Ca  Ca10  1  0.622620  0.247189  0.876871  1
  Ca  Ca11  1  0.749731  0.625095  0.875270  1
  Np  Np12  1  0.000000  0.000000  0.000000  1
  Np  Np13  1  0.000000  0.500001  0.000000  1
  Np  Np14  1  0.500000  0.500000  0.000000  1
  Np  Np15  1  0.000000  0.000000  0.500001  1
  Np  Np16  1  0.500000  0.000000  0.500000  1
  Np  Np17  1  0.000000  0.500000  0.500000  1
  Np  Np18  1  0.500001  0.500001  0.500001  1
  Mo  Mo19  1  0.500001  0.000000  0.000000  1
  W  W20  1  0.872216  0.247045  0.122787  1
  W  W21  1  0.747046  0.874830  0.124258  1
  W  W22  1  0.625170  0.372216  0.249428  1
  W  W23  1  0.125132  0.875014  0.249724  1
  W  W24  1  0.250118  0.625132  0.375407  1
  W  W25  1  0.624985  0.750118  0.374711  1
  W  W26  1  0.375014  0.249882  0.625289  1
  W  W27  1  0.749882  0.374868  0.624592  1
  W  W28  1  0.874868  0.124986  0.750275  1
  W  W29  1  0.374830  0.627783  0.750572  1
  W  W30  1  0.252953  0.125170  0.875742  1
  W  W31  1  0.127784  0.752954  0.877213  1
  N  N32  1  0.204049  0.117277  0.015466  1
  N  N33  1  0.319603  0.899359  0.008847  1
  N  N34  1  0.880298  0.396400  0.082969  1
  N  N35  1  0.700096  0.685090  0.084287  1
  N  N36  1  0.617277  0.413228  0.101811  1
  N  N37  1  0.983015  0.685891  0.101278  1
  N  N38  1  0.600642  0.920244  0.109488  1
  N  N39  1  0.015006  0.200095  0.115807  1
  N  N40  1  0.202455  0.584820  0.186407  1
  N  N41  1  0.483038  0.601516  0.186137  1
  N  N42  1  0.118479  0.016962  0.203098  1
  N  N43  1  0.579756  0.180398  0.189244  1
  N  N44  1  0.483899  0.380297  0.297328  1
  N  N45  1  0.314326  0.915380  0.296405  1
  N  N46  1  0.913228  0.295950  0.311417  1
  N  N47  1  0.896400  0.016102  0.313431  1
  N  N48  1  0.297124  0.483015  0.381736  1
  N  N49  1  0.584620  0.898944  0.381025  1
  N  N50  1  0.814911  0.515006  0.399198  1
  N  N51  1  0.084820  0.882367  0.398414  1
  N  N52  1  0.101516  0.618479  0.415381  1
  N  N53  1  0.814110  0.797125  0.415388  1
  N  N54  1  0.601055  0.185675  0.482080  1
  N  N55  1  0.382366  0.297545  0.483952  1
  N  N56  1  0.617633  0.702455  0.516048  1
  N  N57  1  0.398945  0.814326  0.517920  1
  N  N58  1  0.185891  0.202876  0.584612  1
  N  N59  1  0.898483  0.381521  0.584619  1
  N  N60  1  0.915180  0.117634  0.601587  1
  N  N61  1  0.185090  0.484994  0.600802  1
  N  N62  1  0.415380  0.101055  0.618975  1
  N  N63  1  0.702876  0.516985  0.618263  1
  N  N64  1  0.086772  0.704050  0.688584  1
  N  N65  1  0.103601  0.983899  0.686570  1
  N  N66  1  0.685675  0.084620  0.703595  1
  N  N67  1  0.516101  0.619702  0.702672  1
  N  N68  1  0.420244  0.819603  0.810757  1
  N  N69  1  0.881521  0.983038  0.796901  1
  N  N70  1  0.516962  0.398484  0.813864  1
  N  N71  1  0.797546  0.415180  0.813594  1
  N  N72  1  0.399359  0.079756  0.890513  1
  N  N73  1  0.984994  0.799904  0.884193  1
  N  N74  1  0.016986  0.314110  0.898723  1
  N  N75  1  0.382723  0.586772  0.898188  1
  N  N76  1  0.299904  0.314911  0.915713  1
  N  N77  1  0.119703  0.603601  0.917031  1
  N  N78  1  0.680398  0.100642  0.991154  1
  N  N79  1  0.795950  0.882723  0.984534  1
