# generated using pymatgen
data_YHo5(CdHg2)6
_symmetry_space_group_name_H-M   'P 1'
_cell_length_a   5.11287267
_cell_length_b   7.08175200
_cell_length_c   15.55174704
_cell_angle_alpha   90.00000000
_cell_angle_beta   89.94122820
_cell_angle_gamma   90.00000000
_symmetry_Int_Tables_number   1
_chemical_formula_structural   YHo5(CdHg2)6
_chemical_formula_sum   'Y1 Ho5 Cd6 Hg12'
_cell_volume   563.09885801
_cell_formula_units_Z   1
loop_
 _symmetry_equiv_pos_site_id
 _symmetry_equiv_pos_as_xyz
  1  'x, y, z'
loop_
 _atom_site_type_symbol
 _atom_site_label
 _atom_site_symmetry_multiplicity
 _atom_site_fract_x
 _atom_site_fract_y
 _atom_site_fract_z
 _atom_site_occupancy
  Y  Y0  1  0.500069  0.500000  0.833357  1
  Ho  Ho1  1  0.000062  0.000000  0.999817  1
  Ho  Ho2  1  0.499940  0.500000  0.166472  1
  Ho  Ho3  1  0.999903  0.000000  0.333445  1
  Ho  Ho4  1  0.499949  0.500000  0.500293  1
  Ho  Ho5  1  0.000062  0.000000  0.666704  1
  Cd  Cd6  1  0.000029  0.500000  0.999889  1
  Cd  Cd7  1  0.499837  0.000000  0.166589  1
  Cd  Cd8  1  0.999993  0.500000  0.333231  1
  Cd  Cd9  1  0.500007  0.000000  0.500122  1
  Cd  Cd10  1  0.000126  0.500000  0.666859  1
  Cd  Cd11  1  0.500051  0.000000  0.833288  1
  Hg  Hg12  1  0.499840  0.251239  0.000680  1
  Hg  Hg13  1  0.499840  0.748760  0.000680  1
  Hg  Hg14  1  0.999770  0.247365  0.166587  1
  Hg  Hg15  1  0.999770  0.752636  0.166587  1
  Hg  Hg16  1  0.499834  0.252459  0.333357  1
  Hg  Hg17  1  0.499834  0.747542  0.333357  1
  Hg  Hg18  1  0.000171  0.247562  0.500031  1
  Hg  Hg19  1  0.000171  0.752439  0.500031  1
  Hg  Hg20  1  0.500205  0.251496  0.665943  1
  Hg  Hg21  1  0.500205  0.748505  0.665943  1
  Hg  Hg22  1  0.000167  0.245596  0.833368  1
  Hg  Hg23  1  0.000167  0.754405  0.833368  1
