# generated using pymatgen
data_Ca6Ta4Al43
_symmetry_space_group_name_H-M   'P 1'
_cell_length_a   11.18787200
_cell_length_b   11.18787218
_cell_length_c   17.69261700
_cell_angle_alpha   90.00000000
_cell_angle_beta   90.00000000
_cell_angle_gamma   120.00000537
_symmetry_Int_Tables_number   1
_chemical_formula_structural   Ca6Ta4Al43
_chemical_formula_sum   'Ca12 Ta8 Al86'
_cell_volume   1917.86339212
_cell_formula_units_Z   2
loop_
 _symmetry_equiv_pos_site_id
 _symmetry_equiv_pos_as_xyz
  1  'x, y, z'
loop_
 _atom_site_type_symbol
 _atom_site_label
 _atom_site_symmetry_multiplicity
 _atom_site_fract_x
 _atom_site_fract_y
 _atom_site_fract_z
 _atom_site_occupancy
  Ca  Ca0  1  0.530882  0.000000  0.094930  1
  Ca  Ca1  1  0.530882  0.530882  0.594930  1
  Ca  Ca2  1  0.530882  0.530882  0.905070  1
  Ca  Ca3  1  0.469118  0.000000  0.905070  1
  Ca  Ca4  1  0.469118  0.469118  0.405070  1
  Ca  Ca5  1  0.000000  0.469118  0.594930  1
  Ca  Ca6  1  0.469118  0.469118  0.094930  1
  Ca  Ca7  1  0.469118  0.000000  0.594930  1
  Ca  Ca8  1  0.000000  0.530882  0.094930  1
  Ca  Ca9  1  0.530882  0.000000  0.405070  1
  Ca  Ca10  1  0.000000  0.530882  0.405070  1
  Ca  Ca11  1  0.000000  0.469118  0.905070  1
  Ta  Ta12  1  0.728432  0.000000  0.250000  1
  Ta  Ta13  1  0.728432  0.728432  0.750000  1
  Ta  Ta14  1  0.271568  0.000000  0.750000  1
  Ta  Ta15  1  0.000000  0.728432  0.250000  1
  Ta  Ta16  1  0.000000  0.000000  0.000000  1
  Ta  Ta17  1  0.271568  0.271568  0.250000  1
  Ta  Ta18  1  0.000000  0.271568  0.750000  1
  Ta  Ta19  1  0.000000  0.000000  0.500000  1
  Al  Al20  1  0.762900  0.605125  0.336531  1
  Al  Al21  1  0.237100  0.842226  0.336531  1
  Al  Al22  1  0.753530  0.246470  0.500000  1
  Al  Al23  1  0.553573  0.403110  0.250000  1
  Al  Al24  1  0.746156  0.746156  0.031282  1
  Al  Al25  1  0.492939  0.246470  0.500000  1
  Al  Al26  1  0.237100  0.842226  0.163469  1
  Al  Al27  1  0.849538  0.403110  0.750000  1
  Al  Al28  1  0.394875  0.237100  0.836531  1
  Al  Al29  1  0.753530  0.507061  0.500000  1
  Al  Al30  1  0.159074  0.000000  0.614918  1
  Al  Al31  1  0.605125  0.842226  0.836531  1
  Al  Al32  1  0.840926  0.000000  0.385082  1
  Al  Al33  1  0.746156  0.000000  0.531282  1
  Al  Al34  1  0.605125  0.762900  0.336531  1
  Al  Al35  1  0.000000  0.159074  0.885082  1
  Al  Al36  1  0.000000  0.253844  0.031282  1
  Al  Al37  1  0.246470  0.753530  0.500000  1
  Al  Al38  1  0.762900  0.157774  0.663469  1
  Al  Al39  1  0.333333  0.666667  0.374771  1
  Al  Al40  1  0.148537  0.000000  0.250000  1
  Al  Al41  1  0.605125  0.762900  0.163469  1
  Al  Al42  1  0.159074  0.000000  0.885082  1
  Al  Al43  1  0.333333  0.666667  0.874771  1
  Al  Al44  1  0.150462  0.596890  0.250000  1
  Al  Al45  1  0.840926  0.000000  0.114918  1
  Al  Al46  1  0.762900  0.157774  0.836531  1
  Al  Al47  1  0.605125  0.842226  0.663469  1
  Al  Al48  1  0.492939  0.246470  0.000000  1
  Al  Al49  1  0.842226  0.237100  0.163469  1
  Al  Al50  1  0.000000  0.159074  0.614918  1
  Al  Al51  1  0.253844  0.253844  0.531282  1
  Al  Al52  1  0.746156  0.000000  0.968718  1
  Al  Al53  1  0.753530  0.246470  0.000000  1
  Al  Al54  1  0.753530  0.507061  0.000000  1
  Al  Al55  1  0.446427  0.849538  0.250000  1
  Al  Al56  1  0.000000  0.746156  0.968718  1
  Al  Al57  1  0.394875  0.237100  0.663469  1
  Al  Al58  1  0.000000  0.253844  0.468718  1
  Al  Al59  1  0.507061  0.753530  0.000000  1
  Al  Al60  1  0.333333  0.666667  0.125229  1
  Al  Al61  1  0.403110  0.849538  0.750000  1
  Al  Al62  1  0.246470  0.492939  0.500000  1
  Al  Al63  1  0.253844  0.000000  0.468718  1
  Al  Al64  1  0.000000  0.840926  0.114918  1
  Al  Al65  1  0.159074  0.159074  0.385082  1
  Al  Al66  1  0.246470  0.753530  0.000000  1
  Al  Al67  1  0.596890  0.150462  0.250000  1
  Al  Al68  1  0.394875  0.157774  0.163469  1
  Al  Al69  1  0.150462  0.553573  0.750000  1
  Al  Al70  1  0.157774  0.394875  0.163469  1
  Al  Al71  1  0.553573  0.150462  0.750000  1
  Al  Al72  1  0.394875  0.157774  0.336531  1
  Al  Al73  1  0.157774  0.762900  0.836531  1
  Al  Al74  1  0.842226  0.605125  0.836531  1
  Al  Al75  1  0.842226  0.237100  0.336531  1
  Al  Al76  1  0.157774  0.394875  0.336531  1
  Al  Al77  1  0.666667  0.333333  0.374771  1
  Al  Al78  1  0.666667  0.333333  0.125229  1
  Al  Al79  1  0.237100  0.394875  0.663469  1
  Al  Al80  1  0.746156  0.746156  0.468718  1
  Al  Al81  1  0.000000  0.746156  0.531282  1
  Al  Al82  1  0.849538  0.446427  0.250000  1
  Al  Al83  1  0.666667  0.333333  0.874771  1
  Al  Al84  1  0.840926  0.840926  0.885082  1
  Al  Al85  1  0.840926  0.840926  0.614918  1
  Al  Al86  1  0.666667  0.333333  0.625229  1
  Al  Al87  1  0.246470  0.492939  0.000000  1
  Al  Al88  1  0.403110  0.553573  0.250000  1
  Al  Al89  1  0.237100  0.394875  0.836531  1
  Al  Al90  1  0.148537  0.148537  0.750000  1
  Al  Al91  1  0.851463  0.000000  0.750000  1
  Al  Al92  1  0.762900  0.605125  0.163469  1
  Al  Al93  1  0.842226  0.605125  0.663469  1
  Al  Al94  1  0.333333  0.666667  0.625229  1
  Al  Al95  1  0.157774  0.762900  0.663469  1
  Al  Al96  1  0.253844  0.000000  0.031282  1
  Al  Al97  1  0.596890  0.446427  0.750000  1
  Al  Al98  1  0.159074  0.159074  0.114918  1
  Al  Al99  1  0.000000  0.851463  0.750000  1
  Al  Al100  1  0.000000  0.840926  0.385082  1
  Al  Al101  1  0.000000  0.148537  0.250000  1
  Al  Al102  1  0.253844  0.253844  0.968718  1
  Al  Al103  1  0.507061  0.753530  0.500000  1
  Al  Al104  1  0.446427  0.596890  0.750000  1
  Al  Al105  1  0.851463  0.851463  0.250000  1
