# generated using pymatgen
data_LiTb3Al2Si2Pd
_symmetry_space_group_name_H-M   'P 1'
_cell_length_a   7.00526400
_cell_length_b   6.89602030
_cell_length_c   4.31114600
_cell_angle_alpha   90.00000000
_cell_angle_beta   90.00000000
_cell_angle_gamma   120.52543281
_symmetry_Int_Tables_number   1
_chemical_formula_structural   LiTb3Al2Si2Pd
_chemical_formula_sum   'Li1 Tb3 Al2 Si2 Pd1'
_cell_volume   179.40004407
_cell_formula_units_Z   1
loop_
 _symmetry_equiv_pos_site_id
 _symmetry_equiv_pos_as_xyz
  1  'x, y, z'
loop_
 _atom_site_type_symbol
 _atom_site_label
 _atom_site_symmetry_multiplicity
 _atom_site_fract_x
 _atom_site_fract_y
 _atom_site_fract_z
 _atom_site_occupancy
  Li  Li0  1  0.759990  0.000000  0.500000  1
  Tb  Tb1  1  0.422401  0.000000  0.000000  1
  Tb  Tb2  1  0.994532  0.413556  0.000000  1
  Tb  Tb3  1  0.580975  0.586443  0.000000  1
  Al  Al4  1  0.234233  0.235475  0.500000  1
  Al  Al5  1  0.998759  0.764525  0.500000  1
  Si  Si6  1  0.664113  0.340131  0.500000  1
  Si  Si7  1  0.323983  0.659868  0.500000  1
  Pd  Pd8  1  0.021012  0.000000  0.000000  1
