# generated using pymatgen
data_Ac5NdIn10
_symmetry_space_group_name_H-M   'P 1'
_cell_length_a   6.92120492
_cell_length_b   6.92120502
_cell_length_c   10.90253200
_cell_angle_alpha   90.00000000
_cell_angle_beta   90.00000000
_cell_angle_gamma   102.13634720
_symmetry_Int_Tables_number   1
_chemical_formula_structural   Ac5NdIn10
_chemical_formula_sum   'Ac5 Nd1 In10'
_cell_volume   510.59225671
_cell_formula_units_Z   1
loop_
 _symmetry_equiv_pos_site_id
 _symmetry_equiv_pos_as_xyz
  1  'x, y, z'
loop_
 _atom_site_type_symbol
 _atom_site_label
 _atom_site_symmetry_multiplicity
 _atom_site_fract_x
 _atom_site_fract_y
 _atom_site_fract_z
 _atom_site_occupancy
  Ac  Ac0  1  0.136596  0.136596  0.750000  1
  Ac  Ac1  1  0.704340  0.293561  0.000749  1
  Ac  Ac2  1  0.704340  0.293561  0.499251  1
  Ac  Ac3  1  0.293561  0.704340  0.000749  1
  Ac  Ac4  1  0.293561  0.704340  0.499251  1
  Nd  Nd5  1  0.856239  0.856239  0.250000  1
  In  In6  1  0.523016  0.523016  0.750000  1
  In  In7  1  0.484001  0.484001  0.250000  1
  In  In8  1  0.808449  0.808449  0.546774  1
  In  In9  1  0.187945  0.187945  0.434204  1
  In  In10  1  0.808449  0.808449  0.953226  1
  In  In11  1  0.187945  0.187945  0.065796  1
  In  In12  1  0.982220  0.585892  0.750000  1
  In  In13  1  0.433401  0.010046  0.250000  1
  In  In14  1  0.010046  0.433401  0.250000  1
  In  In15  1  0.585892  0.982220  0.750000  1
