# generated using pymatgen
data_TaNi2B6Mo5
_symmetry_space_group_name_H-M   'P 1'
_cell_length_a   3.19982000
_cell_length_b   4.53701467
_cell_length_c   10.83706258
_cell_angle_alpha   90.03519212
_cell_angle_beta   90.00000000
_cell_angle_gamma   110.64856614
_symmetry_Int_Tables_number   1
_chemical_formula_structural   TaNi2B6Mo5
_chemical_formula_sum   'Ta1 Ni2 B6 Mo5'
_cell_volume   147.22180735
_cell_formula_units_Z   1
loop_
 _symmetry_equiv_pos_site_id
 _symmetry_equiv_pos_as_xyz
  1  'x, y, z'
loop_
 _atom_site_type_symbol
 _atom_site_label
 _atom_site_symmetry_multiplicity
 _atom_site_fract_x
 _atom_site_fract_y
 _atom_site_fract_z
 _atom_site_occupancy
  Ta  Ta0  1  0.209082  0.418163  0.393754  1
  Ni  Ni1  1  0.499002  0.998004  0.501013  1
  Ni  Ni2  1  0.499803  0.999606  0.000025  1
  B  B3  1  0.913443  0.826886  0.393621  1
  B  B4  1  0.087600  0.175200  0.606124  1
  B  B5  1  0.912030  0.824060  0.103846  1
  B  B6  1  0.088780  0.177560  0.895523  1
  B  B7  1  0.792229  0.584457  0.248526  1
  B  B8  1  0.207831  0.415662  0.750939  1
  Mo  Mo9  1  0.787849  0.575699  0.610999  1
  Mo  Mo10  1  0.212900  0.425800  0.105939  1
  Mo  Mo11  1  0.787601  0.575202  0.891565  1
  Mo  Mo12  1  0.499456  0.998911  0.247820  1
  Mo  Mo13  1  0.502395  0.004791  0.750306  1
