# generated using pymatgen
data_Pr4CdHgPd4
_symmetry_space_group_name_H-M   'P 1'
_cell_length_a   7.86505000
_cell_length_b   7.86505000
_cell_length_c   3.96093900
_cell_angle_alpha   90.00000000
_cell_angle_beta   90.00000000
_cell_angle_gamma   90.00000000
_symmetry_Int_Tables_number   1
_chemical_formula_structural   Pr4CdHgPd4
_chemical_formula_sum   'Pr4 Cd1 Hg1 Pd4'
_cell_volume   245.01977116
_cell_formula_units_Z   1
loop_
 _symmetry_equiv_pos_site_id
 _symmetry_equiv_pos_as_xyz
  1  'x, y, z'
loop_
 _atom_site_type_symbol
 _atom_site_label
 _atom_site_symmetry_multiplicity
 _atom_site_fract_x
 _atom_site_fract_y
 _atom_site_fract_z
 _atom_site_occupancy
  Pr  Pr0  1  0.318449  0.833593  0.500000  1
  Pr  Pr1  1  0.833593  0.681551  0.500000  1
  Pr  Pr2  1  0.166407  0.318449  0.500000  1
  Pr  Pr3  1  0.681551  0.166407  0.500000  1
  Cd  Cd4  1  0.500000  0.500000  0.000000  1
  Hg  Hg5  1  0.000000  0.000000  0.000000  1
  Pd  Pd6  1  0.379605  0.135272  0.000000  1
  Pd  Pd7  1  0.864728  0.379605  0.000000  1
  Pd  Pd8  1  0.135272  0.620395  0.000000  1
  Pd  Pd9  1  0.620395  0.864728  0.000000  1
