# generated using pymatgen
data_YbErAlIr2
_symmetry_space_group_name_H-M   'P 1'
_cell_length_a   5.56710915
_cell_length_b   5.56710851
_cell_length_c   5.56710849
_cell_angle_alpha   137.88422116
_cell_angle_beta   117.07142077
_cell_angle_gamma   78.64474652
_symmetry_Int_Tables_number   1
_chemical_formula_structural   YbErAlIr2
_chemical_formula_sum   'Yb1 Er1 Al1 Ir2'
_cell_volume   100.13252123
_cell_formula_units_Z   1
loop_
 _symmetry_equiv_pos_site_id
 _symmetry_equiv_pos_as_xyz
  1  'x, y, z'
loop_
 _atom_site_type_symbol
 _atom_site_label
 _atom_site_symmetry_multiplicity
 _atom_site_fract_x
 _atom_site_fract_y
 _atom_site_fract_z
 _atom_site_occupancy
  Yb  Yb0  1  0.296410  0.796411  0.500001  1
  Er  Er1  1  0.701546  0.201547  0.499999  1
  Al  Al2  1  0.999715  0.999715  0.000000  1
  Ir  Ir3  1  0.734707  0.501164  0.233543  1
  Ir  Ir4  1  0.267620  0.501165  0.766457  1
