# generated using pymatgen
data_NdHo3CuNiPt2
_symmetry_space_group_name_H-M   'P 1'
_cell_length_a   4.36816700
_cell_length_b   5.59358221
_cell_length_c   7.19351634
_cell_angle_alpha   90.79000958
_cell_angle_beta   90.00000000
_cell_angle_gamma   90.00000000
_symmetry_Int_Tables_number   1
_chemical_formula_structural   NdHo3CuNiPt2
_chemical_formula_sum   'Nd1 Ho3 Cu1 Ni1 Pt2'
_cell_volume   175.74752153
_cell_formula_units_Z   1
loop_
 _symmetry_equiv_pos_site_id
 _symmetry_equiv_pos_as_xyz
  1  'x, y, z'
loop_
 _atom_site_type_symbol
 _atom_site_label
 _atom_site_symmetry_multiplicity
 _atom_site_fract_x
 _atom_site_fract_y
 _atom_site_fract_z
 _atom_site_occupancy
  Nd  Nd0  1  0.500000  0.137058  0.187271  1
  Ho  Ho1  1  0.000000  0.632230  0.328651  1
  Ho  Ho2  1  0.000000  0.868158  0.809958  1
  Ho  Ho3  1  0.500000  0.359222  0.676960  1
  Cu  Cu4  1  0.500000  0.636775  0.033027  1
  Ni  Ni5  1  0.000000  0.139862  0.466465  1
  Pt  Pt6  1  0.000000  0.376074  0.953048  1
  Pt  Pt7  1  0.500000  0.850619  0.544621  1
