# generated using pymatgen
data_Er9Lu3Ga9Si9Ge2
_symmetry_space_group_name_H-M   'P 1'
_cell_length_a   5.91002602
_cell_length_b   5.91002687
_cell_length_c   18.54062100
_cell_angle_alpha   90.00000000
_cell_angle_beta   90.00000000
_cell_angle_gamma   102.95133175
_symmetry_Int_Tables_number   1
_chemical_formula_structural   Er9Lu3Ga9Si9Ge2
_chemical_formula_sum   'Er9 Lu3 Ga9 Si9 Ge2'
_cell_volume   631.12016860
_cell_formula_units_Z   1
loop_
 _symmetry_equiv_pos_site_id
 _symmetry_equiv_pos_as_xyz
  1  'x, y, z'
loop_
 _atom_site_type_symbol
 _atom_site_label
 _atom_site_symmetry_multiplicity
 _atom_site_fract_x
 _atom_site_fract_y
 _atom_site_fract_z
 _atom_site_occupancy
  Er  Er0  1  0.659150  0.659150  0.500000  1
  Er  Er1  1  0.200451  0.802100  0.127801  1
  Er  Er2  1  0.198658  0.801516  0.625150  1
  Er  Er3  1  0.200451  0.802100  0.872199  1
  Er  Er4  1  0.198658  0.801516  0.374850  1
  Er  Er5  1  0.802100  0.200451  0.127801  1
  Er  Er6  1  0.801516  0.198658  0.625150  1
  Er  Er7  1  0.801516  0.198658  0.374850  1
  Er  Er8  1  0.802100  0.200451  0.872199  1
  Lu  Lu9  1  0.652112  0.652112  0.000000  1
  Lu  Lu10  1  0.341265  0.341265  0.250387  1
  Lu  Lu11  1  0.341265  0.341265  0.749613  1
  Ga  Ga12  1  0.318225  0.318225  0.901632  1
  Ga  Ga13  1  0.322968  0.322968  0.401640  1
  Ga  Ga14  1  0.677825  0.677825  0.348069  1
  Ga  Ga15  1  0.677658  0.677658  0.848347  1
  Ga  Ga16  1  0.318225  0.318225  0.098368  1
  Ga  Ga17  1  0.322968  0.322968  0.598360  1
  Ga  Ga18  1  0.677658  0.677658  0.151653  1
  Ga  Ga19  1  0.677825  0.677825  0.651931  1
  Ga  Ga20  1  0.038209  0.038209  0.000000  1
  Si  Si21  1  0.484661  0.087525  0.500000  1
  Si  Si22  1  0.913920  0.516112  0.250324  1
  Si  Si23  1  0.913920  0.516112  0.749676  1
  Si  Si24  1  0.516112  0.913920  0.250324  1
  Si  Si25  1  0.516112  0.913920  0.749676  1
  Si  Si26  1  0.087525  0.484661  0.500000  1
  Si  Si27  1  0.051060  0.051060  0.500000  1
  Si  Si28  1  0.950512  0.950512  0.250594  1
  Si  Si29  1  0.950512  0.950512  0.749406  1
  Ge  Ge30  1  0.498704  0.086161  0.000000  1
  Ge  Ge31  1  0.086161  0.498704  0.000000  1
