# generated using pymatgen
data_PrNd15(LuSn4)4
_symmetry_space_group_name_H-M   'P 1'
_cell_length_a   8.18679608
_cell_length_b   8.37323104
_cell_length_c   15.87170810
_cell_angle_alpha   90.00379735
_cell_angle_beta   89.98793521
_cell_angle_gamma   89.99011861
_symmetry_Int_Tables_number   1
_chemical_formula_structural   PrNd15(LuSn4)4
_chemical_formula_sum   'Pr1 Nd15 Lu4 Sn16'
_cell_volume   1088.00451544
_cell_formula_units_Z   1
loop_
 _symmetry_equiv_pos_site_id
 _symmetry_equiv_pos_as_xyz
  1  'x, y, z'
loop_
 _atom_site_type_symbol
 _atom_site_label
 _atom_site_symmetry_multiplicity
 _atom_site_fract_x
 _atom_site_fract_y
 _atom_site_fract_z
 _atom_site_occupancy
  Pr  Pr0  1  0.018460  0.180808  0.402098  1
  Nd  Nd1  1  0.365806  0.838305  0.121209  1
  Nd  Nd2  1  0.134219  0.338337  0.621270  1
  Nd  Nd3  1  0.481548  0.680776  0.901985  1
  Nd  Nd4  1  0.865817  0.661685  0.121201  1
  Nd  Nd5  1  0.134189  0.338311  0.878776  1
  Nd  Nd6  1  0.481557  0.680780  0.598024  1
  Nd  Nd7  1  0.634183  0.161671  0.621240  1
  Nd  Nd8  1  0.865776  0.661706  0.378776  1
  Nd  Nd9  1  0.018461  0.180787  0.098043  1
  Nd  Nd10  1  0.981552  0.819219  0.901981  1
  Nd  Nd11  1  0.634188  0.161681  0.878782  1
  Nd  Nd12  1  0.518458  0.319237  0.097994  1
  Nd  Nd13  1  0.365852  0.838241  0.378769  1
  Nd  Nd14  1  0.981557  0.819184  0.598045  1
  Nd  Nd15  1  0.518465  0.319280  0.401981  1
  Lu  Lu16  1  0.198166  0.502421  0.249957  1
  Lu  Lu17  1  0.698034  0.997595  0.249951  1
  Lu  Lu18  1  0.301893  0.002358  0.749997  1
  Lu  Lu19  1  0.801888  0.497653  0.749996  1
  Sn  Sn20  1  0.793170  0.465567  0.544863  1
  Sn  Sn21  1  0.706423  0.965243  0.455246  1
  Sn  Sn22  1  0.675326  0.851280  0.750002  1
  Sn  Sn23  1  0.206932  0.534761  0.455196  1
  Sn  Sn24  1  0.293223  0.034498  0.955162  1
  Sn  Sn25  1  0.824429  0.351499  0.249810  1
  Sn  Sn26  1  0.793219  0.465506  0.955164  1
  Sn  Sn27  1  0.561761  0.615951  0.249994  1
  Sn  Sn28  1  0.206776  0.534490  0.044835  1
  Sn  Sn29  1  0.438244  0.384052  0.750004  1
  Sn  Sn30  1  0.175321  0.648721  0.750005  1
  Sn  Sn31  1  0.938244  0.115958  0.750005  1
  Sn  Sn32  1  0.293446  0.034354  0.544945  1
  Sn  Sn33  1  0.706795  0.965515  0.044838  1
  Sn  Sn34  1  0.324853  0.148704  0.249917  1
  Sn  Sn35  1  0.061769  0.883867  0.249937  1
