# generated using pymatgen
data_Tb5Y5(Tm5Bi6)2
_symmetry_space_group_name_H-M   'P 1'
_cell_length_a   8.23912409
_cell_length_b   9.47131069
_cell_length_c   12.03443253
_cell_angle_alpha   89.97508053
_cell_angle_beta   90.01117510
_cell_angle_gamma   89.98657419
_symmetry_Int_Tables_number   1
_chemical_formula_structural   Tb5Y5(Tm5Bi6)2
_chemical_formula_sum   'Tb5 Y5 Tm10 Bi12'
_cell_volume   939.11047029
_cell_formula_units_Z   1
loop_
 _symmetry_equiv_pos_site_id
 _symmetry_equiv_pos_as_xyz
  1  'x, y, z'
loop_
 _atom_site_type_symbol
 _atom_site_label
 _atom_site_symmetry_multiplicity
 _atom_site_fract_x
 _atom_site_fract_y
 _atom_site_fract_z
 _atom_site_occupancy
  Tb  Tb0  1  0.191964  0.563120  0.441231  1
  Tb  Tb1  1  0.313243  0.250045  0.218306  1
  Tb  Tb2  1  0.813488  0.249976  0.281690  1
  Tb  Tb3  1  0.686781  0.750657  0.781563  1
  Tb  Tb4  1  0.186824  0.750566  0.718529  1
  Y  Y5  1  0.353239  0.751287  0.216031  1
  Y  Y6  1  0.852854  0.751429  0.284040  1
  Y  Y7  1  0.647653  0.250487  0.784023  1
  Y  Y8  1  0.147738  0.250693  0.716169  1
  Y  Y9  1  0.692073  0.563439  0.058692  1
  Tm  Tm10  1  0.192426  0.933814  0.441068  1
  Tm  Tm11  1  0.307131  0.065731  0.941260  1
  Tm  Tm12  1  0.808284  0.433969  0.558548  1
  Tm  Tm13  1  0.307725  0.433977  0.941227  1
  Tm  Tm14  1  0.806653  0.065473  0.559102  1
  Tm  Tm15  1  0.692423  0.934760  0.058690  1
  Tm  Tm16  1  0.476441  0.250348  0.488219  1
  Tm  Tm17  1  0.976536  0.250255  0.011540  1
  Tm  Tm18  1  0.524395  0.750322  0.511983  1
  Tm  Tm19  1  0.024683  0.750670  0.987993  1
  Bi  Bi20  1  0.405225  0.750487  0.957436  1
  Bi  Bi21  1  0.904991  0.750711  0.542650  1
  Bi  Bi22  1  0.593726  0.247911  0.041867  1
  Bi  Bi23  1  0.093495  0.246453  0.458408  1
  Bi  Bi24  1  0.565208  0.996113  0.327011  1
  Bi  Bi25  1  0.065409  0.504906  0.172716  1
  Bi  Bi26  1  0.434507  0.495928  0.673123  1
  Bi  Bi27  1  0.934706  0.004987  0.827112  1
  Bi  Bi28  1  0.434762  0.004909  0.672961  1
  Bi  Bi29  1  0.934416  0.495934  0.826966  1
  Bi  Bi30  1  0.565749  0.504740  0.327062  1
  Bi  Bi31  1  0.065253  0.995901  0.172782  1
