# generated using pymatgen
data_Dy5Tm11In4OsRh3
_symmetry_space_group_name_H-M   'P 1'
_cell_length_a   9.57489789
_cell_length_b   9.56133797
_cell_length_c   9.59472910
_cell_angle_alpha   60.03962737
_cell_angle_beta   60.00432132
_cell_angle_gamma   59.87505331
_symmetry_Int_Tables_number   1
_chemical_formula_structural   Dy5Tm11In4OsRh3
_chemical_formula_sum   'Dy5 Tm11 In4 Os1 Rh3'
_cell_volume   620.72977417
_cell_formula_units_Z   1
loop_
 _symmetry_equiv_pos_site_id
 _symmetry_equiv_pos_as_xyz
  1  'x, y, z'
loop_
 _atom_site_type_symbol
 _atom_site_label
 _atom_site_symmetry_multiplicity
 _atom_site_fract_x
 _atom_site_fract_y
 _atom_site_fract_z
 _atom_site_occupancy
  Dy  Dy0  1  0.059049  0.059370  0.436743  1
  Dy  Dy1  1  0.446290  0.058058  0.437461  1
  Dy  Dy2  1  0.062661  0.437424  0.061805  1
  Dy  Dy3  1  0.046003  0.650898  0.650783  1
  Dy  Dy4  1  0.439048  0.437964  0.060835  1
  Tm  Tm5  1  0.651927  0.046255  0.650118  1
  Tm  Tm6  1  0.188377  0.810582  0.192217  1
  Tm  Tm7  1  0.189932  0.190808  0.810045  1
  Tm  Tm8  1  0.808359  0.810081  0.192962  1
  Tm  Tm9  1  0.441555  0.059213  0.058146  1
  Tm  Tm10  1  0.808997  0.189148  0.192827  1
  Tm  Tm11  1  0.057294  0.446817  0.438198  1
  Tm  Tm12  1  0.808761  0.191524  0.809531  1
  Tm  Tm13  1  0.190509  0.810358  0.809293  1
  Tm  Tm14  1  0.651201  0.649704  0.047851  1
  Tm  Tm15  1  0.652853  0.650681  0.650701  1
  In  In16  1  0.416634  0.417736  0.415216  1
  In  In17  1  0.750037  0.418149  0.415994  1
  In  In18  1  0.417822  0.749329  0.415338  1
  In  In19  1  0.417874  0.417060  0.747914  1
  Os  Os20  1  0.857837  0.857451  0.424278  1
  Rh  Rh21  1  0.856415  0.860585  0.862021  1
  Rh  Rh22  1  0.422692  0.858909  0.860152  1
  Rh  Rh23  1  0.857876  0.421899  0.859576  1
