# generated using pymatgen
data_Tm10Ga2Si3Te
_symmetry_space_group_name_H-M   'P 1'
_cell_length_a   8.48952000
_cell_length_b   8.47775449
_cell_length_c   6.34659000
_cell_angle_alpha   90.00000000
_cell_angle_beta   90.00000000
_cell_angle_gamma   120.21530740
_symmetry_Int_Tables_number   1
_chemical_formula_structural   Tm10Ga2Si3Te
_chemical_formula_sum   'Tm10 Ga2 Si3 Te1'
_cell_volume   394.71962066
_cell_formula_units_Z   1
loop_
 _symmetry_equiv_pos_site_id
 _symmetry_equiv_pos_as_xyz
  1  'x, y, z'
loop_
 _atom_site_type_symbol
 _atom_site_label
 _atom_site_symmetry_multiplicity
 _atom_site_fract_x
 _atom_site_fract_y
 _atom_site_fract_z
 _atom_site_occupancy
  Tm  Tm0  1  0.678901  0.330869  0.505338  1
  Tm  Tm1  1  0.328001  0.676675  0.505510  1
  Tm  Tm2  1  0.328001  0.676675  0.994490  1
  Tm  Tm3  1  0.678901  0.330869  0.994662  1
  Tm  Tm4  1  0.770163  0.769694  0.250000  1
  Tm  Tm5  1  0.236200  0.985286  0.250000  1
  Tm  Tm6  1  0.986316  0.239769  0.250000  1
  Tm  Tm7  1  0.237989  0.237043  0.750000  1
  Tm  Tm8  1  0.757718  0.999553  0.750000  1
  Tm  Tm9  1  0.999809  0.756476  0.750000  1
  Ga  Ga10  1  0.600967  0.998431  0.250000  1
  Ga  Ga11  1  0.603531  0.602644  0.750000  1
  Si  Si12  1  0.998808  0.603068  0.250000  1
  Si  Si13  1  0.394840  0.003751  0.750000  1
  Si  Si14  1  0.004806  0.394412  0.750000  1
  Te  Te15  1  0.395050  0.394787  0.250000  1
