# generated using pymatgen
data_Ho3TlIn2Ag2Rh
_symmetry_space_group_name_H-M   'P 1'
_cell_length_a   7.98461535
_cell_length_b   7.97307551
_cell_length_c   3.72664200
_cell_angle_alpha   90.00000000
_cell_angle_beta   90.00000000
_cell_angle_gamma   119.59843118
_symmetry_Int_Tables_number   1
_chemical_formula_structural   Ho3TlIn2Ag2Rh
_chemical_formula_sum   'Ho3 Tl1 In2 Ag2 Rh1'
_cell_volume   206.28676221
_cell_formula_units_Z   1
loop_
 _symmetry_equiv_pos_site_id
 _symmetry_equiv_pos_as_xyz
  1  'x, y, z'
loop_
 _atom_site_type_symbol
 _atom_site_label
 _atom_site_symmetry_multiplicity
 _atom_site_fract_x
 _atom_site_fract_y
 _atom_site_fract_z
 _atom_site_occupancy
  Ho  Ho0  1  0.970144  0.389552  0.500000  1
  Ho  Ho1  1  0.609415  0.577793  0.500000  1
  Ho  Ho2  1  0.422065  0.032095  0.500000  1
  Tl  Tl3  1  0.268443  0.276687  0.000000  1
  In  In4  1  0.003989  0.729479  0.000000  1
  In  In5  1  0.724640  0.993758  0.000000  1
  Ag  Ag6  1  0.334808  0.673324  0.000000  1
  Ag  Ag7  1  0.993556  0.992479  0.500000  1
  Rh  Rh8  1  0.672942  0.334832  0.000000  1
