# generated using pymatgen
data_Sr3ErCoO6
_symmetry_space_group_name_H-M   'P 1'
_cell_length_a   6.75552721
_cell_length_b   6.75905114
_cell_length_c   6.75948991
_cell_angle_alpha   92.66536665
_cell_angle_beta   92.69540930
_cell_angle_gamma   92.66603752
_symmetry_Int_Tables_number   1
_chemical_formula_structural   Sr3ErCoO6
_chemical_formula_sum   'Sr6 Er2 Co2 O12'
_cell_volume   307.60271014
_cell_formula_units_Z   2
loop_
 _symmetry_equiv_pos_site_id
 _symmetry_equiv_pos_as_xyz
  1  'x, y, z'
loop_
 _atom_site_type_symbol
 _atom_site_label
 _atom_site_symmetry_multiplicity
 _atom_site_fract_x
 _atom_site_fract_y
 _atom_site_fract_z
 _atom_site_occupancy
  Sr  Sr0  1  0.881935  0.249789  0.618003  1
  Sr  Sr1  1  0.249884  0.618609  0.881358  1
  Sr  Sr2  1  0.618182  0.881751  0.250244  1
  Sr  Sr3  1  0.750179  0.381402  0.118386  1
  Sr  Sr4  1  0.381975  0.118443  0.749731  1
  Sr  Sr5  1  0.117921  0.750331  0.381623  1
  Er  Er6  1  0.749773  0.749464  0.750635  1
  Er  Er7  1  0.250200  0.250629  0.249139  1
  Co  Co8  1  0.999823  0.000156  0.000141  1
  Co  Co9  1  0.500193  0.499761  0.500153  1
  O  O10  1  0.218840  0.412339  0.543013  1
  O  O11  1  0.413072  0.544204  0.218305  1
  O  O12  1  0.543484  0.218278  0.412017  1
  O  O13  1  0.912579  0.718473  0.044237  1
  O  O14  1  0.718146  0.042992  0.913157  1
  O  O15  1  0.042921  0.912391  0.718511  1
  O  O16  1  0.781741  0.587219  0.457149  1
  O  O17  1  0.587467  0.455631  0.781729  1
  O  O18  1  0.456427  0.781149  0.588108  1
  O  O19  1  0.086975  0.281977  0.955825  1
  O  O20  1  0.281356  0.956948  0.087038  1
  O  O21  1  0.956925  0.088065  0.281497  1
