# generated using pymatgen
data_TbHo2Mn2Co9B4
_symmetry_space_group_name_H-M   'P 1'
_cell_length_a   5.07830000
_cell_length_b   5.08145802
_cell_length_c   9.68752000
_cell_angle_alpha   89.99995413
_cell_angle_beta   90.00006924
_cell_angle_gamma   119.97944375
_symmetry_Int_Tables_number   1
_chemical_formula_structural   TbHo2Mn2Co9B4
_chemical_formula_sum   'Tb1 Ho2 Mn2 Co9 B4'
_cell_volume   216.54086187
_cell_formula_units_Z   1
loop_
 _symmetry_equiv_pos_site_id
 _symmetry_equiv_pos_as_xyz
  1  'x, y, z'
loop_
 _atom_site_type_symbol
 _atom_site_label
 _atom_site_symmetry_multiplicity
 _atom_site_fract_x
 _atom_site_fract_y
 _atom_site_fract_z
 _atom_site_occupancy
  Tb  Tb0  1  0.999981  0.000000  0.999966  1
  Ho  Ho1  1  0.999997  0.000000  0.341271  1
  Ho  Ho2  1  0.000003  0.000000  0.658857  1
  Mn  Mn3  1  0.333312  0.666651  0.999957  1
  Mn  Mn4  1  0.666661  0.333349  0.999957  1
  Co  Co5  1  0.499998  0.000000  0.500033  1
  Co  Co6  1  0.499998  0.500001  0.500035  1
  Co  Co7  1  0.999997  0.499999  0.500035  1
  Co  Co8  1  0.499994  0.000000  0.205472  1
  Co  Co9  1  0.499992  0.500001  0.205586  1
  Co  Co10  1  0.999991  0.499999  0.205586  1
  Co  Co11  1  0.500000  0.000000  0.794360  1
  Co  Co12  1  0.499999  0.500001  0.794409  1
  Co  Co13  1  0.999997  0.499999  0.794409  1
  B  B14  1  0.333236  0.666484  0.350537  1
  B  B15  1  0.666750  0.333516  0.350537  1
  B  B16  1  0.666655  0.333316  0.649500  1
  B  B17  1  0.333339  0.666684  0.649500  1
