# generated using pymatgen
data_Hf10AlGaBi4
_symmetry_space_group_name_H-M   'P 1'
_cell_length_a   5.56112935
_cell_length_b   8.41247725
_cell_length_c   8.41247772
_cell_angle_alpha   83.72796149
_cell_angle_beta   70.69913809
_cell_angle_gamma   70.69913383
_symmetry_Int_Tables_number   1
_chemical_formula_structural   Hf10AlGaBi4
_chemical_formula_sum   'Hf10 Al1 Ga1 Bi4'
_cell_volume   350.56379444
_cell_formula_units_Z   1
loop_
 _symmetry_equiv_pos_site_id
 _symmetry_equiv_pos_as_xyz
  1  'x, y, z'
loop_
 _atom_site_type_symbol
 _atom_site_label
 _atom_site_symmetry_multiplicity
 _atom_site_fract_x
 _atom_site_fract_y
 _atom_site_fract_z
 _atom_site_occupancy
  Hf  Hf0  1  0.072994  0.137187  0.715471  1
  Hf  Hf1  1  0.925653  0.862813  0.284529  1
  Hf  Hf2  1  0.788466  0.284529  0.137187  1
  Hf  Hf3  1  0.427006  0.284529  0.862813  1
  Hf  Hf4  1  0.210182  0.715471  0.862813  1
  Hf  Hf5  1  0.574347  0.715471  0.137187  1
  Hf  Hf6  1  0.711534  0.862813  0.715471  1
  Hf  Hf7  1  0.289818  0.137187  0.284529  1
  Hf  Hf8  1  0.250000  0.500000  0.500000  1
  Hf  Hf9  1  0.750000  0.500000  0.500000  1
  Al  Al10  1  0.750000  0.000000  0.000000  1
  Ga  Ga11  1  0.250000  0.000000  0.000000  1
  Bi  Bi12  1  0.165383  0.500000  0.169234  1
  Bi  Bi13  1  0.834617  0.500000  0.830766  1
  Bi  Bi14  1  0.334617  0.830766  0.500000  1
  Bi  Bi15  1  0.665383  0.169234  0.500000  1
