# generated using pymatgen
data_Sc2U(TcSn)3
_symmetry_space_group_name_H-M   'P 1'
_cell_length_a   8.13949100
_cell_length_b   7.62822778
_cell_length_c   3.39692400
_cell_angle_alpha   90.00000000
_cell_angle_beta   90.00000000
_cell_angle_gamma   122.24301017
_symmetry_Int_Tables_number   1
_chemical_formula_structural   Sc2U(TcSn)3
_chemical_formula_sum   'Sc2 U1 Tc3 Sn3'
_cell_volume   178.39010969
_cell_formula_units_Z   1
loop_
 _symmetry_equiv_pos_site_id
 _symmetry_equiv_pos_as_xyz
  1  'x, y, z'
loop_
 _atom_site_type_symbol
 _atom_site_label
 _atom_site_symmetry_multiplicity
 _atom_site_fract_x
 _atom_site_fract_y
 _atom_site_fract_z
 _atom_site_occupancy
  Sc  Sc0  1  0.000889  0.386751  0.500000  1
  Sc  Sc1  1  0.614137  0.613249  0.500000  1
  U  U2  1  0.414160  0.000000  0.500000  1
  Tc  Tc3  1  0.333088  0.709731  0.000000  1
  Tc  Tc4  1  0.623358  0.290269  0.000000  1
  Tc  Tc5  1  0.008240  0.000000  0.500000  1
  Sn  Sn6  1  0.981644  0.703272  0.000000  1
  Sn  Sn7  1  0.278373  0.296728  0.000000  1
  Sn  Sn8  1  0.746112  0.000000  0.000000  1
