# generated using pymatgen
data_NaEr4(RhPb2)2
_symmetry_space_group_name_H-M   'P 1'
_cell_length_a   3.56118400
_cell_length_b   8.07786200
_cell_length_c   18.01078700
_cell_angle_alpha   90.00000000
_cell_angle_beta   90.00000000
_cell_angle_gamma   90.00000000
_symmetry_Int_Tables_number   1
_chemical_formula_structural   NaEr4(RhPb2)2
_chemical_formula_sum   'Na2 Er8 Rh4 Pb8'
_cell_volume   518.11185932
_cell_formula_units_Z   2
loop_
 _symmetry_equiv_pos_site_id
 _symmetry_equiv_pos_as_xyz
  1  'x, y, z'
loop_
 _atom_site_type_symbol
 _atom_site_label
 _atom_site_symmetry_multiplicity
 _atom_site_fract_x
 _atom_site_fract_y
 _atom_site_fract_z
 _atom_site_occupancy
  Na  Na0  1  0.000000  0.000000  0.000000  1
  Na  Na1  1  0.000000  0.500000  0.500000  1
  Er  Er2  1  0.000000  0.130369  0.413422  1
  Er  Er3  1  0.000000  0.869631  0.586578  1
  Er  Er4  1  0.000000  0.369631  0.913422  1
  Er  Er5  1  0.000000  0.630369  0.086578  1
  Er  Er6  1  0.000000  0.246203  0.219701  1
  Er  Er7  1  0.000000  0.753797  0.780299  1
  Er  Er8  1  0.000000  0.253797  0.719701  1
  Er  Er9  1  0.000000  0.746203  0.280299  1
  Rh  Rh10  1  0.500000  0.029267  0.305735  1
  Rh  Rh11  1  0.500000  0.970733  0.694265  1
  Rh  Rh12  1  0.500000  0.470733  0.805735  1
  Rh  Rh13  1  0.500000  0.529267  0.194265  1
  Pb  Pb14  1  0.500000  0.426113  0.349212  1
  Pb  Pb15  1  0.500000  0.573887  0.650788  1
  Pb  Pb16  1  0.500000  0.073887  0.849212  1
  Pb  Pb17  1  0.500000  0.926113  0.150788  1
  Pb  Pb18  1  0.500000  0.301347  0.064613  1
  Pb  Pb19  1  0.500000  0.698653  0.935387  1
  Pb  Pb20  1  0.500000  0.198653  0.564613  1
  Pb  Pb21  1  0.500000  0.801347  0.435387  1
