# generated using pymatgen
data_Dy2Tm4Co17TcP12
_symmetry_space_group_name_H-M   'P 1'
_cell_length_a   3.68063300
_cell_length_b   10.48283000
_cell_length_c   12.15922400
_cell_angle_alpha   90.00000000
_cell_angle_beta   90.00000000
_cell_angle_gamma   90.00000000
_symmetry_Int_Tables_number   1
_chemical_formula_structural   Dy2Tm4Co17TcP12
_chemical_formula_sum   'Dy2 Tm4 Co17 Tc1 P12'
_cell_volume   469.14481162
_cell_formula_units_Z   1
loop_
 _symmetry_equiv_pos_site_id
 _symmetry_equiv_pos_as_xyz
  1  'x, y, z'
loop_
 _atom_site_type_symbol
 _atom_site_label
 _atom_site_symmetry_multiplicity
 _atom_site_fract_x
 _atom_site_fract_y
 _atom_site_fract_z
 _atom_site_occupancy
  Dy  Dy0  1  0.000000  0.500000  0.524771  1
  Dy  Dy1  1  0.500000  0.000000  0.477262  1
  Tm  Tm2  1  0.500000  0.817821  0.206664  1
  Tm  Tm3  1  0.500000  0.182179  0.206664  1
  Tm  Tm4  1  0.000000  0.682422  0.795137  1
  Tm  Tm5  1  0.000000  0.317578  0.795137  1
  Co  Co6  1  0.000000  0.000000  0.839658  1
  Co  Co7  1  0.500000  0.500000  0.703821  1
  Co  Co8  1  0.000000  0.000000  0.295546  1
  Co  Co9  1  0.000000  0.500000  0.987397  1
  Co  Co10  1  0.500000  0.000000  0.014821  1
  Co  Co11  1  0.500000  0.331815  0.990676  1
  Co  Co12  1  0.500000  0.668185  0.990676  1
  Co  Co13  1  0.000000  0.166520  0.005913  1
  Co  Co14  1  0.000000  0.833480  0.005913  1
  Co  Co15  1  0.500000  0.296416  0.430620  1
  Co  Co16  1  0.500000  0.703584  0.430620  1
  Co  Co17  1  0.000000  0.203329  0.569279  1
  Co  Co18  1  0.000000  0.796671  0.569279  1
  Co  Co19  1  0.500000  0.878464  0.709285  1
  Co  Co20  1  0.500000  0.121536  0.709285  1
  Co  Co21  1  0.000000  0.621408  0.291584  1
  Co  Co22  1  0.000000  0.378592  0.291584  1
  Tc  Tc23  1  0.500000  0.500000  0.156775  1
  P  P24  1  0.500000  0.500000  0.880953  1
  P  P25  1  0.000000  0.000000  0.117801  1
  P  P26  1  0.500000  0.500000  0.349387  1
  P  P27  1  0.000000  0.000000  0.655369  1
  P  P28  1  0.500000  0.311283  0.617554  1
  P  P29  1  0.500000  0.688717  0.617554  1
  P  P30  1  0.000000  0.188274  0.383278  1
  P  P31  1  0.000000  0.811726  0.383278  1
  P  P32  1  0.500000  0.849013  0.891381  1
  P  P33  1  0.500000  0.150987  0.891381  1
  P  P34  1  0.000000  0.656432  0.106846  1
  P  P35  1  0.000000  0.343568  0.106846  1
