# generated using pymatgen
data_Lu5Hg2Os
_symmetry_space_group_name_H-M   'P 1'
_cell_length_a   7.39064900
_cell_length_b   9.13768800
_cell_length_c   11.85761400
_cell_angle_alpha   90.00000000
_cell_angle_beta   90.00000000
_cell_angle_gamma   90.00000000
_symmetry_Int_Tables_number   1
_chemical_formula_structural   Lu5Hg2Os
_chemical_formula_sum   'Lu20 Hg8 Os4'
_cell_volume   800.78551910
_cell_formula_units_Z   4
loop_
 _symmetry_equiv_pos_site_id
 _symmetry_equiv_pos_as_xyz
  1  'x, y, z'
loop_
 _atom_site_type_symbol
 _atom_site_label
 _atom_site_symmetry_multiplicity
 _atom_site_fract_x
 _atom_site_fract_y
 _atom_site_fract_z
 _atom_site_occupancy
  Lu  Lu0  1  0.840861  0.750000  0.778714  1
  Lu  Lu1  1  0.159139  0.250000  0.221286  1
  Lu  Lu2  1  0.340861  0.250000  0.721286  1
  Lu  Lu3  1  0.659139  0.750000  0.278714  1
  Lu  Lu4  1  0.370626  0.750000  0.689459  1
  Lu  Lu5  1  0.629374  0.250000  0.310541  1
  Lu  Lu6  1  0.870626  0.250000  0.810541  1
  Lu  Lu7  1  0.129374  0.750000  0.189459  1
  Lu  Lu8  1  0.954683  0.750000  0.499232  1
  Lu  Lu9  1  0.045317  0.250000  0.500768  1
  Lu  Lu10  1  0.454683  0.250000  0.000768  1
  Lu  Lu11  1  0.545317  0.750000  0.999232  1
  Lu  Lu12  1  0.673963  0.031149  0.578684  1
  Lu  Lu13  1  0.326037  0.968851  0.421316  1
  Lu  Lu14  1  0.173963  0.968851  0.921316  1
  Lu  Lu15  1  0.326037  0.531149  0.421316  1
  Lu  Lu16  1  0.826037  0.031149  0.078684  1
  Lu  Lu17  1  0.673963  0.468851  0.578684  1
  Lu  Lu18  1  0.826037  0.468851  0.078684  1
  Lu  Lu19  1  0.173963  0.531149  0.921316  1
  Hg  Hg20  1  0.576012  0.493889  0.836561  1
  Hg  Hg21  1  0.423988  0.506111  0.163439  1
  Hg  Hg22  1  0.076012  0.506111  0.663439  1
  Hg  Hg23  1  0.423988  0.993889  0.163439  1
  Hg  Hg24  1  0.923988  0.493889  0.336561  1
  Hg  Hg25  1  0.576012  0.006111  0.836561  1
  Hg  Hg26  1  0.923988  0.006111  0.336561  1
  Hg  Hg27  1  0.076012  0.993889  0.663439  1
  Os  Os28  1  0.571467  0.750000  0.501749  1
  Os  Os29  1  0.428533  0.250000  0.498251  1
  Os  Os30  1  0.071467  0.250000  0.998251  1
  Os  Os31  1  0.928533  0.750000  0.001749  1
