# generated using pymatgen
data_La11Nd9Ir11Rh
_symmetry_space_group_name_H-M   'P 1'
_cell_length_a   11.35511525
_cell_length_b   11.33771724
_cell_length_c   6.64162787
_cell_angle_alpha   90.13745416
_cell_angle_beta   89.99695726
_cell_angle_gamma   90.05365484
_symmetry_Int_Tables_number   1
_chemical_formula_structural   La11Nd9Ir11Rh
_chemical_formula_sum   'La11 Nd9 Ir11 Rh1'
_cell_volume   855.04754825
_cell_formula_units_Z   1
loop_
 _symmetry_equiv_pos_site_id
 _symmetry_equiv_pos_as_xyz
  1  'x, y, z'
loop_
 _atom_site_type_symbol
 _atom_site_label
 _atom_site_symmetry_multiplicity
 _atom_site_fract_x
 _atom_site_fract_y
 _atom_site_fract_z
 _atom_site_occupancy
  La  La0  1  0.590857  0.207162  0.393327  1
  La  La1  1  0.410781  0.792741  0.393396  1
  La  La2  1  0.409346  0.207567  0.891042  1
  La  La3  1  0.209367  0.407764  0.608202  1
  La  La4  1  0.209400  0.593264  0.107781  1
  La  La5  1  0.790622  0.407049  0.108901  1
  La  La6  1  0.789748  0.593029  0.609112  1
  La  La7  1  0.906733  0.709906  0.109040  1
  La  La8  1  0.908321  0.290313  0.610059  1
  La  La9  1  0.091398  0.709844  0.609502  1
  La  La10  1  0.092478  0.290133  0.110400  1
  Nd  Nd11  1  0.290616  0.088671  0.392371  1
  Nd  Nd12  1  0.291132  0.910306  0.889440  1
  Nd  Nd13  1  0.709644  0.087490  0.888989  1
  Nd  Nd14  1  0.708482  0.909981  0.391977  1
  Nd  Nd15  1  0.590112  0.792860  0.889274  1
  Nd  Nd16  1  0.999820  0.999932  0.500488  1
  Nd  Nd17  1  0.000188  0.999423  0.000762  1
  Nd  Nd18  1  0.500990  0.501519  0.998130  1
  Nd  Nd19  1  0.499610  0.499826  0.498934  1
  Ir  Ir20  1  0.845270  0.151348  0.252286  1
  Ir  Ir21  1  0.846334  0.847047  0.750672  1
  Ir  Ir22  1  0.152749  0.153149  0.751363  1
  Ir  Ir23  1  0.154430  0.848409  0.252216  1
  Ir  Ir24  1  0.653849  0.345812  0.749457  1
  Ir  Ir25  1  0.652888  0.654431  0.250894  1
  Ir  Ir26  1  0.347369  0.345132  0.249366  1
  Ir  Ir27  1  0.347606  0.655028  0.750281  1
  Ir  Ir28  1  0.499589  0.000504  0.625496  1
  Ir  Ir29  1  0.999712  0.500257  0.873978  1
  Ir  Ir30  1  0.000386  0.499933  0.373374  1
  Rh  Rh31  1  0.500168  0.000169  0.119495  1
