# generated using pymatgen
data_La2Al20CrRh3
_symmetry_space_group_name_H-M   'P 1'
_cell_length_a   6.94264742
_cell_length_b   6.91078303
_cell_length_c   9.24939166
_cell_angle_alpha   89.88757700
_cell_angle_beta   89.77146521
_cell_angle_gamma   97.21596642
_symmetry_Int_Tables_number   1
_chemical_formula_structural   La2Al20CrRh3
_chemical_formula_sum   'La2 Al20 Cr1 Rh3'
_cell_volume   440.25806864
_cell_formula_units_Z   1
loop_
 _symmetry_equiv_pos_site_id
 _symmetry_equiv_pos_as_xyz
  1  'x, y, z'
loop_
 _atom_site_type_symbol
 _atom_site_label
 _atom_site_symmetry_multiplicity
 _atom_site_fract_x
 _atom_site_fract_y
 _atom_site_fract_z
 _atom_site_occupancy
  La  La0  1  0.880307  0.126823  0.747442  1
  La  La1  1  0.119693  0.873177  0.252558  1
  Al  Al2  1  0.625280  0.382743  0.549881  1
  Al  Al3  1  0.374720  0.617257  0.450119  1
  Al  Al4  1  0.378822  0.620114  0.051643  1
  Al  Al5  1  0.621178  0.379886  0.948357  1
  Al  Al6  1  0.225096  0.230417  0.502020  1
  Al  Al7  1  0.774904  0.769583  0.497980  1
  Al  Al8  1  0.774557  0.773722  0.999239  1
  Al  Al9  1  0.225443  0.226278  0.000761  1
  Al  Al10  1  0.838106  0.160310  0.104070  1
  Al  Al11  1  0.161894  0.839690  0.895930  1
  Al  Al12  1  0.160089  0.834828  0.601792  1
  Al  Al13  1  0.839911  0.165172  0.398208  1
  Al  Al14  1  0.862241  0.591063  0.747227  1
  Al  Al15  1  0.137759  0.408937  0.252773  1
  Al  Al16  1  0.406515  0.139079  0.749534  1
  Al  Al17  1  0.593485  0.860921  0.250466  1
  Al  Al18  1  0.222845  0.481891  0.745650  1
  Al  Al19  1  0.777155  0.518109  0.254350  1
  Al  Al20  1  0.519215  0.773959  0.751549  1
  Al  Al21  1  0.480785  0.226041  0.248451  1
  Cr  Cr22  1  0.000000  0.500000  0.500000  1
  Rh  Rh23  1  0.000000  0.500000  0.000000  1
  Rh  Rh24  1  0.500000  0.000000  0.000000  1
  Rh  Rh25  1  0.500000  0.000000  0.500000  1
