# generated using pymatgen
data_V3Co6SiMo3
_symmetry_space_group_name_H-M   'P 1'
_cell_length_a   8.67150852
_cell_length_b   8.67150851
_cell_length_c   8.67150869
_cell_angle_alpha   31.67604596
_cell_angle_beta   31.67604668
_cell_angle_gamma   31.67604110
_symmetry_Int_Tables_number   1
_chemical_formula_structural   V3Co6SiMo3
_chemical_formula_sum   'V3 Co6 Si1 Mo3'
_cell_volume   159.67181420
_cell_formula_units_Z   1
loop_
 _symmetry_equiv_pos_site_id
 _symmetry_equiv_pos_as_xyz
  1  'x, y, z'
loop_
 _atom_site_type_symbol
 _atom_site_label
 _atom_site_symmetry_multiplicity
 _atom_site_fract_x
 _atom_site_fract_y
 _atom_site_fract_z
 _atom_site_occupancy
  V  V0  1  0.830995  0.830995  0.830995  1
  V  V1  1  0.650433  0.650433  0.650433  1
  V  V2  1  0.450779  0.450779  0.450779  1
  Co  Co3  1  0.090977  0.090977  0.587710  1
  Co  Co4  1  0.415591  0.908534  0.908534  1
  Co  Co5  1  0.587710  0.090977  0.090977  1
  Co  Co6  1  0.908534  0.908534  0.415591  1
  Co  Co7  1  0.908534  0.415591  0.908534  1
  Co  Co8  1  0.090977  0.587710  0.090977  1
  Si  Si9  1  0.000353  0.000353  0.000353  1
  Mo  Mo10  1  0.548395  0.548395  0.548395  1
  Mo  Mo11  1  0.167152  0.167152  0.167152  1
  Mo  Mo12  1  0.349570  0.349570  0.349570  1
