# generated using pymatgen
data_Li8Ho8Sn5Bi3
_symmetry_space_group_name_H-M   'P 1'
_cell_length_a   9.45742307
_cell_length_b   9.45750560
_cell_length_c   7.20283507
_cell_angle_alpha   90.01803818
_cell_angle_beta   89.98734211
_cell_angle_gamma   119.99829804
_symmetry_Int_Tables_number   1
_chemical_formula_structural   Li8Ho8Sn5Bi3
_chemical_formula_sum   'Li8 Ho8 Sn5 Bi3'
_cell_volume   557.94443741
_cell_formula_units_Z   1
loop_
 _symmetry_equiv_pos_site_id
 _symmetry_equiv_pos_as_xyz
  1  'x, y, z'
loop_
 _atom_site_type_symbol
 _atom_site_label
 _atom_site_symmetry_multiplicity
 _atom_site_fract_x
 _atom_site_fract_y
 _atom_site_fract_z
 _atom_site_occupancy
  Li  Li0  1  0.167051  0.333982  0.279406  1
  Li  Li1  1  0.167100  0.832955  0.279797  1
  Li  Li2  1  0.665961  0.832949  0.279524  1
  Li  Li3  1  0.831679  0.663292  0.787133  1
  Li  Li4  1  0.831655  0.168343  0.787790  1
  Li  Li5  1  0.336754  0.168439  0.787329  1
  Li  Li6  1  0.333315  0.666582  0.672860  1
  Li  Li7  1  0.666430  0.333418  0.179834  1
  Ho  Ho8  1  0.514491  0.028630  0.488990  1
  Ho  Ho9  1  0.514104  0.485795  0.488695  1
  Ho  Ho10  1  0.971464  0.485542  0.488887  1
  Ho  Ho11  1  0.491277  0.982522  0.999866  1
  Ho  Ho12  1  0.491095  0.508900  0.999819  1
  Ho  Ho13  1  0.017538  0.508755  0.999891  1
  Ho  Ho14  1  0.999970  0.999988  0.492953  1
  Ho  Ho15  1  0.000047  0.999984  0.008804  1
  Sn  Sn16  1  0.833422  0.666707  0.233150  1
  Sn  Sn17  1  0.833437  0.166584  0.233114  1
  Sn  Sn18  1  0.333286  0.166559  0.233162  1
  Sn  Sn19  1  0.333256  0.666634  0.258622  1
  Sn  Sn20  1  0.666724  0.333459  0.760033  1
  Bi  Bi21  1  0.166524  0.333297  0.734090  1
  Bi  Bi22  1  0.166868  0.833282  0.734133  1
  Bi  Bi23  1  0.666552  0.833402  0.734089  1
