# generated using pymatgen
data_Tb3Dy(Er3Sn4)2
_symmetry_space_group_name_H-M   'P 1'
_cell_length_a   8.00677300
_cell_length_b   8.14520102
_cell_length_c   15.39210504
_cell_angle_alpha   89.99190901
_cell_angle_beta   90.00000000
_cell_angle_gamma   90.00000000
_symmetry_Int_Tables_number   1
_chemical_formula_structural   Tb3Dy(Er3Sn4)2
_chemical_formula_sum   'Tb6 Dy2 Er12 Sn16'
_cell_volume   1003.82345043
_cell_formula_units_Z   2
loop_
 _symmetry_equiv_pos_site_id
 _symmetry_equiv_pos_as_xyz
  1  'x, y, z'
loop_
 _atom_site_type_symbol
 _atom_site_label
 _atom_site_symmetry_multiplicity
 _atom_site_fract_x
 _atom_site_fract_y
 _atom_site_fract_z
 _atom_site_occupancy
  Tb  Tb0  1  0.521427  0.320244  0.902541  1
  Tb  Tb1  1  0.021427  0.179756  0.597459  1
  Tb  Tb2  1  0.478554  0.679718  0.402526  1
  Tb  Tb3  1  0.978554  0.820282  0.097474  1
  Tb  Tb4  1  0.478555  0.679728  0.097491  1
  Tb  Tb5  1  0.978555  0.820272  0.402509  1
  Dy  Dy6  1  0.521489  0.320259  0.597534  1
  Dy  Dy7  1  0.021489  0.179741  0.902466  1
  Er  Er8  1  0.367636  0.836149  0.877814  1
  Er  Er9  1  0.867636  0.663851  0.622186  1
  Er  Er10  1  0.632324  0.163926  0.377813  1
  Er  Er11  1  0.132324  0.336074  0.122187  1
  Er  Er12  1  0.632328  0.163919  0.122219  1
  Er  Er13  1  0.132328  0.336081  0.377781  1
  Er  Er14  1  0.367662  0.836129  0.622181  1
  Er  Er15  1  0.867662  0.663871  0.877819  1
  Er  Er16  1  0.198157  0.503515  0.749986  1
  Er  Er17  1  0.698157  0.996485  0.750014  1
  Er  Er18  1  0.801886  0.496340  0.249989  1
  Er  Er19  1  0.301886  0.003660  0.250011  1
  Sn  Sn20  1  0.293048  0.035988  0.041765  1
  Sn  Sn21  1  0.793048  0.464012  0.458235  1
  Sn  Sn22  1  0.706686  0.964206  0.541860  1
  Sn  Sn23  1  0.206686  0.535794  0.958140  1
  Sn  Sn24  1  0.706992  0.964237  0.958116  1
  Sn  Sn25  1  0.206992  0.535763  0.541884  1
  Sn  Sn26  1  0.293224  0.035915  0.458162  1
  Sn  Sn27  1  0.793224  0.464085  0.041838  1
  Sn  Sn28  1  0.565001  0.620102  0.749992  1
  Sn  Sn29  1  0.065001  0.879898  0.750008  1
  Sn  Sn30  1  0.434977  0.379817  0.250011  1
  Sn  Sn31  1  0.934977  0.120183  0.249989  1
  Sn  Sn32  1  0.329707  0.146970  0.749942  1
  Sn  Sn33  1  0.829707  0.353030  0.750058  1
  Sn  Sn34  1  0.670349  0.853147  0.250002  1
  Sn  Sn35  1  0.170349  0.646853  0.249998  1
