# generated using pymatgen
data_Eu4ScW3O14
_symmetry_space_group_name_H-M   'P 1'
_cell_length_a   7.58244196
_cell_length_b   7.58244270
_cell_length_c   7.48183020
_cell_angle_alpha   59.55414832
_cell_angle_beta   59.55415491
_cell_angle_gamma   60.00000217
_symmetry_Int_Tables_number   1
_chemical_formula_structural   Eu4ScW3O14
_chemical_formula_sum   'Eu4 Sc1 W3 O14'
_cell_volume   302.10037808
_cell_formula_units_Z   1
loop_
 _symmetry_equiv_pos_site_id
 _symmetry_equiv_pos_as_xyz
  1  'x, y, z'
loop_
 _atom_site_type_symbol
 _atom_site_label
 _atom_site_symmetry_multiplicity
 _atom_site_fract_x
 _atom_site_fract_y
 _atom_site_fract_z
 _atom_site_occupancy
  Eu  Eu0  1  0.125000  0.625000  0.125000  1
  Eu  Eu1  1  0.125000  0.125000  0.625000  1
  Eu  Eu2  1  0.625000  0.125000  0.125000  1
  Eu  Eu3  1  0.125000  0.125000  0.125000  1
  Sc  Sc4  1  0.625000  0.625000  0.125000  1
  W  W5  1  0.625000  0.625000  0.625000  1
  W  W6  1  0.125000  0.625000  0.625000  1
  W  W7  1  0.625000  0.125000  0.625000  1
  O  O8  1  0.300887  0.706270  0.691956  1
  O  O9  1  0.549562  0.960820  0.940056  1
  O  O10  1  0.700438  0.700438  0.309944  1
  O  O11  1  0.300887  0.300887  0.691956  1
  O  O12  1  0.998772  0.998772  0.003685  1
  O  O13  1  0.289180  0.700438  0.309944  1
  O  O14  1  0.706270  0.300887  0.691956  1
  O  O15  1  0.960820  0.549562  0.940056  1
  O  O16  1  0.549562  0.549562  0.940056  1
  O  O17  1  0.949113  0.949113  0.558044  1
  O  O18  1  0.251228  0.251228  0.246315  1
  O  O19  1  0.543730  0.949113  0.558044  1
  O  O20  1  0.700438  0.289180  0.309944  1
  O  O21  1  0.949113  0.543730  0.558044  1
