# generated using pymatgen
data_Y6Tm4Si5Bi
_symmetry_space_group_name_H-M   'P 1'
_cell_length_a   8.53933633
_cell_length_b   8.53933531
_cell_length_c   6.31556100
_cell_angle_alpha   90.00000000
_cell_angle_beta   90.00000000
_cell_angle_gamma   120.32526323
_symmetry_Int_Tables_number   1
_chemical_formula_structural   Y6Tm4Si5Bi
_chemical_formula_sum   'Y6 Tm4 Si5 Bi1'
_cell_volume   397.51907318
_cell_formula_units_Z   1
loop_
 _symmetry_equiv_pos_site_id
 _symmetry_equiv_pos_as_xyz
  1  'x, y, z'
loop_
 _atom_site_type_symbol
 _atom_site_label
 _atom_site_symmetry_multiplicity
 _atom_site_fract_x
 _atom_site_fract_y
 _atom_site_fract_z
 _atom_site_occupancy
  Y  Y0  1  0.765971  0.765971  0.250000  1
  Y  Y1  1  0.241553  0.985519  0.250000  1
  Y  Y2  1  0.985519  0.241553  0.250000  1
  Y  Y3  1  0.241781  0.241781  0.750000  1
  Y  Y4  1  0.753225  0.998113  0.750000  1
  Y  Y5  1  0.998113  0.753225  0.750000  1
  Tm  Tm6  1  0.676976  0.330496  0.504531  1
  Tm  Tm7  1  0.330496  0.676976  0.504531  1
  Tm  Tm8  1  0.330496  0.676976  0.995469  1
  Tm  Tm9  1  0.676976  0.330496  0.995469  1
  Si  Si10  1  0.602794  0.998363  0.250000  1
  Si  Si11  1  0.998363  0.602794  0.250000  1
  Si  Si12  1  0.605951  0.605951  0.750000  1
  Si  Si13  1  0.394321  0.002780  0.750000  1
  Si  Si14  1  0.002780  0.394321  0.750000  1
  Bi  Bi15  1  0.394685  0.394685  0.250000  1
