# generated using pymatgen
data_TmPa3B8
_symmetry_space_group_name_H-M   'P 1'
_cell_length_a   3.19609800
_cell_length_b   3.19609622
_cell_length_c   16.06294600
_cell_angle_alpha   90.00000000
_cell_angle_beta   90.00000000
_cell_angle_gamma   120.00001847
_symmetry_Int_Tables_number   1
_chemical_formula_structural   TmPa3B8
_chemical_formula_sum   'Tm1 Pa3 B8'
_cell_volume   142.10052498
_cell_formula_units_Z   1
loop_
 _symmetry_equiv_pos_site_id
 _symmetry_equiv_pos_as_xyz
  1  'x, y, z'
loop_
 _atom_site_type_symbol
 _atom_site_label
 _atom_site_symmetry_multiplicity
 _atom_site_fract_x
 _atom_site_fract_y
 _atom_site_fract_z
 _atom_site_occupancy
  Tm  Tm0  1  0.000000  0.000000  0.000000  1
  Pa  Pa1  1  0.000000  0.000000  0.754435  1
  Pa  Pa2  1  0.000000  0.000000  0.500000  1
  Pa  Pa3  1  0.000000  0.000000  0.245565  1
  B  B4  1  0.666667  0.333333  0.880631  1
  B  B5  1  0.666667  0.333333  0.626820  1
  B  B6  1  0.666667  0.333333  0.373180  1
  B  B7  1  0.666667  0.333333  0.119369  1
  B  B8  1  0.333333  0.666667  0.880631  1
  B  B9  1  0.333333  0.666667  0.626820  1
  B  B10  1  0.333333  0.666667  0.373180  1
  B  B11  1  0.333333  0.666667  0.119369  1
