# generated using pymatgen
data_Sm8AlHgPd23
_symmetry_space_group_name_H-M   'P 1'
_cell_length_a   8.39864900
_cell_length_b   8.50116600
_cell_length_c   8.51806300
_cell_angle_alpha   90.00000000
_cell_angle_beta   90.00000000
_cell_angle_gamma   90.00000000
_symmetry_Int_Tables_number   1
_chemical_formula_structural   Sm8AlHgPd23
_chemical_formula_sum   'Sm8 Al1 Hg1 Pd23'
_cell_volume   608.17529692
_cell_formula_units_Z   1
loop_
 _symmetry_equiv_pos_site_id
 _symmetry_equiv_pos_as_xyz
  1  'x, y, z'
loop_
 _atom_site_type_symbol
 _atom_site_label
 _atom_site_symmetry_multiplicity
 _atom_site_fract_x
 _atom_site_fract_y
 _atom_site_fract_z
 _atom_site_occupancy
  Sm  Sm0  1  0.251408  0.243785  0.261432  1
  Sm  Sm1  1  0.747665  0.746775  0.748295  1
  Sm  Sm2  1  0.747665  0.746775  0.251705  1
  Sm  Sm3  1  0.747665  0.253225  0.748295  1
  Sm  Sm4  1  0.251408  0.243785  0.738568  1
  Sm  Sm5  1  0.251408  0.756215  0.261432  1
  Sm  Sm6  1  0.251408  0.756215  0.738568  1
  Sm  Sm7  1  0.747665  0.253225  0.251705  1
  Al  Al8  1  0.999577  0.000000  0.000000  1
  Hg  Hg9  1  0.265691  0.500000  0.000000  1
  Pd  Pd10  1  0.741129  0.500000  0.000000  1
  Pd  Pd11  1  0.997323  0.259258  0.500000  1
  Pd  Pd12  1  0.499124  0.256513  0.000000  1
  Pd  Pd13  1  0.997323  0.740742  0.500000  1
  Pd  Pd14  1  0.499124  0.743487  0.000000  1
  Pd  Pd15  1  0.501267  0.000000  0.259232  1
  Pd  Pd16  1  0.259314  0.000000  0.500000  1
  Pd  Pd17  1  0.501267  0.000000  0.740768  1
  Pd  Pd18  1  0.739136  0.000000  0.500000  1
  Pd  Pd19  1  0.002198  0.500000  0.260482  1
  Pd  Pd20  1  0.002198  0.500000  0.739518  1
  Pd  Pd21  1  0.252676  0.500000  0.500000  1
  Pd  Pd22  1  0.747398  0.500000  0.500000  1
  Pd  Pd23  1  0.502034  0.253181  0.500000  1
  Pd  Pd24  1  0.502034  0.746819  0.500000  1
  Pd  Pd25  1  0.498414  0.500000  0.256429  1
  Pd  Pd26  1  0.498414  0.500000  0.743571  1
  Pd  Pd27  1  0.288910  0.000000  0.000000  1
  Pd  Pd28  1  0.709876  0.000000  0.000000  1
  Pd  Pd29  1  0.002595  0.286857  0.000000  1
  Pd  Pd30  1  0.002595  0.713143  0.000000  1
  Pd  Pd31  1  0.997044  0.000000  0.288671  1
  Pd  Pd32  1  0.997044  0.000000  0.711329  1
