# generated using pymatgen
data_Tb3Ho13Cd3InPd4
_symmetry_space_group_name_H-M   'P 1'
_cell_length_a   9.67422902
_cell_length_b   9.67160340
_cell_length_c   9.67160507
_cell_angle_alpha   60.02618484
_cell_angle_beta   60.03162669
_cell_angle_gamma   60.03162095
_symmetry_Int_Tables_number   1
_chemical_formula_structural   Tb3Ho13Cd3InPd4
_chemical_formula_sum   'Tb3 Ho13 Cd3 In1 Pd4'
_cell_volume   640.31219978
_cell_formula_units_Z   1
loop_
 _symmetry_equiv_pos_site_id
 _symmetry_equiv_pos_as_xyz
  1  'x, y, z'
loop_
 _atom_site_type_symbol
 _atom_site_label
 _atom_site_symmetry_multiplicity
 _atom_site_fract_x
 _atom_site_fract_y
 _atom_site_fract_z
 _atom_site_occupancy
  Tb  Tb0  1  0.352069  0.352060  0.352060  1
  Tb  Tb1  1  0.355601  0.355699  0.936759  1
  Tb  Tb2  1  0.355601  0.936759  0.355699  1
  Ho  Ho3  1  0.937149  0.355624  0.355624  1
  Ho  Ho4  1  0.810914  0.189407  0.189407  1
  Ho  Ho5  1  0.189833  0.810047  0.810047  1
  Ho  Ho6  1  0.189137  0.811084  0.189110  1
  Ho  Ho7  1  0.810025  0.189873  0.809594  1
  Ho  Ho8  1  0.189137  0.189110  0.811084  1
  Ho  Ho9  1  0.810025  0.809594  0.189873  1
  Ho  Ho10  1  0.935620  0.566867  0.566867  1
  Ho  Ho11  1  0.565187  0.934787  0.934787  1
  Ho  Ho12  1  0.567062  0.935386  0.567124  1
  Ho  Ho13  1  0.934900  0.564952  0.935077  1
  Ho  Ho14  1  0.567062  0.567124  0.935386  1
  Ho  Ho15  1  0.934900  0.935077  0.564952  1
  Cd  Cd16  1  0.581875  0.581275  0.251449  1
  Cd  Cd17  1  0.581875  0.251449  0.581275  1
  Cd  Cd18  1  0.251479  0.581436  0.581436  1
  In  In19  1  0.582297  0.582721  0.582721  1
  Pd  Pd20  1  0.144094  0.144993  0.144993  1
  Pd  Pd21  1  0.142497  0.143349  0.568455  1
  Pd  Pd22  1  0.142497  0.568455  0.143349  1
  Pd  Pd23  1  0.569161  0.142868  0.142868  1
