# generated using pymatgen
data_PuNb3F20
_symmetry_space_group_name_H-M   'P 1'
_cell_length_a   9.10975861
_cell_length_b   9.10975876
_cell_length_c   5.42275760
_cell_angle_alpha   86.81879481
_cell_angle_beta   86.81878524
_cell_angle_gamma   112.41478769
_symmetry_Int_Tables_number   1
_chemical_formula_structural   PuNb3F20
_chemical_formula_sum   'Pu1 Nb3 F20'
_cell_volume   413.94599720
_cell_formula_units_Z   1
loop_
 _symmetry_equiv_pos_site_id
 _symmetry_equiv_pos_as_xyz
  1  'x, y, z'
loop_
 _atom_site_type_symbol
 _atom_site_label
 _atom_site_symmetry_multiplicity
 _atom_site_fract_x
 _atom_site_fract_y
 _atom_site_fract_z
 _atom_site_occupancy
  Pu  Pu0  1  0.744934  0.744934  0.753576  1
  Nb  Nb1  1  0.253428  0.253428  0.246669  1
  Nb  Nb2  1  0.208557  0.805296  0.005448  1
  Nb  Nb3  1  0.805296  0.208557  0.005448  1
  F  F4  1  0.406057  0.839919  0.126654  1
  F  F5  1  0.173473  0.607318  0.886189  1
  F  F6  1  0.607318  0.173473  0.886189  1
  F  F7  1  0.839919  0.406057  0.126654  1
  F  F8  1  0.125818  0.125818  0.525868  1
  F  F9  1  0.848311  0.848311  0.420079  1
  F  F10  1  0.319845  0.319845  0.907024  1
  F  F11  1  0.640240  0.640240  0.087133  1
  F  F12  1  0.268064  0.451452  0.344133  1
  F  F13  1  0.530296  0.730548  0.648370  1
  F  F14  1  0.730548  0.530296  0.648370  1
  F  F15  1  0.451452  0.268064  0.344133  1
  F  F16  1  0.026539  0.219396  0.121415  1
  F  F17  1  0.788229  0.986079  0.886842  1
  F  F18  1  0.986079  0.788229  0.886842  1
  F  F19  1  0.219396  0.026539  0.121415  1
  F  F20  1  0.926172  0.289361  0.697526  1
  F  F21  1  0.723783  0.086883  0.313248  1
  F  F22  1  0.086883  0.723783  0.313248  1
  F  F23  1  0.289361  0.926172  0.697526  1
