# generated using pymatgen
data_Yb12Er5Tm3Sn16
_symmetry_space_group_name_H-M   'P 1'
_cell_length_a   7.82108203
_cell_length_b   8.40772907
_cell_length_c   16.00505000
_cell_angle_alpha   89.99518885
_cell_angle_beta   90.00522330
_cell_angle_gamma   89.99463049
_symmetry_Int_Tables_number   1
_chemical_formula_structural   Yb12Er5Tm3Sn16
_chemical_formula_sum   'Yb12 Er5 Tm3 Sn16'
_cell_volume   1052.45268265
_cell_formula_units_Z   1
loop_
 _symmetry_equiv_pos_site_id
 _symmetry_equiv_pos_as_xyz
  1  'x, y, z'
loop_
 _atom_site_type_symbol
 _atom_site_label
 _atom_site_symmetry_multiplicity
 _atom_site_fract_x
 _atom_site_fract_y
 _atom_site_fract_z
 _atom_site_occupancy
  Yb  Yb0  1  0.499937  0.687027  0.593249  1
  Yb  Yb1  1  0.999955  0.812992  0.906738  1
  Yb  Yb2  1  0.500029  0.312962  0.093259  1
  Yb  Yb3  1  0.000066  0.186975  0.406747  1
  Yb  Yb4  1  0.500141  0.312982  0.406790  1
  Yb  Yb5  1  0.000205  0.186964  0.093233  1
  Yb  Yb6  1  0.499817  0.686985  0.906758  1
  Yb  Yb7  1  0.999834  0.813058  0.593267  1
  Yb  Yb8  1  0.828592  0.511108  0.749993  1
  Yb  Yb9  1  0.328601  0.988888  0.749981  1
  Yb  Yb10  1  0.171471  0.488864  0.249991  1
  Yb  Yb11  1  0.671375  0.011181  0.249977  1
  Er  Er12  1  0.832237  0.667161  0.377959  1
  Er  Er13  1  0.332278  0.832848  0.377958  1
  Er  Er14  1  0.832244  0.667104  0.122083  1
  Er  Er15  1  0.667788  0.167116  0.877869  1
  Er  Er16  1  0.167794  0.332854  0.622115  1
  Tm  Tm17  1  0.667677  0.167070  0.622069  1
  Tm  Tm18  1  0.167662  0.332963  0.877898  1
  Tm  Tm19  1  0.332330  0.832961  0.122098  1
  Sn  Sn20  1  0.673504  0.964382  0.460093  1
  Sn  Sn21  1  0.173680  0.535803  0.039970  1
  Sn  Sn22  1  0.326288  0.035784  0.960028  1
  Sn  Sn23  1  0.826301  0.464084  0.540088  1
  Sn  Sn24  1  0.326627  0.035831  0.540045  1
  Sn  Sn25  1  0.826572  0.464196  0.959940  1
  Sn  Sn26  1  0.673459  0.964177  0.040069  1
  Sn  Sn27  1  0.173554  0.535778  0.459973  1
  Sn  Sn28  1  0.464623  0.373409  0.750013  1
  Sn  Sn29  1  0.964619  0.126580  0.749967  1
  Sn  Sn30  1  0.535239  0.626524  0.249944  1
  Sn  Sn31  1  0.035584  0.873576  0.249919  1
  Sn  Sn32  1  0.709936  0.874105  0.749943  1
  Sn  Sn33  1  0.209913  0.625902  0.750034  1
  Sn  Sn34  1  0.290019  0.125848  0.249942  1
  Sn  Sn35  1  0.790053  0.373957  0.250000  1
