# generated using pymatgen
data_K8MgTl10
_symmetry_space_group_name_H-M   'P 1'
_cell_length_a   10.47830500
_cell_length_b   10.47830500
_cell_length_c   14.17355200
_cell_angle_alpha   90.00000000
_cell_angle_beta   90.00000000
_cell_angle_gamma   90.00000000
_symmetry_Int_Tables_number   1
_chemical_formula_structural   K8MgTl10
_chemical_formula_sum   'K16 Mg2 Tl20'
_cell_volume   1556.18337969
_cell_formula_units_Z   2
loop_
 _symmetry_equiv_pos_site_id
 _symmetry_equiv_pos_as_xyz
  1  'x, y, z'
loop_
 _atom_site_type_symbol
 _atom_site_label
 _atom_site_symmetry_multiplicity
 _atom_site_fract_x
 _atom_site_fract_y
 _atom_site_fract_z
 _atom_site_occupancy
  K  K0  1  0.703726  0.073498  0.145149  1
  K  K1  1  0.296274  0.926502  0.145149  1
  K  K2  1  0.296274  0.073498  0.854851  1
  K  K3  1  0.703726  0.926502  0.854851  1
  K  K4  1  0.796274  0.426502  0.354851  1
  K  K5  1  0.203726  0.573498  0.354851  1
  K  K6  1  0.203726  0.426502  0.645149  1
  K  K7  1  0.796274  0.573498  0.645149  1
  K  K8  1  0.073498  0.703726  0.854851  1
  K  K9  1  0.926502  0.296274  0.854851  1
  K  K10  1  0.073498  0.296274  0.145149  1
  K  K11  1  0.926502  0.703726  0.145149  1
  K  K12  1  0.426502  0.796274  0.645149  1
  K  K13  1  0.573498  0.203726  0.645149  1
  K  K14  1  0.426502  0.203726  0.354851  1
  K  K15  1  0.573498  0.796274  0.354851  1
  Mg  Mg16  1  0.500000  0.500000  0.000000  1
  Mg  Mg17  1  0.000000  0.000000  0.500000  1
  Tl  Tl18  1  0.757194  0.096672  0.409019  1
  Tl  Tl19  1  0.242806  0.903328  0.409019  1
  Tl  Tl20  1  0.242806  0.096672  0.590981  1
  Tl  Tl21  1  0.757194  0.903328  0.590981  1
  Tl  Tl22  1  0.742806  0.403328  0.090981  1
  Tl  Tl23  1  0.257194  0.596672  0.090981  1
  Tl  Tl24  1  0.257194  0.403328  0.909019  1
  Tl  Tl25  1  0.742806  0.596672  0.909019  1
  Tl  Tl26  1  0.096672  0.757194  0.590981  1
  Tl  Tl27  1  0.903328  0.242806  0.590981  1
  Tl  Tl28  1  0.096672  0.242806  0.409019  1
  Tl  Tl29  1  0.903328  0.757194  0.409019  1
  Tl  Tl30  1  0.403328  0.742806  0.909019  1
  Tl  Tl31  1  0.596672  0.257194  0.909019  1
  Tl  Tl32  1  0.403328  0.257194  0.090981  1
  Tl  Tl33  1  0.596672  0.742806  0.090981  1
  Tl  Tl34  1  0.500000  0.500000  0.212091  1
  Tl  Tl35  1  0.500000  0.500000  0.787909  1
  Tl  Tl36  1  0.000000  0.000000  0.287909  1
  Tl  Tl37  1  0.000000  0.000000  0.712091  1
