# generated using pymatgen
data_SrTa2HgO7
_symmetry_space_group_name_H-M   'P 1'
_cell_length_a   7.69544676
_cell_length_b   7.54635945
_cell_length_c   7.54635944
_cell_angle_alpha   58.91714240
_cell_angle_beta   59.34428483
_cell_angle_gamma   59.34428327
_symmetry_Int_Tables_number   1
_chemical_formula_structural   SrTa2HgO7
_chemical_formula_sum   'Sr2 Ta4 Hg2 O14'
_cell_volume   304.23401732
_cell_formula_units_Z   2
loop_
 _symmetry_equiv_pos_site_id
 _symmetry_equiv_pos_as_xyz
  1  'x, y, z'
loop_
 _atom_site_type_symbol
 _atom_site_label
 _atom_site_symmetry_multiplicity
 _atom_site_fract_x
 _atom_site_fract_y
 _atom_site_fract_z
 _atom_site_occupancy
  Sr  Sr0  1  0.625000  0.625000  0.625000  1
  Sr  Sr1  1  0.125000  0.625000  0.625000  1
  Ta  Ta2  1  0.125000  0.625000  0.125000  1
  Ta  Ta3  1  0.125000  0.125000  0.625000  1
  Ta  Ta4  1  0.625000  0.125000  0.125000  1
  Ta  Ta5  1  0.125000  0.125000  0.125000  1
  Hg  Hg6  1  0.625000  0.125000  0.625000  1
  Hg  Hg7  1  0.625000  0.625000  0.125000  1
  O  O8  1  0.725425  0.774575  0.774575  1
  O  O9  1  0.193618  0.806382  0.806382  1
  O  O10  1  0.180805  0.810514  0.193616  1
  O  O11  1  0.815066  0.810514  0.193616  1
  O  O12  1  0.815066  0.193616  0.810514  1
  O  O13  1  0.180805  0.193616  0.810514  1
  O  O14  1  0.431327  0.068673  0.068673  1
  O  O15  1  0.818673  0.181327  0.181327  1
  O  O16  1  0.069195  0.439486  0.056384  1
  O  O17  1  0.069195  0.056384  0.439486  1
  O  O18  1  0.434934  0.439486  0.056384  1
  O  O19  1  0.434934  0.056384  0.439486  1
  O  O20  1  0.056382  0.443618  0.443618  1
  O  O21  1  0.524575  0.475425  0.475425  1
