# generated using pymatgen
data_Tb5Y11Cd4RuPt3
_symmetry_space_group_name_H-M   'P 1'
_cell_length_a   9.71338891
_cell_length_b   9.72207071
_cell_length_c   9.72207070
_cell_angle_alpha   59.67041535
_cell_angle_beta   59.68329896
_cell_angle_gamma   59.68329866
_symmetry_Int_Tables_number   1
_chemical_formula_structural   Tb5Y11Cd4RuPt3
_chemical_formula_sum   'Tb5 Y11 Cd4 Ru1 Pt3'
_cell_volume   644.45811180
_cell_formula_units_Z   1
loop_
 _symmetry_equiv_pos_site_id
 _symmetry_equiv_pos_as_xyz
  1  'x, y, z'
loop_
 _atom_site_type_symbol
 _atom_site_label
 _atom_site_symmetry_multiplicity
 _atom_site_fract_x
 _atom_site_fract_y
 _atom_site_fract_z
 _atom_site_occupancy
  Tb  Tb0  1  0.351979  0.352090  0.352090  1
  Tb  Tb1  1  0.349567  0.349432  0.948290  1
  Tb  Tb2  1  0.349567  0.948290  0.349432  1
  Tb  Tb3  1  0.948134  0.349623  0.349623  1
  Tb  Tb4  1  0.815352  0.188728  0.188728  1
  Y  Y5  1  0.189187  0.809690  0.809690  1
  Y  Y6  1  0.189076  0.814614  0.188841  1
  Y  Y7  1  0.809734  0.189190  0.809422  1
  Y  Y8  1  0.189076  0.188841  0.814614  1
  Y  Y9  1  0.809734  0.809422  0.189190  1
  Y  Y10  1  0.935972  0.564847  0.564847  1
  Y  Y11  1  0.560713  0.936498  0.936498  1
  Y  Y12  1  0.564769  0.936076  0.564866  1
  Y  Y13  1  0.936568  0.560575  0.936530  1
  Y  Y14  1  0.564769  0.564866  0.936076  1
  Y  Y15  1  0.936568  0.936530  0.560575  1
  Cd  Cd16  1  0.580467  0.580376  0.580376  1
  Cd  Cd17  1  0.581288  0.581573  0.254325  1
  Cd  Cd18  1  0.581288  0.254325  0.581573  1
  Cd  Cd19  1  0.254339  0.581326  0.581326  1
  Ru  Ru20  1  0.142254  0.143882  0.143882  1
  Pt  Pt21  1  0.144002  0.143933  0.571218  1
  Pt  Pt22  1  0.144002  0.571218  0.143933  1
  Pt  Pt23  1  0.571596  0.144053  0.144053  1
