# generated using pymatgen
data_Sc2Fe4SiPC2
_symmetry_space_group_name_H-M   'P 1'
_cell_length_a   5.44922149
_cell_length_b   5.44922190
_cell_length_c   6.58214100
_cell_angle_alpha   90.00000000
_cell_angle_beta   90.00000000
_cell_angle_gamma   142.11013544
_symmetry_Int_Tables_number   1
_chemical_formula_structural   Sc2Fe4SiPC2
_chemical_formula_sum   'Sc2 Fe4 Si1 P1 C2'
_cell_volume   120.03488557
_cell_formula_units_Z   1
loop_
 _symmetry_equiv_pos_site_id
 _symmetry_equiv_pos_as_xyz
  1  'x, y, z'
loop_
 _atom_site_type_symbol
 _atom_site_label
 _atom_site_symmetry_multiplicity
 _atom_site_fract_x
 _atom_site_fract_y
 _atom_site_fract_z
 _atom_site_occupancy
  Sc  Sc0  1  0.545405  0.454595  0.250000  1
  Sc  Sc1  1  0.455032  0.544968  0.750000  1
  Fe  Fe2  1  0.834679  0.165321  0.063528  1
  Fe  Fe3  1  0.165792  0.834208  0.947774  1
  Fe  Fe4  1  0.165792  0.834208  0.552226  1
  Fe  Fe5  1  0.834679  0.165321  0.436472  1
  Si  Si6  1  0.733663  0.266337  0.750000  1
  P  P7  1  0.266421  0.733579  0.250000  1
  C  C8  1  0.999268  0.000732  0.998599  1
  C  C9  1  0.999268  0.000732  0.501401  1
