# generated using pymatgen
data_YTh7(Si3Rh)4
_symmetry_space_group_name_H-M   'P 1'
_cell_length_a   8.23304165
_cell_length_b   8.19673188
_cell_length_c   8.40944200
_cell_angle_alpha   90.00000000
_cell_angle_beta   90.00000000
_cell_angle_gamma   119.85421800
_symmetry_Int_Tables_number   1
_chemical_formula_structural   YTh7(Si3Rh)4
_chemical_formula_sum   'Y1 Th7 Si12 Rh4'
_cell_volume   492.19246106
_cell_formula_units_Z   1
loop_
 _symmetry_equiv_pos_site_id
 _symmetry_equiv_pos_as_xyz
  1  'x, y, z'
loop_
 _atom_site_type_symbol
 _atom_site_label
 _atom_site_symmetry_multiplicity
 _atom_site_fract_x
 _atom_site_fract_y
 _atom_site_fract_z
 _atom_site_occupancy
  Y  Y0  1  0.998705  0.499353  0.750000  1
  Th  Th1  1  0.000065  0.000032  0.250000  1
  Th  Th2  1  0.999953  0.999976  0.750000  1
  Th  Th3  1  0.000706  0.500353  0.250000  1
  Th  Th4  1  0.499647  0.500473  0.250000  1
  Th  Th5  1  0.500504  0.000990  0.750000  1
  Th  Th6  1  0.499647  0.999173  0.250000  1
  Th  Th7  1  0.500504  0.499515  0.750000  1
  Si  Si8  1  0.165544  0.334386  0.998557  1
  Si  Si9  1  0.669307  0.834654  0.001129  1
  Si  Si10  1  0.165544  0.334386  0.501443  1
  Si  Si11  1  0.330627  0.165314  0.001537  1
  Si  Si12  1  0.165544  0.831158  0.998557  1
  Si  Si13  1  0.669307  0.834654  0.498871  1
  Si  Si14  1  0.834518  0.665757  0.999093  1
  Si  Si15  1  0.330627  0.165314  0.498463  1
  Si  Si16  1  0.165544  0.831158  0.501443  1
  Si  Si17  1  0.834518  0.665757  0.500907  1
  Si  Si18  1  0.834518  0.168762  0.999093  1
  Si  Si19  1  0.834518  0.168762  0.500907  1
  Rh  Rh20  1  0.336572  0.668287  0.994706  1
  Rh  Rh21  1  0.336572  0.668287  0.505294  1
  Rh  Rh22  1  0.663503  0.331751  0.998753  1
  Rh  Rh23  1  0.663503  0.331751  0.501247  1
