# generated using pymatgen
data_Pr7Nd5(GaIr)8
_symmetry_space_group_name_H-M   'P 1'
_cell_length_a   5.77611105
_cell_length_b   8.19008284
_cell_length_c   13.69513078
_cell_angle_alpha   89.97365781
_cell_angle_beta   89.94768801
_cell_angle_gamma   89.95530333
_symmetry_Int_Tables_number   1
_chemical_formula_structural   Pr7Nd5(GaIr)8
_chemical_formula_sum   'Pr7 Nd5 Ga8 Ir8'
_cell_volume   647.87266003
_cell_formula_units_Z   1
loop_
 _symmetry_equiv_pos_site_id
 _symmetry_equiv_pos_as_xyz
  1  'x, y, z'
loop_
 _atom_site_type_symbol
 _atom_site_label
 _atom_site_symmetry_multiplicity
 _atom_site_fract_x
 _atom_site_fract_y
 _atom_site_fract_z
 _atom_site_occupancy
  Pr  Pr0  1  0.143715  0.895013  0.901487  1
  Pr  Pr1  1  0.856251  0.394755  0.598322  1
  Pr  Pr2  1  0.143765  0.605009  0.098597  1
  Pr  Pr3  1  0.372044  0.252173  0.750166  1
  Pr  Pr4  1  0.628212  0.748099  0.250320  1
  Pr  Pr5  1  0.372023  0.247507  0.250080  1
  Pr  Pr6  1  0.628063  0.752157  0.749877  1
  Nd  Nd7  1  0.144804  0.894679  0.598187  1
  Nd  Nd8  1  0.854956  0.105617  0.098582  1
  Nd  Nd9  1  0.145051  0.605660  0.401543  1
  Nd  Nd10  1  0.854921  0.394377  0.901574  1
  Nd  Nd11  1  0.855248  0.104852  0.401681  1
  Ga  Ga12  1  0.866139  0.102368  0.749837  1
  Ga  Ga13  1  0.132814  0.898162  0.250374  1
  Ga  Ga14  1  0.866426  0.396871  0.250422  1
  Ga  Ga15  1  0.133694  0.602442  0.750041  1
  Ga  Ga16  1  0.378775  0.249683  0.499780  1
  Ga  Ga17  1  0.621556  0.749955  0.000023  1
  Ga  Ga18  1  0.620774  0.750314  0.499794  1
  Ga  Ga19  1  0.379452  0.250031  0.000028  1
  Ir  Ir20  1  0.645965  0.030713  0.591309  1
  Ir  Ir21  1  0.355211  0.969820  0.092046  1
  Ir  Ir22  1  0.645263  0.468994  0.408021  1
  Ir  Ir23  1  0.355288  0.530225  0.907964  1
  Ir  Ir24  1  0.353325  0.968671  0.408705  1
  Ir  Ir25  1  0.646293  0.032013  0.908746  1
  Ir  Ir26  1  0.353657  0.532008  0.591190  1
  Ir  Ir27  1  0.646317  0.467831  0.091304  1
