# generated using pymatgen
data_La8Ho12Si15Ru
_symmetry_space_group_name_H-M   'P 1'
_cell_length_a   7.51835500
_cell_length_b   7.91952360
_cell_length_c   14.79639000
_cell_angle_alpha   90.00000000
_cell_angle_beta   90.00000000
_cell_angle_gamma   90.07398982
_symmetry_Int_Tables_number   1
_chemical_formula_structural   La8Ho12Si15Ru
_chemical_formula_sum   'La8 Ho12 Si15 Ru1'
_cell_volume   881.00280979
_cell_formula_units_Z   1
loop_
 _symmetry_equiv_pos_site_id
 _symmetry_equiv_pos_as_xyz
  1  'x, y, z'
loop_
 _atom_site_type_symbol
 _atom_site_label
 _atom_site_symmetry_multiplicity
 _atom_site_fract_x
 _atom_site_fract_y
 _atom_site_fract_z
 _atom_site_occupancy
  La  La0  1  0.017417  0.182120  0.097372  1
  La  La1  1  0.984998  0.827150  0.902516  1
  La  La2  1  0.483670  0.675687  0.903809  1
  La  La3  1  0.984998  0.827150  0.597484  1
  La  La4  1  0.517186  0.323409  0.096440  1
  La  La5  1  0.017417  0.182120  0.402628  1
  La  La6  1  0.517186  0.323409  0.403560  1
  La  La7  1  0.483670  0.675687  0.596191  1
  Ho  Ho8  1  0.151983  0.508275  0.750000  1
  Ho  Ho9  1  0.843572  0.490041  0.250000  1
  Ho  Ho10  1  0.342293  0.013143  0.250000  1
  Ho  Ho11  1  0.665656  0.992202  0.750000  1
  Ho  Ho12  1  0.310561  0.172278  0.627755  1
  Ho  Ho13  1  0.678915  0.826750  0.374784  1
  Ho  Ho14  1  0.178979  0.678360  0.375365  1
  Ho  Ho15  1  0.678915  0.826750  0.125216  1
  Ho  Ho16  1  0.832030  0.314634  0.626610  1
  Ho  Ho17  1  0.310561  0.172278  0.872245  1
  Ho  Ho18  1  0.832030  0.314634  0.873390  1
  Ho  Ho19  1  0.178979  0.678360  0.124635  1
  Si  Si20  1  0.974140  0.884896  0.250000  1
  Si  Si21  1  0.474316  0.615438  0.250000  1
  Si  Si22  1  0.525916  0.388080  0.750000  1
  Si  Si23  1  0.276605  0.871978  0.750000  1
  Si  Si24  1  0.720387  0.124845  0.250000  1
  Si  Si25  1  0.222537  0.377483  0.250000  1
  Si  Si26  1  0.769772  0.616753  0.750000  1
  Si  Si27  1  0.149413  0.472321  0.538387  1
  Si  Si28  1  0.854254  0.534925  0.462130  1
  Si  Si29  1  0.353061  0.967615  0.461242  1
  Si  Si30  1  0.854254  0.534925  0.037870  1
  Si  Si31  1  0.643531  0.031691  0.538516  1
  Si  Si32  1  0.149413  0.472321  0.961613  1
  Si  Si33  1  0.643531  0.031691  0.961484  1
  Si  Si34  1  0.353061  0.967615  0.038758  1
  Ru  Ru35  1  0.024791  0.102983  0.750000  1
