# generated using pymatgen
data_Pr4NdEr3(Si3Rh)4
_symmetry_space_group_name_H-M   'P 1'
_cell_length_a   8.25035000
_cell_length_b   8.25035027
_cell_length_c   8.18901100
_cell_angle_alpha   90.00000000
_cell_angle_beta   90.00000000
_cell_angle_gamma   119.99999892
_symmetry_Int_Tables_number   1
_chemical_formula_structural   Pr4NdEr3(Si3Rh)4
_chemical_formula_sum   'Pr4 Nd1 Er3 Si12 Rh4'
_cell_volume   482.73284664
_cell_formula_units_Z   1
loop_
 _symmetry_equiv_pos_site_id
 _symmetry_equiv_pos_as_xyz
  1  'x, y, z'
loop_
 _atom_site_type_symbol
 _atom_site_label
 _atom_site_symmetry_multiplicity
 _atom_site_fract_x
 _atom_site_fract_y
 _atom_site_fract_z
 _atom_site_occupancy
  Pr  Pr0  1  0.000000  0.000000  0.250000  1
  Pr  Pr1  1  0.499168  0.500832  0.250000  1
  Pr  Pr2  1  0.499168  0.998334  0.250000  1
  Pr  Pr3  1  0.001666  0.500832  0.250000  1
  Nd  Nd4  1  0.000000  0.000000  0.750000  1
  Er  Er5  1  0.504224  0.495776  0.750000  1
  Er  Er6  1  0.991553  0.495776  0.750000  1
  Er  Er7  1  0.504224  0.008447  0.750000  1
  Si  Si8  1  0.833486  0.166514  0.506379  1
  Si  Si9  1  0.833486  0.666972  0.506379  1
  Si  Si10  1  0.333028  0.166514  0.506379  1
  Si  Si11  1  0.833486  0.166514  0.993621  1
  Si  Si12  1  0.833486  0.666972  0.993621  1
  Si  Si13  1  0.333028  0.166514  0.993621  1
  Si  Si14  1  0.168246  0.831754  0.992715  1
  Si  Si15  1  0.663508  0.831754  0.992715  1
  Si  Si16  1  0.168246  0.336492  0.992715  1
  Si  Si17  1  0.168246  0.831754  0.507285  1
  Si  Si18  1  0.663508  0.831754  0.507285  1
  Si  Si19  1  0.168246  0.336492  0.507285  1
  Rh  Rh20  1  0.666667  0.333333  0.521008  1
  Rh  Rh21  1  0.666667  0.333333  0.978992  1
  Rh  Rh22  1  0.333333  0.666667  0.955808  1
  Rh  Rh23  1  0.333333  0.666667  0.544192  1
