# generated using pymatgen
data_KRbLi14Hf3O14
_symmetry_space_group_name_H-M   'P 1'
_cell_length_a   8.25276211
_cell_length_b   8.25276269
_cell_length_c   8.25276233
_cell_angle_alpha   127.50344586
_cell_angle_beta   123.28076582
_cell_angle_gamma   80.93520435
_symmetry_Int_Tables_number   1
_chemical_formula_structural   KRbLi14Hf3O14
_chemical_formula_sum   'K1 Rb1 Li14 Hf3 O14'
_cell_volume   359.32700425
_cell_formula_units_Z   1
loop_
 _symmetry_equiv_pos_site_id
 _symmetry_equiv_pos_as_xyz
  1  'x, y, z'
loop_
 _atom_site_type_symbol
 _atom_site_label
 _atom_site_symmetry_multiplicity
 _atom_site_fract_x
 _atom_site_fract_y
 _atom_site_fract_z
 _atom_site_occupancy
  K  K0  1  0.500000  0.246703  0.746703  1
  Rb  Rb1  1  0.500000  0.778003  0.278003  1
  Li  Li2  1  0.705108  0.135400  0.112525  1
  Li  Li3  1  0.977533  0.862984  0.568341  1
  Li  Li4  1  0.022467  0.590809  0.885451  1
  Li  Li5  1  0.294892  0.407417  0.430292  1
  Li  Li6  1  0.022875  0.135400  0.430292  1
  Li  Li7  1  0.844150  0.499328  0.343478  1
  Li  Li8  1  0.155850  0.499328  0.655179  1
  Li  Li9  1  0.414038  0.770543  0.642474  1
  Li  Li10  1  0.585962  0.228435  0.356504  1
  Li  Li11  1  0.871931  0.228435  0.642474  1
  Li  Li12  1  0.128069  0.770543  0.356504  1
  Li  Li13  1  0.705358  0.590809  0.568341  1
  Li  Li14  1  0.294642  0.862984  0.885451  1
  Li  Li15  1  0.977125  0.407417  0.112525  1
  Hf  Hf16  1  0.000000  0.999553  0.999553  1
  Hf  Hf17  1  0.270427  0.269803  0.999376  1
  Hf  Hf18  1  0.729573  0.728949  0.999376  1
  O  O19  1  0.049778  0.871900  0.176323  1
  O  O20  1  0.423971  0.630085  0.791190  1
  O  O21  1  0.838895  0.630085  0.206113  1
  O  O22  1  0.576029  0.367218  0.206113  1
  O  O23  1  0.161105  0.367218  0.791190  1
  O  O24  1  0.745287  0.029026  0.283739  1
  O  O25  1  0.254713  0.538453  0.283739  1
  O  O26  1  0.255321  0.970005  0.714684  1
  O  O27  1  0.744679  0.459363  0.714684  1
  O  O28  1  0.000000  0.713270  0.713270  1
  O  O29  1  0.000000  0.285547  0.285547  1
  O  O30  1  0.695577  0.871900  0.822122  1
  O  O31  1  0.304423  0.126544  0.176323  1
  O  O32  1  0.950222  0.126544  0.822122  1
