# generated using pymatgen
data_Mg2Zr(NbN2)3
_symmetry_space_group_name_H-M   'P 1'
_cell_length_a   5.32693600
_cell_length_b   5.32693609
_cell_length_c   10.63502100
_cell_angle_alpha   90.00000000
_cell_angle_beta   90.00000000
_cell_angle_gamma   119.99999946
_symmetry_Int_Tables_number   1
_chemical_formula_structural   Mg2Zr(NbN2)3
_chemical_formula_sum   'Mg4 Zr2 Nb6 N12'
_cell_volume   261.35087047
_cell_formula_units_Z   2
loop_
 _symmetry_equiv_pos_site_id
 _symmetry_equiv_pos_as_xyz
  1  'x, y, z'
loop_
 _atom_site_type_symbol
 _atom_site_label
 _atom_site_symmetry_multiplicity
 _atom_site_fract_x
 _atom_site_fract_y
 _atom_site_fract_z
 _atom_site_occupancy
  Mg  Mg0  1  0.333333  0.666667  0.000000  1
  Mg  Mg1  1  0.333333  0.666667  0.500000  1
  Mg  Mg2  1  0.666667  0.333333  0.500000  1
  Mg  Mg3  1  0.666667  0.333333  0.000000  1
  Zr  Zr4  1  0.000000  0.000000  0.500000  1
  Zr  Zr5  1  0.000000  0.000000  0.000000  1
  Nb  Nb6  1  0.000000  0.339101  0.250000  1
  Nb  Nb7  1  0.660899  0.000000  0.750000  1
  Nb  Nb8  1  0.339101  0.339101  0.750000  1
  Nb  Nb9  1  0.660899  0.660899  0.250000  1
  Nb  Nb10  1  0.339101  0.000000  0.250000  1
  Nb  Nb11  1  0.000000  0.660899  0.750000  1
  N  N12  1  0.664760  0.664760  0.624787  1
  N  N13  1  0.664760  0.664760  0.875213  1
  N  N14  1  0.335240  0.335240  0.124787  1
  N  N15  1  0.335240  0.335240  0.375213  1
  N  N16  1  0.335240  0.000000  0.875213  1
  N  N17  1  0.335240  0.000000  0.624787  1
  N  N18  1  0.000000  0.664760  0.375213  1
  N  N19  1  0.000000  0.664760  0.124787  1
  N  N20  1  0.664760  0.000000  0.124787  1
  N  N21  1  0.664760  0.000000  0.375213  1
  N  N22  1  0.000000  0.335240  0.875213  1
  N  N23  1  0.000000  0.335240  0.624787  1
