# generated using pymatgen
data_Sc4Ga3P3Ir7
_symmetry_space_group_name_H-M   'P 1'
_cell_length_a   6.98879983
_cell_length_b   6.98879980
_cell_length_c   7.08775400
_cell_angle_alpha   109.75829019
_cell_angle_beta   109.75829011
_cell_angle_gamma   109.18263607
_symmetry_Int_Tables_number   1
_chemical_formula_structural   Sc4Ga3P3Ir7
_chemical_formula_sum   'Sc4 Ga3 P3 Ir7'
_cell_volume   265.54676549
_cell_formula_units_Z   1
loop_
 _symmetry_equiv_pos_site_id
 _symmetry_equiv_pos_as_xyz
  1  'x, y, z'
loop_
 _atom_site_type_symbol
 _atom_site_label
 _atom_site_symmetry_multiplicity
 _atom_site_fract_x
 _atom_site_fract_y
 _atom_site_fract_z
 _atom_site_occupancy
  Sc  Sc0  1  0.000000  0.000000  0.542875  1
  Sc  Sc1  1  0.000000  0.478506  0.003250  1
  Sc  Sc2  1  0.478506  0.000000  0.003250  1
  Sc  Sc3  1  0.521494  0.521494  0.524745  1
  Ga  Ga4  1  0.717353  0.717353  0.018088  1
  Ga  Ga5  1  0.282647  0.000000  0.300735  1
  Ga  Ga6  1  0.000000  0.282647  0.300735  1
  P  P7  1  0.335733  0.335733  0.002783  1
  P  P8  1  0.664267  0.000000  0.667050  1
  P  P9  1  0.000000  0.664267  0.667050  1
  Ir  Ir10  1  0.746807  0.249084  0.502388  1
  Ir  Ir11  1  0.750916  0.497723  0.253304  1
  Ir  Ir12  1  0.502277  0.253193  0.755580  1
  Ir  Ir13  1  0.253193  0.502277  0.755580  1
  Ir  Ir14  1  0.249084  0.746807  0.502388  1
  Ir  Ir15  1  0.497723  0.750916  0.253304  1
  Ir  Ir16  1  0.000000  0.000000  0.946898  1
