# generated using pymatgen
data_Li4Ac2ThSi4
_symmetry_space_group_name_H-M   'P 1'
_cell_length_a   4.54096946
_cell_length_b   6.94380841
_cell_length_c   8.56363100
_cell_angle_alpha   113.91771269
_cell_angle_beta   105.37473994
_cell_angle_gamma   90.00000137
_symmetry_Int_Tables_number   1
_chemical_formula_structural   Li4Ac2ThSi4
_chemical_formula_sum   'Li4 Ac2 Th1 Si4'
_cell_volume   236.22754481
_cell_formula_units_Z   1
loop_
 _symmetry_equiv_pos_site_id
 _symmetry_equiv_pos_as_xyz
  1  'x, y, z'
loop_
 _atom_site_type_symbol
 _atom_site_label
 _atom_site_symmetry_multiplicity
 _atom_site_fract_x
 _atom_site_fract_y
 _atom_site_fract_z
 _atom_site_occupancy
  Li  Li0  1  0.666389  0.980418  0.332777  1
  Li  Li1  1  0.333611  0.019582  0.667223  1
  Li  Li2  1  0.333611  0.647642  0.667223  1
  Li  Li3  1  0.666389  0.352358  0.332777  1
  Ac  Ac4  1  0.135736  0.635736  0.271474  1
  Ac  Ac5  1  0.864264  0.364264  0.728526  1
  Th  Th6  1  0.000000  0.000000  0.000000  1
  Si  Si7  1  0.500000  0.681918  0.000000  1
  Si  Si8  1  0.500000  0.318082  0.000000  1
  Si  Si9  1  0.794571  0.794571  0.589140  1
  Si  Si10  1  0.205429  0.205429  0.410860  1
