# generated using pymatgen
data_CeAg3(Ir2O7)2
_symmetry_space_group_name_H-M   'P 1'
_cell_length_a   7.25064880
_cell_length_b   7.25064779
_cell_length_c   7.27546656
_cell_angle_alpha   60.11278850
_cell_angle_beta   60.11278667
_cell_angle_gamma   60.00000319
_symmetry_Int_Tables_number   1
_chemical_formula_structural   CeAg3(Ir2O7)2
_chemical_formula_sum   'Ce1 Ag3 Ir4 O14'
_cell_volume   270.91797341
_cell_formula_units_Z   1
loop_
 _symmetry_equiv_pos_site_id
 _symmetry_equiv_pos_as_xyz
  1  'x, y, z'
loop_
 _atom_site_type_symbol
 _atom_site_label
 _atom_site_symmetry_multiplicity
 _atom_site_fract_x
 _atom_site_fract_y
 _atom_site_fract_z
 _atom_site_occupancy
  Ce  Ce0  1  0.125000  0.125000  0.625000  1
  Ag  Ag1  1  0.625000  0.125000  0.125000  1
  Ag  Ag2  1  0.125000  0.625000  0.125000  1
  Ag  Ag3  1  0.125000  0.125000  0.125000  1
  Ir  Ir4  1  0.125000  0.625000  0.625000  1
  Ir  Ir5  1  0.625000  0.125000  0.625000  1
  Ir  Ir6  1  0.625000  0.625000  0.125000  1
  Ir  Ir7  1  0.625000  0.625000  0.625000  1
  O  O8  1  0.695500  0.695500  0.307262  1
  O  O9  1  0.295143  0.295143  0.696655  1
  O  O10  1  0.713057  0.295143  0.696655  1
  O  O11  1  0.301737  0.695500  0.307262  1
  O  O12  1  0.295143  0.713057  0.696655  1
  O  O13  1  0.695500  0.301737  0.307262  1
  O  O14  1  0.554500  0.554500  0.942738  1
  O  O15  1  0.954857  0.954857  0.553345  1
  O  O16  1  0.536943  0.954857  0.553345  1
  O  O17  1  0.948263  0.554500  0.942738  1
  O  O18  1  0.954857  0.536943  0.553345  1
  O  O19  1  0.554500  0.948263  0.942738  1
  O  O20  1  0.250890  0.250890  0.247331  1
  O  O21  1  0.999110  0.999110  0.002669  1
