# generated using pymatgen
data_Tb12Al4Pd17Au3
_symmetry_space_group_name_H-M   'P 1'
_cell_length_a   8.29289994
_cell_length_b   8.29021171
_cell_length_c   13.23744527
_cell_angle_alpha   90.13527825
_cell_angle_beta   90.04810577
_cell_angle_gamma   127.67173088
_symmetry_Int_Tables_number   1
_chemical_formula_structural   Tb12Al4Pd17Au3
_chemical_formula_sum   'Tb12 Al4 Pd17 Au3'
_cell_volume   720.34066255
_cell_formula_units_Z   1
loop_
 _symmetry_equiv_pos_site_id
 _symmetry_equiv_pos_as_xyz
  1  'x, y, z'
loop_
 _atom_site_type_symbol
 _atom_site_label
 _atom_site_symmetry_multiplicity
 _atom_site_fract_x
 _atom_site_fract_y
 _atom_site_fract_z
 _atom_site_occupancy
  Tb  Tb0  1  0.923905  0.061391  0.253848  1
  Tb  Tb1  1  0.066678  0.931946  0.749764  1
  Tb  Tb2  1  0.318527  0.684347  0.250406  1
  Tb  Tb3  1  0.683055  0.318453  0.749749  1
  Tb  Tb4  1  0.629139  0.369646  0.468025  1
  Tb  Tb5  1  0.370088  0.629336  0.532228  1
  Tb  Tb6  1  0.633521  0.370966  0.030940  1
  Tb  Tb7  1  0.372429  0.634381  0.965253  1
  Tb  Tb8  1  0.883633  0.123739  0.948398  1
  Tb  Tb9  1  0.122746  0.879582  0.050599  1
  Tb  Tb10  1  0.883631  0.123728  0.551163  1
  Tb  Tb11  1  0.123267  0.883803  0.449093  1
  Al  Al12  1  0.717475  0.271842  0.250037  1
  Al  Al13  1  0.271521  0.718292  0.749436  1
  Al  Al14  1  0.529578  0.467820  0.252197  1
  Al  Al15  1  0.465550  0.524961  0.749931  1
  Pd  Pd16  1  0.331690  0.076748  0.250718  1
  Pd  Pd17  1  0.077802  0.332297  0.750374  1
  Pd  Pd18  1  0.572505  0.007149  0.394381  1
  Pd  Pd19  1  0.006946  0.572397  0.605867  1
  Pd  Pd20  1  0.572603  0.007235  0.105711  1
  Pd  Pd21  1  0.007029  0.572072  0.893748  1
  Pd  Pd22  1  0.425527  0.991320  0.606045  1
  Pd  Pd23  1  0.991312  0.425377  0.394086  1
  Pd  Pd24  1  0.425248  0.992002  0.893331  1
  Pd  Pd25  1  0.990662  0.425975  0.106360  1
  Pd  Pd26  1  0.683323  0.739133  0.393543  1
  Pd  Pd27  1  0.739195  0.683640  0.608013  1
  Pd  Pd28  1  0.683404  0.738721  0.107523  1
  Pd  Pd29  1  0.739594  0.683975  0.892109  1
  Pd  Pd30  1  0.313184  0.258761  0.607702  1
  Pd  Pd31  1  0.259031  0.313357  0.392525  1
  Pd  Pd32  1  0.315545  0.259999  0.891213  1
  Au  Au33  1  0.679375  0.933948  0.749813  1
  Au  Au34  1  0.934827  0.679932  0.249733  1
  Au  Au35  1  0.256457  0.311728  0.106139  1
