# generated using pymatgen
data_Ti6As2CO
_symmetry_space_group_name_H-M   'P 1'
_cell_length_a   5.41022285
_cell_length_b   5.41022299
_cell_length_c   8.03952496
_cell_angle_alpha   89.74756075
_cell_angle_beta   90.25243788
_cell_angle_gamma   144.64172250
_symmetry_Int_Tables_number   1
_chemical_formula_structural   Ti6As2CO
_chemical_formula_sum   'Ti6 As2 C1 O1'
_cell_volume   136.17585966
_cell_formula_units_Z   1
loop_
 _symmetry_equiv_pos_site_id
 _symmetry_equiv_pos_as_xyz
  1  'x, y, z'
loop_
 _atom_site_type_symbol
 _atom_site_label
 _atom_site_symmetry_multiplicity
 _atom_site_fract_x
 _atom_site_fract_y
 _atom_site_fract_z
 _atom_site_occupancy
  Ti  Ti0  1  0.133315  0.866685  0.050020  1
  Ti  Ti1  1  0.446118  0.553882  0.250195  1
  Ti  Ti2  1  0.130216  0.869784  0.447277  1
  Ti  Ti3  1  0.869784  0.130216  0.552723  1
  Ti  Ti4  1  0.553882  0.446118  0.749805  1
  Ti  Ti5  1  0.866685  0.133315  0.949980  1
  As  As6  1  0.753239  0.246761  0.249160  1
  As  As7  1  0.246761  0.753239  0.750840  1
  C  C8  1  0.500000  0.500000  0.500000  1
  O  O9  1  0.500000  0.500000  0.000000  1
