# generated using pymatgen
data_TbHo3AlFe2Ru5
_symmetry_space_group_name_H-M   'P 1'
_cell_length_a   5.26966105
_cell_length_b   5.41882285
_cell_length_c   9.14737077
_cell_angle_alpha   72.77075314
_cell_angle_beta   91.43038825
_cell_angle_gamma   120.94083100
_symmetry_Int_Tables_number   1
_chemical_formula_structural   TbHo3AlFe2Ru5
_chemical_formula_sum   'Tb1 Ho3 Al1 Fe2 Ru5'
_cell_volume   211.38287749
_cell_formula_units_Z   1
loop_
 _symmetry_equiv_pos_site_id
 _symmetry_equiv_pos_as_xyz
  1  'x, y, z'
loop_
 _atom_site_type_symbol
 _atom_site_label
 _atom_site_symmetry_multiplicity
 _atom_site_fract_x
 _atom_site_fract_y
 _atom_site_fract_z
 _atom_site_occupancy
  Tb  Tb0  1  0.874713  0.750166  0.374379  1
  Ho  Ho1  1  0.379603  0.753990  0.871624  1
  Ho  Ho2  1  0.995089  0.995873  0.003343  1
  Ho  Ho3  1  0.501005  0.000185  0.500637  1
  Al  Al4  1  0.687645  0.374991  0.937663  1
  Fe  Fe5  1  0.941978  0.375892  0.190193  1
  Fe  Fe6  1  0.432707  0.374095  0.684516  1
  Ru  Ru7  1  0.439057  0.373624  0.183660  1
  Ru  Ru8  1  0.935954  0.376410  0.691382  1
  Ru  Ru9  1  0.439057  0.881773  0.183660  1
  Ru  Ru10  1  0.935954  0.868162  0.691382  1
  Ru  Ru11  1  0.187235  0.374837  0.437561  1
