# generated using pymatgen
data_Zr5Sc3(Ti2Sn5)2
_symmetry_space_group_name_H-M   'P 1'
_cell_length_a   10.78902454
_cell_length_b   10.81089578
_cell_length_c   10.81089569
_cell_angle_alpha   149.15997817
_cell_angle_beta   131.34470110
_cell_angle_gamma   58.74130646
_symmetry_Int_Tables_number   1
_chemical_formula_structural   Zr5Sc3(Ti2Sn5)2
_chemical_formula_sum   'Zr5 Sc3 Ti4 Sn10'
_cell_volume   481.47184172
_cell_formula_units_Z   1
loop_
 _symmetry_equiv_pos_site_id
 _symmetry_equiv_pos_as_xyz
  1  'x, y, z'
loop_
 _atom_site_type_symbol
 _atom_site_label
 _atom_site_symmetry_multiplicity
 _atom_site_fract_x
 _atom_site_fract_y
 _atom_site_fract_z
 _atom_site_occupancy
  Zr  Zr0  1  0.672473  0.437429  0.235043  1
  Zr  Zr1  1  0.327305  0.563039  0.764265  1
  Zr  Zr2  1  0.201587  0.937782  0.263805  1
  Zr  Zr3  1  0.799581  0.062917  0.736663  1
  Zr  Zr4  1  0.251217  0.144595  0.106622  1
  Sc  Sc5  1  0.748399  0.854942  0.893457  1
  Sc  Sc6  1  0.038812  0.644966  0.393846  1
  Sc  Sc7  1  0.962335  0.354924  0.607411  1
  Ti  Ti8  1  0.306952  0.554093  0.247987  1
  Ti  Ti9  1  0.691266  0.443597  0.748989  1
  Ti  Ti10  1  0.691266  0.942277  0.247668  1
  Ti  Ti11  1  0.306952  0.058964  0.752858  1
  Sn  Sn12  1  0.584979  0.286979  0.298000  1
  Sn  Sn13  1  0.414528  0.713146  0.701382  1
  Sn  Sn14  1  0.989988  0.787071  0.202917  1
  Sn  Sn15  1  0.009878  0.213321  0.796557  1
  Sn  Sn16  1  0.000408  0.250519  0.250155  1
  Sn  Sn17  1  0.000408  0.750252  0.749889  1
  Sn  Sn18  1  0.473757  0.073805  0.399950  1
  Sn  Sn19  1  0.527764  0.925021  0.602745  1
  Sn  Sn20  1  0.677606  0.574736  0.102870  1
  Sn  Sn21  1  0.322541  0.425622  0.896919  1
