# generated using pymatgen
data_Pa4Sn2Pt3Rh
_symmetry_space_group_name_H-M   'P 1'
_cell_length_a   7.73468453
_cell_length_b   7.73468453
_cell_length_c   3.73209800
_cell_angle_alpha   90.00000000
_cell_angle_beta   90.00000000
_cell_angle_gamma   89.89055947
_symmetry_Int_Tables_number   1
_chemical_formula_structural   Pa4Sn2Pt3Rh
_chemical_formula_sum   'Pa4 Sn2 Pt3 Rh1'
_cell_volume   223.27364215
_cell_formula_units_Z   1
loop_
 _symmetry_equiv_pos_site_id
 _symmetry_equiv_pos_as_xyz
  1  'x, y, z'
loop_
 _atom_site_type_symbol
 _atom_site_label
 _atom_site_symmetry_multiplicity
 _atom_site_fract_x
 _atom_site_fract_y
 _atom_site_fract_z
 _atom_site_occupancy
  Pa  Pa0  1  0.321285  0.178715  0.500000  1
  Pa  Pa1  1  0.672870  0.827130  0.500000  1
  Pa  Pa2  1  0.173559  0.670431  0.500000  1
  Pa  Pa3  1  0.829569  0.326441  0.500000  1
  Sn  Sn4  1  0.001153  0.003055  0.000000  1
  Sn  Sn5  1  0.496945  0.498847  0.000000  1
  Pt  Pt6  1  0.629138  0.130605  0.000000  1
  Pt  Pt7  1  0.871754  0.628246  0.000000  1
  Pt  Pt8  1  0.369395  0.870862  0.000000  1
  Rh  Rh9  1  0.134334  0.365666  0.000000  1
