# generated using pymatgen
data_Nd8ZnSi12Ir2Rh
_symmetry_space_group_name_H-M   'P 1'
_cell_length_a   8.23197000
_cell_length_b   8.23196988
_cell_length_c   8.51324200
_cell_angle_alpha   90.00000000
_cell_angle_beta   90.00000000
_cell_angle_gamma   120.00000050
_symmetry_Int_Tables_number   1
_chemical_formula_structural   Nd8ZnSi12Ir2Rh
_chemical_formula_sum   'Nd8 Zn1 Si12 Ir2 Rh1'
_cell_volume   499.61234400
_cell_formula_units_Z   1
loop_
 _symmetry_equiv_pos_site_id
 _symmetry_equiv_pos_as_xyz
  1  'x, y, z'
loop_
 _atom_site_type_symbol
 _atom_site_label
 _atom_site_symmetry_multiplicity
 _atom_site_fract_x
 _atom_site_fract_y
 _atom_site_fract_z
 _atom_site_occupancy
  Nd  Nd0  1  0.000000  0.000000  0.750254  1
  Nd  Nd1  1  0.000000  0.000000  0.250044  1
  Nd  Nd2  1  0.497018  0.502982  0.745482  1
  Nd  Nd3  1  0.497018  0.994036  0.745482  1
  Nd  Nd4  1  0.005964  0.502982  0.745482  1
  Nd  Nd5  1  0.498889  0.501111  0.254406  1
  Nd  Nd6  1  0.002224  0.501111  0.254406  1
  Nd  Nd7  1  0.498889  0.997776  0.254406  1
  Zn  Zn8  1  0.666667  0.333333  0.996095  1
  Si  Si9  1  0.836866  0.163134  0.999876  1
  Si  Si10  1  0.836866  0.673732  0.999876  1
  Si  Si11  1  0.326268  0.163134  0.999876  1
  Si  Si12  1  0.832645  0.167355  0.500915  1
  Si  Si13  1  0.832645  0.665290  0.500915  1
  Si  Si14  1  0.334710  0.167355  0.500915  1
  Si  Si15  1  0.166910  0.833090  0.499222  1
  Si  Si16  1  0.666181  0.833090  0.499222  1
  Si  Si17  1  0.166910  0.333819  0.499222  1
  Si  Si18  1  0.168433  0.831567  0.000500  1
  Si  Si19  1  0.663134  0.831567  0.000500  1
  Si  Si20  1  0.168433  0.336866  0.000500  1
  Ir  Ir21  1  0.666667  0.333333  0.502696  1
  Ir  Ir22  1  0.333333  0.666667  0.497376  1
  Rh  Rh23  1  0.333333  0.666667  0.002327  1
