# generated using pymatgen
data_YEr3CCl6
_symmetry_space_group_name_H-M   'P 1'
_cell_length_a   3.73934700
_cell_length_b   12.44418109
_cell_length_c   12.87852800
_cell_angle_alpha   90.25895157
_cell_angle_beta   90.00000000
_cell_angle_gamma   90.00000000
_symmetry_Int_Tables_number   1
_chemical_formula_structural   YEr3CCl6
_chemical_formula_sum   'Y2 Er6 C2 Cl12'
_cell_volume   599.27185555
_cell_formula_units_Z   2
loop_
 _symmetry_equiv_pos_site_id
 _symmetry_equiv_pos_as_xyz
  1  'x, y, z'
loop_
 _atom_site_type_symbol
 _atom_site_label
 _atom_site_symmetry_multiplicity
 _atom_site_fract_x
 _atom_site_fract_y
 _atom_site_fract_z
 _atom_site_occupancy
  Y  Y0  1  0.500000  0.124982  0.853243  1
  Y  Y1  1  0.500000  0.875018  0.146757  1
  Er  Er2  1  0.000000  0.102895  0.081997  1
  Er  Er3  1  0.000000  0.897105  0.918003  1
  Er  Er4  1  0.000000  0.602222  0.418726  1
  Er  Er5  1  0.000000  0.397778  0.581274  1
  Er  Er6  1  0.500000  0.624187  0.645802  1
  Er  Er7  1  0.500000  0.375813  0.354198  1
  C  C8  1  0.500000  0.000000  0.000000  1
  C  C9  1  0.500000  0.500000  0.500000  1
  Cl  Cl10  1  0.500000  0.270211  0.680934  1
  Cl  Cl11  1  0.500000  0.729789  0.319066  1
  Cl  Cl12  1  0.500000  0.768728  0.817005  1
  Cl  Cl13  1  0.500000  0.231272  0.182995  1
  Cl  Cl14  1  0.000000  0.260344  0.933863  1
  Cl  Cl15  1  0.000000  0.739656  0.066137  1
  Cl  Cl16  1  0.000000  0.479224  0.242126  1
  Cl  Cl17  1  0.000000  0.520776  0.757874  1
  Cl  Cl18  1  0.000000  0.982640  0.259860  1
  Cl  Cl19  1  0.000000  0.017360  0.740140  1
  Cl  Cl20  1  0.000000  0.242193  0.430855  1
  Cl  Cl21  1  0.000000  0.757807  0.569145  1
