# generated using pymatgen
data_Dy2HfPtF14
_symmetry_space_group_name_H-M   'P 1'
_cell_length_a   5.63132437
_cell_length_b   8.97689716
_cell_length_c   12.07223059
_cell_angle_alpha   62.33555087
_cell_angle_beta   90.16583776
_cell_angle_gamma   90.13868935
_symmetry_Int_Tables_number   1
_chemical_formula_structural   Dy2HfPtF14
_chemical_formula_sum   'Dy4 Hf2 Pt2 F28'
_cell_volume   540.50527373
_cell_formula_units_Z   2
loop_
 _symmetry_equiv_pos_site_id
 _symmetry_equiv_pos_as_xyz
  1  'x, y, z'
loop_
 _atom_site_type_symbol
 _atom_site_label
 _atom_site_symmetry_multiplicity
 _atom_site_fract_x
 _atom_site_fract_y
 _atom_site_fract_z
 _atom_site_occupancy
  Dy  Dy0  1  0.257317  0.813059  0.269170  1
  Dy  Dy1  1  0.742683  0.186941  0.730830  1
  Dy  Dy2  1  0.760134  0.182891  0.239522  1
  Dy  Dy3  1  0.239866  0.817109  0.760478  1
  Hf  Hf4  1  0.755253  0.725495  0.044037  1
  Hf  Hf5  1  0.244747  0.274505  0.955963  1
  Pt  Pt6  1  0.259405  0.273841  0.455684  1
  Pt  Pt7  1  0.740595  0.726159  0.544316  1
  F  F8  1  0.935071  0.703654  0.417721  1
  F  F9  1  0.064929  0.296346  0.582279  1
  F  F10  1  0.462066  0.290164  0.081604  1
  F  F11  1  0.537934  0.709836  0.918396  1
  F  F12  1  0.480002  0.732054  0.146505  1
  F  F13  1  0.519998  0.267946  0.853495  1
  F  F14  1  0.969426  0.272024  0.364866  1
  F  F15  1  0.030574  0.727976  0.635134  1
  F  F16  1  0.962157  0.748749  0.171894  1
  F  F17  1  0.037843  0.251251  0.828106  1
  F  F18  1  0.449803  0.258377  0.324083  1
  F  F19  1  0.550197  0.741623  0.675917  1
  F  F20  1  0.778298  0.474751  0.141961  1
  F  F21  1  0.221702  0.525249  0.858039  1
  F  F22  1  0.266796  0.520952  0.358703  1
  F  F23  1  0.733204  0.479048  0.641297  1
  F  F24  1  0.950386  0.274467  0.051524  1
  F  F25  1  0.049614  0.725533  0.948476  1
  F  F26  1  0.444170  0.716102  0.460262  1
  F  F27  1  0.555830  0.283898  0.539738  1
  F  F28  1  0.740040  0.973515  0.452196  1
  F  F29  1  0.259960  0.026485  0.547804  1
  F  F30  1  0.241940  0.023903  0.060079  1
  F  F31  1  0.758060  0.976097  0.939921  1
  F  F32  1  0.579636  0.969380  0.237312  1
  F  F33  1  0.420364  0.030620  0.762688  1
  F  F34  1  0.081055  0.027220  0.272659  1
  F  F35  1  0.918945  0.972780  0.727341  1
