# generated using pymatgen
data_Tm12Fe4AgSb
_symmetry_space_group_name_H-M   'P 1'
_cell_length_a   8.25596123
_cell_length_b   8.25596128
_cell_length_c   8.25586700
_cell_angle_alpha   106.68997009
_cell_angle_beta   110.67484766
_cell_angle_gamma   111.08475144
_symmetry_Int_Tables_number   1
_chemical_formula_structural   Tm12Fe4AgSb
_chemical_formula_sum   'Tm12 Fe4 Ag1 Sb1'
_cell_volume   432.41914314
_cell_formula_units_Z   1
loop_
 _symmetry_equiv_pos_site_id
 _symmetry_equiv_pos_as_xyz
  1  'x, y, z'
loop_
 _atom_site_type_symbol
 _atom_site_label
 _atom_site_symmetry_multiplicity
 _atom_site_fract_x
 _atom_site_fract_y
 _atom_site_fract_z
 _atom_site_occupancy
  Tm  Tm0  1  0.710939  0.279090  0.990028  1
  Tm  Tm1  1  0.289151  0.721019  0.010168  1
  Tm  Tm2  1  0.710903  0.720892  0.431799  1
  Tm  Tm3  1  0.289117  0.278962  0.568074  1
  Tm  Tm4  1  0.801843  0.112057  0.310205  1
  Tm  Tm5  1  0.801730  0.491419  0.689680  1
  Tm  Tm6  1  0.198258  0.887951  0.689680  1
  Tm  Tm7  1  0.198147  0.508362  0.310202  1
  Tm  Tm8  1  0.601940  0.789778  0.812227  1
  Tm  Tm9  1  0.977521  0.789771  0.187814  1
  Tm  Tm10  1  0.022451  0.210286  0.812227  1
  Tm  Tm11  1  0.398044  0.210292  0.187813  1
  Fe  Fe12  1  0.885114  0.500045  0.385210  1
  Fe  Fe13  1  0.114945  0.499987  0.614886  1
  Fe  Fe14  1  0.999985  0.108331  0.108313  1
  Fe  Fe15  1  0.999973  0.891790  0.891767  1
  Ag  Ag16  1  0.499947  0.499988  0.999931  1
  Sb  Sb17  1  0.499986  0.999983  0.499971  1
