# generated using pymatgen
data_Ba2AcLaSi4
_symmetry_space_group_name_H-M   'P 1'
_cell_length_a   7.82882214
_cell_length_b   7.82882257
_cell_length_c   6.86645900
_cell_angle_alpha   90.00000000
_cell_angle_beta   90.00000000
_cell_angle_gamma   145.12333040
_symmetry_Int_Tables_number   1
_chemical_formula_structural   Ba2AcLaSi4
_chemical_formula_sum   'Ba2 Ac1 La1 Si4'
_cell_volume   240.64612436
_cell_formula_units_Z   1
loop_
 _symmetry_equiv_pos_site_id
 _symmetry_equiv_pos_as_xyz
  1  'x, y, z'
loop_
 _atom_site_type_symbol
 _atom_site_label
 _atom_site_symmetry_multiplicity
 _atom_site_fract_x
 _atom_site_fract_y
 _atom_site_fract_z
 _atom_site_occupancy
  Ba  Ba0  1  0.278524  0.721476  0.750000  1
  Ba  Ba1  1  0.722593  0.277407  0.250000  1
  Ac  Ac2  1  0.549972  0.450028  0.750000  1
  La  La3  1  0.452455  0.547545  0.250000  1
  Si  Si4  1  0.922788  0.077212  0.934396  1
  Si  Si5  1  0.075440  0.924560  0.072523  1
  Si  Si6  1  0.922788  0.077212  0.565604  1
  Si  Si7  1  0.075440  0.924560  0.427477  1
