# generated using pymatgen
data_Yb3Cd(GeO4)2
_symmetry_space_group_name_H-M   'P 1'
_cell_length_a   5.26090400
_cell_length_b   6.68434574
_cell_length_c   11.40928325
_cell_angle_alpha   90.05376447
_cell_angle_beta   90.00000000
_cell_angle_gamma   90.00000000
_symmetry_Int_Tables_number   1
_chemical_formula_structural   Yb3Cd(GeO4)2
_chemical_formula_sum   'Yb6 Cd2 Ge4 O16'
_cell_volume   401.21526945
_cell_formula_units_Z   2
loop_
 _symmetry_equiv_pos_site_id
 _symmetry_equiv_pos_as_xyz
  1  'x, y, z'
loop_
 _atom_site_type_symbol
 _atom_site_label
 _atom_site_symmetry_multiplicity
 _atom_site_fract_x
 _atom_site_fract_y
 _atom_site_fract_z
 _atom_site_occupancy
  Yb  Yb0  1  0.493769  0.750285  0.777795  1
  Yb  Yb1  1  0.993769  0.249715  0.722205  1
  Yb  Yb2  1  0.506231  0.249715  0.222205  1
  Yb  Yb3  1  0.006231  0.750285  0.277795  1
  Yb  Yb4  1  0.500000  0.500000  0.500000  1
  Yb  Yb5  1  0.000000  0.500000  0.000000  1
  Cd  Cd6  1  0.500000  0.000000  0.500000  1
  Cd  Cd7  1  0.000000  0.000000  0.000000  1
  Ge  Ge8  1  0.928880  0.749882  0.596814  1
  Ge  Ge9  1  0.428880  0.250118  0.903186  1
  Ge  Ge10  1  0.071120  0.250118  0.403186  1
  Ge  Ge11  1  0.571120  0.749882  0.096814  1
  O  O12  1  0.223246  0.460472  0.336149  1
  O  O13  1  0.723246  0.539528  0.163851  1
  O  O14  1  0.779542  0.960039  0.665998  1
  O  O15  1  0.279542  0.039961  0.834002  1
  O  O16  1  0.776754  0.539528  0.663851  1
  O  O17  1  0.276754  0.460472  0.836149  1
  O  O18  1  0.220458  0.039961  0.334002  1
  O  O19  1  0.720458  0.960039  0.165998  1
  O  O20  1  0.788310  0.750815  0.452083  1
  O  O21  1  0.288310  0.249185  0.047917  1
  O  O22  1  0.211690  0.249185  0.547917  1
  O  O23  1  0.711690  0.750815  0.952083  1
  O  O24  1  0.236294  0.743324  0.096518  1
  O  O25  1  0.736294  0.256676  0.403482  1
  O  O26  1  0.763706  0.256676  0.903482  1
  O  O27  1  0.263706  0.743324  0.596518  1
