# generated using pymatgen
data_Hf4SnBiRh10
_symmetry_space_group_name_H-M   'P 1'
_cell_length_a   4.15310500
_cell_length_b   5.68077600
_cell_length_c   11.17838563
_cell_angle_alpha   89.92582812
_cell_angle_beta   90.00000000
_cell_angle_gamma   90.00000000
_symmetry_Int_Tables_number   1
_chemical_formula_structural   Hf4SnBiRh10
_chemical_formula_sum   'Hf4 Sn1 Bi1 Rh10'
_cell_volume   263.72985711
_cell_formula_units_Z   1
loop_
 _symmetry_equiv_pos_site_id
 _symmetry_equiv_pos_as_xyz
  1  'x, y, z'
loop_
 _atom_site_type_symbol
 _atom_site_label
 _atom_site_symmetry_multiplicity
 _atom_site_fract_x
 _atom_site_fract_y
 _atom_site_fract_z
 _atom_site_occupancy
  Hf  Hf0  1  0.500000  0.176018  0.640326  1
  Hf  Hf1  1  0.500000  0.823982  0.359674  1
  Hf  Hf2  1  0.500000  0.672439  0.852769  1
  Hf  Hf3  1  0.500000  0.327561  0.147231  1
  Sn  Sn4  1  0.000000  0.500000  0.500000  1
  Bi  Bi5  1  0.000000  0.000000  0.000000  1
  Rh  Rh6  1  0.500000  0.204910  0.881856  1
  Rh  Rh7  1  0.500000  0.795090  0.118144  1
  Rh  Rh8  1  0.500000  0.700643  0.613107  1
  Rh  Rh9  1  0.500000  0.299357  0.386893  1
  Rh  Rh10  1  0.000000  0.434998  0.746082  1
  Rh  Rh11  1  0.000000  0.565002  0.253918  1
  Rh  Rh12  1  0.000000  0.000000  0.500000  1
  Rh  Rh13  1  0.000000  0.500000  0.000000  1
  Rh  Rh14  1  0.000000  0.066108  0.250172  1
  Rh  Rh15  1  0.000000  0.933892  0.749828  1
