# generated using pymatgen
data_Ho2Ga9Ru5
_symmetry_space_group_name_H-M   'P 1'
_cell_length_a   6.17473651
_cell_length_b   6.17473690
_cell_length_c   8.04292425
_cell_angle_alpha   112.57307495
_cell_angle_beta   112.57307660
_cell_angle_gamma   89.99999972
_symmetry_Int_Tables_number   1
_chemical_formula_structural   Ho2Ga9Ru5
_chemical_formula_sum   'Ho2 Ga9 Ru5'
_cell_volume   257.53605975
_cell_formula_units_Z   1
loop_
 _symmetry_equiv_pos_site_id
 _symmetry_equiv_pos_as_xyz
  1  'x, y, z'
loop_
 _atom_site_type_symbol
 _atom_site_label
 _atom_site_symmetry_multiplicity
 _atom_site_fract_x
 _atom_site_fract_y
 _atom_site_fract_z
 _atom_site_occupancy
  Ho  Ho0  1  0.500000  0.000000  0.000000  1
  Ho  Ho1  1  0.000000  0.500000  0.000000  1
  Ga  Ga2  1  0.000000  0.000000  0.000000  1
  Ga  Ga3  1  0.439048  0.439048  0.297216  1
  Ga  Ga4  1  0.858168  0.439048  0.297216  1
  Ga  Ga5  1  0.439048  0.858168  0.297216  1
  Ga  Ga6  1  0.858168  0.858168  0.297216  1
  Ga  Ga7  1  0.141832  0.141832  0.702784  1
  Ga  Ga8  1  0.560952  0.141832  0.702784  1
  Ga  Ga9  1  0.141832  0.560952  0.702784  1
  Ga  Ga10  1  0.560952  0.560952  0.702784  1
  Ru  Ru11  1  0.500000  0.500000  0.000000  1
  Ru  Ru12  1  0.181160  0.181160  0.362320  1
  Ru  Ru13  1  0.750000  0.250000  0.499999  1
  Ru  Ru14  1  0.250000  0.750000  0.499999  1
  Ru  Ru15  1  0.818841  0.818841  0.637680  1
