# generated using pymatgen
data_Y12GaSi4Hg
_symmetry_space_group_name_H-M   'P 1'
_cell_length_a   8.46623996
_cell_length_b   8.46636797
_cell_length_c   8.46623900
_cell_angle_alpha   111.43854223
_cell_angle_beta   111.21603278
_cell_angle_gamma   105.81913449
_symmetry_Int_Tables_number   1
_chemical_formula_structural   Y12GaSi4Hg
_chemical_formula_sum   'Y12 Ga1 Si4 Hg1'
_cell_volume   465.73998252
_cell_formula_units_Z   1
loop_
 _symmetry_equiv_pos_site_id
 _symmetry_equiv_pos_as_xyz
  1  'x, y, z'
loop_
 _atom_site_type_symbol
 _atom_site_label
 _atom_site_symmetry_multiplicity
 _atom_site_fract_x
 _atom_site_fract_y
 _atom_site_fract_z
 _atom_site_occupancy
  Y  Y0  1  0.045280  0.741774  0.303418  1
  Y  Y1  1  0.954720  0.258226  0.696582  1
  Y  Y2  1  0.561644  0.258226  0.303507  1
  Y  Y3  1  0.438356  0.741774  0.696493  1
  Y  Y4  1  0.677737  0.879942  0.202204  1
  Y  Y5  1  0.322239  0.524415  0.202176  1
  Y  Y6  1  0.322264  0.120058  0.797796  1
  Y  Y7  1  0.677762  0.475585  0.797824  1
  Y  Y8  1  0.179461  0.230215  0.409725  1
  Y  Y9  1  0.820490  0.230215  0.050753  1
  Y  Y10  1  0.179510  0.769785  0.949247  1
  Y  Y11  1  0.820539  0.769785  0.590275  1
  Ga  Ga12  1  0.000000  0.500000  0.500000  1
  Si  Si13  1  0.634677  0.500000  0.134677  1
  Si  Si14  1  0.365323  0.500000  0.865323  1
  Si  Si15  1  0.883293  0.883290  0.999997  1
  Si  Si16  1  0.116707  0.116710  0.000003  1
  Hg  Hg17  1  0.500000  0.000000  0.500000  1
