# generated using pymatgen
data_HoBeInF6
_symmetry_space_group_name_H-M   'P 1'
_cell_length_a   5.87352700
_cell_length_b   6.53936627
_cell_length_c   7.47661192
_cell_angle_alpha   65.46969209
_cell_angle_beta   90.00000000
_cell_angle_gamma   90.00000000
_symmetry_Int_Tables_number   1
_chemical_formula_structural   HoBeInF6
_chemical_formula_sum   'Ho2 Be2 In2 F12'
_cell_volume   261.25079004
_cell_formula_units_Z   2
loop_
 _symmetry_equiv_pos_site_id
 _symmetry_equiv_pos_as_xyz
  1  'x, y, z'
loop_
 _atom_site_type_symbol
 _atom_site_label
 _atom_site_symmetry_multiplicity
 _atom_site_fract_x
 _atom_site_fract_y
 _atom_site_fract_z
 _atom_site_occupancy
  Ho  Ho0  1  0.250000  0.401085  0.180849  1
  Ho  Ho1  1  0.750000  0.598915  0.819151  1
  Be  Be2  1  0.250000  0.768243  0.465974  1
  Be  Be3  1  0.750000  0.231757  0.534026  1
  In  In4  1  0.250000  0.093121  0.789107  1
  In  In5  1  0.750000  0.906879  0.210893  1
  F  F6  1  0.464915  0.727962  0.598976  1
  F  F7  1  0.535085  0.272038  0.401024  1
  F  F8  1  0.964915  0.272038  0.401024  1
  F  F9  1  0.035085  0.727962  0.598976  1
  F  F10  1  0.250000  0.610434  0.358012  1
  F  F11  1  0.750000  0.389566  0.641988  1
  F  F12  1  0.499524  0.686469  0.013222  1
  F  F13  1  0.500476  0.313531  0.986778  1
  F  F14  1  0.999524  0.313531  0.986778  1
  F  F15  1  0.000476  0.686469  0.013222  1
  F  F16  1  0.250000  0.014060  0.301222  1
  F  F17  1  0.750000  0.985940  0.698778  1
