# generated using pymatgen
data_NpU(GePt)2
_symmetry_space_group_name_H-M   'P 1'
_cell_length_a   4.44349300
_cell_length_b   6.90319600
_cell_length_c   7.58240900
_cell_angle_alpha   90.00000000
_cell_angle_beta   90.00000000
_cell_angle_gamma   90.00000000
_symmetry_Int_Tables_number   1
_chemical_formula_structural   NpU(GePt)2
_chemical_formula_sum   'Np2 U2 Ge4 Pt4'
_cell_volume   232.58511192
_cell_formula_units_Z   2
loop_
 _symmetry_equiv_pos_site_id
 _symmetry_equiv_pos_as_xyz
  1  'x, y, z'
loop_
 _atom_site_type_symbol
 _atom_site_label
 _atom_site_symmetry_multiplicity
 _atom_site_fract_x
 _atom_site_fract_y
 _atom_site_fract_z
 _atom_site_occupancy
  Np  Np0  1  0.750000  0.993511  0.202416  1
  Np  Np1  1  0.750000  0.493511  0.297584  1
  U  U2  1  0.250000  0.507888  0.701968  1
  U  U3  1  0.250000  0.007888  0.798032  1
  Ge  Ge4  1  0.250000  0.695724  0.090507  1
  Ge  Ge5  1  0.250000  0.195724  0.409493  1
  Ge  Ge6  1  0.750000  0.803723  0.589285  1
  Ge  Ge7  1  0.750000  0.303723  0.910715  1
  Pt  Pt8  1  0.250000  0.294411  0.082540  1
  Pt  Pt9  1  0.250000  0.794411  0.417460  1
  Pt  Pt10  1  0.750000  0.204742  0.581259  1
  Pt  Pt11  1  0.750000  0.704742  0.918741  1
