# generated using pymatgen
data_TbTm2In3NiHg2
_symmetry_space_group_name_H-M   'P 1'
_cell_length_a   3.95567000
_cell_length_b   7.71205421
_cell_length_c   7.77693702
_cell_angle_alpha   119.72440110
_cell_angle_beta   90.00000000
_cell_angle_gamma   90.00000000
_symmetry_Int_Tables_number   1
_chemical_formula_structural   TbTm2In3NiHg2
_chemical_formula_sum   'Tb1 Tm2 In3 Ni1 Hg2'
_cell_volume   206.02918335
_cell_formula_units_Z   1
loop_
 _symmetry_equiv_pos_site_id
 _symmetry_equiv_pos_as_xyz
  1  'x, y, z'
loop_
 _atom_site_type_symbol
 _atom_site_label
 _atom_site_symmetry_multiplicity
 _atom_site_fract_x
 _atom_site_fract_y
 _atom_site_fract_z
 _atom_site_occupancy
  Tb  Tb0  1  0.500000  0.394391  0.000000  1
  Tm  Tm1  1  0.500000  0.611422  0.611722  1
  Tm  Tm2  1  0.500000  0.999699  0.388278  1
  In  In3  1  0.000000  0.757313  0.000000  1
  In  In4  1  0.000000  0.239815  0.239897  1
  In  In5  1  0.000000  0.999918  0.760103  1
  Ni  Ni6  1  0.500000  0.996927  0.000000  1
  Hg  Hg7  1  0.000000  0.669542  0.338466  1
  Hg  Hg8  1  0.000000  0.331076  0.661534  1
