# generated using pymatgen
data_Ce7Sc(Si4W3)4
_symmetry_space_group_name_H-M   'P 1'
_cell_length_a   6.86626366
_cell_length_b   6.94382673
_cell_length_c   12.98410283
_cell_angle_alpha   90.21582516
_cell_angle_beta   89.96145251
_cell_angle_gamma   90.16739689
_symmetry_Int_Tables_number   1
_chemical_formula_structural   Ce7Sc(Si4W3)4
_chemical_formula_sum   'Ce7 Sc1 Si16 W12'
_cell_volume   619.05076923
_cell_formula_units_Z   1
loop_
 _symmetry_equiv_pos_site_id
 _symmetry_equiv_pos_as_xyz
  1  'x, y, z'
loop_
 _atom_site_type_symbol
 _atom_site_label
 _atom_site_symmetry_multiplicity
 _atom_site_fract_x
 _atom_site_fract_y
 _atom_site_fract_z
 _atom_site_occupancy
  Ce  Ce0  1  0.494282  0.661578  0.591823  1
  Ce  Ce1  1  0.994960  0.837307  0.907556  1
  Ce  Ce2  1  0.505153  0.337645  0.092420  1
  Ce  Ce3  1  0.003823  0.166534  0.407498  1
  Ce  Ce4  1  0.504998  0.337622  0.409990  1
  Ce  Ce5  1  0.006056  0.162433  0.092447  1
  Ce  Ce6  1  0.494287  0.663846  0.905379  1
  Sc  Sc7  1  0.992722  0.831010  0.595496  1
  Si  Si8  1  0.661523  0.954735  0.456103  1
  Si  Si9  1  0.157250  0.545893  0.046419  1
  Si  Si10  1  0.344298  0.047151  0.951897  1
  Si  Si11  1  0.845157  0.461121  0.547350  1
  Si  Si12  1  0.332949  0.039783  0.547735  1
  Si  Si13  1  0.841822  0.453990  0.953392  1
  Si  Si14  1  0.658089  0.954416  0.046560  1
  Si  Si15  1  0.155427  0.550825  0.456080  1
  Si  Si16  1  0.461804  0.363639  0.750664  1
  Si  Si17  1  0.963560  0.126317  0.746245  1
  Si  Si18  1  0.538831  0.634605  0.251587  1
  Si  Si19  1  0.038663  0.867991  0.250566  1
  Si  Si20  1  0.698780  0.867270  0.746359  1
  Si  Si21  1  0.188753  0.633943  0.746793  1
  Si  Si22  1  0.307204  0.131483  0.250552  1
  Si  Si23  1  0.807767  0.370897  0.250442  1
  W  W24  1  0.667006  0.162595  0.624573  1
  W  W25  1  0.164180  0.336949  0.872054  1
  W  W26  1  0.333519  0.838093  0.126351  1
  W  W27  1  0.832776  0.664725  0.375554  1
  W  W28  1  0.331201  0.838101  0.374882  1
  W  W29  1  0.832090  0.664227  0.126661  1
  W  W30  1  0.673744  0.159973  0.872290  1
  W  W31  1  0.166003  0.335140  0.625879  1
  W  W32  1  0.832538  0.496600  0.749427  1
  W  W33  1  0.332640  0.998252  0.748962  1
  W  W34  1  0.168666  0.503438  0.250568  1
  W  W35  1  0.667482  0.999874  0.251448  1
