# generated using pymatgen
data_LaTh2Ir7Rh2
_symmetry_space_group_name_H-M   'P 1'
_cell_length_a   5.39067200
_cell_length_b   5.39067072
_cell_length_c   17.73465000
_cell_angle_alpha   90.00000000
_cell_angle_beta   90.00000000
_cell_angle_gamma   119.99999555
_symmetry_Int_Tables_number   1
_chemical_formula_structural   LaTh2Ir7Rh2
_chemical_formula_sum   'La2 Th4 Ir14 Rh4'
_cell_volume   446.31243334
_cell_formula_units_Z   2
loop_
 _symmetry_equiv_pos_site_id
 _symmetry_equiv_pos_as_xyz
  1  'x, y, z'
loop_
 _atom_site_type_symbol
 _atom_site_label
 _atom_site_symmetry_multiplicity
 _atom_site_fract_x
 _atom_site_fract_y
 _atom_site_fract_z
 _atom_site_occupancy
  La  La0  1  0.333333  0.666667  0.750000  1
  La  La1  1  0.666667  0.333333  0.250000  1
  Th  Th2  1  0.333333  0.666667  0.543226  1
  Th  Th3  1  0.666667  0.333333  0.043226  1
  Th  Th4  1  0.666667  0.333333  0.456774  1
  Th  Th5  1  0.333333  0.666667  0.956774  1
  Ir  Ir6  1  0.167664  0.335328  0.126327  1
  Ir  Ir7  1  0.832336  0.664672  0.626327  1
  Ir  Ir8  1  0.664672  0.832336  0.126327  1
  Ir  Ir9  1  0.167664  0.832336  0.126327  1
  Ir  Ir10  1  0.832336  0.167664  0.626327  1
  Ir  Ir11  1  0.335328  0.167664  0.626327  1
  Ir  Ir12  1  0.832336  0.664672  0.873673  1
  Ir  Ir13  1  0.832336  0.167664  0.873673  1
  Ir  Ir14  1  0.335328  0.167664  0.873673  1
  Ir  Ir15  1  0.664672  0.832336  0.373673  1
  Ir  Ir16  1  0.167664  0.832336  0.373673  1
  Ir  Ir17  1  0.167664  0.335328  0.373673  1
  Ir  Ir18  1  0.000000  0.000000  0.000000  1
  Ir  Ir19  1  0.000000  0.000000  0.500000  1
  Rh  Rh20  1  0.000000  0.000000  0.250000  1
  Rh  Rh21  1  0.000000  0.000000  0.750000  1
  Rh  Rh22  1  0.333333  0.666667  0.250000  1
  Rh  Rh23  1  0.666667  0.333333  0.750000  1
