# generated using pymatgen
data_Er2U(InIr)3
_symmetry_space_group_name_H-M   'P 1'
_cell_length_a   7.47214264
_cell_length_b   7.73850970
_cell_length_c   3.84695900
_cell_angle_alpha   90.00000000
_cell_angle_beta   90.00000000
_cell_angle_gamma   121.18639010
_symmetry_Int_Tables_number   1
_chemical_formula_structural   Er2U(InIr)3
_chemical_formula_sum   'Er2 U1 In3 Ir3'
_cell_volume   190.29772781
_cell_formula_units_Z   1
loop_
 _symmetry_equiv_pos_site_id
 _symmetry_equiv_pos_as_xyz
  1  'x, y, z'
loop_
 _atom_site_type_symbol
 _atom_site_label
 _atom_site_symmetry_multiplicity
 _atom_site_fract_x
 _atom_site_fract_y
 _atom_site_fract_z
 _atom_site_occupancy
  Er  Er0  1  0.403444  0.403726  0.500000  1
  Er  Er1  1  0.596556  0.000282  0.500000  1
  U  U2  1  0.000000  0.584557  0.500000  1
  In  In3  1  0.273844  0.013724  0.000000  1
  In  In4  1  0.726156  0.739880  0.000000  1
  In  In5  1  0.000000  0.243448  0.000000  1
  Ir  Ir6  1  0.703048  0.365598  0.000000  1
  Ir  Ir7  1  0.296952  0.662551  0.000000  1
  Ir  Ir8  1  0.000000  0.986234  0.500000  1
