# generated using pymatgen
data_Tb5Er12Th3Pb16
_symmetry_space_group_name_H-M   'P 1'
_cell_length_a   8.22400867
_cell_length_b   8.29262224
_cell_length_c   15.58441137
_cell_angle_alpha   89.97555836
_cell_angle_beta   90.21659214
_cell_angle_gamma   90.01412881
_symmetry_Int_Tables_number   1
_chemical_formula_structural   Tb5Er12Th3Pb16
_chemical_formula_sum   'Tb5 Er12 Th3 Pb16'
_cell_volume   1062.82727094
_cell_formula_units_Z   1
loop_
 _symmetry_equiv_pos_site_id
 _symmetry_equiv_pos_as_xyz
  1  'x, y, z'
loop_
 _atom_site_type_symbol
 _atom_site_label
 _atom_site_symmetry_multiplicity
 _atom_site_fract_x
 _atom_site_fract_y
 _atom_site_fract_z
 _atom_site_occupancy
  Tb  Tb0  1  0.967020  0.827367  0.099206  1
  Tb  Tb1  1  0.461215  0.674663  0.101996  1
  Tb  Tb2  1  0.964128  0.824948  0.399252  1
  Tb  Tb3  1  0.537742  0.325644  0.600779  1
  Tb  Tb4  1  0.039994  0.173281  0.898778  1
  Er  Er5  1  0.372684  0.841713  0.878161  1
  Er  Er6  1  0.870364  0.657300  0.622642  1
  Er  Er7  1  0.630084  0.157354  0.376797  1
  Er  Er8  1  0.127988  0.342986  0.122486  1
  Er  Er9  1  0.629280  0.159839  0.122504  1
  Er  Er10  1  0.131852  0.341442  0.376721  1
  Er  Er11  1  0.368774  0.838632  0.622393  1
  Er  Er12  1  0.870466  0.660540  0.878821  1
  Er  Er13  1  0.202523  0.502210  0.750237  1
  Er  Er14  1  0.703120  0.996963  0.750737  1
  Er  Er15  1  0.797455  0.497434  0.249130  1
  Er  Er16  1  0.297167  0.002400  0.249097  1
  Th  Th17  1  0.528627  0.322615  0.903220  1
  Th  Th18  1  0.026358  0.175797  0.596699  1
  Th  Th19  1  0.472732  0.677630  0.402119  1
  Pb  Pb20  1  0.287876  0.037808  0.042566  1
  Pb  Pb21  1  0.791779  0.459114  0.457697  1
  Pb  Pb22  1  0.707928  0.958127  0.542218  1
  Pb  Pb23  1  0.210460  0.538844  0.957066  1
  Pb  Pb24  1  0.718531  0.969685  0.955836  1
  Pb  Pb25  1  0.215098  0.530740  0.544791  1
  Pb  Pb26  1  0.285923  0.032342  0.455084  1
  Pb  Pb27  1  0.784264  0.470583  0.045164  1
  Pb  Pb28  1  0.565398  0.628599  0.750974  1
  Pb  Pb29  1  0.064964  0.870225  0.749536  1
  Pb  Pb30  1  0.434498  0.371462  0.250828  1
  Pb  Pb31  1  0.935473  0.128951  0.249786  1
  Pb  Pb32  1  0.343863  0.150586  0.746684  1
  Pb  Pb33  1  0.843278  0.348861  0.752716  1
  Pb  Pb34  1  0.658235  0.848924  0.247209  1
  Pb  Pb35  1  0.152857  0.654391  0.250072  1
