# generated using pymatgen
data_TaTi(SiTc)2
_symmetry_space_group_name_H-M   'P 1'
_cell_length_a   3.26844800
_cell_length_b   6.85759720
_cell_length_c   11.78337875
_cell_angle_alpha   89.69567861
_cell_angle_beta   90.00000000
_cell_angle_gamma   90.00000000
_symmetry_Int_Tables_number   1
_chemical_formula_structural   TaTi(SiTc)2
_chemical_formula_sum   'Ta3 Ti3 Si6 Tc6'
_cell_volume   264.10538899
_cell_formula_units_Z   3
loop_
 _symmetry_equiv_pos_site_id
 _symmetry_equiv_pos_as_xyz
  1  'x, y, z'
loop_
 _atom_site_type_symbol
 _atom_site_label
 _atom_site_symmetry_multiplicity
 _atom_site_fract_x
 _atom_site_fract_y
 _atom_site_fract_z
 _atom_site_occupancy
  Ta  Ta0  1  0.500000  0.404777  0.001347  1
  Ta  Ta1  1  0.500000  0.898695  0.500053  1
  Ta  Ta2  1  0.500000  0.796732  0.800214  1
  Ti  Ti3  1  0.500000  0.297716  0.299191  1
  Ti  Ti4  1  0.500000  0.297670  0.699054  1
  Ti  Ti5  1  0.500000  0.798885  0.202070  1
  Si  Si6  1  0.500000  0.002099  0.002164  1
  Si  Si7  1  0.500000  0.496210  0.497924  1
  Si  Si8  1  0.000000  0.002996  0.667825  1
  Si  Si9  1  0.000000  0.502628  0.169318  1
  Si  Si10  1  0.000000  0.495640  0.830771  1
  Si  Si11  1  0.000000  0.001861  0.331367  1
  Tc  Tc12  1  0.000000  0.240982  0.500186  1
  Tc  Tc13  1  0.000000  0.743901  0.999721  1
  Tc  Tc14  1  0.000000  0.627360  0.627718  1
  Tc  Tc15  1  0.000000  0.131819  0.129465  1
  Tc  Tc16  1  0.000000  0.129927  0.870993  1
  Tc  Tc17  1  0.000000  0.630300  0.370618  1
