# generated using pymatgen
data_Dy3Er3TiMn5O18
_symmetry_space_group_name_H-M   'P 1'
_cell_length_a   6.18663117
_cell_length_b   6.17622482
_cell_length_c   11.67697895
_cell_angle_alpha   89.64906618
_cell_angle_beta   90.46857289
_cell_angle_gamma   120.09350258
_symmetry_Int_Tables_number   1
_chemical_formula_structural   Dy3Er3TiMn5O18
_chemical_formula_sum   'Dy3 Er3 Ti1 Mn5 O18'
_cell_volume   386.02264065
_cell_formula_units_Z   1
loop_
 _symmetry_equiv_pos_site_id
 _symmetry_equiv_pos_as_xyz
  1  'x, y, z'
loop_
 _atom_site_type_symbol
 _atom_site_label
 _atom_site_symmetry_multiplicity
 _atom_site_fract_x
 _atom_site_fract_y
 _atom_site_fract_z
 _atom_site_occupancy
  Dy  Dy0  1  0.672277  0.332230  0.735807  1
  Dy  Dy1  1  0.332458  0.662459  0.736459  1
  Dy  Dy2  1  0.664292  0.332973  0.242901  1
  Er  Er3  1  0.997643  0.003847  0.283735  1
  Er  Er4  1  0.003444  0.000313  0.780948  1
  Er  Er5  1  0.329092  0.666848  0.242546  1
  Ti  Ti6  1  0.334543  0.000273  0.008438  1
  Mn  Mn7  1  0.335347  0.334539  0.508062  1
  Mn  Mn8  1  0.001759  0.671121  0.507370  1
  Mn  Mn9  1  0.000173  0.333806  0.007014  1
  Mn  Mn10  1  0.667443  0.668315  0.008194  1
  Mn  Mn11  1  0.667848  0.998410  0.507498  1
  O  O12  1  0.298319  0.996906  0.176426  1
  O  O13  1  0.308118  0.303341  0.670893  1
  O  O14  1  0.000970  0.698480  0.670741  1
  O  O15  1  0.000157  0.313848  0.178774  1
  O  O16  1  0.689533  0.693493  0.172135  1
  O  O17  1  0.697361  0.996446  0.670413  1
  O  O18  1  0.637178  0.995088  0.344556  1
  O  O19  1  0.645293  0.644015  0.844330  1
  O  O20  1  0.002109  0.351738  0.835848  1
  O  O21  1  0.999721  0.644386  0.344993  1
  O  O22  1  0.358253  0.362363  0.345125  1
  O  O23  1  0.363642  0.001040  0.842406  1
  O  O24  1  0.997582  0.999446  0.481305  1
  O  O25  1  0.020014  0.983252  0.983592  1
  O  O26  1  0.349978  0.702831  0.028008  1
  O  O27  1  0.665252  0.330423  0.527847  1
  O  O28  1  0.329038  0.663258  0.529170  1
  O  O29  1  0.631164  0.314511  0.028472  1
