# generated using pymatgen
data_Yb2Eu(AgSn)3
_symmetry_space_group_name_H-M   'P 1'
_cell_length_a   4.85285700
_cell_length_b   4.85285637
_cell_length_c   10.86165400
_cell_angle_alpha   90.00000000
_cell_angle_beta   90.00000000
_cell_angle_gamma   119.99999750
_symmetry_Int_Tables_number   1
_chemical_formula_structural   Yb2Eu(AgSn)3
_chemical_formula_sum   'Yb2 Eu1 Ag3 Sn3'
_cell_volume   221.52438433
_cell_formula_units_Z   1
loop_
 _symmetry_equiv_pos_site_id
 _symmetry_equiv_pos_as_xyz
  1  'x, y, z'
loop_
 _atom_site_type_symbol
 _atom_site_label
 _atom_site_symmetry_multiplicity
 _atom_site_fract_x
 _atom_site_fract_y
 _atom_site_fract_z
 _atom_site_occupancy
  Yb  Yb0  1  0.666667  0.333333  0.665054  1
  Yb  Yb1  1  0.666667  0.333333  0.334946  1
  Eu  Eu2  1  0.666667  0.333333  0.000000  1
  Ag  Ag3  1  0.000000  0.000000  0.797655  1
  Ag  Ag4  1  0.000000  0.000000  0.202345  1
  Ag  Ag5  1  0.333333  0.666667  0.500000  1
  Sn  Sn6  1  0.333333  0.666667  0.843581  1
  Sn  Sn7  1  0.000000  0.000000  0.500000  1
  Sn  Sn8  1  0.333333  0.666667  0.156419  1
