# generated using pymatgen
data_K4ZnSb7Au8
_symmetry_space_group_name_H-M   'P 1'
_cell_length_a   4.80864000
_cell_length_b   8.89626708
_cell_length_c   12.45032900
_cell_angle_alpha   89.37511784
_cell_angle_beta   90.00000000
_cell_angle_gamma   90.00000000
_symmetry_Int_Tables_number   1
_chemical_formula_structural   K4ZnSb7Au8
_chemical_formula_sum   'K4 Zn1 Sb7 Au8'
_cell_volume   532.58027306
_cell_formula_units_Z   1
loop_
 _symmetry_equiv_pos_site_id
 _symmetry_equiv_pos_as_xyz
  1  'x, y, z'
loop_
 _atom_site_type_symbol
 _atom_site_label
 _atom_site_symmetry_multiplicity
 _atom_site_fract_x
 _atom_site_fract_y
 _atom_site_fract_z
 _atom_site_occupancy
  K  K0  1  0.750000  0.743814  0.329960  1
  K  K1  1  0.250000  0.760008  0.840814  1
  K  K2  1  0.250000  0.257293  0.667200  1
  K  K3  1  0.750000  0.241251  0.161786  1
  Zn  Zn4  1  0.250000  0.392347  0.964083  1
  Sb  Sb5  1  0.250000  0.398613  0.343122  1
  Sb  Sb6  1  0.250000  0.910569  0.152135  1
  Sb  Sb7  1  0.750000  0.603250  0.035697  1
  Sb  Sb8  1  0.750000  0.595465  0.658024  1
  Sb  Sb9  1  0.750000  0.103651  0.844689  1
  Sb  Sb10  1  0.250000  0.888537  0.551038  1
  Sb  Sb11  1  0.750000  0.109617  0.453790  1
  Au  Au12  1  0.250000  0.095817  0.961317  1
  Au  Au13  1  0.750000  0.425243  0.851826  1
  Au  Au14  1  0.750000  0.929917  0.660551  1
  Au  Au15  1  0.250000  0.559239  0.148271  1
  Au  Au16  1  0.250000  0.068381  0.345190  1
  Au  Au17  1  0.750000  0.915842  0.032374  1
  Au  Au18  1  0.250000  0.582374  0.531264  1
  Au  Au19  1  0.750000  0.418772  0.466867  1
