# generated using pymatgen
data_Tc5MoAs14
_symmetry_space_group_name_H-M   'P 1'
_cell_length_a   7.64807090
_cell_length_b   7.64808721
_cell_length_c   7.64807059
_cell_angle_alpha   109.39059857
_cell_angle_beta   109.63264618
_cell_angle_gamma   109.39060498
_symmetry_Int_Tables_number   1
_chemical_formula_structural   Tc5MoAs14
_chemical_formula_sum   'Tc5 Mo1 As14'
_cell_volume   344.37513655
_cell_formula_units_Z   1
loop_
 _symmetry_equiv_pos_site_id
 _symmetry_equiv_pos_as_xyz
  1  'x, y, z'
loop_
 _atom_site_type_symbol
 _atom_site_label
 _atom_site_symmetry_multiplicity
 _atom_site_fract_x
 _atom_site_fract_y
 _atom_site_fract_z
 _atom_site_occupancy
  Tc  Tc0  1  0.000266  0.341634  0.341899  1
  Tc  Tc1  1  0.000266  0.658366  0.658631  1
  Tc  Tc2  1  0.341899  0.341634  0.000266  1
  Tc  Tc3  1  0.658631  0.658366  0.000266  1
  Tc  Tc4  1  0.661027  0.000000  0.661027  1
  Mo  Mo5  1  0.341423  0.999999  0.341423  1
  As  As6  1  0.750438  0.500000  0.250437  1
  As  As7  1  0.499537  0.749286  0.248822  1
  As  As8  1  0.499537  0.250714  0.750250  1
  As  As9  1  0.750250  0.250714  0.499537  1
  As  As10  1  0.248822  0.749286  0.499537  1
  As  As11  1  0.250437  0.500000  0.750438  1
  As  As12  1  0.999130  0.000000  0.330824  1
  As  As13  1  0.668913  0.000000  0.999866  1
  As  As14  1  0.999131  0.668307  0.999131  1
  As  As15  1  0.330824  0.331694  0.330824  1
  As  As16  1  0.999867  0.330953  0.999867  1
  As  As17  1  0.668913  0.669047  0.668913  1
  As  As18  1  0.330824  0.000000  0.999130  1
  As  As19  1  0.999866  0.000000  0.668913  1
