# generated using pymatgen
data_Sc2V(Tc2W)3
_symmetry_space_group_name_H-M   'P 1'
_cell_length_a   4.42041000
_cell_length_b   6.28775400
_cell_length_c   13.38081400
_cell_angle_alpha   90.00000000
_cell_angle_beta   90.00000000
_cell_angle_gamma   90.00000000
_symmetry_Int_Tables_number   1
_chemical_formula_structural   Sc2V(Tc2W)3
_chemical_formula_sum   'Sc4 V2 Tc12 W6'
_cell_volume   371.91237450
_cell_formula_units_Z   2
loop_
 _symmetry_equiv_pos_site_id
 _symmetry_equiv_pos_as_xyz
  1  'x, y, z'
loop_
 _atom_site_type_symbol
 _atom_site_label
 _atom_site_symmetry_multiplicity
 _atom_site_fract_x
 _atom_site_fract_y
 _atom_site_fract_z
 _atom_site_occupancy
  Sc  Sc0  1  0.000000  0.500000  0.331767  1
  Sc  Sc1  1  0.500000  0.000000  0.498646  1
  Sc  Sc2  1  0.000000  0.500000  0.668025  1
  Sc  Sc3  1  0.499996  0.000000  0.834909  1
  V  V4  1  0.000000  0.500000  0.999065  1
  V  V5  1  0.500005  0.000000  0.167589  1
  Tc  Tc6  1  0.500000  0.252570  0.004678  1
  Tc  Tc7  1  0.500000  0.747431  0.004678  1
  Tc  Tc8  1  0.000000  0.247406  0.162002  1
  Tc  Tc9  1  0.000000  0.752594  0.162002  1
  Tc  Tc10  1  0.500005  0.245296  0.325909  1
  Tc  Tc11  1  0.500005  0.754703  0.325909  1
  Tc  Tc12  1  0.000000  0.249612  0.498037  1
  Tc  Tc13  1  0.000000  0.750388  0.498037  1
  Tc  Tc14  1  0.499996  0.250383  0.668613  1
  Tc  Tc15  1  0.499996  0.749616  0.668613  1
  Tc  Tc16  1  0.000000  0.254735  0.840760  1
  Tc  Tc17  1  0.000000  0.745265  0.840760  1
  W  W18  1  0.000000  0.000000  0.002065  1
  W  W19  1  0.500005  0.500000  0.164622  1
  W  W20  1  0.000000  0.000000  0.332230  1
  W  W21  1  0.500000  0.500000  0.501073  1
  W  W22  1  0.000000  0.000000  0.665581  1
  W  W23  1  0.499996  0.500000  0.834433  1
