# generated using pymatgen
data_DyInNi3Ir
_symmetry_space_group_name_H-M   'P 1'
_cell_length_a   5.14508174
_cell_length_b   5.14508189
_cell_length_c   5.14508242
_cell_angle_alpha   58.09558404
_cell_angle_beta   58.09559597
_cell_angle_gamma   58.09559179
_symmetry_Int_Tables_number   1
_chemical_formula_structural   DyInNi3Ir
_chemical_formula_sum   'Dy1 In1 Ni3 Ir1'
_cell_volume   92.10286595
_cell_formula_units_Z   1
loop_
 _symmetry_equiv_pos_site_id
 _symmetry_equiv_pos_as_xyz
  1  'x, y, z'
loop_
 _atom_site_type_symbol
 _atom_site_label
 _atom_site_symmetry_multiplicity
 _atom_site_fract_x
 _atom_site_fract_y
 _atom_site_fract_z
 _atom_site_occupancy
  Dy  Dy0  1  0.248721  0.248721  0.248721  1
  In  In1  1  0.002352  0.002352  0.002352  1
  Ni  Ni2  1  0.625472  0.625472  0.122356  1
  Ni  Ni3  1  0.625472  0.122356  0.625472  1
  Ni  Ni4  1  0.122356  0.625472  0.625472  1
  Ir  Ir5  1  0.625628  0.625628  0.625628  1
