# generated using pymatgen
data_Yb12Ho3Er5Si16
_symmetry_space_group_name_H-M   'P 1'
_cell_length_a   7.37312405
_cell_length_b   7.78032003
_cell_length_c   15.05623106
_cell_angle_alpha   89.99568117
_cell_angle_beta   90.00976283
_cell_angle_gamma   89.99111381
_symmetry_Int_Tables_number   1
_chemical_formula_structural   Yb12Ho3Er5Si16
_chemical_formula_sum   'Yb12 Ho3 Er5 Si16'
_cell_volume   863.70465527
_cell_formula_units_Z   1
loop_
 _symmetry_equiv_pos_site_id
 _symmetry_equiv_pos_as_xyz
  1  'x, y, z'
loop_
 _atom_site_type_symbol
 _atom_site_label
 _atom_site_symmetry_multiplicity
 _atom_site_fract_x
 _atom_site_fract_y
 _atom_site_fract_z
 _atom_site_occupancy
  Yb  Yb0  1  0.972927  0.816072  0.403876  1
  Yb  Yb1  1  0.472993  0.683968  0.096143  1
  Yb  Yb2  1  0.527116  0.316011  0.596155  1
  Yb  Yb3  1  0.026989  0.183854  0.903796  1
  Yb  Yb4  1  0.027251  0.183909  0.596211  1
  Yb  Yb5  1  0.527343  0.316083  0.903764  1
  Yb  Yb6  1  0.472733  0.683915  0.403862  1
  Yb  Yb7  1  0.972700  0.816096  0.096188  1
  Yb  Yb8  1  0.353280  0.019565  0.749885  1
  Yb  Yb9  1  0.853194  0.480449  0.749971  1
  Yb  Yb10  1  0.146697  0.519644  0.250063  1
  Yb  Yb11  1  0.646785  0.980364  0.249959  1
  Ho  Ho12  1  0.314298  0.176879  0.121050  1
  Ho  Ho13  1  0.814352  0.323068  0.378990  1
  Ho  Ho14  1  0.185743  0.676900  0.878845  1
  Er  Er15  1  0.685550  0.823570  0.621245  1
  Er  Er16  1  0.314334  0.176466  0.378900  1
  Er  Er17  1  0.814151  0.323329  0.121134  1
  Er  Er18  1  0.185680  0.676502  0.621275  1
  Er  Er19  1  0.685863  0.823556  0.878696  1
  Si  Si20  1  0.857684  0.533963  0.538696  1
  Si  Si21  1  0.358210  0.966407  0.961484  1
  Si  Si22  1  0.642090  0.033251  0.461762  1
  Si  Si23  1  0.141764  0.466405  0.038510  1
  Si  Si24  1  0.143188  0.466618  0.461777  1
  Si  Si25  1  0.643355  0.033545  0.038244  1
  Si  Si26  1  0.357117  0.966158  0.538466  1
  Si  Si27  1  0.856661  0.533524  0.961698  1
  Si  Si28  1  0.977603  0.881985  0.749882  1
  Si  Si29  1  0.478137  0.618143  0.749747  1
  Si  Si30  1  0.522164  0.382211  0.249881  1
  Si  Si31  1  0.022142  0.117799  0.250129  1
  Si  Si32  1  0.249452  0.395119  0.749742  1
  Si  Si33  1  0.748998  0.104762  0.749938  1
  Si  Si34  1  0.250734  0.894964  0.250212  1
  Si  Si35  1  0.750724  0.604947  0.249822  1
