# generated using pymatgen
data_Sb10Pd4Pt
_symmetry_space_group_name_H-M   'P 1'
_cell_length_a   20.36683531
_cell_length_b   20.36683430
_cell_length_c   6.53373417
_cell_angle_alpha   68.31309148
_cell_angle_beta   68.31309226
_cell_angle_gamma   8.35941860
_symmetry_Int_Tables_number   1
_chemical_formula_structural   Sb10Pd4Pt
_chemical_formula_sum   'Sb10 Pd4 Pt1'
_cell_volume   365.97699549
_cell_formula_units_Z   1
loop_
 _symmetry_equiv_pos_site_id
 _symmetry_equiv_pos_as_xyz
  1  'x, y, z'
loop_
 _atom_site_type_symbol
 _atom_site_label
 _atom_site_symmetry_multiplicity
 _atom_site_fract_x
 _atom_site_fract_y
 _atom_site_fract_z
 _atom_site_occupancy
  Sb  Sb0  1  0.677865  0.677865  0.727923  1
  Sb  Sb1  1  0.278360  0.278360  0.733656  1
  Sb  Sb2  1  0.878446  0.878446  0.742464  1
  Sb  Sb3  1  0.534361  0.534361  0.271421  1
  Sb  Sb4  1  0.133159  0.133159  0.258305  1
  Sb  Sb5  1  0.732927  0.732927  0.258320  1
  Sb  Sb6  1  0.333202  0.333202  0.265776  1
  Sb  Sb7  1  0.933755  0.933755  0.272100  1
  Sb  Sb8  1  0.077424  0.077424  0.731909  1
  Sb  Sb9  1  0.477625  0.477625  0.738441  1
  Pd  Pd10  1  0.605510  0.605510  0.993097  1
  Pd  Pd11  1  0.205629  0.205629  0.991439  1
  Pd  Pd12  1  0.805671  0.805671  0.000474  1
  Pd  Pd13  1  0.405989  0.405989  0.008380  1
  Pt  Pt14  1  0.005799  0.005799  0.006291  1
