# generated using pymatgen
data_Ho3ErTmIr3
_symmetry_space_group_name_H-M   'P 1'
_cell_length_a   10.81726200
_cell_length_b   10.81539000
_cell_length_c   6.33288700
_cell_angle_alpha   90.00000000
_cell_angle_beta   90.00000000
_cell_angle_gamma   90.00000000
_symmetry_Int_Tables_number   1
_chemical_formula_structural   Ho3ErTmIr3
_chemical_formula_sum   'Ho12 Er4 Tm4 Ir12'
_cell_volume   740.90286149
_cell_formula_units_Z   4
loop_
 _symmetry_equiv_pos_site_id
 _symmetry_equiv_pos_as_xyz
  1  'x, y, z'
loop_
 _atom_site_type_symbol
 _atom_site_label
 _atom_site_symmetry_multiplicity
 _atom_site_fract_x
 _atom_site_fract_y
 _atom_site_fract_z
 _atom_site_occupancy
  Ho  Ho0  1  0.290757  0.087792  0.377046  1
  Ho  Ho1  1  0.290757  0.912208  0.877046  1
  Ho  Ho2  1  0.709243  0.087792  0.877046  1
  Ho  Ho3  1  0.709243  0.912208  0.377046  1
  Ho  Ho4  1  0.587735  0.790813  0.877132  1
  Ho  Ho5  1  0.587735  0.209187  0.377132  1
  Ho  Ho6  1  0.412265  0.790813  0.377132  1
  Ho  Ho7  1  0.412265  0.209187  0.877132  1
  Ho  Ho8  1  0.209026  0.412316  0.622829  1
  Ho  Ho9  1  0.209026  0.587684  0.122829  1
  Ho  Ho10  1  0.790974  0.412316  0.122829  1
  Ho  Ho11  1  0.790974  0.587684  0.622829  1
  Er  Er12  1  0.912413  0.708995  0.122626  1
  Er  Er13  1  0.912413  0.291005  0.622626  1
  Er  Er14  1  0.087587  0.708995  0.622626  1
  Er  Er15  1  0.087587  0.291005  0.122626  1
  Tm  Tm16  1  0.000000  0.000000  0.500118  1
  Tm  Tm17  1  0.000000  0.000000  0.000118  1
  Tm  Tm18  1  0.500000  0.500000  0.000066  1
  Tm  Tm19  1  0.500000  0.500000  0.500066  1
  Ir  Ir20  1  0.847519  0.153029  0.250368  1
  Ir  Ir21  1  0.847519  0.846971  0.750368  1
  Ir  Ir22  1  0.152481  0.153029  0.750368  1
  Ir  Ir23  1  0.152481  0.846971  0.250368  1
  Ir  Ir24  1  0.653045  0.347125  0.749836  1
  Ir  Ir25  1  0.653045  0.652875  0.249836  1
  Ir  Ir26  1  0.346955  0.347125  0.249836  1
  Ir  Ir27  1  0.346955  0.652875  0.749836  1
  Ir  Ir28  1  0.500000  0.000000  0.122382  1
  Ir  Ir29  1  0.500000  0.000000  0.622382  1
  Ir  Ir30  1  0.000000  0.500000  0.877759  1
  Ir  Ir31  1  0.000000  0.500000  0.377759  1
