# generated using pymatgen
data_Ca7Y(Si3Pd)4
_symmetry_space_group_name_H-M   'P 1'
_cell_length_a   8.27934100
_cell_length_b   8.27934107
_cell_length_c   8.37032500
_cell_angle_alpha   90.00000000
_cell_angle_beta   90.00000000
_cell_angle_gamma   119.99999573
_symmetry_Int_Tables_number   1
_chemical_formula_structural   Ca7Y(Si3Pd)4
_chemical_formula_sum   'Ca7 Y1 Si12 Pd4'
_cell_volume   496.89487253
_cell_formula_units_Z   1
loop_
 _symmetry_equiv_pos_site_id
 _symmetry_equiv_pos_as_xyz
  1  'x, y, z'
loop_
 _atom_site_type_symbol
 _atom_site_label
 _atom_site_symmetry_multiplicity
 _atom_site_fract_x
 _atom_site_fract_y
 _atom_site_fract_z
 _atom_site_occupancy
  Ca  Ca0  1  0.501149  0.002298  0.250000  1
  Ca  Ca1  1  0.498505  0.997010  0.750000  1
  Ca  Ca2  1  0.997702  0.498851  0.250000  1
  Ca  Ca3  1  0.002990  0.501495  0.750000  1
  Ca  Ca4  1  0.501149  0.498851  0.250000  1
  Ca  Ca5  1  0.498505  0.501495  0.750000  1
  Ca  Ca6  1  0.000000  0.000000  0.250000  1
  Y  Y7  1  0.000000  0.000000  0.750000  1
  Si  Si8  1  0.164733  0.329467  0.998073  1
  Si  Si9  1  0.835273  0.670547  0.993793  1
  Si  Si10  1  0.670533  0.835267  0.998073  1
  Si  Si11  1  0.835273  0.670547  0.506207  1
  Si  Si12  1  0.329453  0.164727  0.993793  1
  Si  Si13  1  0.164733  0.329467  0.501927  1
  Si  Si14  1  0.164733  0.835267  0.998073  1
  Si  Si15  1  0.329453  0.164727  0.506207  1
  Si  Si16  1  0.835273  0.164727  0.993793  1
  Si  Si17  1  0.670533  0.835267  0.501927  1
  Si  Si18  1  0.835273  0.164727  0.506207  1
  Si  Si19  1  0.164733  0.835267  0.501927  1
  Pd  Pd20  1  0.333333  0.666667  0.002345  1
  Pd  Pd21  1  0.666667  0.333333  0.998022  1
  Pd  Pd22  1  0.666667  0.333333  0.501978  1
  Pd  Pd23  1  0.333333  0.666667  0.497655  1
