# generated using pymatgen
data_RbBa2SnHg10
_symmetry_space_group_name_H-M   'P 1'
_cell_length_a   9.73752588
_cell_length_b   9.73752584
_cell_length_c   9.73752551
_cell_angle_alpha   147.62083674
_cell_angle_beta   117.04719403
_cell_angle_gamma   72.58761360
_symmetry_Int_Tables_number   1
_chemical_formula_structural   RbBa2SnHg10
_chemical_formula_sum   'Rb1 Ba2 Sn1 Hg10'
_cell_volume   433.35944344
_cell_formula_units_Z   1
loop_
 _symmetry_equiv_pos_site_id
 _symmetry_equiv_pos_as_xyz
  1  'x, y, z'
loop_
 _atom_site_type_symbol
 _atom_site_label
 _atom_site_symmetry_multiplicity
 _atom_site_fract_x
 _atom_site_fract_y
 _atom_site_fract_z
 _atom_site_occupancy
  Rb  Rb0  1  0.000000  0.000000  0.000000  1
  Ba  Ba1  1  0.700460  0.700460  0.000000  1
  Ba  Ba2  1  0.299540  0.299540  0.000000  1
  Sn  Sn3  1  0.500000  0.000000  0.500000  1
  Hg  Hg4  1  0.151945  0.860358  0.291587  1
  Hg  Hg5  1  0.848055  0.139642  0.708413  1
  Hg  Hg6  1  0.431229  0.139642  0.291587  1
  Hg  Hg7  1  0.568771  0.860358  0.708413  1
  Hg  Hg8  1  0.016510  0.664043  0.352465  1
  Hg  Hg9  1  0.983490  0.335957  0.647535  1
  Hg  Hg10  1  0.688422  0.335957  0.352465  1
  Hg  Hg11  1  0.311578  0.664043  0.647535  1
  Hg  Hg12  1  0.677351  0.500000  0.177351  1
  Hg  Hg13  1  0.322649  0.500000  0.822649  1
