# generated using pymatgen
data_Ce2TaWN6
_symmetry_space_group_name_H-M   'P 1'
_cell_length_a   5.57487049
_cell_length_b   5.69951901
_cell_length_c   9.69005051
_cell_angle_alpha   89.99362174
_cell_angle_beta   125.02720826
_cell_angle_gamma   90.00403496
_symmetry_Int_Tables_number   1
_chemical_formula_structural   Ce2TaWN6
_chemical_formula_sum   'Ce4 Ta2 W2 N12'
_cell_volume   252.12683161
_cell_formula_units_Z   2
loop_
 _symmetry_equiv_pos_site_id
 _symmetry_equiv_pos_as_xyz
  1  'x, y, z'
loop_
 _atom_site_type_symbol
 _atom_site_label
 _atom_site_symmetry_multiplicity
 _atom_site_fract_x
 _atom_site_fract_y
 _atom_site_fract_z
 _atom_site_occupancy
  Ce  Ce0  1  0.256956  0.052075  0.249771  1
  Ce  Ce1  1  0.742932  0.552203  0.250214  1
  Ce  Ce2  1  0.257102  0.447776  0.749776  1
  Ce  Ce3  1  0.742971  0.947805  0.750232  1
  Ta  Ta4  1  0.000019  0.500001  0.999987  1
  Ta  Ta5  1  0.000026  0.000071  0.500051  1
  W  W6  1  0.499916  0.000064  0.999991  1
  W  W7  1  0.500064  0.500074  0.499996  1
  N  N8  1  0.249428  0.802800  0.046685  1
  N  N9  1  0.351628  0.296688  0.048045  1
  N  N10  1  0.836885  0.975624  0.247004  1
  N  N11  1  0.163011  0.475801  0.252997  1
  N  N12  1  0.648461  0.796695  0.452016  1
  N  N13  1  0.750581  0.302899  0.453262  1
  N  N14  1  0.249479  0.697118  0.546798  1
  N  N15  1  0.351623  0.203286  0.548060  1
  N  N16  1  0.837042  0.524341  0.747002  1
  N  N17  1  0.162987  0.024341  0.752984  1
  N  N18  1  0.648335  0.703240  0.951907  1
  N  N19  1  0.750551  0.197099  0.953220  1
