# generated using pymatgen
data_TbErAs4O9
_symmetry_space_group_name_H-M   'P 1'
_cell_length_a   6.72841198
_cell_length_b   7.54209676
_cell_length_c   9.80398134
_cell_angle_alpha   94.86427135
_cell_angle_beta   104.04797095
_cell_angle_gamma   104.78182893
_symmetry_Int_Tables_number   1
_chemical_formula_structural   TbErAs4O9
_chemical_formula_sum   'Tb2 Er2 As8 O18'
_cell_volume   460.91878035
_cell_formula_units_Z   2
loop_
 _symmetry_equiv_pos_site_id
 _symmetry_equiv_pos_as_xyz
  1  'x, y, z'
loop_
 _atom_site_type_symbol
 _atom_site_label
 _atom_site_symmetry_multiplicity
 _atom_site_fract_x
 _atom_site_fract_y
 _atom_site_fract_z
 _atom_site_occupancy
  Tb  Tb0  1  0.243388  0.939634  0.614951  1
  Tb  Tb1  1  0.756612  0.060366  0.385049  1
  Er  Er2  1  0.721160  0.529408  0.409794  1
  Er  Er3  1  0.278840  0.470592  0.590206  1
  As  As4  1  0.682450  0.773679  0.078469  1
  As  As5  1  0.317550  0.226321  0.921531  1
  As  As6  1  0.170532  0.752111  0.912580  1
  As  As7  1  0.829468  0.247889  0.087420  1
  As  As8  1  0.743572  0.914704  0.709691  1
  As  As9  1  0.256428  0.085296  0.290309  1
  As  As10  1  0.809615  0.351935  0.701670  1
  As  As11  1  0.190385  0.648065  0.298330  1
  O  O12  1  0.723638  0.747723  0.259290  1
  O  O13  1  0.276362  0.252277  0.740710  1
  O  O14  1  0.315754  0.978801  0.869888  1
  O  O15  1  0.684246  0.021199  0.130112  1
  O  O16  1  0.608503  0.325791  0.985235  1
  O  O17  1  0.391497  0.674209  0.014765  1
  O  O18  1  0.126575  0.645005  0.737541  1
  O  O19  1  0.873425  0.354995  0.262459  1
  O  O20  1  0.847302  0.874363  0.559439  1
  O  O21  1  0.152698  0.125637  0.440561  1
  O  O22  1  0.482719  0.766688  0.666328  1
  O  O23  1  0.517281  0.233312  0.333672  1
  O  O24  1  0.373038  0.532844  0.380100  1
  O  O25  1  0.626962  0.467156  0.619900  1
  O  O26  1  0.088177  0.668227  0.453512  1
  O  O27  1  0.911823  0.331773  0.546488  1
  O  O28  1  0.376953  0.899217  0.358917  1
  O  O29  1  0.623047  0.100783  0.641083  1
