# generated using pymatgen
data_AcSn3Ru
_symmetry_space_group_name_H-M   'P 1'
_cell_length_a   6.55489772
_cell_length_b   6.55489721
_cell_length_c   6.55489720
_cell_angle_alpha   136.41268456
_cell_angle_beta   136.41267849
_cell_angle_gamma   63.34295866
_symmetry_Int_Tables_number   1
_chemical_formula_structural   AcSn3Ru
_chemical_formula_sum   'Ac1 Sn3 Ru1'
_cell_volume   132.15770345
_cell_formula_units_Z   1
loop_
 _symmetry_equiv_pos_site_id
 _symmetry_equiv_pos_as_xyz
  1  'x, y, z'
loop_
 _atom_site_type_symbol
 _atom_site_label
 _atom_site_symmetry_multiplicity
 _atom_site_fract_x
 _atom_site_fract_y
 _atom_site_fract_z
 _atom_site_occupancy
  Ac  Ac0  1  0.999770  0.999770  0.000000  1
  Sn  Sn1  1  0.431774  0.431774  0.000000  1
  Sn  Sn2  1  0.253673  0.753673  0.500000  1
  Sn  Sn3  1  0.753673  0.253673  0.500000  1
  Ru  Ru4  1  0.662110  0.662110  0.000000  1
