# generated using pymatgen
data_ThGa4Cu9
_symmetry_space_group_name_H-M   'P 1'
_cell_length_a   8.30814547
_cell_length_b   8.30814387
_cell_length_c   8.30814495
_cell_angle_alpha   120.50055355
_cell_angle_beta   120.50054386
_cell_angle_gamma   89.13519219
_symmetry_Int_Tables_number   1
_chemical_formula_structural   ThGa4Cu9
_chemical_formula_sum   'Th2 Ga8 Cu18'
_cell_volume   402.38820684
_cell_formula_units_Z   2
loop_
 _symmetry_equiv_pos_site_id
 _symmetry_equiv_pos_as_xyz
  1  'x, y, z'
loop_
 _atom_site_type_symbol
 _atom_site_label
 _atom_site_symmetry_multiplicity
 _atom_site_fract_x
 _atom_site_fract_y
 _atom_site_fract_z
 _atom_site_occupancy
  Th  Th0  1  0.750000  0.750000  0.000000  1
  Th  Th1  1  0.250000  0.250000  0.000000  1
  Ga  Ga2  1  0.803326  0.303325  0.861087  1
  Ga  Ga3  1  0.442238  0.942239  0.138914  1
  Ga  Ga4  1  0.696676  0.557762  0.500000  1
  Ga  Ga5  1  0.057761  0.196675  0.500000  1
  Ga  Ga6  1  0.196676  0.696676  0.138914  1
  Ga  Ga7  1  0.557761  0.057761  0.861087  1
  Ga  Ga8  1  0.942239  0.803325  0.500000  1
  Ga  Ga9  1  0.303325  0.442239  0.500000  1
  Cu  Cu10  1  0.201763  0.061985  0.263748  1
  Cu  Cu11  1  0.798235  0.938016  0.736253  1
  Cu  Cu12  1  0.298236  0.561984  0.860220  1
  Cu  Cu13  1  0.701762  0.438015  0.139779  1
  Cu  Cu14  1  0.438017  0.298236  0.736253  1
  Cu  Cu15  1  0.561984  0.701762  0.263748  1
  Cu  Cu16  1  0.938016  0.201763  0.139781  1
  Cu  Cu17  1  0.061985  0.798236  0.860221  1
  Cu  Cu18  1  0.499999  0.000000  0.499999  1
  Cu  Cu19  1  0.000000  0.499999  0.499999  1
  Cu  Cu20  1  0.295462  0.795461  0.733689  1
  Cu  Cu21  1  0.061772  0.561773  0.266312  1
  Cu  Cu22  1  0.204539  0.938228  0.499999  1
  Cu  Cu23  1  0.438229  0.704540  0.500002  1
  Cu  Cu24  1  0.704540  0.204539  0.266312  1
  Cu  Cu25  1  0.938228  0.438229  0.733689  1
  Cu  Cu26  1  0.561773  0.295462  0.500002  1
  Cu  Cu27  1  0.795461  0.061772  0.499999  1
