# generated using pymatgen
data_TbAuCl6
_symmetry_space_group_name_H-M   'P 1'
_cell_length_a   7.91027132
_cell_length_b   9.93881097
_cell_length_c   14.10947280
_cell_angle_alpha   103.08706151
_cell_angle_beta   97.15071852
_cell_angle_gamma   112.85118629
_symmetry_Int_Tables_number   1
_chemical_formula_structural   TbAuCl6
_chemical_formula_sum   'Tb4 Au4 Cl24'
_cell_volume   967.37790752
_cell_formula_units_Z   4
loop_
 _symmetry_equiv_pos_site_id
 _symmetry_equiv_pos_as_xyz
  1  'x, y, z'
loop_
 _atom_site_type_symbol
 _atom_site_label
 _atom_site_symmetry_multiplicity
 _atom_site_fract_x
 _atom_site_fract_y
 _atom_site_fract_z
 _atom_site_occupancy
  Tb  Tb0  1  0.578165  0.927040  0.622344  1
  Tb  Tb1  1  0.029230  0.685500  0.128409  1
  Tb  Tb2  1  0.421835  0.072960  0.377656  1
  Tb  Tb3  1  0.970770  0.314500  0.871591  1
  Au  Au4  1  0.291288  0.634133  0.763504  1
  Au  Au5  1  0.500000  0.500000  0.500000  1
  Au  Au6  1  0.708712  0.365867  0.236496  1
  Au  Au7  1  0.000000  0.000000  0.000000  1
  Cl  Cl8  1  0.786506  0.103502  0.973453  1
  Cl  Cl9  1  0.717710  0.148306  0.265601  1
  Cl  Cl10  1  0.282290  0.851694  0.734399  1
  Cl  Cl11  1  0.775144  0.788049  0.028192  1
  Cl  Cl12  1  0.623215  0.194400  0.744592  1
  Cl  Cl13  1  0.298158  0.412492  0.788114  1
  Cl  Cl14  1  0.701842  0.587508  0.211886  1
  Cl  Cl15  1  0.308024  0.627557  0.498407  1
  Cl  Cl16  1  0.224856  0.211951  0.971808  1
  Cl  Cl17  1  0.754278  0.734953  0.528236  1
  Cl  Cl18  1  0.213494  0.896498  0.026547  1
  Cl  Cl19  1  0.717953  0.048542  0.483454  1
  Cl  Cl20  1  0.601736  0.732433  0.748040  1
  Cl  Cl21  1  0.938379  0.058614  0.731240  1
  Cl  Cl22  1  0.245722  0.265047  0.471764  1
  Cl  Cl23  1  0.376785  0.805600  0.255408  1
  Cl  Cl24  1  0.978938  0.537613  0.775863  1
  Cl  Cl25  1  0.770760  0.435896  0.977592  1
  Cl  Cl26  1  0.229240  0.564104  0.022408  1
  Cl  Cl27  1  0.021062  0.462387  0.224137  1
  Cl  Cl28  1  0.398264  0.267567  0.251960  1
  Cl  Cl29  1  0.282047  0.951458  0.516546  1
  Cl  Cl30  1  0.691976  0.372443  0.501593  1
  Cl  Cl31  1  0.061621  0.941386  0.268760  1
