# generated using pymatgen
data_AcErNi4(BIr2)2
_symmetry_space_group_name_H-M   'P 1'
_cell_length_a   5.50048200
_cell_length_b   5.22410574
_cell_length_c   7.16460400
_cell_angle_alpha   90.00000000
_cell_angle_beta   90.00000000
_cell_angle_gamma   121.76604380
_symmetry_Int_Tables_number   1
_chemical_formula_structural   AcErNi4(BIr2)2
_chemical_formula_sum   'Ac1 Er1 Ni4 B2 Ir4'
_cell_volume   175.03644020
_cell_formula_units_Z   1
loop_
 _symmetry_equiv_pos_site_id
 _symmetry_equiv_pos_as_xyz
  1  'x, y, z'
loop_
 _atom_site_type_symbol
 _atom_site_label
 _atom_site_symmetry_multiplicity
 _atom_site_fract_x
 _atom_site_fract_y
 _atom_site_fract_z
 _atom_site_occupancy
  Ac  Ac0  1  0.000000  0.000000  0.000000  1
  Er  Er1  1  0.000000  0.000000  0.500000  1
  Ni  Ni2  1  0.338114  0.676229  0.000000  1
  Ni  Ni3  1  0.661886  0.323771  0.000000  1
  Ni  Ni4  1  0.500000  0.000000  0.297469  1
  Ni  Ni5  1  0.500000  0.000000  0.702531  1
  B  B6  1  0.664722  0.329444  0.500000  1
  B  B7  1  0.335278  0.670556  0.500000  1
  Ir  Ir8  1  0.500000  0.500000  0.291496  1
  Ir  Ir9  1  0.000000  0.500000  0.291496  1
  Ir  Ir10  1  0.500000  0.500000  0.708504  1
  Ir  Ir11  1  0.000000  0.500000  0.708504  1
