# generated using pymatgen
data_ScNi3P2
_symmetry_space_group_name_H-M   'P 1'
_cell_length_a   3.65173000
_cell_length_b   10.35393000
_cell_length_c   12.11128400
_cell_angle_alpha   90.00000000
_cell_angle_beta   90.00000000
_cell_angle_gamma   90.00000000
_symmetry_Int_Tables_number   1
_chemical_formula_structural   ScNi3P2
_chemical_formula_sum   'Sc6 Ni18 P12'
_cell_volume   457.92470256
_cell_formula_units_Z   6
loop_
 _symmetry_equiv_pos_site_id
 _symmetry_equiv_pos_as_xyz
  1  'x, y, z'
loop_
 _atom_site_type_symbol
 _atom_site_label
 _atom_site_symmetry_multiplicity
 _atom_site_fract_x
 _atom_site_fract_y
 _atom_site_fract_z
 _atom_site_occupancy
  Sc  Sc0  1  0.751867  0.000000  0.475490  1
  Sc  Sc1  1  0.251867  0.500000  0.524510  1
  Sc  Sc2  1  0.251609  0.679934  0.793632  1
  Sc  Sc3  1  0.251609  0.320066  0.793632  1
  Sc  Sc4  1  0.751609  0.820066  0.206368  1
  Sc  Sc5  1  0.751609  0.179934  0.206368  1
  Ni  Ni6  1  0.751804  0.000000  0.014106  1
  Ni  Ni7  1  0.251804  0.500000  0.985894  1
  Ni  Ni8  1  0.252290  0.199228  0.567898  1
  Ni  Ni9  1  0.252290  0.800772  0.567898  1
  Ni  Ni10  1  0.752290  0.300772  0.432102  1
  Ni  Ni11  1  0.752290  0.699228  0.432102  1
  Ni  Ni12  1  0.251948  0.623609  0.291411  1
  Ni  Ni13  1  0.251948  0.376391  0.291411  1
  Ni  Ni14  1  0.751948  0.876391  0.708589  1
  Ni  Ni15  1  0.751948  0.123609  0.708589  1
  Ni  Ni16  1  0.251811  0.167544  0.004146  1
  Ni  Ni17  1  0.251811  0.832456  0.004146  1
  Ni  Ni18  1  0.751811  0.332456  0.995854  1
  Ni  Ni19  1  0.751811  0.667544  0.995854  1
  Ni  Ni20  1  0.250904  0.000000  0.837917  1
  Ni  Ni21  1  0.750904  0.500000  0.162083  1
  Ni  Ni22  1  0.252011  0.000000  0.300070  1
  Ni  Ni23  1  0.752011  0.500000  0.699930  1
  P  P24  1  0.252090  0.183020  0.383306  1
  P  P25  1  0.252090  0.816980  0.383306  1
  P  P26  1  0.752090  0.316980  0.616694  1
  P  P27  1  0.752090  0.683020  0.616694  1
  P  P28  1  0.251656  0.000000  0.125018  1
  P  P29  1  0.751656  0.500000  0.874982  1
  P  P30  1  0.251552  0.655688  0.111995  1
  P  P31  1  0.251552  0.344312  0.111995  1
  P  P32  1  0.751552  0.844312  0.888005  1
  P  P33  1  0.751552  0.155688  0.888005  1
  P  P34  1  0.251958  0.000000  0.648328  1
  P  P35  1  0.751958  0.500000  0.351672  1
