# generated using pymatgen
data_Tm4Al(FeSi2)2
_symmetry_space_group_name_H-M   'P 1'
_cell_length_a   4.11587716
_cell_length_b   6.82003971
_cell_length_c   7.78703100
_cell_angle_alpha   107.05787862
_cell_angle_beta   105.32403010
_cell_angle_gamma   89.99999950
_symmetry_Int_Tables_number   1
_chemical_formula_structural   Tm4Al(FeSi2)2
_chemical_formula_sum   'Tm4 Al1 Fe2 Si4'
_cell_volume   200.82641936
_cell_formula_units_Z   1
loop_
 _symmetry_equiv_pos_site_id
 _symmetry_equiv_pos_as_xyz
  1  'x, y, z'
loop_
 _atom_site_type_symbol
 _atom_site_label
 _atom_site_symmetry_multiplicity
 _atom_site_fract_x
 _atom_site_fract_y
 _atom_site_fract_z
 _atom_site_occupancy
  Tm  Tm0  1  0.588470  0.383749  0.176940  1
  Tm  Tm1  1  0.651742  0.940079  0.303484  1
  Tm  Tm2  1  0.348258  0.059920  0.696516  1
  Tm  Tm3  1  0.411531  0.616252  0.823061  1
  Al  Al4  1  0.000000  0.000000  0.000000  1
  Fe  Fe5  1  0.219846  0.629496  0.439694  1
  Fe  Fe6  1  0.780154  0.370505  0.560307  1
  Si  Si7  1  0.066309  0.656716  0.132618  1
  Si  Si8  1  0.207558  0.277505  0.415115  1
  Si  Si9  1  0.792442  0.722495  0.584885  1
  Si  Si10  1  0.933692  0.343283  0.867382  1
