# generated using pymatgen
data_La3MgIn2Au3
_symmetry_space_group_name_H-M   'P 1'
_cell_length_a   7.85958815
_cell_length_b   7.85958824
_cell_length_c   4.34203400
_cell_angle_alpha   90.00000000
_cell_angle_beta   90.00000000
_cell_angle_gamma   120.33779367
_symmetry_Int_Tables_number   1
_chemical_formula_structural   La3MgIn2Au3
_chemical_formula_sum   'La3 Mg1 In2 Au3'
_cell_volume   231.49151780
_cell_formula_units_Z   1
loop_
 _symmetry_equiv_pos_site_id
 _symmetry_equiv_pos_as_xyz
  1  'x, y, z'
loop_
 _atom_site_type_symbol
 _atom_site_label
 _atom_site_symmetry_multiplicity
 _atom_site_fract_x
 _atom_site_fract_y
 _atom_site_fract_z
 _atom_site_occupancy
  La  La0  1  0.585515  0.002310  0.000000  1
  La  La1  1  0.002310  0.585515  0.000000  1
  La  La2  1  0.409990  0.409990  0.000000  1
  Mg  Mg3  1  0.759996  0.759996  0.500000  1
  In  In4  1  0.243836  0.998538  0.500000  1
  In  In5  1  0.998538  0.243836  0.500000  1
  Au  Au6  1  0.346234  0.669071  0.500000  1
  Au  Au7  1  0.669071  0.346234  0.500000  1
  Au  Au8  1  0.984512  0.984512  0.000000  1
