# generated using pymatgen
data_CdP6(Pd10Pb)2
_symmetry_space_group_name_H-M   'P 1'
_cell_length_a   8.67062070
_cell_length_b   8.67062051
_cell_length_c   8.67062100
_cell_angle_alpha   60.00000196
_cell_angle_beta   60.00000269
_cell_angle_gamma   59.99999886
_symmetry_Int_Tables_number   1
_chemical_formula_structural   CdP6(Pd10Pb)2
_chemical_formula_sum   'Cd1 P6 Pd20 Pb2'
_cell_volume   460.93064622
_cell_formula_units_Z   1
loop_
 _symmetry_equiv_pos_site_id
 _symmetry_equiv_pos_as_xyz
  1  'x, y, z'
loop_
 _atom_site_type_symbol
 _atom_site_label
 _atom_site_symmetry_multiplicity
 _atom_site_fract_x
 _atom_site_fract_y
 _atom_site_fract_z
 _atom_site_occupancy
  Cd  Cd0  1  0.000000  0.000000  0.000000  1
  P  P1  1  0.735188  0.264812  0.264812  1
  P  P2  1  0.264812  0.735188  0.735188  1
  P  P3  1  0.264812  0.735188  0.264812  1
  P  P4  1  0.735188  0.264812  0.735188  1
  P  P5  1  0.264812  0.264812  0.735188  1
  P  P6  1  0.735188  0.735188  0.264812  1
  Pd  Pd7  1  0.384488  0.384488  0.384488  1
  Pd  Pd8  1  0.615512  0.615512  0.615512  1
  Pd  Pd9  1  0.384488  0.384488  0.846538  1
  Pd  Pd10  1  0.384488  0.846538  0.384488  1
  Pd  Pd11  1  0.615512  0.615512  0.153462  1
  Pd  Pd12  1  0.615512  0.153462  0.615512  1
  Pd  Pd13  1  0.846538  0.384488  0.384488  1
  Pd  Pd14  1  0.153462  0.615512  0.615512  1
  Pd  Pd15  1  0.342383  0.000000  0.000000  1
  Pd  Pd16  1  0.657617  0.000000  0.000000  1
  Pd  Pd17  1  0.000000  0.342383  0.657617  1
  Pd  Pd18  1  0.000000  0.657617  0.342383  1
  Pd  Pd19  1  0.000000  0.342383  0.000000  1
  Pd  Pd20  1  0.657617  0.000000  0.342383  1
  Pd  Pd21  1  0.000000  0.657617  0.000000  1
  Pd  Pd22  1  0.342383  0.000000  0.657617  1
  Pd  Pd23  1  0.000000  0.000000  0.342383  1
  Pd  Pd24  1  0.000000  0.000000  0.657617  1
  Pd  Pd25  1  0.657617  0.342383  0.000000  1
  Pd  Pd26  1  0.342383  0.657617  0.000000  1
  Pb  Pb27  1  0.250000  0.250000  0.250000  1
  Pb  Pb28  1  0.750000  0.750000  0.750000  1
