# generated using pymatgen
data_LaSmAsPt8
_symmetry_space_group_name_H-M   'P 1'
_cell_length_a   9.26529020
_cell_length_b   9.29044233
_cell_length_c   4.33549200
_cell_angle_alpha   90.00000000
_cell_angle_beta   90.00000000
_cell_angle_gamma   145.44078814
_symmetry_Int_Tables_number   1
_chemical_formula_structural   LaSmAsPt8
_chemical_formula_sum   'La1 Sm1 As1 Pt8'
_cell_volume   211.69672850
_cell_formula_units_Z   1
loop_
 _symmetry_equiv_pos_site_id
 _symmetry_equiv_pos_as_xyz
  1  'x, y, z'
loop_
 _atom_site_type_symbol
 _atom_site_label
 _atom_site_symmetry_multiplicity
 _atom_site_fract_x
 _atom_site_fract_y
 _atom_site_fract_z
 _atom_site_occupancy
  La  La0  1  0.624823  0.376270  0.500000  1
  Sm  Sm1  1  0.374561  0.626889  0.500000  1
  As  As2  1  0.231533  0.230320  0.000000  1
  Pt  Pt3  1  0.102723  0.875583  0.000000  1
  Pt  Pt4  1  0.880659  0.106783  0.000000  1
  Pt  Pt5  1  0.488576  0.981735  0.000000  1
  Pt  Pt6  1  0.986997  0.487764  0.000000  1
  Pt  Pt7  1  0.196857  0.789417  0.500000  1
  Pt  Pt8  1  0.791701  0.194821  0.500000  1
  Pt  Pt9  1  0.987459  0.989181  0.500000  1
  Pt  Pt10  1  0.647710  0.654836  0.000000  1
