# generated using pymatgen
data_Y2Er2InPbAu4
_symmetry_space_group_name_H-M   'P 1'
_cell_length_a   7.95700191
_cell_length_b   7.97409493
_cell_length_c   3.76540700
_cell_angle_alpha   90.00000000
_cell_angle_beta   90.00000000
_cell_angle_gamma   90.75178519
_symmetry_Int_Tables_number   1
_chemical_formula_structural   Y2Er2InPbAu4
_chemical_formula_sum   'Y2 Er2 In1 Pb1 Au4'
_cell_volume   238.89408880
_cell_formula_units_Z   1
loop_
 _symmetry_equiv_pos_site_id
 _symmetry_equiv_pos_as_xyz
  1  'x, y, z'
loop_
 _atom_site_type_symbol
 _atom_site_label
 _atom_site_symmetry_multiplicity
 _atom_site_fract_x
 _atom_site_fract_y
 _atom_site_fract_z
 _atom_site_occupancy
  Y  Y0  1  0.167571  0.328639  0.500000  1
  Y  Y1  1  0.832429  0.671361  0.500000  1
  Er  Er2  1  0.671005  0.166206  0.500000  1
  Er  Er3  1  0.328995  0.833794  0.500000  1
  In  In4  1  0.000000  0.000000  0.000000  1
  Pb  Pb5  1  0.500000  0.500000  0.000000  1
  Au  Au6  1  0.126164  0.632874  0.000000  1
  Au  Au7  1  0.873836  0.367126  0.000000  1
  Au  Au8  1  0.630396  0.876788  0.000000  1
  Au  Au9  1  0.369604  0.123212  0.000000  1
