# generated using pymatgen
data_La3MnInS7
_symmetry_space_group_name_H-M   'P 1'
_cell_length_a   10.24957600
_cell_length_b   10.24965432
_cell_length_c   6.35122400
_cell_angle_alpha   90.00000000
_cell_angle_beta   90.00000000
_cell_angle_gamma   120.00196783
_symmetry_Int_Tables_number   1
_chemical_formula_structural   La3MnInS7
_chemical_formula_sum   'La6 Mn2 In2 S14'
_cell_volume   577.82265876
_cell_formula_units_Z   2
loop_
 _symmetry_equiv_pos_site_id
 _symmetry_equiv_pos_as_xyz
  1  'x, y, z'
loop_
 _atom_site_type_symbol
 _atom_site_label
 _atom_site_symmetry_multiplicity
 _atom_site_fract_x
 _atom_site_fract_y
 _atom_site_fract_z
 _atom_site_occupancy
  La  La0  1  0.143432  0.374017  0.237411  1
  La  La1  1  0.230584  0.856568  0.237411  1
  La  La2  1  0.625987  0.769422  0.237413  1
  La  La3  1  0.856569  0.625983  0.737412  1
  La  La4  1  0.769416  0.143432  0.737411  1
  La  La5  1  0.374012  0.230578  0.737414  1
  Mn  Mn6  1  0.000002  0.000001  0.019848  1
  Mn  Mn7  1  0.999998  0.999999  0.519849  1
  In  In8  1  0.666667  0.333346  0.166185  1
  In  In9  1  0.333334  0.666654  0.666186  1
  S  S10  1  0.914980  0.426024  0.993666  1
  S  S11  1  0.511046  0.085031  0.993671  1
  S  S12  1  0.573977  0.488961  0.993665  1
  S  S13  1  0.333336  0.666670  0.047165  1
  S  S14  1  0.860600  0.093559  0.304519  1
  S  S15  1  0.232961  0.139401  0.304519  1
  S  S16  1  0.906435  0.767035  0.304522  1
  S  S17  1  0.085020  0.573975  0.493666  1
  S  S18  1  0.488954  0.914970  0.493671  1
  S  S19  1  0.426024  0.511039  0.493666  1
  S  S20  1  0.666664  0.333329  0.547164  1
  S  S21  1  0.139399  0.906440  0.804519  1
  S  S22  1  0.767039  0.860598  0.804519  1
  S  S23  1  0.093565  0.232965  0.804522  1
