# generated using pymatgen
data_ErTmPa2(InNi2)2
_symmetry_space_group_name_H-M   'P 1'
_cell_length_a   7.44690605
_cell_length_b   7.44690547
_cell_length_c   3.54147800
_cell_angle_alpha   90.00000000
_cell_angle_beta   90.00000000
_cell_angle_gamma   93.69918057
_symmetry_Int_Tables_number   1
_chemical_formula_structural   ErTmPa2(InNi2)2
_chemical_formula_sum   'Er1 Tm1 Pa2 In2 Ni4'
_cell_volume   195.98845302
_cell_formula_units_Z   1
loop_
 _symmetry_equiv_pos_site_id
 _symmetry_equiv_pos_as_xyz
  1  'x, y, z'
loop_
 _atom_site_type_symbol
 _atom_site_label
 _atom_site_symmetry_multiplicity
 _atom_site_fract_x
 _atom_site_fract_y
 _atom_site_fract_z
 _atom_site_occupancy
  Er  Er0  1  0.829598  0.670402  0.500000  1
  Tm  Tm1  1  0.170425  0.329575  0.500000  1
  Pa  Pa2  1  0.672435  0.172533  0.500000  1
  Pa  Pa3  1  0.327467  0.827565  0.500000  1
  In  In4  1  0.499763  0.499844  0.000000  1
  In  In5  1  0.000156  0.000237  0.000000  1
  Ni  Ni6  1  0.133731  0.633361  0.000000  1
  Ni  Ni7  1  0.866639  0.366269  0.000000  1
  Ni  Ni8  1  0.617261  0.882739  0.000000  1
  Ni  Ni9  1  0.382525  0.117475  0.000000  1
