# generated using pymatgen
data_Lu2Hf3ZrSc2(P3Ir4)4
_symmetry_space_group_name_H-M   'P 1'
_cell_length_a   12.81968300
_cell_length_b   12.81968262
_cell_length_c   3.91772000
_cell_angle_alpha   90.00000000
_cell_angle_beta   90.00000000
_cell_angle_gamma   119.99999839
_symmetry_Int_Tables_number   1
_chemical_formula_structural   Lu2Hf3ZrSc2(P3Ir4)4
_chemical_formula_sum   'Lu2 Hf3 Zr1 Sc2 P12 Ir16'
_cell_volume   557.59464231
_cell_formula_units_Z   1
loop_
 _symmetry_equiv_pos_site_id
 _symmetry_equiv_pos_as_xyz
  1  'x, y, z'
loop_
 _atom_site_type_symbol
 _atom_site_label
 _atom_site_symmetry_multiplicity
 _atom_site_fract_x
 _atom_site_fract_y
 _atom_site_fract_z
 _atom_site_occupancy
  Lu  Lu0  1  0.333245  0.666614  0.000000  1
  Lu  Lu1  1  0.666632  0.333386  0.000000  1
  Hf  Hf2  1  0.449631  0.000000  0.000000  1
  Hf  Hf3  1  0.999969  0.449460  0.000000  1
  Hf  Hf4  1  0.550509  0.550540  0.000000  1
  Zr  Zr5  1  0.816189  0.000000  0.500000  1
  Sc  Sc6  1  0.999968  0.817842  0.500000  1
  Sc  Sc7  1  0.182126  0.182158  0.500000  1
  P  P8  1  0.172713  0.000000  0.000000  1
  P  P9  1  0.001765  0.173699  0.000000  1
  P  P10  1  0.828067  0.826301  0.000000  1
  P  P11  1  0.169532  0.482427  0.500000  1
  P  P12  1  0.517023  0.686690  0.500000  1
  P  P13  1  0.312568  0.829778  0.500000  1
  P  P14  1  0.687105  0.517573  0.500000  1
  P  P15  1  0.830332  0.313310  0.500000  1
  P  P16  1  0.482789  0.170222  0.500000  1
  P  P17  1  0.651430  0.000000  0.000000  1
  P  P18  1  0.000207  0.653650  0.000000  1
  P  P19  1  0.346556  0.346350  0.000000  1
  Ir  Ir20  1  0.357814  0.494192  0.500000  1
  Ir  Ir21  1  0.506304  0.863535  0.500000  1
  Ir  Ir22  1  0.135825  0.641771  0.500000  1
  Ir  Ir23  1  0.863621  0.505808  0.500000  1
  Ir  Ir24  1  0.642769  0.136465  0.500000  1
  Ir  Ir25  1  0.494053  0.358229  0.500000  1
  Ir  Ir26  1  0.177388  0.367792  0.000000  1
  Ir  Ir27  1  0.633670  0.810984  0.000000  1
  Ir  Ir28  1  0.190494  0.822755  0.000000  1
  Ir  Ir29  1  0.809598  0.632208  0.000000  1
  Ir  Ir30  1  0.822687  0.189016  0.000000  1
  Ir  Ir31  1  0.367741  0.177245  0.000000  1
  Ir  Ir32  1  0.279509  0.000000  0.500000  1
  Ir  Ir33  1  0.999002  0.277699  0.500000  1
  Ir  Ir34  1  0.721303  0.722301  0.500000  1
  Ir  Ir35  1  0.999866  0.000000  0.000000  1
