# generated using pymatgen
data_NpIn2Cl5
_symmetry_space_group_name_H-M   'P 1'
_cell_length_a   8.30018800
_cell_length_b   8.77544200
_cell_length_c   13.27553300
_cell_angle_alpha   90.00000000
_cell_angle_beta   90.00000000
_cell_angle_gamma   90.00000000
_symmetry_Int_Tables_number   1
_chemical_formula_structural   NpIn2Cl5
_chemical_formula_sum   'Np4 In8 Cl20'
_cell_volume   966.96086159
_cell_formula_units_Z   4
loop_
 _symmetry_equiv_pos_site_id
 _symmetry_equiv_pos_as_xyz
  1  'x, y, z'
loop_
 _atom_site_type_symbol
 _atom_site_label
 _atom_site_symmetry_multiplicity
 _atom_site_fract_x
 _atom_site_fract_y
 _atom_site_fract_z
 _atom_site_occupancy
  Np  Np0  1  0.930746  0.750000  0.502871  1
  Np  Np1  1  0.069254  0.250000  0.497129  1
  Np  Np2  1  0.430746  0.250000  0.997129  1
  Np  Np3  1  0.569254  0.750000  0.002871  1
  In  In4  1  0.952972  0.005043  0.828153  1
  In  In5  1  0.047028  0.994957  0.171847  1
  In  In6  1  0.452972  0.994957  0.671847  1
  In  In7  1  0.047028  0.505043  0.171847  1
  In  In8  1  0.547028  0.005043  0.328153  1
  In  In9  1  0.952972  0.494957  0.828153  1
  In  In10  1  0.547028  0.494957  0.328153  1
  In  In11  1  0.452972  0.505043  0.671847  1
  Cl  Cl12  1  0.114796  0.750000  0.676752  1
  Cl  Cl13  1  0.885204  0.250000  0.323248  1
  Cl  Cl14  1  0.614796  0.250000  0.823248  1
  Cl  Cl15  1  0.385204  0.750000  0.176752  1
  Cl  Cl16  1  0.839600  0.040887  0.574440  1
  Cl  Cl17  1  0.160400  0.959113  0.425560  1
  Cl  Cl18  1  0.339600  0.959113  0.925560  1
  Cl  Cl19  1  0.160400  0.540887  0.425560  1
  Cl  Cl20  1  0.660400  0.040887  0.074440  1
  Cl  Cl21  1  0.839600  0.459113  0.574440  1
  Cl  Cl22  1  0.660400  0.459113  0.074440  1
  Cl  Cl23  1  0.339600  0.540887  0.925560  1
  Cl  Cl24  1  0.588297  0.750000  0.507686  1
  Cl  Cl25  1  0.411703  0.250000  0.492314  1
  Cl  Cl26  1  0.088297  0.250000  0.992314  1
  Cl  Cl27  1  0.911703  0.750000  0.007686  1
  Cl  Cl28  1  0.660450  0.750000  0.801952  1
  Cl  Cl29  1  0.339550  0.250000  0.198048  1
  Cl  Cl30  1  0.160450  0.250000  0.698048  1
  Cl  Cl31  1  0.839550  0.750000  0.301952  1
