# generated using pymatgen
data_Y3Tm5(CdPt)2
_symmetry_space_group_name_H-M   'P 1'
_cell_length_a   9.62438173
_cell_length_b   9.62438207
_cell_length_c   9.62438100
_cell_angle_alpha   60.00000024
_cell_angle_beta   59.99999908
_cell_angle_gamma   59.99999856
_symmetry_Int_Tables_number   1
_chemical_formula_structural   Y3Tm5(CdPt)2
_chemical_formula_sum   'Y6 Tm10 Cd4 Pt4'
_cell_volume   630.38155587
_cell_formula_units_Z   2
loop_
 _symmetry_equiv_pos_site_id
 _symmetry_equiv_pos_as_xyz
  1  'x, y, z'
loop_
 _atom_site_type_symbol
 _atom_site_label
 _atom_site_symmetry_multiplicity
 _atom_site_fract_x
 _atom_site_fract_y
 _atom_site_fract_z
 _atom_site_occupancy
  Y  Y0  1  0.937406  0.562594  0.562594  1
  Y  Y1  1  0.562594  0.937406  0.937406  1
  Y  Y2  1  0.562594  0.937406  0.562594  1
  Y  Y3  1  0.937406  0.562594  0.937406  1
  Y  Y4  1  0.562594  0.562594  0.937406  1
  Y  Y5  1  0.937406  0.937406  0.562594  1
  Tm  Tm6  1  0.352145  0.352145  0.352145  1
  Tm  Tm7  1  0.352145  0.352145  0.943564  1
  Tm  Tm8  1  0.352145  0.943564  0.352145  1
  Tm  Tm9  1  0.943564  0.352145  0.352145  1
  Tm  Tm10  1  0.811110  0.188890  0.188890  1
  Tm  Tm11  1  0.188890  0.811110  0.811110  1
  Tm  Tm12  1  0.188890  0.811110  0.188890  1
  Tm  Tm13  1  0.811110  0.188890  0.811110  1
  Tm  Tm14  1  0.188890  0.188890  0.811110  1
  Tm  Tm15  1  0.811110  0.811110  0.188890  1
  Cd  Cd16  1  0.581401  0.581401  0.581401  1
  Cd  Cd17  1  0.581401  0.581401  0.255798  1
  Cd  Cd18  1  0.581401  0.255798  0.581401  1
  Cd  Cd19  1  0.255798  0.581401  0.581401  1
  Pt  Pt20  1  0.143328  0.143328  0.143328  1
  Pt  Pt21  1  0.143328  0.143328  0.570017  1
  Pt  Pt22  1  0.143328  0.570017  0.143328  1
  Pt  Pt23  1  0.570017  0.143328  0.143328  1
