# generated using pymatgen
data_Ca2B5Os2Ru
_symmetry_space_group_name_H-M   'P 1'
_cell_length_a   5.63090789
_cell_length_b   5.63090815
_cell_length_c   7.97024524
_cell_angle_alpha   58.85314918
_cell_angle_beta   58.85314756
_cell_angle_gamma   42.45134583
_symmetry_Int_Tables_number   1
_chemical_formula_structural   Ca2B5Os2Ru
_chemical_formula_sum   'Ca2 B5 Os2 Ru1'
_cell_volume   141.90502438
_cell_formula_units_Z   1
loop_
 _symmetry_equiv_pos_site_id
 _symmetry_equiv_pos_as_xyz
  1  'x, y, z'
loop_
 _atom_site_type_symbol
 _atom_site_label
 _atom_site_symmetry_multiplicity
 _atom_site_fract_x
 _atom_site_fract_y
 _atom_site_fract_z
 _atom_site_occupancy
  Ca  Ca0  1  0.392459  0.916617  0.741695  1
  Ca  Ca1  1  0.083383  0.607541  0.258305  1
  B  B2  1  0.737973  0.262027  0.000000  1
  B  B3  1  0.539877  0.533258  0.377694  1
  B  B4  1  0.466742  0.460123  0.622306  1
  B  B5  1  0.078125  0.627360  0.811747  1
  B  B6  1  0.372640  0.921875  0.188253  1
  Os  Os7  1  0.608529  0.120906  0.903112  1
  Os  Os8  1  0.879094  0.391471  0.096888  1
  Ru  Ru9  1  0.007450  0.992550  0.500000  1
