# generated using pymatgen
data_Mn3Nb4CrP4
_symmetry_space_group_name_H-M   'P 1'
_cell_length_a   3.54297100
_cell_length_b   6.24175201
_cell_length_c   7.28274609
_cell_angle_alpha   90.01233892
_cell_angle_beta   90.00000000
_cell_angle_gamma   90.00000000
_symmetry_Int_Tables_number   1
_chemical_formula_structural   Mn3Nb4CrP4
_chemical_formula_sum   'Mn3 Nb4 Cr1 P4'
_cell_volume   161.05316577
_cell_formula_units_Z   1
loop_
 _symmetry_equiv_pos_site_id
 _symmetry_equiv_pos_as_xyz
  1  'x, y, z'
loop_
 _atom_site_type_symbol
 _atom_site_label
 _atom_site_symmetry_multiplicity
 _atom_site_fract_x
 _atom_site_fract_y
 _atom_site_fract_z
 _atom_site_occupancy
  Mn  Mn0  1  0.750000  0.858129  0.559554  1
  Mn  Mn1  1  0.250000  0.639253  0.057852  1
  Mn  Mn2  1  0.750000  0.361352  0.942053  1
  Nb  Nb3  1  0.250000  0.029553  0.828307  1
  Nb  Nb4  1  0.250000  0.531864  0.672370  1
  Nb  Nb5  1  0.750000  0.467352  0.328131  1
  Nb  Nb6  1  0.750000  0.971199  0.171556  1
  Cr  Cr7  1  0.250000  0.140601  0.440585  1
  P  P8  1  0.250000  0.769774  0.368793  1
  P  P9  1  0.250000  0.271096  0.127636  1
  P  P10  1  0.750000  0.230075  0.632229  1
  P  P11  1  0.750000  0.729753  0.870934  1
