# generated using pymatgen
data_La2H3Pd17
_symmetry_space_group_name_H-M   'P 1'
_cell_length_a   7.03620223
_cell_length_b   7.03620313
_cell_length_c   7.03620303
_cell_angle_alpha   82.85191810
_cell_angle_beta   82.85192847
_cell_angle_gamma   82.85192025
_symmetry_Int_Tables_number   1
_chemical_formula_structural   La2H3Pd17
_chemical_formula_sum   'La2 H3 Pd17'
_cell_volume   340.84912646
_cell_formula_units_Z   1
loop_
 _symmetry_equiv_pos_site_id
 _symmetry_equiv_pos_as_xyz
  1  'x, y, z'
loop_
 _atom_site_type_symbol
 _atom_site_label
 _atom_site_symmetry_multiplicity
 _atom_site_fract_x
 _atom_site_fract_y
 _atom_site_fract_z
 _atom_site_occupancy
  La  La0  1  0.668195  0.668195  0.668195  1
  La  La1  1  0.331805  0.331805  0.331805  1
  H  H2  1  0.500000  0.500000  0.000000  1
  H  H3  1  0.000000  0.500000  0.500000  1
  H  H4  1  0.500000  0.000000  0.500000  1
  Pd  Pd5  1  0.000000  0.000000  0.500000  1
  Pd  Pd6  1  0.500000  0.000000  0.000000  1
  Pd  Pd7  1  0.000000  0.500000  0.000000  1
  Pd  Pd8  1  0.702536  0.297464  0.000000  1
  Pd  Pd9  1  0.000000  0.702536  0.297464  1
  Pd  Pd10  1  0.297464  0.000000  0.702536  1
  Pd  Pd11  1  0.000000  0.297464  0.702536  1
  Pd  Pd12  1  0.702536  0.000000  0.297464  1
  Pd  Pd13  1  0.297464  0.702536  0.000000  1
  Pd  Pd14  1  0.350141  0.350141  0.845829  1
  Pd  Pd15  1  0.845829  0.350141  0.350141  1
  Pd  Pd16  1  0.350141  0.845829  0.350141  1
  Pd  Pd17  1  0.649859  0.649859  0.154171  1
  Pd  Pd18  1  0.154171  0.649859  0.649859  1
  Pd  Pd19  1  0.649859  0.154171  0.649859  1
  Pd  Pd20  1  0.898957  0.898957  0.898957  1
  Pd  Pd21  1  0.101043  0.101043  0.101043  1
