# generated using pymatgen
data_Dy4MgPb4
_symmetry_space_group_name_H-M   'P 1'
_cell_length_a   7.83086339
_cell_length_b   8.31369635
_cell_length_c   15.52246700
_cell_angle_alpha   89.99802207
_cell_angle_beta   89.98200101
_cell_angle_gamma   90.07613927
_symmetry_Int_Tables_number   1
_chemical_formula_structural   Dy4MgPb4
_chemical_formula_sum   'Dy16 Mg4 Pb16'
_cell_volume   1010.56475073
_cell_formula_units_Z   4
loop_
 _symmetry_equiv_pos_site_id
 _symmetry_equiv_pos_as_xyz
  1  'x, y, z'
loop_
 _atom_site_type_symbol
 _atom_site_label
 _atom_site_symmetry_multiplicity
 _atom_site_fract_x
 _atom_site_fract_y
 _atom_site_fract_z
 _atom_site_occupancy
  Dy  Dy0  1  0.839777  0.662153  0.627879  1
  Dy  Dy1  1  0.659224  0.162109  0.372302  1
  Dy  Dy2  1  0.159402  0.338658  0.126842  1
  Dy  Dy3  1  0.656949  0.162366  0.127916  1
  Dy  Dy4  1  0.158213  0.336387  0.372225  1
  Dy  Dy5  1  0.343488  0.836749  0.628275  1
  Dy  Dy6  1  0.842189  0.662728  0.872477  1
  Dy  Dy7  1  0.508382  0.313178  0.909875  1
  Dy  Dy8  1  0.009296  0.186984  0.591378  1
  Dy  Dy9  1  0.492404  0.686427  0.409674  1
  Dy  Dy10  1  0.990177  0.812210  0.090195  1
  Dy  Dy11  1  0.491211  0.686433  0.089970  1
  Dy  Dy12  1  0.992357  0.814125  0.409147  1
  Dy  Dy13  1  0.507751  0.314735  0.591096  1
  Dy  Dy14  1  0.008030  0.186545  0.908542  1
  Dy  Dy15  1  0.340970  0.839568  0.872209  1
  Mg  Mg16  1  0.164215  0.503061  0.749045  1
  Mg  Mg17  1  0.666333  0.996641  0.750619  1
  Mg  Mg18  1  0.835537  0.495887  0.249821  1
  Mg  Mg19  1  0.334765  0.002832  0.250701  1
  Pb  Pb20  1  0.307237  0.037869  0.041299  1
  Pb  Pb21  1  0.808994  0.461843  0.458727  1
  Pb  Pb22  1  0.692341  0.962425  0.541502  1
  Pb  Pb23  1  0.192264  0.538664  0.957684  1
  Pb  Pb24  1  0.690785  0.961989  0.958755  1
  Pb  Pb25  1  0.191287  0.539246  0.540774  1
  Pb  Pb26  1  0.309123  0.038125  0.459600  1
  Pb  Pb27  1  0.808093  0.461050  0.040933  1
  Pb  Pb28  1  0.525549  0.597503  0.751828  1
  Pb  Pb29  1  0.027210  0.901488  0.749642  1
  Pb  Pb30  1  0.473483  0.403086  0.250446  1
  Pb  Pb31  1  0.973555  0.097108  0.248799  1
  Pb  Pb32  1  0.314197  0.162449  0.750217  1
  Pb  Pb33  1  0.812457  0.338051  0.750044  1
  Pb  Pb34  1  0.686131  0.836847  0.249807  1
  Pb  Pb35  1  0.186623  0.662486  0.249754  1
