# generated using pymatgen
data_Pr6HfFe2(Co5P4)3
_symmetry_space_group_name_H-M   'P 1'
_cell_length_a   3.78310800
_cell_length_b   10.77314400
_cell_length_c   12.52082700
_cell_angle_alpha   90.00000000
_cell_angle_beta   90.00000000
_cell_angle_gamma   90.00000000
_symmetry_Int_Tables_number   1
_chemical_formula_structural   Pr6HfFe2(Co5P4)3
_chemical_formula_sum   'Pr6 Hf1 Fe2 Co15 P12'
_cell_volume   510.29841517
_cell_formula_units_Z   1
loop_
 _symmetry_equiv_pos_site_id
 _symmetry_equiv_pos_as_xyz
  1  'x, y, z'
loop_
 _atom_site_type_symbol
 _atom_site_label
 _atom_site_symmetry_multiplicity
 _atom_site_fract_x
 _atom_site_fract_y
 _atom_site_fract_z
 _atom_site_occupancy
  Pr  Pr0  1  0.000000  0.500000  0.527359  1
  Pr  Pr1  1  0.500000  0.000000  0.478532  1
  Pr  Pr2  1  0.500000  0.821437  0.206679  1
  Pr  Pr3  1  0.500000  0.178563  0.206679  1
  Pr  Pr4  1  0.000000  0.682882  0.795957  1
  Pr  Pr5  1  0.000000  0.317118  0.795957  1
  Hf  Hf6  1  0.500000  0.500000  0.150960  1
  Fe  Fe7  1  0.000000  0.000000  0.843763  1
  Fe  Fe8  1  0.500000  0.000000  0.009947  1
  Co  Co9  1  0.500000  0.500000  0.704544  1
  Co  Co10  1  0.000000  0.000000  0.297318  1
  Co  Co11  1  0.000000  0.500000  0.985204  1
  Co  Co12  1  0.500000  0.328671  0.991084  1
  Co  Co13  1  0.500000  0.671329  0.991084  1
  Co  Co14  1  0.000000  0.164064  0.000739  1
  Co  Co15  1  0.000000  0.835936  0.000739  1
  Co  Co16  1  0.500000  0.295123  0.433302  1
  Co  Co17  1  0.500000  0.704877  0.433302  1
  Co  Co18  1  0.000000  0.202912  0.570105  1
  Co  Co19  1  0.000000  0.797088  0.570105  1
  Co  Co20  1  0.500000  0.882388  0.708661  1
  Co  Co21  1  0.500000  0.117612  0.708661  1
  Co  Co22  1  0.000000  0.619502  0.295715  1
  Co  Co23  1  0.000000  0.380498  0.295715  1
  P  P24  1  0.500000  0.500000  0.885708  1
  P  P25  1  0.000000  0.000000  0.109765  1
  P  P26  1  0.500000  0.500000  0.354451  1
  P  P27  1  0.000000  0.000000  0.662756  1
  P  P28  1  0.500000  0.302903  0.615118  1
  P  P29  1  0.500000  0.697097  0.615118  1
  P  P30  1  0.000000  0.194837  0.388145  1
  P  P31  1  0.000000  0.805163  0.388145  1
  P  P32  1  0.500000  0.853140  0.892052  1
  P  P33  1  0.500000  0.146860  0.892052  1
  P  P34  1  0.000000  0.661595  0.097287  1
  P  P35  1  0.000000  0.338405  0.097287  1
