# generated using pymatgen
data_La16Pr4Si15Ag
_symmetry_space_group_name_H-M   'P 1'
_cell_length_a   8.02280682
_cell_length_b   8.02560505
_cell_length_c   15.51083300
_cell_angle_alpha   90.02467281
_cell_angle_beta   89.56916387
_cell_angle_gamma   90.05216402
_symmetry_Int_Tables_number   1
_chemical_formula_structural   La16Pr4Si15Ag
_chemical_formula_sum   'La16 Pr4 Si15 Ag1'
_cell_volume   998.68089791
_cell_formula_units_Z   1
loop_
 _symmetry_equiv_pos_site_id
 _symmetry_equiv_pos_as_xyz
  1  'x, y, z'
loop_
 _atom_site_type_symbol
 _atom_site_label
 _atom_site_symmetry_multiplicity
 _atom_site_fract_x
 _atom_site_fract_y
 _atom_site_fract_z
 _atom_site_occupancy
  La  La0  1  0.308969  0.307180  0.999326  1
  La  La1  1  0.193419  0.808226  0.249791  1
  La  La2  1  0.799226  0.185863  0.752482  1
  La  La3  1  0.693318  0.685684  0.498238  1
  La  La4  1  0.373731  0.011879  0.447296  1
  La  La5  1  0.493096  0.868419  0.698177  1
  La  La6  1  0.510976  0.123136  0.198670  1
  La  La7  1  0.878154  0.488276  0.301771  1
  La  La8  1  0.120495  0.519027  0.802456  1
  La  La9  1  0.627925  0.987311  0.950188  1
  La  La10  1  0.998781  0.383863  0.547547  1
  La  La11  1  0.990264  0.624498  0.053365  1
  La  La12  1  0.132937  0.985302  0.878482  1
  La  La13  1  0.517742  0.630252  0.127751  1
  La  La14  1  0.483747  0.373859  0.626138  1
  La  La15  1  0.630140  0.520438  0.875410  1
  Pr  Pr16  1  0.371903  0.483699  0.372412  1
  Pr  Pr17  1  0.872471  0.018327  0.376180  1
  Pr  Pr18  1  0.982885  0.126999  0.125380  1
  Pr  Pr19  1  0.011653  0.865570  0.619989  1
  Si  Si20  1  0.332366  0.697471  0.953090  1
  Si  Si21  1  0.661160  0.300234  0.450190  1
  Si  Si22  1  0.700479  0.333829  0.049881  1
  Si  Si23  1  0.301782  0.669190  0.546026  1
  Si  Si24  1  0.805797  0.832955  0.204238  1
  Si  Si25  1  0.166761  0.197904  0.299131  1
  Si  Si26  1  0.837017  0.803897  0.796027  1
  Si  Si27  1  0.288476  0.922215  0.060004  1
  Si  Si28  1  0.580553  0.789656  0.309922  1
  Si  Si29  1  0.431505  0.209858  0.813489  1
  Si  Si30  1  0.789391  0.579441  0.690778  1
  Si  Si31  1  0.210778  0.419021  0.191348  1
  Si  Si32  1  0.706383  0.077411  0.557593  1
  Si  Si33  1  0.922012  0.289145  0.942601  1
  Si  Si34  1  0.080004  0.713380  0.439819  1
  Ag  Ag35  1  0.193709  0.166588  0.694813  1
