# generated using pymatgen
data_Ce2Mn6P7Rh6
_symmetry_space_group_name_H-M   'P 1'
_cell_length_a   9.45693600
_cell_length_b   9.45693702
_cell_length_c   3.83164300
_cell_angle_alpha   90.00000000
_cell_angle_beta   90.00000000
_cell_angle_gamma   120.00000248
_symmetry_Int_Tables_number   1
_chemical_formula_structural   Ce2Mn6P7Rh6
_chemical_formula_sum   'Ce2 Mn6 P7 Rh6'
_cell_volume   296.76768314
_cell_formula_units_Z   1
loop_
 _symmetry_equiv_pos_site_id
 _symmetry_equiv_pos_as_xyz
  1  'x, y, z'
loop_
 _atom_site_type_symbol
 _atom_site_label
 _atom_site_symmetry_multiplicity
 _atom_site_fract_x
 _atom_site_fract_y
 _atom_site_fract_z
 _atom_site_occupancy
  Ce  Ce0  1  0.333333  0.666667  0.000000  1
  Ce  Ce1  1  0.000000  0.000000  0.500000  1
  Mn  Mn2  1  0.553209  0.063759  0.000000  1
  Mn  Mn3  1  0.936241  0.489452  0.000000  1
  Mn  Mn4  1  0.510548  0.446791  0.000000  1
  Mn  Mn5  1  0.788061  0.233820  0.500000  1
  Mn  Mn6  1  0.766180  0.554239  0.500000  1
  Mn  Mn7  1  0.445761  0.211939  0.500000  1
  P  P8  1  0.775158  0.038897  0.000000  1
  P  P9  1  0.961103  0.736261  0.000000  1
  P  P10  1  0.263739  0.224842  0.000000  1
  P  P11  1  0.388538  0.941757  0.500000  1
  P  P12  1  0.058243  0.446781  0.500000  1
  P  P13  1  0.553219  0.611462  0.500000  1
  P  P14  1  0.666667  0.333333  0.000000  1
  Rh  Rh15  1  0.032959  0.270294  0.000000  1
  Rh  Rh16  1  0.729706  0.762665  0.000000  1
  Rh  Rh17  1  0.237335  0.967041  0.000000  1
  Rh  Rh18  1  0.613208  0.894231  0.500000  1
  Rh  Rh19  1  0.105769  0.718978  0.500000  1
  Rh  Rh20  1  0.281022  0.386792  0.500000  1
