# generated using pymatgen
data_Hf8Nb2Ga6C
_symmetry_space_group_name_H-M   'P 1'
_cell_length_a   7.99973400
_cell_length_b   7.99973498
_cell_length_c   5.57531900
_cell_angle_alpha   90.00000000
_cell_angle_beta   90.00000000
_cell_angle_gamma   119.99999594
_symmetry_Int_Tables_number   1
_chemical_formula_structural   Hf8Nb2Ga6C
_chemical_formula_sum   'Hf8 Nb2 Ga6 C1'
_cell_volume   308.99504616
_cell_formula_units_Z   1
loop_
 _symmetry_equiv_pos_site_id
 _symmetry_equiv_pos_as_xyz
  1  'x, y, z'
loop_
 _atom_site_type_symbol
 _atom_site_label
 _atom_site_symmetry_multiplicity
 _atom_site_fract_x
 _atom_site_fract_y
 _atom_site_fract_z
 _atom_site_occupancy
  Hf  Hf0  1  0.000000  0.763311  0.262180  1
  Hf  Hf1  1  0.236689  0.236689  0.262180  1
  Hf  Hf2  1  0.763311  0.000000  0.262180  1
  Hf  Hf3  1  0.000000  0.236689  0.737820  1
  Hf  Hf4  1  0.763311  0.763311  0.737820  1
  Hf  Hf5  1  0.236689  0.000000  0.737820  1
  Hf  Hf6  1  0.333333  0.666667  0.000000  1
  Hf  Hf7  1  0.666667  0.333333  0.000000  1
  Nb  Nb8  1  0.666667  0.333333  0.500000  1
  Nb  Nb9  1  0.333333  0.666667  0.500000  1
  Ga  Ga10  1  0.000000  0.398355  0.252494  1
  Ga  Ga11  1  0.601645  0.601645  0.252494  1
  Ga  Ga12  1  0.398355  0.000000  0.252494  1
  Ga  Ga13  1  0.000000  0.601645  0.747506  1
  Ga  Ga14  1  0.398355  0.398355  0.747506  1
  Ga  Ga15  1  0.601645  0.000000  0.747506  1
  C  C16  1  0.000000  0.000000  0.500000  1
