# generated using pymatgen
data_Nd3Ho5(CuP)12
_symmetry_space_group_name_H-M   'P 1'
_cell_length_a   3.89755100
_cell_length_b   10.73039904
_cell_length_c   12.98375005
_cell_angle_alpha   90.00980767
_cell_angle_beta   90.00000000
_cell_angle_gamma   90.00000000
_symmetry_Int_Tables_number   1
_chemical_formula_structural   Nd3Ho5(CuP)12
_chemical_formula_sum   'Nd3 Ho5 Cu12 P12'
_cell_volume   543.00998960
_cell_formula_units_Z   1
loop_
 _symmetry_equiv_pos_site_id
 _symmetry_equiv_pos_as_xyz
  1  'x, y, z'
loop_
 _atom_site_type_symbol
 _atom_site_label
 _atom_site_symmetry_multiplicity
 _atom_site_fract_x
 _atom_site_fract_y
 _atom_site_fract_z
 _atom_site_occupancy
  Nd  Nd0  1  0.250000  0.931427  0.793175  1
  Nd  Nd1  1  0.750000  0.430967  0.706856  1
  Nd  Nd2  1  0.250000  0.569049  0.293282  1
  Ho  Ho3  1  0.750000  0.069607  0.207633  1
  Ho  Ho4  1  0.250000  0.842282  0.501773  1
  Ho  Ho5  1  0.750000  0.341439  0.998362  1
  Ho  Ho6  1  0.250000  0.658267  0.002779  1
  Ho  Ho7  1  0.750000  0.156545  0.496028  1
  Cu  Cu8  1  0.250000  0.400582  0.511921  1
  Cu  Cu9  1  0.750000  0.902129  0.988740  1
  Cu  Cu10  1  0.250000  0.097988  0.014749  1
  Cu  Cu11  1  0.750000  0.599147  0.488041  1
  Cu  Cu12  1  0.250000  0.271430  0.332245  1
  Cu  Cu13  1  0.750000  0.773170  0.168026  1
  Cu  Cu14  1  0.250000  0.228163  0.832808  1
  Cu  Cu15  1  0.750000  0.728636  0.667306  1
  Cu  Cu16  1  0.250000  0.862896  0.279727  1
  Cu  Cu17  1  0.750000  0.357256  0.219503  1
  Cu  Cu18  1  0.250000  0.640124  0.780964  1
  Cu  Cu19  1  0.750000  0.140352  0.718571  1
  P  P20  1  0.250000  0.236086  0.641930  1
  P  P21  1  0.750000  0.736823  0.857519  1
  P  P22  1  0.250000  0.258551  0.144118  1
  P  P23  1  0.750000  0.763945  0.357281  1
  P  P24  1  0.250000  0.606944  0.598986  1
  P  P25  1  0.750000  0.106985  0.900768  1
  P  P26  1  0.250000  0.895773  0.100169  1
  P  P27  1  0.750000  0.393424  0.401144  1
  P  P28  1  0.250000  0.057749  0.368200  1
  P  P29  1  0.750000  0.557456  0.127323  1
  P  P30  1  0.250000  0.442198  0.873581  1
  P  P31  1  0.750000  0.942609  0.626492  1
