# generated using pymatgen
data_Y8Sc12Sn13Au3
_symmetry_space_group_name_H-M   'P 1'
_cell_length_a   7.58065271
_cell_length_b   8.02344756
_cell_length_c   14.73335000
_cell_angle_alpha   90.00000000
_cell_angle_beta   90.00000000
_cell_angle_gamma   89.65355142
_symmetry_Int_Tables_number   1
_chemical_formula_structural   Y8Sc12Sn13Au3
_chemical_formula_sum   'Y8 Sc12 Sn13 Au3'
_cell_volume   896.10971537
_cell_formula_units_Z   1
loop_
 _symmetry_equiv_pos_site_id
 _symmetry_equiv_pos_as_xyz
  1  'x, y, z'
loop_
 _atom_site_type_symbol
 _atom_site_label
 _atom_site_symmetry_multiplicity
 _atom_site_fract_x
 _atom_site_fract_y
 _atom_site_fract_z
 _atom_site_occupancy
  Y  Y0  1  0.509158  0.318464  0.905611  1
  Y  Y1  1  0.008914  0.182899  0.594087  1
  Y  Y2  1  0.491465  0.680623  0.409656  1
  Y  Y3  1  0.990763  0.819033  0.092849  1
  Y  Y4  1  0.491465  0.680623  0.090344  1
  Y  Y5  1  0.990763  0.819033  0.407151  1
  Y  Y6  1  0.509158  0.318464  0.594389  1
  Y  Y7  1  0.008914  0.182899  0.905913  1
  Sc  Sc8  1  0.347164  0.829791  0.866227  1
  Sc  Sc9  1  0.841751  0.668093  0.633343  1
  Sc  Sc10  1  0.643090  0.171551  0.371392  1
  Sc  Sc11  1  0.170221  0.336673  0.126634  1
  Sc  Sc12  1  0.643090  0.171551  0.128608  1
  Sc  Sc13  1  0.170221  0.336673  0.373366  1
  Sc  Sc14  1  0.347164  0.829791  0.633773  1
  Sc  Sc15  1  0.841751  0.668093  0.866657  1
  Sc  Sc16  1  0.188778  0.502993  0.750000  1
  Sc  Sc17  1  0.689502  0.996467  0.750000  1
  Sc  Sc18  1  0.808026  0.494881  0.250000  1
  Sc  Sc19  1  0.316478  0.001603  0.250000  1
  Sn  Sn20  1  0.313159  0.038383  0.038168  1
  Sn  Sn21  1  0.817812  0.459009  0.458837  1
  Sn  Sn22  1  0.688855  0.960305  0.541936  1
  Sn  Sn23  1  0.184873  0.541067  0.956386  1
  Sn  Sn24  1  0.688855  0.960305  0.958064  1
  Sn  Sn25  1  0.184873  0.541067  0.543614  1
  Sn  Sn26  1  0.313159  0.038383  0.461832  1
  Sn  Sn27  1  0.817812  0.459009  0.041163  1
  Sn  Sn28  1  0.954657  0.127431  0.250000  1
  Sn  Sn29  1  0.307003  0.136382  0.750000  1
  Sn  Sn30  1  0.807533  0.360616  0.750000  1
  Sn  Sn31  1  0.682319  0.855896  0.250000  1
  Sn  Sn32  1  0.191863  0.639595  0.250000  1
  Au  Au33  1  0.541898  0.620592  0.750000  1
  Au  Au34  1  0.041724  0.876865  0.750000  1
  Au  Au35  1  0.455768  0.374897  0.250000  1
