# generated using pymatgen
data_U6Al41Cr6
_symmetry_space_group_name_H-M   'P 1'
_cell_length_a   10.84593400
_cell_length_b   10.84593368
_cell_length_c   17.42144800
_cell_angle_alpha   90.00000000
_cell_angle_beta   90.00000000
_cell_angle_gamma   120.00000098
_symmetry_Int_Tables_number   1
_chemical_formula_structural   U6Al41Cr6
_chemical_formula_sum   'U12 Al82 Cr12'
_cell_volume   1774.79737671
_cell_formula_units_Z   2
loop_
 _symmetry_equiv_pos_site_id
 _symmetry_equiv_pos_as_xyz
  1  'x, y, z'
loop_
 _atom_site_type_symbol
 _atom_site_label
 _atom_site_symmetry_multiplicity
 _atom_site_fract_x
 _atom_site_fract_y
 _atom_site_fract_z
 _atom_site_occupancy
  U  U0  1  0.000000  0.528028  0.405134  1
  U  U1  1  0.471972  0.471972  0.405134  1
  U  U2  1  0.528028  0.000000  0.405134  1
  U  U3  1  0.000000  0.471972  0.594866  1
  U  U4  1  0.528028  0.528028  0.594866  1
  U  U5  1  0.471972  0.000000  0.594866  1
  U  U6  1  0.000000  0.484035  0.926203  1
  U  U7  1  0.515965  0.515965  0.926203  1
  U  U8  1  0.484035  0.000000  0.926203  1
  U  U9  1  0.000000  0.515965  0.073797  1
  U  U10  1  0.484035  0.484035  0.073797  1
  U  U11  1  0.515965  0.000000  0.073797  1
  Al  Al12  1  0.000000  0.752781  0.971885  1
  Al  Al13  1  0.247219  0.247219  0.971885  1
  Al  Al14  1  0.752781  0.000000  0.971885  1
  Al  Al15  1  0.000000  0.247219  0.028115  1
  Al  Al16  1  0.752781  0.752781  0.028115  1
  Al  Al17  1  0.247219  0.000000  0.028115  1
  Al  Al18  1  0.000000  0.253215  0.470075  1
  Al  Al19  1  0.746785  0.746785  0.470075  1
  Al  Al20  1  0.253215  0.000000  0.470075  1
  Al  Al21  1  0.000000  0.746785  0.529925  1
  Al  Al22  1  0.253215  0.253215  0.529925  1
  Al  Al23  1  0.746785  0.000000  0.529925  1
  Al  Al24  1  0.606545  0.767431  0.332474  1
  Al  Al25  1  0.232569  0.839115  0.332474  1
  Al  Al26  1  0.160885  0.393455  0.332474  1
  Al  Al27  1  0.393455  0.160885  0.332474  1
  Al  Al28  1  0.767431  0.606545  0.332474  1
  Al  Al29  1  0.839115  0.232569  0.332474  1
  Al  Al30  1  0.393455  0.232569  0.667526  1
  Al  Al31  1  0.767431  0.160885  0.667526  1
  Al  Al32  1  0.839115  0.606545  0.667526  1
  Al  Al33  1  0.606545  0.839115  0.667526  1
  Al  Al34  1  0.232569  0.393455  0.667526  1
  Al  Al35  1  0.160885  0.767431  0.667526  1
  Al  Al36  1  0.400289  0.228200  0.843165  1
  Al  Al37  1  0.771800  0.172089  0.843165  1
  Al  Al38  1  0.827911  0.599711  0.843165  1
  Al  Al39  1  0.599711  0.827911  0.843165  1
  Al  Al40  1  0.228200  0.400289  0.843165  1
  Al  Al41  1  0.172089  0.771800  0.843165  1
  Al  Al42  1  0.599711  0.771800  0.156835  1
  Al  Al43  1  0.228200  0.827911  0.156835  1
  Al  Al44  1  0.172089  0.400289  0.156835  1
  Al  Al45  1  0.400289  0.172089  0.156835  1
  Al  Al46  1  0.771800  0.599711  0.156835  1
  Al  Al47  1  0.827911  0.228200  0.156835  1
  Al  Al48  1  0.000000  0.150994  0.247037  1
  Al  Al49  1  0.849006  0.849006  0.247037  1
  Al  Al50  1  0.150994  0.000000  0.247037  1
  Al  Al51  1  0.000000  0.849006  0.752963  1
  Al  Al52  1  0.150994  0.150994  0.752963  1
  Al  Al53  1  0.849006  0.000000  0.752963  1
  Al  Al54  1  0.451910  0.854941  0.241848  1
  Al  Al55  1  0.145059  0.596969  0.241848  1
  Al  Al56  1  0.403031  0.548090  0.241848  1
  Al  Al57  1  0.548090  0.403031  0.241848  1
  Al  Al58  1  0.854941  0.451910  0.241848  1
  Al  Al59  1  0.596969  0.145059  0.241848  1
  Al  Al60  1  0.548090  0.145059  0.758152  1
  Al  Al61  1  0.854941  0.403031  0.758152  1
  Al  Al62  1  0.596969  0.451910  0.758152  1
  Al  Al63  1  0.451910  0.596969  0.758152  1
  Al  Al64  1  0.145059  0.548090  0.758152  1
  Al  Al65  1  0.403031  0.854941  0.758152  1
  Al  Al66  1  0.505317  0.752659  0.500000  1
  Al  Al67  1  0.247341  0.752659  0.500000  1
  Al  Al68  1  0.247341  0.494683  0.500000  1
  Al  Al69  1  0.494683  0.247341  0.500000  1
  Al  Al70  1  0.752659  0.505317  0.500000  1
  Al  Al71  1  0.752659  0.247341  0.500000  1
  Al  Al72  1  0.503016  0.251508  0.000000  1
  Al  Al73  1  0.748492  0.251508  0.000000  1
  Al  Al74  1  0.748492  0.496984  0.000000  1
  Al  Al75  1  0.496984  0.748492  0.000000  1
  Al  Al76  1  0.251508  0.503016  0.000000  1
  Al  Al77  1  0.251508  0.748492  0.000000  1
  Al  Al78  1  0.000000  0.841744  0.384779  1
  Al  Al79  1  0.158256  0.158256  0.384779  1
  Al  Al80  1  0.841744  0.000000  0.384779  1
  Al  Al81  1  0.000000  0.158256  0.615221  1
  Al  Al82  1  0.841744  0.841744  0.615221  1
  Al  Al83  1  0.158256  0.000000  0.615221  1
  Al  Al84  1  0.000000  0.156527  0.885404  1
  Al  Al85  1  0.843473  0.843473  0.885404  1
  Al  Al86  1  0.156527  0.000000  0.885404  1
  Al  Al87  1  0.000000  0.843473  0.114596  1
  Al  Al88  1  0.156527  0.156527  0.114596  1
  Al  Al89  1  0.843473  0.000000  0.114596  1
  Al  Al90  1  0.333333  0.666667  0.370363  1
  Al  Al91  1  0.666667  0.333333  0.370363  1
  Al  Al92  1  0.666667  0.333333  0.629637  1
  Al  Al93  1  0.333333  0.666667  0.629637  1
  Cr  Cr94  1  0.000000  0.000000  0.500000  1
  Cr  Cr95  1  0.000000  0.000000  0.000000  1
  Cr  Cr96  1  0.000000  0.737680  0.249348  1
  Cr  Cr97  1  0.262320  0.262320  0.249348  1
  Cr  Cr98  1  0.737680  0.000000  0.249348  1
  Cr  Cr99  1  0.000000  0.262320  0.750652  1
  Cr  Cr100  1  0.737680  0.737680  0.750652  1
  Cr  Cr101  1  0.262320  0.000000  0.750652  1
  Cr  Cr102  1  0.666667  0.333333  0.870653  1
  Cr  Cr103  1  0.333333  0.666667  0.870653  1
  Cr  Cr104  1  0.333333  0.666667  0.129347  1
  Cr  Cr105  1  0.666667  0.333333  0.129347  1
