# generated using pymatgen
data_Pr3AgSnS7
_symmetry_space_group_name_H-M   'P 1'
_cell_length_a   10.42328500
_cell_length_b   10.42340147
_cell_length_c   6.02170000
_cell_angle_alpha   90.00000000
_cell_angle_beta   90.00000000
_cell_angle_gamma   120.00048882
_symmetry_Int_Tables_number   1
_chemical_formula_structural   Pr3AgSnS7
_chemical_formula_sum   'Pr6 Ag2 Sn2 S14'
_cell_volume   566.58058139
_cell_formula_units_Z   2
loop_
 _symmetry_equiv_pos_site_id
 _symmetry_equiv_pos_as_xyz
  1  'x, y, z'
loop_
 _atom_site_type_symbol
 _atom_site_label
 _atom_site_symmetry_multiplicity
 _atom_site_fract_x
 _atom_site_fract_y
 _atom_site_fract_z
 _atom_site_occupancy
  Pr  Pr0  1  0.127418  0.358159  0.255454  1
  Pr  Pr1  1  0.641842  0.769263  0.255462  1
  Pr  Pr2  1  0.230740  0.872581  0.255455  1
  Pr  Pr3  1  0.358157  0.230737  0.755463  1
  Pr  Pr4  1  0.769262  0.127420  0.755456  1
  Pr  Pr5  1  0.872582  0.641841  0.755457  1
  Ag  Ag6  1  0.000000  0.999999  0.305116  1
  Ag  Ag7  1  0.000000  0.000001  0.805115  1
  Sn  Sn8  1  0.666669  0.333333  0.179534  1
  Sn  Sn9  1  0.333331  0.666667  0.679533  1
  S  S10  1  0.512825  0.094142  0.004234  1
  S  S11  1  0.581319  0.487175  0.004233  1
  S  S12  1  0.905860  0.418683  0.004232  1
  S  S13  1  0.333333  0.666666  0.073659  1
  S  S14  1  0.901185  0.731003  0.277873  1
  S  S15  1  0.829818  0.098815  0.277873  1
  S  S16  1  0.268997  0.170181  0.277873  1
  S  S17  1  0.487175  0.905858  0.504233  1
  S  S18  1  0.418681  0.512824  0.504234  1
  S  S19  1  0.094140  0.581317  0.504231  1
  S  S20  1  0.666666  0.333334  0.573660  1
  S  S21  1  0.098814  0.268997  0.777872  1
  S  S22  1  0.731002  0.829818  0.777873  1
  S  S23  1  0.170182  0.901185  0.777874  1
