# generated using pymatgen
data_SrYb6CeBi6
_symmetry_space_group_name_H-M   'P 1'
_cell_length_a   8.44042880
_cell_length_b   8.35637250
_cell_length_c   8.44434195
_cell_angle_alpha   109.22695633
_cell_angle_beta   109.64318843
_cell_angle_gamma   109.04748283
_symmetry_Int_Tables_number   1
_chemical_formula_structural   SrYb6CeBi6
_chemical_formula_sum   'Sr1 Yb6 Ce1 Bi6'
_cell_volume   461.26165867
_cell_formula_units_Z   1
loop_
 _symmetry_equiv_pos_site_id
 _symmetry_equiv_pos_as_xyz
  1  'x, y, z'
loop_
 _atom_site_type_symbol
 _atom_site_label
 _atom_site_symmetry_multiplicity
 _atom_site_fract_x
 _atom_site_fract_y
 _atom_site_fract_z
 _atom_site_occupancy
  Sr  Sr0  1  0.639514  0.642534  0.646934  1
  Yb  Yb1  1  0.854020  0.495898  0.995074  1
  Yb  Yb2  1  0.505513  0.004552  0.860614  1
  Yb  Yb3  1  0.500985  0.000831  0.351372  1
  Yb  Yb4  1  0.351205  0.501001  0.999961  1
  Yb  Yb5  1  0.999975  0.353407  0.500541  1
  Yb  Yb6  1  0.148068  0.148738  0.147961  1
  Ce  Ce7  1  0.000229  0.850930  0.499589  1
  Bi  Bi8  1  0.755037  0.875777  0.135031  1
  Bi  Bi9  1  0.366068  0.236621  0.624190  1
  Bi  Bi10  1  0.238914  0.629419  0.371074  1
  Bi  Bi11  1  0.879293  0.125622  0.747448  1
  Bi  Bi12  1  0.630924  0.379733  0.247856  1
  Bi  Bi13  1  0.130254  0.754936  0.872354  1
