# generated using pymatgen
data_LiY3Lu2(P2Ru3)6
_symmetry_space_group_name_H-M   'P 1'
_cell_length_a   12.61381506
_cell_length_b   12.40718465
_cell_length_c   3.96491800
_cell_angle_alpha   90.00000000
_cell_angle_beta   90.00000000
_cell_angle_gamma   119.45957261
_symmetry_Int_Tables_number   1
_chemical_formula_structural   LiY3Lu2(P2Ru3)6
_chemical_formula_sum   'Li1 Y3 Lu2 P12 Ru18'
_cell_volume   540.28625640
_cell_formula_units_Z   1
loop_
 _symmetry_equiv_pos_site_id
 _symmetry_equiv_pos_as_xyz
  1  'x, y, z'
loop_
 _atom_site_type_symbol
 _atom_site_label
 _atom_site_symmetry_multiplicity
 _atom_site_fract_x
 _atom_site_fract_y
 _atom_site_fract_z
 _atom_site_occupancy
  Li  Li0  1  0.000000  0.561508  0.000000  1
  Y  Y1  1  0.000000  0.181899  0.500000  1
  Y  Y2  1  0.817177  0.815795  0.500000  1
  Y  Y3  1  0.182823  0.998617  0.500000  1
  Lu  Lu4  1  0.658203  0.328309  0.000000  1
  Lu  Lu5  1  0.341797  0.670108  0.000000  1
  P  P6  1  0.000000  0.807101  0.000000  1
  P  P7  1  0.181829  0.183678  0.000000  1
  P  P8  1  0.818171  0.001848  0.000000  1
  P  P9  1  0.692011  0.174343  0.500000  1
  P  P10  1  0.818226  0.517345  0.500000  1
  P  P11  1  0.473796  0.306535  0.500000  1
  P  P12  1  0.181774  0.699120  0.500000  1
  P  P13  1  0.526204  0.832740  0.500000  1
  P  P14  1  0.307989  0.482332  0.500000  1
  P  P15  1  0.000000  0.368209  0.000000  1
  P  P16  1  0.626096  0.625172  0.000000  1
  P  P17  1  0.373904  0.999076  0.000000  1
  Ru  Ru18  1  0.443984  0.444984  0.000000  1
  Ru  Ru19  1  0.556016  0.001000  0.000000  1
  Ru  Ru20  1  0.000000  0.710319  0.500000  1
  Ru  Ru21  1  0.280556  0.283659  0.500000  1
  Ru  Ru22  1  0.719444  0.003103  0.500000  1
  Ru  Ru23  1  0.805419  0.187495  0.000000  1
  Ru  Ru24  1  0.812335  0.616962  0.000000  1
  Ru  Ru25  1  0.373199  0.189495  0.000000  1
  Ru  Ru26  1  0.187665  0.804627  0.000000  1
  Ru  Ru27  1  0.626801  0.816295  0.000000  1
  Ru  Ru28  1  0.194581  0.382076  0.000000  1
  Ru  Ru29  1  0.875287  0.367704  0.500000  1
  Ru  Ru30  1  0.630125  0.507428  0.500000  1
  Ru  Ru31  1  0.493206  0.129423  0.500000  1
  Ru  Ru32  1  0.369875  0.877304  0.500000  1
  Ru  Ru33  1  0.506794  0.636217  0.500000  1
  Ru  Ru34  1  0.124713  0.492417  0.500000  1
  Ru  Ru35  1  0.000000  0.995758  0.000000  1
