# generated using pymatgen
data_Tb4Dy8Fe2I17
_symmetry_space_group_name_H-M   'P 1'
_cell_length_a   9.72402016
_cell_length_b   11.67747985
_cell_length_c   11.70277744
_cell_angle_alpha   93.51472075
_cell_angle_beta   104.74336957
_cell_angle_gamma   114.09269504
_symmetry_Int_Tables_number   1
_chemical_formula_structural   Tb4Dy8Fe2I17
_chemical_formula_sum   'Tb4 Dy8 Fe2 I17'
_cell_volume   1152.44921897
_cell_formula_units_Z   1
loop_
 _symmetry_equiv_pos_site_id
 _symmetry_equiv_pos_as_xyz
  1  'x, y, z'
loop_
 _atom_site_type_symbol
 _atom_site_label
 _atom_site_symmetry_multiplicity
 _atom_site_fract_x
 _atom_site_fract_y
 _atom_site_fract_z
 _atom_site_occupancy
  Tb  Tb0  1  0.052978  0.503785  0.319980  1
  Tb  Tb1  1  0.992403  0.809040  0.588474  1
  Tb  Tb2  1  0.654755  0.241363  0.280416  1
  Tb  Tb3  1  0.008081  0.190510  0.412250  1
  Dy  Dy4  1  0.218591  0.671632  0.981869  1
  Dy  Dy5  1  0.254628  0.977544  0.888794  1
  Dy  Dy6  1  0.344500  0.758321  0.719526  1
  Dy  Dy7  1  0.948251  0.497818  0.680672  1
  Dy  Dy8  1  0.745190  0.021882  0.110878  1
  Dy  Dy9  1  0.140184  0.286386  0.153824  1
  Dy  Dy10  1  0.781045  0.328353  0.017141  1
  Dy  Dy11  1  0.859139  0.713397  0.846107  1
  Fe  Fe12  1  0.104097  0.738081  0.785861  1
  Fe  Fe13  1  0.895835  0.261766  0.214104  1
  I  I14  1  0.783502  0.528533  0.417482  1
  I  I15  1  0.643955  0.419172  0.761766  1
  I  I16  1  0.843409  0.895010  0.326307  1
  I  I17  1  0.327556  0.213466  0.368591  1
  I  I18  1  0.156578  0.104972  0.673673  1
  I  I19  1  0.586329  0.053094  0.842666  1
  I  I20  1  0.757537  0.187601  0.538944  1
  I  I21  1  0.551590  0.710474  0.953994  1
  I  I22  1  0.356342  0.580649  0.237981  1
  I  I23  1  0.216402  0.471368  0.582825  1
  I  I24  1  0.056256  0.367269  0.896945  1
  I  I25  1  0.448319  0.289619  0.045649  1
  I  I26  1  0.000111  0.000140  0.000066  1
  I  I27  1  0.243097  0.812764  0.461603  1
  I  I28  1  0.413744  0.946791  0.157259  1
  I  I29  1  0.672058  0.786518  0.631411  1
  I  I30  1  0.943539  0.632682  0.102941  1
