# generated using pymatgen
data_Lu4CrB12Rh
_symmetry_space_group_name_H-M   'P 1'
_cell_length_a   3.54920500
_cell_length_b   9.04178059
_cell_length_c   11.41293416
_cell_angle_alpha   90.23298079
_cell_angle_beta   90.00000000
_cell_angle_gamma   90.00000000
_symmetry_Int_Tables_number   1
_chemical_formula_structural   Lu4CrB12Rh
_chemical_formula_sum   'Lu8 Cr2 B24 Rh2'
_cell_volume   366.25095866
_cell_formula_units_Z   2
loop_
 _symmetry_equiv_pos_site_id
 _symmetry_equiv_pos_as_xyz
  1  'x, y, z'
loop_
 _atom_site_type_symbol
 _atom_site_label
 _atom_site_symmetry_multiplicity
 _atom_site_fract_x
 _atom_site_fract_y
 _atom_site_fract_z
 _atom_site_occupancy
  Lu  Lu0  1  0.500000  0.316851  0.411328  1
  Lu  Lu1  1  0.500000  0.683149  0.588672  1
  Lu  Lu2  1  0.500000  0.173939  0.917600  1
  Lu  Lu3  1  0.500000  0.826061  0.082400  1
  Lu  Lu4  1  0.500000  0.440825  0.126977  1
  Lu  Lu5  1  0.500000  0.559175  0.873023  1
  Lu  Lu6  1  0.500000  0.053139  0.629013  1
  Lu  Lu7  1  0.500000  0.946861  0.370987  1
  Cr  Cr8  1  0.500000  0.139541  0.181246  1
  Cr  Cr9  1  0.500000  0.860459  0.818754  1
  B  B10  1  0.000000  0.105868  0.471631  1
  B  B11  1  0.000000  0.894132  0.528369  1
  B  B12  1  0.000000  0.394215  0.970634  1
  B  B13  1  0.000000  0.605785  0.029366  1
  B  B14  1  0.000000  0.131789  0.315619  1
  B  B15  1  0.000000  0.868211  0.684381  1
  B  B16  1  0.000000  0.368539  0.817060  1
  B  B17  1  0.000000  0.631461  0.182940  1
  B  B18  1  0.000000  0.052985  0.067040  1
  B  B19  1  0.000000  0.947015  0.932960  1
  B  B20  1  0.000000  0.446312  0.565366  1
  B  B21  1  0.000000  0.553688  0.434634  1
  B  B22  1  0.000000  0.481062  0.287471  1
  B  B23  1  0.000000  0.518938  0.712529  1
  B  B24  1  0.000000  0.018027  0.787849  1
  B  B25  1  0.000000  0.981973  0.212151  1
  B  B26  1  0.000000  0.248069  0.080730  1
  B  B27  1  0.000000  0.751931  0.919270  1
  B  B28  1  0.000000  0.248984  0.578803  1
  B  B29  1  0.000000  0.751016  0.421197  1
  B  B30  1  0.000000  0.293131  0.235422  1
  B  B31  1  0.000000  0.706869  0.764578  1
  B  B32  1  0.000000  0.206864  0.735822  1
  B  B33  1  0.000000  0.793136  0.264178  1
  Rh  Rh34  1  0.500000  0.361710  0.678486  1
  Rh  Rh35  1  0.500000  0.638290  0.321514  1
