# generated using pymatgen
data_Dy2YIn3HgRh2
_symmetry_space_group_name_H-M   'P 1'
_cell_length_a   7.86062904
_cell_length_b   7.85396669
_cell_length_c   3.79654700
_cell_angle_alpha   90.00000000
_cell_angle_beta   90.00000000
_cell_angle_gamma   120.04017606
_symmetry_Int_Tables_number   1
_chemical_formula_structural   Dy2YIn3HgRh2
_chemical_formula_sum   'Dy2 Y1 In3 Hg1 Rh2'
_cell_volume   202.90362535
_cell_formula_units_Z   1
loop_
 _symmetry_equiv_pos_site_id
 _symmetry_equiv_pos_as_xyz
  1  'x, y, z'
loop_
 _atom_site_type_symbol
 _atom_site_label
 _atom_site_symmetry_multiplicity
 _atom_site_fract_x
 _atom_site_fract_y
 _atom_site_fract_z
 _atom_site_occupancy
  Dy  Dy0  1  0.583175  0.971475  0.500000  1
  Dy  Dy1  1  0.388307  0.416802  0.500000  1
  Y  Y2  1  0.027667  0.611350  0.500000  1
  In  In3  1  0.002882  0.257807  0.000000  1
  In  In4  1  0.254887  0.997068  0.000000  1
  In  In5  1  0.742206  0.745129  0.000000  1
  Hg  Hg6  1  0.666378  0.333089  0.000000  1
  Rh  Rh7  1  0.000022  0.000435  0.500000  1
  Rh  Rh8  1  0.334477  0.666843  0.000000  1
