# generated using pymatgen
data_NaDy4Si10P2Ir19
_symmetry_space_group_name_H-M   'P 1'
_cell_length_a   12.82925478
_cell_length_b   12.77553579
_cell_length_c   3.96546700
_cell_angle_alpha   90.00000000
_cell_angle_beta   90.00000000
_cell_angle_gamma   119.86158327
_symmetry_Int_Tables_number   1
_chemical_formula_structural   NaDy4Si10P2Ir19
_chemical_formula_sum   'Na1 Dy4 Si10 P2 Ir19'
_cell_volume   563.65009109
_cell_formula_units_Z   1
loop_
 _symmetry_equiv_pos_site_id
 _symmetry_equiv_pos_as_xyz
  1  'x, y, z'
loop_
 _atom_site_type_symbol
 _atom_site_label
 _atom_site_symmetry_multiplicity
 _atom_site_fract_x
 _atom_site_fract_y
 _atom_site_fract_z
 _atom_site_occupancy
  Na  Na0  1  0.000000  0.813383  0.000000  1
  Dy  Dy1  1  0.334039  0.666846  0.500000  1
  Dy  Dy2  1  0.665961  0.332806  0.500000  1
  Dy  Dy3  1  0.182904  0.183193  0.000000  1
  Dy  Dy4  1  0.817096  0.000289  0.000000  1
  Si  Si5  1  0.000000  0.634076  0.500000  1
  Si  Si6  1  0.366944  0.367467  0.500000  1
  Si  Si7  1  0.633056  0.000524  0.500000  1
  Si  Si8  1  0.520211  0.686457  0.000000  1
  Si  Si9  1  0.311487  0.831970  0.000000  1
  Si  Si10  1  0.167963  0.480672  0.000000  1
  Si  Si11  1  0.479789  0.166245  0.000000  1
  Si  Si12  1  0.688513  0.520483  0.000000  1
  Si  Si13  1  0.832037  0.312709  0.000000  1
  Si  Si14  1  0.000000  0.178530  0.500000  1
  P  P15  1  0.820189  0.818639  0.500000  1
  P  P16  1  0.179811  0.998449  0.500000  1
  Ir  Ir17  1  0.511320  0.872401  0.000000  1
  Ir  Ir18  1  0.126244  0.639081  0.000000  1
  Ir  Ir19  1  0.360493  0.487306  0.000000  1
  Ir  Ir20  1  0.488680  0.361081  0.000000  1
  Ir  Ir21  1  0.873756  0.512836  0.000000  1
  Ir  Ir22  1  0.639507  0.126812  0.000000  1
  Ir  Ir23  1  0.000000  0.447458  0.500000  1
  Ir  Ir24  1  0.550390  0.553956  0.500000  1
  Ir  Ir25  1  0.449610  0.003567  0.500000  1
  Ir  Ir26  1  0.000000  0.282160  0.000000  1
  Ir  Ir27  1  0.720455  0.722187  0.000000  1
  Ir  Ir28  1  0.279545  0.001732  0.000000  1
  Ir  Ir29  1  0.626972  0.807991  0.500000  1
  Ir  Ir30  1  0.195249  0.818485  0.500000  1
  Ir  Ir31  1  0.181643  0.375355  0.500000  1
  Ir  Ir32  1  0.373028  0.181019  0.500000  1
  Ir  Ir33  1  0.804751  0.623237  0.500000  1
  Ir  Ir34  1  0.818357  0.193712  0.500000  1
  Ir  Ir35  1  0.000000  0.996884  0.500000  1
