# generated using pymatgen
data_Nd5Bi2PbC
_symmetry_space_group_name_H-M   'P 1'
_cell_length_a   9.44717403
_cell_length_b   9.43407235
_cell_length_c   6.75622600
_cell_angle_alpha   90.00000000
_cell_angle_beta   90.00000000
_cell_angle_gamma   119.95412321
_symmetry_Int_Tables_number   1
_chemical_formula_structural   Nd5Bi2PbC
_chemical_formula_sum   'Nd10 Bi4 Pb2 C2'
_cell_volume   521.71881702
_cell_formula_units_Z   2
loop_
 _symmetry_equiv_pos_site_id
 _symmetry_equiv_pos_as_xyz
  1  'x, y, z'
loop_
 _atom_site_type_symbol
 _atom_site_label
 _atom_site_symmetry_multiplicity
 _atom_site_fract_x
 _atom_site_fract_y
 _atom_site_fract_z
 _atom_site_occupancy
  Nd  Nd0  1  0.665449  0.332398  0.997241  1
  Nd  Nd1  1  0.334551  0.666950  0.997241  1
  Nd  Nd2  1  0.334551  0.666950  0.502759  1
  Nd  Nd3  1  0.665449  0.332398  0.502759  1
  Nd  Nd4  1  0.787330  0.789033  0.750000  1
  Nd  Nd5  1  0.212670  0.001703  0.750000  1
  Nd  Nd6  1  0.000000  0.211443  0.750000  1
  Nd  Nd7  1  0.211723  0.211635  0.250000  1
  Nd  Nd8  1  0.788277  0.999912  0.250000  1
  Nd  Nd9  1  0.000000  0.789199  0.250000  1
  Bi  Bi10  1  0.000000  0.598737  0.750000  1
  Bi  Bi11  1  0.598393  0.598393  0.250000  1
  Bi  Bi12  1  0.401607  0.000001  0.250000  1
  Bi  Bi13  1  0.000000  0.400782  0.250000  1
  Pb  Pb14  1  0.401832  0.401751  0.750000  1
  Pb  Pb15  1  0.598168  0.999919  0.750000  1
  C  C16  1  0.000000  0.999398  0.001547  1
  C  C17  1  0.000000  0.999398  0.498453  1
