# generated using pymatgen
data_Li4Zn7Ag2
_symmetry_space_group_name_H-M   'P 1'
_cell_length_a   9.67518613
_cell_length_b   9.67518588
_cell_length_c   9.67518752
_cell_angle_alpha   30.83613349
_cell_angle_beta   30.83613306
_cell_angle_gamma   30.83613311
_symmetry_Int_Tables_number   1
_chemical_formula_structural   Li4Zn7Ag2
_chemical_formula_sum   'Li4 Zn7 Ag2'
_cell_volume   211.04791286
_cell_formula_units_Z   1
loop_
 _symmetry_equiv_pos_site_id
 _symmetry_equiv_pos_as_xyz
  1  'x, y, z'
loop_
 _atom_site_type_symbol
 _atom_site_label
 _atom_site_symmetry_multiplicity
 _atom_site_fract_x
 _atom_site_fract_y
 _atom_site_fract_z
 _atom_site_occupancy
  Li  Li0  1  0.833246  0.833246  0.833246  1
  Li  Li1  1  0.166754  0.166754  0.166754  1
  Li  Li2  1  0.649640  0.649640  0.649640  1
  Li  Li3  1  0.350360  0.350360  0.350360  1
  Zn  Zn4  1  0.000000  0.000000  0.000000  1
  Zn  Zn5  1  0.908177  0.414962  0.908177  1
  Zn  Zn6  1  0.908177  0.908177  0.414962  1
  Zn  Zn7  1  0.414962  0.908177  0.908177  1
  Zn  Zn8  1  0.091823  0.585038  0.091823  1
  Zn  Zn9  1  0.091823  0.091823  0.585038  1
  Zn  Zn10  1  0.585038  0.091823  0.091823  1
  Ag  Ag11  1  0.550770  0.550770  0.550770  1
  Ag  Ag12  1  0.449230  0.449230  0.449230  1
