# generated using pymatgen
data_TbYGa2NiRh
_symmetry_space_group_name_H-M   'P 1'
_cell_length_a   4.33432800
_cell_length_b   6.84509600
_cell_length_c   7.56441800
_cell_angle_alpha   90.00000000
_cell_angle_beta   90.00000000
_cell_angle_gamma   90.00000000
_symmetry_Int_Tables_number   1
_chemical_formula_structural   TbYGa2NiRh
_chemical_formula_sum   'Tb2 Y2 Ga4 Ni2 Rh2'
_cell_volume   224.42789505
_cell_formula_units_Z   2
loop_
 _symmetry_equiv_pos_site_id
 _symmetry_equiv_pos_as_xyz
  1  'x, y, z'
loop_
 _atom_site_type_symbol
 _atom_site_label
 _atom_site_symmetry_multiplicity
 _atom_site_fract_x
 _atom_site_fract_y
 _atom_site_fract_z
 _atom_site_occupancy
  Tb  Tb0  1  0.750000  0.978858  0.191656  1
  Tb  Tb1  1  0.750000  0.478858  0.308344  1
  Y  Y2  1  0.250000  0.024313  0.810945  1
  Y  Y3  1  0.250000  0.524313  0.689055  1
  Ga  Ga4  1  0.250000  0.164666  0.436736  1
  Ga  Ga5  1  0.250000  0.664666  0.063264  1
  Ga  Ga6  1  0.750000  0.839793  0.581050  1
  Ga  Ga7  1  0.750000  0.339793  0.918950  1
  Ni  Ni8  1  0.750000  0.215868  0.604975  1
  Ni  Ni9  1  0.750000  0.715868  0.895025  1
  Rh  Rh10  1  0.250000  0.776502  0.395203  1
  Rh  Rh11  1  0.250000  0.276502  0.104797  1
