# generated using pymatgen
data_Tb3TiZn2Ir3
_symmetry_space_group_name_H-M   'P 1'
_cell_length_a   7.14055161
_cell_length_b   6.97276707
_cell_length_c   4.10050500
_cell_angle_alpha   90.00000000
_cell_angle_beta   90.00000000
_cell_angle_gamma   119.22569694
_symmetry_Int_Tables_number   1
_chemical_formula_structural   Tb3TiZn2Ir3
_chemical_formula_sum   'Tb3 Ti1 Zn2 Ir3'
_cell_volume   178.17256293
_cell_formula_units_Z   1
loop_
 _symmetry_equiv_pos_site_id
 _symmetry_equiv_pos_as_xyz
  1  'x, y, z'
loop_
 _atom_site_type_symbol
 _atom_site_label
 _atom_site_symmetry_multiplicity
 _atom_site_fract_x
 _atom_site_fract_y
 _atom_site_fract_z
 _atom_site_occupancy
  Tb  Tb0  1  0.425406  0.415398  0.000000  1
  Tb  Tb1  1  0.574594  0.989991  0.000000  1
  Tb  Tb2  1  0.000000  0.606656  0.000000  1
  Ti  Ti3  1  0.000000  0.235254  0.500000  1
  Zn  Zn4  1  0.753616  0.758081  0.500000  1
  Zn  Zn5  1  0.246384  0.004464  0.500000  1
  Ir  Ir6  1  0.000000  0.025776  0.000000  1
  Ir  Ir7  1  0.315796  0.640089  0.500000  1
  Ir  Ir8  1  0.684204  0.324292  0.500000  1
