# generated using pymatgen
data_CsThMnS3
_symmetry_space_group_name_H-M   'P 1'
_cell_length_a   8.04290683
_cell_length_b   8.04290564
_cell_length_c   10.75260800
_cell_angle_alpha   90.00000000
_cell_angle_beta   90.00000000
_cell_angle_gamma   149.86980869
_symmetry_Int_Tables_number   1
_chemical_formula_structural   CsThMnS3
_chemical_formula_sum   'Cs2 Th2 Mn2 S6'
_cell_volume   349.15205375
_cell_formula_units_Z   2
loop_
 _symmetry_equiv_pos_site_id
 _symmetry_equiv_pos_as_xyz
  1  'x, y, z'
loop_
 _atom_site_type_symbol
 _atom_site_label
 _atom_site_symmetry_multiplicity
 _atom_site_fract_x
 _atom_site_fract_y
 _atom_site_fract_z
 _atom_site_occupancy
  Cs  Cs0  1  0.262209  0.737791  0.250000  1
  Cs  Cs1  1  0.737791  0.262209  0.750000  1
  Th  Th2  1  0.000000  0.000000  0.000000  1
  Th  Th3  1  0.000000  0.000000  0.500000  1
  Mn  Mn4  1  0.529394  0.470606  0.250000  1
  Mn  Mn5  1  0.470606  0.529394  0.750000  1
  S  S6  1  0.613740  0.386260  0.065018  1
  S  S7  1  0.386260  0.613740  0.934982  1
  S  S8  1  0.386260  0.613740  0.565018  1
  S  S9  1  0.613740  0.386260  0.434982  1
  S  S10  1  0.949633  0.050367  0.250000  1
  S  S11  1  0.050367  0.949633  0.750000  1
