# generated using pymatgen
data_Dy2MnIrRh2
_symmetry_space_group_name_H-M   'P 1'
_cell_length_a   5.50279751
_cell_length_b   5.51399630
_cell_length_c   5.16811994
_cell_angle_alpha   57.81437066
_cell_angle_beta   57.83365811
_cell_angle_gamma   60.06715817
_symmetry_Int_Tables_number   1
_chemical_formula_structural   Dy2MnIrRh2
_chemical_formula_sum   'Dy2 Mn1 Ir1 Rh2'
_cell_volume   107.14590003
_cell_formula_units_Z   1
loop_
 _symmetry_equiv_pos_site_id
 _symmetry_equiv_pos_as_xyz
  1  'x, y, z'
loop_
 _atom_site_type_symbol
 _atom_site_label
 _atom_site_symmetry_multiplicity
 _atom_site_fract_x
 _atom_site_fract_y
 _atom_site_fract_z
 _atom_site_occupancy
  Dy  Dy0  1  0.997119  0.998670  0.007093  1
  Dy  Dy1  1  0.252881  0.251330  0.242907  1
  Mn  Mn2  1  0.625000  0.625000  0.125000  1
  Ir  Ir3  1  0.625000  0.125000  0.625000  1
  Rh  Rh4  1  0.625000  0.625000  0.625000  1
  Rh  Rh5  1  0.125000  0.625000  0.625000  1
