# generated using pymatgen
data_Tb5(TlSb)2
_symmetry_space_group_name_H-M   'P 1'
_cell_length_a   8.84509500
_cell_length_b   8.84509420
_cell_length_c   8.15037000
_cell_angle_alpha   90.00000000
_cell_angle_beta   90.00000000
_cell_angle_gamma   125.08504033
_symmetry_Int_Tables_number   1
_chemical_formula_structural   Tb5(TlSb)2
_chemical_formula_sum   'Tb10 Tl4 Sb4'
_cell_volume   521.78879068
_cell_formula_units_Z   2
loop_
 _symmetry_equiv_pos_site_id
 _symmetry_equiv_pos_as_xyz
  1  'x, y, z'
loop_
 _atom_site_type_symbol
 _atom_site_label
 _atom_site_symmetry_multiplicity
 _atom_site_fract_x
 _atom_site_fract_y
 _atom_site_fract_z
 _atom_site_occupancy
  Tb  Tb0  1  0.032850  0.309330  0.332611  1
  Tb  Tb1  1  0.967150  0.690670  0.667389  1
  Tb  Tb2  1  0.467150  0.190670  0.832611  1
  Tb  Tb3  1  0.809330  0.532850  0.167389  1
  Tb  Tb4  1  0.532850  0.809330  0.167389  1
  Tb  Tb5  1  0.190670  0.467150  0.832611  1
  Tb  Tb6  1  0.690670  0.967150  0.667389  1
  Tb  Tb7  1  0.309330  0.032850  0.332611  1
  Tb  Tb8  1  0.000000  0.000000  0.000000  1
  Tb  Tb9  1  0.500000  0.500000  0.500000  1
  Tl  Tl10  1  0.369156  0.369156  0.129952  1
  Tl  Tl11  1  0.630844  0.630844  0.870048  1
  Tl  Tl12  1  0.130844  0.130844  0.629952  1
  Tl  Tl13  1  0.869156  0.869156  0.370048  1
  Sb  Sb14  1  0.796591  0.203409  0.000000  1
  Sb  Sb15  1  0.203409  0.796591  0.000000  1
  Sb  Sb16  1  0.703409  0.296591  0.500000  1
  Sb  Sb17  1  0.296591  0.703409  0.500000  1
