# generated using pymatgen
data_Rb4Tm3Zr5Se16
_symmetry_space_group_name_H-M   'P 1'
_cell_length_a   6.84039890
_cell_length_b   7.87402600
_cell_length_c   17.01847900
_cell_angle_alpha   90.00000000
_cell_angle_beta   90.07527592
_cell_angle_gamma   90.00000000
_symmetry_Int_Tables_number   1
_chemical_formula_structural   Rb4Tm3Zr5Se16
_chemical_formula_sum   'Rb4 Tm3 Zr5 Se16'
_cell_volume   916.63965506
_cell_formula_units_Z   1
loop_
 _symmetry_equiv_pos_site_id
 _symmetry_equiv_pos_as_xyz
  1  'x, y, z'
loop_
 _atom_site_type_symbol
 _atom_site_label
 _atom_site_symmetry_multiplicity
 _atom_site_fract_x
 _atom_site_fract_y
 _atom_site_fract_z
 _atom_site_occupancy
  Rb  Rb0  1  0.347139  0.000000  0.000825  1
  Rb  Rb1  1  0.649899  0.500000  0.499133  1
  Rb  Rb2  1  0.028404  0.000000  0.498608  1
  Rb  Rb3  1  0.971934  0.500000  0.001722  1
  Tm  Tm4  1  0.001308  0.000000  0.247718  1
  Tm  Tm5  1  0.001151  0.000000  0.752080  1
  Tm  Tm6  1  0.998548  0.500000  0.252293  1
  Zr  Zr7  1  0.999347  0.500000  0.748260  1
  Zr  Zr8  1  0.499987  0.249970  0.250003  1
  Zr  Zr9  1  0.499577  0.750270  0.749929  1
  Zr  Zr10  1  0.499987  0.750030  0.250003  1
  Zr  Zr11  1  0.499577  0.249730  0.749929  1
  Se  Se12  1  0.821727  0.247080  0.344204  1
  Se  Se13  1  0.829003  0.744217  0.656877  1
  Se  Se14  1  0.178152  0.747082  0.155839  1
  Se  Se15  1  0.172578  0.259946  0.843335  1
  Se  Se16  1  0.178152  0.252918  0.155839  1
  Se  Se17  1  0.172578  0.740054  0.843335  1
  Se  Se18  1  0.821727  0.752920  0.344204  1
  Se  Se19  1  0.829003  0.255783  0.656877  1
  Se  Se20  1  0.658224  0.000000  0.157833  1
  Se  Se21  1  0.658077  0.000000  0.842555  1
  Se  Se22  1  0.341501  0.500000  0.342122  1
  Se  Se23  1  0.329777  0.500000  0.658789  1
  Se  Se24  1  0.343963  0.000000  0.341315  1
  Se  Se25  1  0.344658  0.000000  0.657902  1
  Se  Se26  1  0.655891  0.500000  0.158719  1
  Se  Se27  1  0.668131  0.500000  0.839754  1
