# generated using pymatgen
data_Tb3CoP6Ir7Rh
_symmetry_space_group_name_H-M   'P 1'
_cell_length_a   3.92871900
_cell_length_b   11.14704000
_cell_length_c   12.77964900
_cell_angle_alpha   90.00000000
_cell_angle_beta   90.00000000
_cell_angle_gamma   90.00000000
_symmetry_Int_Tables_number   1
_chemical_formula_structural   Tb3CoP6Ir7Rh
_chemical_formula_sum   'Tb6 Co2 P12 Ir14 Rh2'
_cell_volume   559.66668107
_cell_formula_units_Z   2
loop_
 _symmetry_equiv_pos_site_id
 _symmetry_equiv_pos_as_xyz
  1  'x, y, z'
loop_
 _atom_site_type_symbol
 _atom_site_label
 _atom_site_symmetry_multiplicity
 _atom_site_fract_x
 _atom_site_fract_y
 _atom_site_fract_z
 _atom_site_occupancy
  Tb  Tb0  1  0.000000  0.500000  0.522082  1
  Tb  Tb1  1  0.500000  0.000000  0.477918  1
  Tb  Tb2  1  0.500000  0.816015  0.200604  1
  Tb  Tb3  1  0.500000  0.183985  0.200604  1
  Tb  Tb4  1  0.000000  0.683985  0.799396  1
  Tb  Tb5  1  0.000000  0.316015  0.799396  1
  Co  Co6  1  0.000000  0.500000  0.978544  1
  Co  Co7  1  0.500000  0.000000  0.021456  1
  P  P8  1  0.500000  0.500000  0.881276  1
  P  P9  1  0.000000  0.000000  0.118724  1
  P  P10  1  0.500000  0.500000  0.355414  1
  P  P11  1  0.000000  0.000000  0.644586  1
  P  P12  1  0.500000  0.315210  0.619227  1
  P  P13  1  0.500000  0.684790  0.619227  1
  P  P14  1  0.000000  0.184790  0.380773  1
  P  P15  1  0.000000  0.815210  0.380773  1
  P  P16  1  0.500000  0.851730  0.896671  1
  P  P17  1  0.500000  0.148270  0.896671  1
  P  P18  1  0.000000  0.648270  0.103329  1
  P  P19  1  0.000000  0.351730  0.103329  1
  Ir  Ir20  1  0.500000  0.500000  0.702678  1
  Ir  Ir21  1  0.000000  0.000000  0.297322  1
  Ir  Ir22  1  0.500000  0.338305  0.996732  1
  Ir  Ir23  1  0.500000  0.661695  0.996732  1
  Ir  Ir24  1  0.000000  0.161695  0.003268  1
  Ir  Ir25  1  0.000000  0.838305  0.003268  1
  Ir  Ir26  1  0.500000  0.292553  0.429364  1
  Ir  Ir27  1  0.500000  0.707447  0.429364  1
  Ir  Ir28  1  0.000000  0.207447  0.570636  1
  Ir  Ir29  1  0.000000  0.792553  0.570636  1
  Ir  Ir30  1  0.500000  0.871474  0.714068  1
  Ir  Ir31  1  0.500000  0.128526  0.714068  1
  Ir  Ir32  1  0.000000  0.628526  0.285932  1
  Ir  Ir33  1  0.000000  0.371474  0.285932  1
  Rh  Rh34  1  0.500000  0.500000  0.175810  1
  Rh  Rh35  1  0.000000  0.000000  0.824190  1
