# generated using pymatgen
data_Sr5P12Ir11Ru8
_symmetry_space_group_name_H-M   'P 1'
_cell_length_a   12.75942298
_cell_length_b   12.72694929
_cell_length_c   4.03845000
_cell_angle_alpha   90.00000000
_cell_angle_beta   90.00000000
_cell_angle_gamma   120.11309549
_symmetry_Int_Tables_number   1
_chemical_formula_structural   Sr5P12Ir11Ru8
_chemical_formula_sum   'Sr5 P12 Ir11 Ru8'
_cell_volume   567.28934730
_cell_formula_units_Z   1
loop_
 _symmetry_equiv_pos_site_id
 _symmetry_equiv_pos_as_xyz
  1  'x, y, z'
loop_
 _atom_site_type_symbol
 _atom_site_label
 _atom_site_symmetry_multiplicity
 _atom_site_fract_x
 _atom_site_fract_y
 _atom_site_fract_z
 _atom_site_occupancy
  Sr  Sr0  1  0.666928  0.332100  0.000000  1
  Sr  Sr1  1  0.334617  0.668685  0.000000  1
  Sr  Sr2  1  0.816820  0.001110  0.500000  1
  Sr  Sr3  1  0.180905  0.182536  0.500000  1
  Sr  Sr4  1  0.999351  0.817307  0.500000  1
  P  P5  1  0.627505  0.997302  0.000000  1
  P  P6  1  0.367852  0.368025  0.000000  1
  P  P7  1  0.000306  0.631589  0.000000  1
  P  P8  1  0.689583  0.519572  0.500000  1
  P  P9  1  0.830858  0.306748  0.500000  1
  P  P10  1  0.316253  0.836019  0.500000  1
  P  P11  1  0.522031  0.691252  0.500000  1
  P  P12  1  0.183720  0.999610  0.000000  1
  P  P13  1  0.813833  0.813511  0.000000  1
  P  P14  1  0.996976  0.187273  0.000000  1
  P  P15  1  0.478236  0.166459  0.500000  1
  P  P16  1  0.169552  0.480806  0.500000  1
  Ir  Ir17  1  0.621072  0.800591  0.000000  1
  Ir  Ir18  1  0.183984  0.380759  0.000000  1
  Ir  Ir19  1  0.377715  0.181971  0.000000  1
  Ir  Ir20  1  0.195329  0.817921  0.000000  1
  Ir  Ir21  1  0.803084  0.619564  0.000000  1
  Ir  Ir22  1  0.873856  0.509923  0.500000  1
  Ir  Ir23  1  0.489808  0.360832  0.500000  1
  Ir  Ir24  1  0.635979  0.125716  0.500000  1
  Ir  Ir25  1  0.129688  0.640331  0.500000  1
  Ir  Ir26  1  0.363139  0.489800  0.500000  1
  Ir  Ir27  1  0.998382  0.000118  0.000000  1
  Ru  Ru28  1  0.514633  0.875175  0.500000  1
  Ru  Ru29  1  0.710586  0.708638  0.500000  1
  Ru  Ru30  1  0.002500  0.291998  0.500000  1
  Ru  Ru31  1  0.449328  0.999048  0.000000  1
  Ru  Ru32  1  0.547365  0.544903  0.000000  1
  Ru  Ru33  1  0.002577  0.454403  0.000000  1
  Ru  Ru34  1  0.817511  0.198305  0.000000  1
  Ru  Ru35  1  0.288137  0.000096  0.500000  1
