# generated using pymatgen
data_Y5TmAl24(Ir3Ru)2
_symmetry_space_group_name_H-M   'P 1'
_cell_length_a   8.81944600
_cell_length_b   8.82841410
_cell_length_c   9.48857100
_cell_angle_alpha   90.00000000
_cell_angle_beta   90.00000000
_cell_angle_gamma   119.96640256
_symmetry_Int_Tables_number   1
_chemical_formula_structural   Y5TmAl24(Ir3Ru)2
_chemical_formula_sum   'Y5 Tm1 Al24 Ir6 Ru2'
_cell_volume   640.03301279
_cell_formula_units_Z   1
loop_
 _symmetry_equiv_pos_site_id
 _symmetry_equiv_pos_as_xyz
  1  'x, y, z'
loop_
 _atom_site_type_symbol
 _atom_site_label
 _atom_site_symmetry_multiplicity
 _atom_site_fract_x
 _atom_site_fract_y
 _atom_site_fract_z
 _atom_site_occupancy
  Y  Y0  1  0.807386  0.192444  0.750000  1
  Y  Y1  1  0.193065  0.806657  0.250000  1
  Y  Y2  1  0.385057  0.192444  0.750000  1
  Y  Y3  1  0.613593  0.806657  0.250000  1
  Y  Y4  1  0.807438  0.614877  0.750000  1
  Tm  Tm5  1  0.194205  0.388408  0.250000  1
  Al  Al6  1  0.666500  0.332999  0.972363  1
  Al  Al7  1  0.333197  0.666395  0.028190  1
  Al  Al8  1  0.333197  0.666395  0.471810  1
  Al  Al9  1  0.666500  0.332999  0.527637  1
  Al  Al10  1  0.837520  0.163320  0.423240  1
  Al  Al11  1  0.163041  0.836898  0.576473  1
  Al  Al12  1  0.325800  0.163320  0.423240  1
  Al  Al13  1  0.163041  0.836898  0.923527  1
  Al  Al14  1  0.673858  0.836898  0.576473  1
  Al  Al15  1  0.837520  0.163320  0.076760  1
  Al  Al16  1  0.837023  0.674045  0.423530  1
  Al  Al17  1  0.673858  0.836898  0.923527  1
  Al  Al18  1  0.162924  0.325848  0.575786  1
  Al  Al19  1  0.325800  0.163320  0.076760  1
  Al  Al20  1  0.162924  0.325848  0.924214  1
  Al  Al21  1  0.837023  0.674045  0.076470  1
  Al  Al22  1  0.437945  0.562190  0.750000  1
  Al  Al23  1  0.561415  0.437341  0.250000  1
  Al  Al24  1  0.124244  0.562190  0.750000  1
  Al  Al25  1  0.875928  0.437341  0.250000  1
  Al  Al26  1  0.437743  0.875487  0.750000  1
  Al  Al27  1  0.562370  0.124739  0.250000  1
  Al  Al28  1  0.999916  0.999832  0.750000  1
  Al  Al29  1  0.000837  0.001674  0.250000  1
  Ir  Ir30  1  0.499465  0.499681  0.000494  1
  Ir  Ir31  1  0.000216  0.499681  0.000494  1
  Ir  Ir32  1  0.499465  0.499681  0.499506  1
  Ir  Ir33  1  0.499880  0.999760  0.000152  1
  Ir  Ir34  1  0.000216  0.499681  0.499506  1
  Ir  Ir35  1  0.499880  0.999760  0.499848  1
  Ru  Ru36  1  0.000007  0.000014  0.000202  1
  Ru  Ru37  1  0.000007  0.000014  0.499798  1
