# generated using pymatgen
data_SmCoSb12Os2Ru
_symmetry_space_group_name_H-M   'P 1'
_cell_length_a   8.13299775
_cell_length_b   8.07765888
_cell_length_c   8.07134343
_cell_angle_alpha   109.32743075
_cell_angle_beta   109.62209102
_cell_angle_gamma   109.63087844
_symmetry_Int_Tables_number   1
_chemical_formula_structural   SmCoSb12Os2Ru
_chemical_formula_sum   'Sm1 Co1 Sb12 Os2 Ru1'
_cell_volume   407.34297680
_cell_formula_units_Z   1
loop_
 _symmetry_equiv_pos_site_id
 _symmetry_equiv_pos_as_xyz
  1  'x, y, z'
loop_
 _atom_site_type_symbol
 _atom_site_label
 _atom_site_symmetry_multiplicity
 _atom_site_fract_x
 _atom_site_fract_y
 _atom_site_fract_z
 _atom_site_occupancy
  Sm  Sm0  1  0.000000  0.000000  0.000000  1
  Co  Co1  1  0.500000  0.000000  0.000000  1
  Sb  Sb2  1  0.163540  0.822409  0.668942  1
  Sb  Sb3  1  0.836460  0.177591  0.331058  1
  Sb  Sb4  1  0.842991  0.504384  0.661705  1
  Sb  Sb5  1  0.157009  0.495616  0.338295  1
  Sb  Sb6  1  0.818618  0.660244  0.155618  1
  Sb  Sb7  1  0.181382  0.339756  0.844382  1
  Sb  Sb8  1  0.505354  0.668950  0.846629  1
  Sb  Sb9  1  0.494646  0.331050  0.153371  1
  Sb  Sb10  1  0.659911  0.154414  0.823175  1
  Sb  Sb11  1  0.340089  0.845586  0.176825  1
  Sb  Sb12  1  0.661613  0.843928  0.504351  1
  Sb  Sb13  1  0.338387  0.156072  0.495649  1
  Os  Os14  1  0.000000  0.000000  0.500000  1
  Os  Os15  1  0.500000  0.500000  0.500000  1
  Ru  Ru16  1  0.000000  0.500000  0.000000  1
