# generated using pymatgen
data_Y20(PdRh3)3
_symmetry_space_group_name_H-M   'P 1'
_cell_length_a   11.05850832
_cell_length_b   11.05850769
_cell_length_c   6.35215731
_cell_angle_alpha   90.02707746
_cell_angle_beta   90.02707666
_cell_angle_gamma   90.10105983
_symmetry_Int_Tables_number   1
_chemical_formula_structural   Y20(PdRh3)3
_chemical_formula_sum   'Y20 Pd3 Rh9'
_cell_volume   776.80774106
_cell_formula_units_Z   1
loop_
 _symmetry_equiv_pos_site_id
 _symmetry_equiv_pos_as_xyz
  1  'x, y, z'
loop_
 _atom_site_type_symbol
 _atom_site_label
 _atom_site_symmetry_multiplicity
 _atom_site_fract_x
 _atom_site_fract_y
 _atom_site_fract_z
 _atom_site_occupancy
  Y  Y0  1  0.290325  0.086136  0.379998  1
  Y  Y1  1  0.290401  0.914230  0.880261  1
  Y  Y2  1  0.709118  0.090433  0.880302  1
  Y  Y3  1  0.709490  0.914726  0.379966  1
  Y  Y4  1  0.591346  0.796009  0.872726  1
  Y  Y5  1  0.593162  0.207431  0.378231  1
  Y  Y6  1  0.408714  0.794689  0.373071  1
  Y  Y7  1  0.412009  0.206025  0.871008  1
  Y  Y8  1  0.203991  0.408654  0.627274  1
  Y  Y9  1  0.205311  0.591286  0.126929  1
  Y  Y10  1  0.792569  0.406838  0.121769  1
  Y  Y11  1  0.793975  0.587991  0.628992  1
  Y  Y12  1  0.913864  0.709675  0.120002  1
  Y  Y13  1  0.909567  0.290882  0.619698  1
  Y  Y14  1  0.085770  0.709599  0.619739  1
  Y  Y15  1  0.085274  0.290510  0.120034  1
  Y  Y16  1  0.999991  0.000384  0.500701  1
  Y  Y17  1  0.999616  0.000009  0.999299  1
  Y  Y18  1  0.502580  0.498007  0.999613  1
  Y  Y19  1  0.501993  0.497420  0.500387  1
  Pd  Pd20  1  0.655427  0.655685  0.249737  1
  Pd  Pd21  1  0.344315  0.344573  0.250263  1
  Pd  Pd22  1  0.345756  0.654244  0.750000  1
  Rh  Rh23  1  0.845658  0.154342  0.250000  1
  Rh  Rh24  1  0.844579  0.844272  0.749265  1
  Rh  Rh25  1  0.155728  0.155421  0.750735  1
  Rh  Rh26  1  0.155410  0.844590  0.250000  1
  Rh  Rh27  1  0.653426  0.346574  0.750000  1
  Rh  Rh28  1  0.499518  0.999513  0.126534  1
  Rh  Rh29  1  0.499807  0.999177  0.625089  1
  Rh  Rh30  1  0.000823  0.500193  0.874911  1
  Rh  Rh31  1  0.000487  0.500482  0.373466  1
