# generated using pymatgen
data_Co(RhS4)2
_symmetry_space_group_name_H-M   'P 1'
_cell_length_a   5.63759657
_cell_length_b   5.63895479
_cell_length_c   5.66191350
_cell_angle_alpha   90.50629893
_cell_angle_beta   90.37505979
_cell_angle_gamma   90.13207979
_symmetry_Int_Tables_number   1
_chemical_formula_structural   Co(RhS4)2
_chemical_formula_sum   'Co1 Rh2 S8'
_cell_volume   179.98170541
_cell_formula_units_Z   1
loop_
 _symmetry_equiv_pos_site_id
 _symmetry_equiv_pos_as_xyz
  1  'x, y, z'
loop_
 _atom_site_type_symbol
 _atom_site_label
 _atom_site_symmetry_multiplicity
 _atom_site_fract_x
 _atom_site_fract_y
 _atom_site_fract_z
 _atom_site_occupancy
  Co  Co0  1  0.500000  0.500000  0.000000  1
  Rh  Rh1  1  0.500000  0.000000  0.500000  1
  Rh  Rh2  1  0.000000  0.500000  0.500000  1
  S  S3  1  0.398401  0.883875  0.101009  1
  S  S4  1  0.886286  0.602074  0.103869  1
  S  S5  1  0.391976  0.392649  0.381833  1
  S  S6  1  0.893673  0.103173  0.390832  1
  S  S7  1  0.106328  0.896828  0.609169  1
  S  S8  1  0.608025  0.607352  0.618168  1
  S  S9  1  0.113715  0.397926  0.896131  1
  S  S10  1  0.601600  0.116125  0.898991  1
