# generated using pymatgen
data_CaBiPt2F14
_symmetry_space_group_name_H-M   'P 1'
_cell_length_a   5.62155730
_cell_length_b   9.17574500
_cell_length_c   12.28222860
_cell_angle_alpha   62.18910725
_cell_angle_beta   90.07175906
_cell_angle_gamma   89.77980337
_symmetry_Int_Tables_number   1
_chemical_formula_structural   CaBiPt2F14
_chemical_formula_sum   'Ca2 Bi2 Pt4 F28'
_cell_volume   560.35522336
_cell_formula_units_Z   2
loop_
 _symmetry_equiv_pos_site_id
 _symmetry_equiv_pos_as_xyz
  1  'x, y, z'
loop_
 _atom_site_type_symbol
 _atom_site_label
 _atom_site_symmetry_multiplicity
 _atom_site_fract_x
 _atom_site_fract_y
 _atom_site_fract_z
 _atom_site_occupancy
  Ca  Ca0  1  0.763592  0.189174  0.235537  1
  Ca  Ca1  1  0.236408  0.810826  0.764463  1
  Bi  Bi2  1  0.271436  0.830079  0.260668  1
  Bi  Bi3  1  0.728564  0.169921  0.739332  1
  Pt  Pt4  1  0.759403  0.723725  0.042282  1
  Pt  Pt5  1  0.240597  0.276275  0.957718  1
  Pt  Pt6  1  0.259727  0.271513  0.455445  1
  Pt  Pt7  1  0.740273  0.728487  0.544555  1
  F  F8  1  0.926797  0.707146  0.418982  1
  F  F9  1  0.073203  0.292854  0.581018  1
  F  F10  1  0.426413  0.295541  0.083728  1
  F  F11  1  0.573587  0.704459  0.916272  1
  F  F12  1  0.466183  0.726512  0.126871  1
  F  F13  1  0.533817  0.273488  0.873129  1
  F  F14  1  0.968938  0.271255  0.369850  1
  F  F15  1  0.031062  0.728745  0.630150  1
  F  F16  1  0.940897  0.739915  0.172092  1
  F  F17  1  0.059103  0.260085  0.827908  1
  F  F18  1  0.443925  0.255468  0.327390  1
  F  F19  1  0.556075  0.744532  0.672610  1
  F  F20  1  0.768495  0.485496  0.136961  1
  F  F21  1  0.231505  0.514504  0.863039  1
  F  F22  1  0.270280  0.509718  0.361420  1
  F  F23  1  0.729720  0.490282  0.638580  1
  F  F24  1  0.946919  0.282013  0.039492  1
  F  F25  1  0.053081  0.717987  0.960508  1
  F  F26  1  0.441524  0.722040  0.461606  1
  F  F27  1  0.558476  0.277960  0.538394  1
  F  F28  1  0.741994  0.967094  0.453470  1
  F  F29  1  0.258006  0.032906  0.546530  1
  F  F30  1  0.241830  0.032949  0.048810  1
  F  F31  1  0.758170  0.967051  0.951190  1
  F  F32  1  0.593899  0.966818  0.229829  1
  F  F33  1  0.406101  0.033182  0.770171  1
  F  F34  1  0.101678  0.030979  0.271585  1
  F  F35  1  0.898322  0.969021  0.728415  1
