# generated using pymatgen
data_NaEuScBr6
_symmetry_space_group_name_H-M   'P 1'
_cell_length_a   7.80176113
_cell_length_b   7.80167668
_cell_length_c   7.80129000
_cell_angle_alpha   55.99895677
_cell_angle_beta   55.99840952
_cell_angle_gamma   55.99741429
_symmetry_Int_Tables_number   1
_chemical_formula_structural   NaEuScBr6
_chemical_formula_sum   'Na1 Eu1 Sc1 Br6'
_cell_volume   304.63407812
_cell_formula_units_Z   1
loop_
 _symmetry_equiv_pos_site_id
 _symmetry_equiv_pos_as_xyz
  1  'x, y, z'
loop_
 _atom_site_type_symbol
 _atom_site_label
 _atom_site_symmetry_multiplicity
 _atom_site_fract_x
 _atom_site_fract_y
 _atom_site_fract_z
 _atom_site_occupancy
  Na  Na0  1  0.669915  0.669908  0.669913  1
  Eu  Eu1  1  0.330711  0.330707  0.330709  1
  Sc  Sc2  1  0.999677  0.999728  0.999689  1
  Br  Br3  1  0.223732  0.625578  0.913775  1
  Br  Br4  1  0.625579  0.913783  0.223711  1
  Br  Br5  1  0.913797  0.223713  0.625549  1
  Br  Br6  1  0.776371  0.374931  0.085324  1
  Br  Br7  1  0.374933  0.085278  0.776388  1
  Br  Br8  1  0.085289  0.776374  0.374941  1
