# generated using pymatgen
data_Ca3Pr4Nd(Ge3Rh4)2
_symmetry_space_group_name_H-M   'P 1'
_cell_length_a   11.00676527
_cell_length_b   11.01510774
_cell_length_c   7.94950145
_cell_angle_alpha   71.51186595
_cell_angle_beta   71.52039266
_cell_angle_gamma   30.33465992
_symmetry_Int_Tables_number   1
_chemical_formula_structural   Ca3Pr4Nd(Ge3Rh4)2
_chemical_formula_sum   'Ca3 Pr4 Nd1 Ge6 Rh8'
_cell_volume   459.75825862
_cell_formula_units_Z   1
loop_
 _symmetry_equiv_pos_site_id
 _symmetry_equiv_pos_as_xyz
  1  'x, y, z'
loop_
 _atom_site_type_symbol
 _atom_site_label
 _atom_site_symmetry_multiplicity
 _atom_site_fract_x
 _atom_site_fract_y
 _atom_site_fract_z
 _atom_site_occupancy
  Ca  Ca0  1  0.794794  0.070433  0.163741  1
  Ca  Ca1  1  0.073523  0.790964  0.671997  1
  Ca  Ca2  1  0.200353  0.931497  0.834041  1
  Pr  Pr3  1  0.221171  0.438381  0.399652  1
  Pr  Pr4  1  0.560053  0.781958  0.097344  1
  Pr  Pr5  1  0.439766  0.220955  0.899863  1
  Pr  Pr6  1  0.929236  0.199259  0.334972  1
  Nd  Nd7  1  0.777515  0.562508  0.602420  1
  Ge  Ge8  1  0.613926  0.386846  0.750923  1
  Ge  Ge9  1  0.381127  0.618519  0.247287  1
  Ge  Ge10  1  0.289683  0.054921  0.443158  1
  Ge  Ge11  1  0.948810  0.708741  0.059221  1
  Ge  Ge12  1  0.713337  0.945930  0.557696  1
  Ge  Ge13  1  0.053389  0.289978  0.938503  1
  Rh  Rh14  1  0.302629  0.574671  0.024840  1
  Rh  Rh15  1  0.578122  0.300529  0.524853  1
  Rh  Rh16  1  0.701543  0.421928  0.975764  1
  Rh  Rh17  1  0.065066  0.375170  0.188093  1
  Rh  Rh18  1  0.629242  0.927301  0.314503  1
  Rh  Rh19  1  0.421376  0.702870  0.471519  1
  Rh  Rh20  1  0.929343  0.627102  0.813294  1
  Rh  Rh21  1  0.375996  0.069537  0.686315  1
