# generated using pymatgen
data_YTmCo4(PRu)6
_symmetry_space_group_name_H-M   'P 1'
_cell_length_a   3.78366300
_cell_length_b   10.62013600
_cell_length_c   12.09688700
_cell_angle_alpha   90.00000000
_cell_angle_beta   90.00000000
_cell_angle_gamma   90.00000000
_symmetry_Int_Tables_number   1
_chemical_formula_structural   YTmCo4(PRu)6
_chemical_formula_sum   'Y2 Tm2 Co8 P12 Ru12'
_cell_volume   486.08939949
_cell_formula_units_Z   2
loop_
 _symmetry_equiv_pos_site_id
 _symmetry_equiv_pos_as_xyz
  1  'x, y, z'
loop_
 _atom_site_type_symbol
 _atom_site_label
 _atom_site_symmetry_multiplicity
 _atom_site_fract_x
 _atom_site_fract_y
 _atom_site_fract_z
 _atom_site_occupancy
  Y  Y0  1  0.250000  0.584438  0.706731  1
  Y  Y1  1  0.250000  0.915562  0.206731  1
  Tm  Tm2  1  0.750000  0.415480  0.293400  1
  Tm  Tm3  1  0.750000  0.084520  0.793400  1
  Co  Co4  1  0.250000  0.888721  0.696093  1
  Co  Co5  1  0.250000  0.611279  0.196093  1
  Co  Co6  1  0.750000  0.112681  0.304570  1
  Co  Co7  1  0.750000  0.387319  0.804570  1
  Co  Co8  1  0.250000  0.462501  0.935481  1
  Co  Co9  1  0.250000  0.037499  0.435481  1
  Co  Co10  1  0.750000  0.536723  0.065460  1
  Co  Co11  1  0.750000  0.963277  0.565460  1
  P  P12  1  0.250000  0.425691  0.113526  1
  P  P13  1  0.250000  0.074309  0.613526  1
  P  P14  1  0.750000  0.574422  0.887642  1
  P  P15  1  0.750000  0.925578  0.387642  1
  P  P16  1  0.250000  0.271103  0.871270  1
  P  P17  1  0.250000  0.228897  0.371270  1
  P  P18  1  0.750000  0.728228  0.128163  1
  P  P19  1  0.750000  0.771772  0.628163  1
  P  P20  1  0.250000  0.600415  0.386339  1
  P  P21  1  0.250000  0.899585  0.886339  1
  P  P22  1  0.750000  0.398535  0.613043  1
  P  P23  1  0.750000  0.101465  0.113043  1
  Ru  Ru24  1  0.250000  0.706232  0.986139  1
  Ru  Ru25  1  0.250000  0.793768  0.486139  1
  Ru  Ru26  1  0.750000  0.293682  0.013785  1
  Ru  Ru27  1  0.750000  0.206318  0.513785  1
  Ru  Ru28  1  0.250000  0.405282  0.484845  1
  Ru  Ru29  1  0.250000  0.094718  0.984845  1
  Ru  Ru30  1  0.750000  0.594185  0.513487  1
  Ru  Ru31  1  0.750000  0.905815  0.013487  1
  Ru  Ru32  1  0.250000  0.224496  0.180789  1
  Ru  Ru33  1  0.250000  0.275504  0.680789  1
  Ru  Ru34  1  0.750000  0.776630  0.819236  1
  Ru  Ru35  1  0.750000  0.723370  0.319236  1
