# generated using pymatgen
data_CePr5(HfSb5)2
_symmetry_space_group_name_H-M   'P 1'
_cell_length_a   9.53217798
_cell_length_b   9.53217865
_cell_length_c   6.36837600
_cell_angle_alpha   90.00000000
_cell_angle_beta   90.00000000
_cell_angle_gamma   120.13868452
_symmetry_Int_Tables_number   1
_chemical_formula_structural   CePr5(HfSb5)2
_chemical_formula_sum   'Ce1 Pr5 Hf2 Sb10'
_cell_volume   500.42042836
_cell_formula_units_Z   1
loop_
 _symmetry_equiv_pos_site_id
 _symmetry_equiv_pos_as_xyz
  1  'x, y, z'
loop_
 _atom_site_type_symbol
 _atom_site_label
 _atom_site_symmetry_multiplicity
 _atom_site_fract_x
 _atom_site_fract_y
 _atom_site_fract_z
 _atom_site_occupancy
  Ce  Ce0  1  0.617788  0.617788  0.750000  1
  Pr  Pr1  1  0.616824  0.999728  0.250000  1
  Pr  Pr2  1  0.382065  0.000449  0.750000  1
  Pr  Pr3  1  0.999728  0.616824  0.250000  1
  Pr  Pr4  1  0.000449  0.382065  0.750000  1
  Pr  Pr5  1  0.382447  0.382447  0.250000  1
  Hf  Hf6  1  0.000769  0.000769  0.000720  1
  Hf  Hf7  1  0.000769  0.000769  0.499280  1
  Sb  Sb8  1  0.261615  0.999901  0.250000  1
  Sb  Sb9  1  0.738271  0.997652  0.750000  1
  Sb  Sb10  1  0.999901  0.261615  0.250000  1
  Sb  Sb11  1  0.997652  0.738271  0.750000  1
  Sb  Sb12  1  0.737042  0.737042  0.250000  1
  Sb  Sb13  1  0.263117  0.263117  0.750000  1
  Sb  Sb14  1  0.334291  0.666489  0.999418  1
  Sb  Sb15  1  0.666489  0.334291  0.999418  1
  Sb  Sb16  1  0.666489  0.334291  0.500582  1
  Sb  Sb17  1  0.334291  0.666489  0.500582  1
