# generated using pymatgen
data_Li3InSiPt3
_symmetry_space_group_name_H-M   'P 1'
_cell_length_a   6.91444394
_cell_length_b   6.91444348
_cell_length_c   6.91444315
_cell_angle_alpha   61.88475696
_cell_angle_beta   61.88476306
_cell_angle_gamma   61.88477527
_symmetry_Int_Tables_number   1
_chemical_formula_structural   Li3InSiPt3
_chemical_formula_sum   'Li6 In2 Si2 Pt6'
_cell_volume   243.61539757
_cell_formula_units_Z   2
loop_
 _symmetry_equiv_pos_site_id
 _symmetry_equiv_pos_as_xyz
  1  'x, y, z'
loop_
 _atom_site_type_symbol
 _atom_site_label
 _atom_site_symmetry_multiplicity
 _atom_site_fract_x
 _atom_site_fract_y
 _atom_site_fract_z
 _atom_site_occupancy
  Li  Li0  1  0.563780  0.830709  0.341830  1
  Li  Li1  1  0.341830  0.563780  0.830709  1
  Li  Li2  1  0.830709  0.341830  0.563780  1
  Li  Li3  1  0.658170  0.169291  0.436220  1
  Li  Li4  1  0.169291  0.436220  0.658170  1
  Li  Li5  1  0.436220  0.658170  0.169291  1
  In  In6  1  0.283496  0.283496  0.283496  1
  In  In7  1  0.716504  0.716504  0.716504  1
  Si  Si8  1  0.899543  0.899543  0.899543  1
  Si  Si9  1  0.100457  0.100457  0.100457  1
  Pt  Pt10  1  0.896354  0.500000  0.103646  1
  Pt  Pt11  1  0.103646  0.896354  0.500000  1
  Pt  Pt12  1  0.500000  0.103646  0.896354  1
  Pt  Pt13  1  0.256397  0.000000  0.743603  1
  Pt  Pt14  1  0.743603  0.256397  0.000000  1
  Pt  Pt15  1  0.000000  0.743603  0.256397  1
