# generated using pymatgen
data_Hf4TiV2Si4Mo
_symmetry_space_group_name_H-M   'P 1'
_cell_length_a   3.54790100
_cell_length_b   6.82691684
_cell_length_c   8.16862002
_cell_angle_alpha   89.94336592
_cell_angle_beta   90.00000000
_cell_angle_gamma   90.00000000
_symmetry_Int_Tables_number   1
_chemical_formula_structural   Hf4TiV2Si4Mo
_chemical_formula_sum   'Hf4 Ti1 V2 Si4 Mo1'
_cell_volume   197.85388754
_cell_formula_units_Z   1
loop_
 _symmetry_equiv_pos_site_id
 _symmetry_equiv_pos_as_xyz
  1  'x, y, z'
loop_
 _atom_site_type_symbol
 _atom_site_label
 _atom_site_symmetry_multiplicity
 _atom_site_fract_x
 _atom_site_fract_y
 _atom_site_fract_z
 _atom_site_occupancy
  Hf  Hf0  1  0.750000  0.453877  0.161979  1
  Hf  Hf1  1  0.750000  0.956444  0.328711  1
  Hf  Hf2  1  0.250000  0.547272  0.835570  1
  Hf  Hf3  1  0.250000  0.050150  0.666996  1
  Ti  Ti4  1  0.250000  0.625552  0.441970  1
  V  V5  1  0.750000  0.876110  0.943252  1
  V  V6  1  0.250000  0.123759  0.058152  1
  Si  Si7  1  0.750000  0.242095  0.867771  1
  Si  Si8  1  0.750000  0.747946  0.644295  1
  Si  Si9  1  0.250000  0.757431  0.134278  1
  Si  Si10  1  0.250000  0.252891  0.357516  1
  Mo  Mo11  1  0.750000  0.366472  0.559509  1
