# generated using pymatgen
data_Ca20AgRh3
_symmetry_space_group_name_H-M   'P 1'
_cell_length_a   6.87524926
_cell_length_b   7.56184315
_cell_length_c   16.16552700
_cell_angle_alpha   90.00000000
_cell_angle_beta   90.00000000
_cell_angle_gamma   89.82204324
_symmetry_Int_Tables_number   1
_chemical_formula_structural   Ca20AgRh3
_chemical_formula_sum   'Ca20 Ag1 Rh3'
_cell_volume   840.43452612
_cell_formula_units_Z   1
loop_
 _symmetry_equiv_pos_site_id
 _symmetry_equiv_pos_as_xyz
  1  'x, y, z'
loop_
 _atom_site_type_symbol
 _atom_site_label
 _atom_site_symmetry_multiplicity
 _atom_site_fract_x
 _atom_site_fract_y
 _atom_site_fract_z
 _atom_site_occupancy
  Ca  Ca0  1  0.350902  0.311209  0.056334  1
  Ca  Ca1  1  0.644580  0.689643  0.933692  1
  Ca  Ca2  1  0.854199  0.190624  0.934894  1
  Ca  Ca3  1  0.644580  0.689643  0.566308  1
  Ca  Ca4  1  0.152428  0.814162  0.060991  1
  Ca  Ca5  1  0.350902  0.311209  0.443666  1
  Ca  Ca6  1  0.152428  0.814162  0.439009  1
  Ca  Ca7  1  0.854199  0.190624  0.565106  1
  Ca  Ca8  1  0.133502  0.091258  0.250000  1
  Ca  Ca9  1  0.842260  0.908364  0.750000  1
  Ca  Ca10  1  0.656691  0.406501  0.750000  1
  Ca  Ca11  1  0.334159  0.609672  0.250000  1
  Ca  Ca12  1  0.322321  0.034840  0.646772  1
  Ca  Ca13  1  0.678915  0.947382  0.360831  1
  Ca  Ca14  1  0.837151  0.471282  0.360192  1
  Ca  Ca15  1  0.678915  0.947382  0.139169  1
  Ca  Ca16  1  0.176808  0.535234  0.646505  1
  Ca  Ca17  1  0.322321  0.034840  0.853228  1
  Ca  Ca18  1  0.176808  0.535234  0.853495  1
  Ca  Ca19  1  0.837151  0.471282  0.139808  1
  Ag  Ag20  1  0.545580  0.255414  0.250000  1
  Rh  Rh21  1  0.465187  0.739746  0.750000  1
  Rh  Rh22  1  0.034231  0.239941  0.750000  1
  Rh  Rh23  1  0.953780  0.760350  0.250000  1
