# generated using pymatgen
data_YTm3(Fe5P3)4
_symmetry_space_group_name_H-M   'P 1'
_cell_length_a   3.64260400
_cell_length_b   10.25082606
_cell_length_c   11.80173370
_cell_angle_alpha   90.02450397
_cell_angle_beta   90.00000000
_cell_angle_gamma   90.00000000
_symmetry_Int_Tables_number   1
_chemical_formula_structural   YTm3(Fe5P3)4
_chemical_formula_sum   'Y1 Tm3 Fe20 P12'
_cell_volume   440.67315561
_cell_formula_units_Z   1
loop_
 _symmetry_equiv_pos_site_id
 _symmetry_equiv_pos_as_xyz
  1  'x, y, z'
loop_
 _atom_site_type_symbol
 _atom_site_label
 _atom_site_symmetry_multiplicity
 _atom_site_fract_x
 _atom_site_fract_y
 _atom_site_fract_z
 _atom_site_occupancy
  Y  Y0  1  0.750000  0.080884  0.795182  1
  Tm  Tm1  1  0.250000  0.580148  0.704621  1
  Tm  Tm2  1  0.250000  0.919544  0.204488  1
  Tm  Tm3  1  0.750000  0.419517  0.295496  1
  Fe  Fe4  1  0.250000  0.708059  0.989590  1
  Fe  Fe5  1  0.250000  0.791193  0.488608  1
  Fe  Fe6  1  0.750000  0.291909  0.011378  1
  Fe  Fe7  1  0.750000  0.208413  0.510841  1
  Fe  Fe8  1  0.250000  0.405530  0.489788  1
  Fe  Fe9  1  0.250000  0.094665  0.991085  1
  Fe  Fe10  1  0.750000  0.594185  0.510159  1
  Fe  Fe11  1  0.750000  0.905141  0.010818  1
  Fe  Fe12  1  0.250000  0.219705  0.176772  1
  Fe  Fe13  1  0.250000  0.281311  0.676275  1
  Fe  Fe14  1  0.750000  0.780151  0.823442  1
  Fe  Fe15  1  0.750000  0.719177  0.323435  1
  Fe  Fe16  1  0.250000  0.874616  0.700866  1
  Fe  Fe17  1  0.250000  0.624140  0.201848  1
  Fe  Fe18  1  0.750000  0.124606  0.298077  1
  Fe  Fe19  1  0.750000  0.376890  0.798620  1
  Fe  Fe20  1  0.250000  0.463877  0.932863  1
  Fe  Fe21  1  0.250000  0.036814  0.431094  1
  Fe  Fe22  1  0.750000  0.536860  0.068075  1
  Fe  Fe23  1  0.750000  0.962492  0.566573  1
  P  P24  1  0.250000  0.422046  0.113460  1
  P  P25  1  0.250000  0.078201  0.611244  1
  P  P26  1  0.750000  0.578087  0.887112  1
  P  P27  1  0.750000  0.921941  0.386164  1
  P  P28  1  0.250000  0.266650  0.872248  1
  P  P29  1  0.250000  0.235140  0.371413  1
  P  P30  1  0.750000  0.734742  0.128974  1
  P  P31  1  0.750000  0.764660  0.628288  1
  P  P32  1  0.250000  0.600079  0.396034  1
  P  P33  1  0.250000  0.898584  0.896877  1
  P  P34  1  0.750000  0.399741  0.604075  1
  P  P35  1  0.750000  0.100305  0.104120  1
