# generated using pymatgen
data_Lu16CdIn3Rh4
_symmetry_space_group_name_H-M   'P 1'
_cell_length_a   9.45326617
_cell_length_b   9.45360129
_cell_length_c   9.45207303
_cell_angle_alpha   60.01338887
_cell_angle_beta   60.00995276
_cell_angle_gamma   60.02473034
_symmetry_Int_Tables_number   1
_chemical_formula_structural   Lu16CdIn3Rh4
_chemical_formula_sum   'Lu16 Cd1 In3 Rh4'
_cell_volume   597.51520182
_cell_formula_units_Z   1
loop_
 _symmetry_equiv_pos_site_id
 _symmetry_equiv_pos_as_xyz
  1  'x, y, z'
loop_
 _atom_site_type_symbol
 _atom_site_label
 _atom_site_symmetry_multiplicity
 _atom_site_fract_x
 _atom_site_fract_y
 _atom_site_fract_z
 _atom_site_occupancy
  Lu  Lu0  1  0.600052  0.600044  0.600078  1
  Lu  Lu1  1  0.600087  0.600083  0.199653  1
  Lu  Lu2  1  0.600126  0.199666  0.600137  1
  Lu  Lu3  1  0.199666  0.600116  0.600132  1
  Lu  Lu4  1  0.059258  0.440753  0.440744  1
  Lu  Lu5  1  0.439981  0.060079  0.060034  1
  Lu  Lu6  1  0.440753  0.059247  0.440754  1
  Lu  Lu7  1  0.060065  0.439996  0.060041  1
  Lu  Lu8  1  0.440726  0.440739  0.059255  1
  Lu  Lu9  1  0.060078  0.060078  0.439987  1
  Lu  Lu10  1  0.186242  0.812189  0.812227  1
  Lu  Lu11  1  0.811868  0.188006  0.188001  1
  Lu  Lu12  1  0.812191  0.186251  0.812214  1
  Lu  Lu13  1  0.187999  0.811859  0.188017  1
  Lu  Lu14  1  0.812230  0.812223  0.186205  1
  Lu  Lu15  1  0.188005  0.187996  0.811834  1
  Cd  Cd16  1  0.833655  0.833625  0.833631  1
  In  In17  1  0.833673  0.833674  0.499767  1
  In  In18  1  0.833676  0.499758  0.833684  1
  In  In19  1  0.499743  0.833690  0.833673  1
  Rh  Rh20  1  0.392417  0.392401  0.392410  1
  Rh  Rh21  1  0.392333  0.392360  0.822829  1
  Rh  Rh22  1  0.392341  0.822830  0.392356  1
  Rh  Rh23  1  0.822834  0.392339  0.392340  1
