# generated using pymatgen
data_Dy3Ho(Er2Ir)4
_symmetry_space_group_name_H-M   'P 1'
_cell_length_a   6.35953266
_cell_length_b   7.21906669
_cell_length_c   9.10419500
_cell_angle_alpha   90.00000000
_cell_angle_beta   90.00000000
_cell_angle_gamma   89.99893255
_symmetry_Int_Tables_number   1
_chemical_formula_structural   Dy3Ho(Er2Ir)4
_chemical_formula_sum   'Dy3 Ho1 Er8 Ir4'
_cell_volume   417.97259481
_cell_formula_units_Z   1
loop_
 _symmetry_equiv_pos_site_id
 _symmetry_equiv_pos_as_xyz
  1  'x, y, z'
loop_
 _atom_site_type_symbol
 _atom_site_label
 _atom_site_symmetry_multiplicity
 _atom_site_fract_x
 _atom_site_fract_y
 _atom_site_fract_z
 _atom_site_occupancy
  Dy  Dy0  1  0.629415  0.034142  0.250000  1
  Dy  Dy1  1  0.129312  0.466148  0.750000  1
  Dy  Dy2  1  0.370535  0.966075  0.750000  1
  Ho  Ho3  1  0.871327  0.533715  0.250000  1
  Er  Er4  1  0.328256  0.676980  0.062374  1
  Er  Er5  1  0.171707  0.176998  0.437708  1
  Er  Er6  1  0.671520  0.323053  0.562253  1
  Er  Er7  1  0.828368  0.822966  0.937754  1
  Er  Er8  1  0.671520  0.323053  0.937747  1
  Er  Er9  1  0.828368  0.822966  0.562246  1
  Er  Er10  1  0.328256  0.676980  0.437626  1
  Er  Er11  1  0.171707  0.176998  0.062292  1
  Ir  Ir12  1  0.045524  0.882747  0.250000  1
  Ir  Ir13  1  0.454538  0.383611  0.250000  1
  Ir  Ir14  1  0.954187  0.116776  0.750000  1
  Ir  Ir15  1  0.545459  0.616790  0.750000  1
