# generated using pymatgen
data_NdY2Ta(Co4P3)2
_symmetry_space_group_name_H-M   'P 1'
_cell_length_a   3.73375200
_cell_length_b   10.68715800
_cell_length_c   12.39588200
_cell_angle_alpha   90.00000000
_cell_angle_beta   90.00000000
_cell_angle_gamma   90.00000000
_symmetry_Int_Tables_number   1
_chemical_formula_structural   NdY2Ta(Co4P3)2
_chemical_formula_sum   'Nd2 Y4 Ta2 Co16 P12'
_cell_volume   494.63532834
_cell_formula_units_Z   2
loop_
 _symmetry_equiv_pos_site_id
 _symmetry_equiv_pos_as_xyz
  1  'x, y, z'
loop_
 _atom_site_type_symbol
 _atom_site_label
 _atom_site_symmetry_multiplicity
 _atom_site_fract_x
 _atom_site_fract_y
 _atom_site_fract_z
 _atom_site_occupancy
  Nd  Nd0  1  0.000000  0.500000  0.527275  1
  Nd  Nd1  1  0.500000  0.000000  0.472725  1
  Y  Y2  1  0.500000  0.820037  0.203703  1
  Y  Y3  1  0.500000  0.179963  0.203703  1
  Y  Y4  1  0.000000  0.679963  0.796297  1
  Y  Y5  1  0.000000  0.320037  0.796297  1
  Ta  Ta6  1  0.500000  0.500000  0.153938  1
  Ta  Ta7  1  0.000000  0.000000  0.846062  1
  Co  Co8  1  0.500000  0.500000  0.705113  1
  Co  Co9  1  0.000000  0.000000  0.294887  1
  Co  Co10  1  0.000000  0.500000  0.986933  1
  Co  Co11  1  0.500000  0.000000  0.013067  1
  Co  Co12  1  0.500000  0.332472  0.992266  1
  Co  Co13  1  0.500000  0.667528  0.992266  1
  Co  Co14  1  0.000000  0.167528  0.007734  1
  Co  Co15  1  0.000000  0.832472  0.007734  1
  Co  Co16  1  0.500000  0.295152  0.431063  1
  Co  Co17  1  0.500000  0.704848  0.431063  1
  Co  Co18  1  0.000000  0.204848  0.568937  1
  Co  Co19  1  0.000000  0.795152  0.568937  1
  Co  Co20  1  0.500000  0.878475  0.707996  1
  Co  Co21  1  0.500000  0.121525  0.707996  1
  Co  Co22  1  0.000000  0.621525  0.292004  1
  Co  Co23  1  0.000000  0.378475  0.292004  1
  P  P24  1  0.500000  0.500000  0.883242  1
  P  P25  1  0.000000  0.000000  0.116758  1
  P  P26  1  0.500000  0.500000  0.352108  1
  P  P27  1  0.000000  0.000000  0.647892  1
  P  P28  1  0.500000  0.307592  0.616984  1
  P  P29  1  0.500000  0.692408  0.616984  1
  P  P30  1  0.000000  0.192408  0.383016  1
  P  P31  1  0.000000  0.807592  0.383016  1
  P  P32  1  0.500000  0.841439  0.894016  1
  P  P33  1  0.500000  0.158561  0.894016  1
  P  P34  1  0.000000  0.658561  0.105984  1
  P  P35  1  0.000000  0.341439  0.105984  1
