# generated using pymatgen
data_Tb3Zn5Ga19Pd9
_symmetry_space_group_name_H-M   'P 1'
_cell_length_a   8.44736515
_cell_length_b   8.44736637
_cell_length_c   8.47110700
_cell_angle_alpha   89.68686926
_cell_angle_beta   89.68687599
_cell_angle_gamma   89.68632249
_symmetry_Int_Tables_number   1
_chemical_formula_structural   Tb3Zn5Ga19Pd9
_chemical_formula_sum   'Tb3 Zn5 Ga19 Pd9'
_cell_volume   604.45413954
_cell_formula_units_Z   1
loop_
 _symmetry_equiv_pos_site_id
 _symmetry_equiv_pos_as_xyz
  1  'x, y, z'
loop_
 _atom_site_type_symbol
 _atom_site_label
 _atom_site_symmetry_multiplicity
 _atom_site_fract_x
 _atom_site_fract_y
 _atom_site_fract_z
 _atom_site_occupancy
  Tb  Tb0  1  0.999582  0.500192  0.999093  1
  Tb  Tb1  1  0.499808  0.000418  0.000907  1
  Tb  Tb2  1  0.001385  0.998615  0.500000  1
  Zn  Zn3  1  0.738087  0.500591  0.260539  1
  Zn  Zn4  1  0.261456  0.499004  0.736371  1
  Zn  Zn5  1  0.499409  0.261913  0.739461  1
  Zn  Zn6  1  0.500996  0.738544  0.263629  1
  Zn  Zn7  1  0.263401  0.736599  0.500000  1
  Ga  Ga8  1  0.995145  0.638865  0.638302  1
  Ga  Ga9  1  0.637910  0.640221  0.997033  1
  Ga  Ga10  1  0.638027  0.992326  0.641953  1
  Ga  Ga11  1  0.007674  0.361973  0.358047  1
  Ga  Ga12  1  0.359779  0.362090  0.002967  1
  Ga  Ga13  1  0.361135  0.004855  0.361698  1
  Ga  Ga14  1  0.736981  0.263019  0.500000  1
  Ga  Ga15  1  0.837397  0.134622  0.839176  1
  Ga  Ga16  1  0.134710  0.837484  0.837585  1
  Ga  Ga17  1  0.837685  0.838146  0.135900  1
  Ga  Ga18  1  0.162516  0.865290  0.162415  1
  Ga  Ga19  1  0.865378  0.162603  0.160824  1
  Ga  Ga20  1  0.161854  0.162315  0.864100  1
  Ga  Ga21  1  0.728949  0.488742  0.733280  1
  Ga  Ga22  1  0.482534  0.726626  0.729191  1
  Ga  Ga23  1  0.729722  0.728931  0.482958  1
  Ga  Ga24  1  0.273374  0.517466  0.270809  1
  Ga  Ga25  1  0.511258  0.271051  0.266720  1
  Ga  Ga26  1  0.271069  0.270278  0.517042  1
  Pd  Pd27  1  0.828330  0.828134  0.829353  1
  Pd  Pd28  1  0.171866  0.171670  0.170647  1
  Pd  Pd29  1  0.667623  0.332377  0.000000  1
  Pd  Pd30  1  0.997338  0.331049  0.665476  1
  Pd  Pd31  1  0.332274  0.998884  0.667967  1
  Pd  Pd32  1  0.331865  0.668135  0.000000  1
  Pd  Pd33  1  0.001116  0.667726  0.332033  1
  Pd  Pd34  1  0.668951  0.002662  0.334524  1
  Pd  Pd35  1  0.503415  0.496585  0.500000  1
