# generated using pymatgen
data_Yb3Pr16SmSn16
_symmetry_space_group_name_H-M   'P 1'
_cell_length_a   8.18827786
_cell_length_b   8.52318340
_cell_length_c   16.21664000
_cell_angle_alpha   90.00000000
_cell_angle_beta   90.00000000
_cell_angle_gamma   89.80472901
_symmetry_Int_Tables_number   1
_chemical_formula_structural   Yb3Pr16SmSn16
_chemical_formula_sum   'Yb3 Pr16 Sm1 Sn16'
_cell_volume   1131.75587827
_cell_formula_units_Z   1
loop_
 _symmetry_equiv_pos_site_id
 _symmetry_equiv_pos_as_xyz
  1  'x, y, z'
loop_
 _atom_site_type_symbol
 _atom_site_label
 _atom_site_symmetry_multiplicity
 _atom_site_fract_x
 _atom_site_fract_y
 _atom_site_fract_z
 _atom_site_occupancy
  Yb  Yb0  1  0.324948  0.997716  0.750000  1
  Yb  Yb1  1  0.177138  0.496191  0.250000  1
  Yb  Yb2  1  0.674722  0.002594  0.250000  1
  Pr  Pr3  1  0.653499  0.170357  0.624607  1
  Pr  Pr4  1  0.155673  0.329542  0.876412  1
  Pr  Pr5  1  0.345836  0.828173  0.124724  1
  Pr  Pr6  1  0.846395  0.667932  0.377389  1
  Pr  Pr7  1  0.345836  0.828173  0.375276  1
  Pr  Pr8  1  0.846395  0.667932  0.122611  1
  Pr  Pr9  1  0.653499  0.170357  0.875393  1
  Pr  Pr10  1  0.155673  0.329542  0.623588  1
  Pr  Pr11  1  0.497325  0.681678  0.597878  1
  Pr  Pr12  1  0.002117  0.818564  0.903149  1
  Pr  Pr13  1  0.500790  0.318066  0.096651  1
  Pr  Pr14  1  0.998348  0.185217  0.403833  1
  Pr  Pr15  1  0.500790  0.318066  0.403349  1
  Pr  Pr16  1  0.998348  0.185217  0.096167  1
  Pr  Pr17  1  0.497325  0.681678  0.902122  1
  Pr  Pr18  1  0.002117  0.818564  0.596851  1
  Sm  Sm19  1  0.824402  0.503757  0.750000  1
  Sn  Sn20  1  0.680248  0.961559  0.462343  1
  Sn  Sn21  1  0.187726  0.536558  0.038561  1
  Sn  Sn22  1  0.318080  0.037156  0.962545  1
  Sn  Sn23  1  0.814265  0.464718  0.542027  1
  Sn  Sn24  1  0.318080  0.037156  0.537455  1
  Sn  Sn25  1  0.814265  0.464718  0.957973  1
  Sn  Sn26  1  0.680248  0.961559  0.037657  1
  Sn  Sn27  1  0.187726  0.536558  0.461439  1
  Sn  Sn28  1  0.456015  0.394257  0.750000  1
  Sn  Sn29  1  0.957594  0.108742  0.750000  1
  Sn  Sn30  1  0.546092  0.605322  0.250000  1
  Sn  Sn31  1  0.042001  0.896099  0.250000  1
  Sn  Sn32  1  0.699350  0.855446  0.750000  1
  Sn  Sn33  1  0.193042  0.642703  0.750000  1
  Sn  Sn34  1  0.301433  0.140696  0.250000  1
  Sn  Sn35  1  0.802657  0.357437  0.250000  1
