# generated using pymatgen
data_Ce2Mn3Al20Pd
_symmetry_space_group_name_H-M   'P 1'
_cell_length_a   6.84966326
_cell_length_b   6.83994264
_cell_length_c   9.09275659
_cell_angle_alpha   89.72112341
_cell_angle_beta   89.77856900
_cell_angle_gamma   97.40521934
_symmetry_Int_Tables_number   1
_chemical_formula_structural   Ce2Mn3Al20Pd
_chemical_formula_sum   'Ce2 Mn3 Al20 Pd1'
_cell_volume   422.44501554
_cell_formula_units_Z   1
loop_
 _symmetry_equiv_pos_site_id
 _symmetry_equiv_pos_as_xyz
  1  'x, y, z'
loop_
 _atom_site_type_symbol
 _atom_site_label
 _atom_site_symmetry_multiplicity
 _atom_site_fract_x
 _atom_site_fract_y
 _atom_site_fract_z
 _atom_site_occupancy
  Ce  Ce0  1  0.880133  0.129827  0.753156  1
  Ce  Ce1  1  0.119867  0.870173  0.246844  1
  Mn  Mn2  1  0.500000  0.000000  0.000000  1
  Mn  Mn3  1  0.000000  0.500000  0.000000  1
  Mn  Mn4  1  0.000000  0.500000  0.500000  1
  Al  Al5  1  0.590456  0.862310  0.244286  1
  Al  Al6  1  0.779817  0.519190  0.250210  1
  Al  Al7  1  0.161015  0.840315  0.901977  1
  Al  Al8  1  0.409544  0.137690  0.755714  1
  Al  Al9  1  0.625733  0.375861  0.951993  1
  Al  Al10  1  0.847429  0.164386  0.398613  1
  Al  Al11  1  0.773997  0.771850  0.999372  1
  Al  Al12  1  0.867279  0.587972  0.751215  1
  Al  Al13  1  0.838985  0.159685  0.098023  1
  Al  Al14  1  0.220183  0.480810  0.749790  1
  Al  Al15  1  0.152571  0.835614  0.601387  1
  Al  Al16  1  0.778892  0.766973  0.496335  1
  Al  Al17  1  0.477515  0.223160  0.241299  1
  Al  Al18  1  0.628808  0.384086  0.552108  1
  Al  Al19  1  0.221108  0.233027  0.503665  1
  Al  Al20  1  0.371192  0.615914  0.447892  1
  Al  Al21  1  0.132721  0.412028  0.248785  1
  Al  Al22  1  0.522485  0.776840  0.758701  1
  Al  Al23  1  0.374267  0.624139  0.048007  1
  Al  Al24  1  0.226003  0.228150  0.000628  1
  Pd  Pd25  1  0.500000  0.000000  0.500000  1
