# generated using pymatgen
data_Sr2CaAcSi8
_symmetry_space_group_name_H-M   'P 1'
_cell_length_a   4.46038600
_cell_length_b   4.46038600
_cell_length_c   13.73588900
_cell_angle_alpha   90.00000000
_cell_angle_beta   90.00000000
_cell_angle_gamma   90.00000000
_symmetry_Int_Tables_number   1
_chemical_formula_structural   Sr2CaAcSi8
_chemical_formula_sum   'Sr2 Ca1 Ac1 Si8'
_cell_volume   273.27610599
_cell_formula_units_Z   1
loop_
 _symmetry_equiv_pos_site_id
 _symmetry_equiv_pos_as_xyz
  1  'x, y, z'
loop_
 _atom_site_type_symbol
 _atom_site_label
 _atom_site_symmetry_multiplicity
 _atom_site_fract_x
 _atom_site_fract_y
 _atom_site_fract_z
 _atom_site_occupancy
  Sr  Sr0  1  0.500000  0.000000  0.752228  1
  Sr  Sr1  1  0.000000  0.500000  0.247772  1
  Ca  Ca2  1  0.500000  0.500000  0.000000  1
  Ac  Ac3  1  0.000000  0.000000  0.500000  1
  Si  Si4  1  0.000000  0.000000  0.916716  1
  Si  Si5  1  0.500000  0.500000  0.415482  1
  Si  Si6  1  0.000000  0.500000  0.837564  1
  Si  Si7  1  0.500000  0.000000  0.332212  1
  Si  Si8  1  0.000000  0.000000  0.083284  1
  Si  Si9  1  0.500000  0.500000  0.584518  1
  Si  Si10  1  0.500000  0.000000  0.162436  1
  Si  Si11  1  0.000000  0.500000  0.667788  1
