# generated using pymatgen
data_LuPa(BiRh)2
_symmetry_space_group_name_H-M   'P 1'
_cell_length_a   4.72100500
_cell_length_b   6.67406700
_cell_length_c   9.36611700
_cell_angle_alpha   90.00000000
_cell_angle_beta   90.00000000
_cell_angle_gamma   90.00000000
_symmetry_Int_Tables_number   1
_chemical_formula_structural   LuPa(BiRh)2
_chemical_formula_sum   'Lu2 Pa2 Bi4 Rh4'
_cell_volume   295.11045871
_cell_formula_units_Z   2
loop_
 _symmetry_equiv_pos_site_id
 _symmetry_equiv_pos_as_xyz
  1  'x, y, z'
loop_
 _atom_site_type_symbol
 _atom_site_label
 _atom_site_symmetry_multiplicity
 _atom_site_fract_x
 _atom_site_fract_y
 _atom_site_fract_z
 _atom_site_occupancy
  Lu  Lu0  1  0.000000  0.011400  0.375135  1
  Lu  Lu1  1  0.499999  0.511401  0.624865  1
  Pa  Pa2  1  0.499999  0.487550  0.126564  1
  Pa  Pa3  1  0.000000  0.987550  0.873436  1
  Bi  Bi4  1  0.499999  0.984989  0.133847  1
  Bi  Bi5  1  0.000000  0.510336  0.385084  1
  Bi  Bi6  1  0.499999  0.010336  0.614915  1
  Bi  Bi7  1  0.000000  0.484988  0.866153  1
  Rh  Rh8  1  0.000000  0.735372  0.115317  1
  Rh  Rh9  1  0.499999  0.270351  0.358027  1
  Rh  Rh10  1  0.000000  0.770352  0.641973  1
  Rh  Rh11  1  0.499999  0.235375  0.884683  1
