# generated using pymatgen
data_Sm2ErTm(B6Ru)2
_symmetry_space_group_name_H-M   'P 1'
_cell_length_a   3.67746600
_cell_length_b   9.15879206
_cell_length_c   11.56615908
_cell_angle_alpha   90.01355178
_cell_angle_beta   90.00000000
_cell_angle_gamma   90.00000000
_symmetry_Int_Tables_number   1
_chemical_formula_structural   Sm2ErTm(B6Ru)2
_chemical_formula_sum   'Sm4 Er2 Tm2 B24 Ru4'
_cell_volume   389.56148658
_cell_formula_units_Z   2
loop_
 _symmetry_equiv_pos_site_id
 _symmetry_equiv_pos_as_xyz
  1  'x, y, z'
loop_
 _atom_site_type_symbol
 _atom_site_label
 _atom_site_symmetry_multiplicity
 _atom_site_fract_x
 _atom_site_fract_y
 _atom_site_fract_z
 _atom_site_occupancy
  Sm  Sm0  1  0.000000  0.322536  0.414331  1
  Sm  Sm1  1  0.000000  0.677464  0.585669  1
  Sm  Sm2  1  0.000000  0.822288  0.085576  1
  Sm  Sm3  1  0.000000  0.177712  0.914424  1
  Er  Er4  1  0.000000  0.944002  0.372000  1
  Er  Er5  1  0.000000  0.055998  0.628000  1
  Tm  Tm6  1  0.000000  0.444031  0.127912  1
  Tm  Tm7  1  0.000000  0.555969  0.872088  1
  B  B8  1  0.500000  0.555607  0.431376  1
  B  B9  1  0.500000  0.444393  0.568624  1
  B  B10  1  0.500000  0.055712  0.068557  1
  B  B11  1  0.500000  0.944288  0.931443  1
  B  B12  1  0.500000  0.749602  0.417991  1
  B  B13  1  0.500000  0.250398  0.582009  1
  B  B14  1  0.500000  0.250018  0.081972  1
  B  B15  1  0.500000  0.749982  0.918028  1
  B  B16  1  0.500000  0.790950  0.266196  1
  B  B17  1  0.500000  0.209050  0.733804  1
  B  B18  1  0.500000  0.291418  0.233643  1
  B  B19  1  0.500000  0.708582  0.766357  1
  B  B20  1  0.500000  0.630568  0.184533  1
  B  B21  1  0.500000  0.369432  0.815467  1
  B  B22  1  0.500000  0.130962  0.315228  1
  B  B23  1  0.500000  0.869038  0.684772  1
  B  B24  1  0.500000  0.984820  0.213672  1
  B  B25  1  0.500000  0.015180  0.786328  1
  B  B26  1  0.500000  0.484541  0.286026  1
  B  B27  1  0.500000  0.515459  0.713974  1
  B  B28  1  0.500000  0.602962  0.028119  1
  B  B29  1  0.500000  0.397038  0.971881  1
  B  B30  1  0.500000  0.103572  0.471738  1
  B  B31  1  0.500000  0.896428  0.528262  1
  Ru  Ru32  1  0.000000  0.638791  0.319540  1
  Ru  Ru33  1  0.000000  0.361209  0.680460  1
  Ru  Ru34  1  0.000000  0.139464  0.180095  1
  Ru  Ru35  1  0.000000  0.860536  0.819905  1
