# generated using pymatgen
data_Ho2Er6B24IrRh3
_symmetry_space_group_name_H-M   'P 1'
_cell_length_a   3.63306900
_cell_length_b   9.14369731
_cell_length_c   11.47083800
_cell_angle_alpha   90.05651871
_cell_angle_beta   90.00000000
_cell_angle_gamma   90.00000000
_symmetry_Int_Tables_number   1
_chemical_formula_structural   Ho2Er6B24IrRh3
_chemical_formula_sum   'Ho2 Er6 B24 Ir1 Rh3'
_cell_volume   381.05741949
_cell_formula_units_Z   1
loop_
 _symmetry_equiv_pos_site_id
 _symmetry_equiv_pos_as_xyz
  1  'x, y, z'
loop_
 _atom_site_type_symbol
 _atom_site_label
 _atom_site_symmetry_multiplicity
 _atom_site_fract_x
 _atom_site_fract_y
 _atom_site_fract_z
 _atom_site_occupancy
  Ho  Ho0  1  0.500000  0.322936  0.413974  1
  Ho  Ho1  1  0.500000  0.677111  0.586690  1
  Er  Er2  1  0.500000  0.178125  0.912596  1
  Er  Er3  1  0.500000  0.821665  0.086515  1
  Er  Er4  1  0.500000  0.445487  0.126255  1
  Er  Er5  1  0.500000  0.555582  0.873178  1
  Er  Er6  1  0.500000  0.055628  0.626741  1
  Er  Er7  1  0.500000  0.943658  0.374225  1
  B  B8  1  0.000000  0.110282  0.469963  1
  B  B9  1  0.000000  0.889333  0.530234  1
  B  B10  1  0.000000  0.389664  0.969775  1
  B  B11  1  0.000000  0.610681  0.029956  1
  B  B12  1  0.000000  0.132717  0.315953  1
  B  B13  1  0.000000  0.866797  0.684197  1
  B  B14  1  0.000000  0.366594  0.815923  1
  B  B15  1  0.000000  0.633661  0.183727  1
  B  B16  1  0.000000  0.053860  0.065579  1
  B  B17  1  0.000000  0.946462  0.934454  1
  B  B18  1  0.000000  0.446465  0.565598  1
  B  B19  1  0.000000  0.553168  0.434515  1
  B  B20  1  0.000000  0.482641  0.286980  1
  B  B21  1  0.000000  0.517304  0.713064  1
  B  B22  1  0.000000  0.017737  0.787002  1
  B  B23  1  0.000000  0.982589  0.213461  1
  B  B24  1  0.000000  0.249797  0.079015  1
  B  B25  1  0.000000  0.750405  0.920687  1
  B  B26  1  0.000000  0.250661  0.579412  1
  B  B27  1  0.000000  0.749165  0.420666  1
  B  B28  1  0.000000  0.294425  0.234849  1
  B  B29  1  0.000000  0.705407  0.764574  1
  B  B30  1  0.000000  0.205319  0.735734  1
  B  B31  1  0.000000  0.794499  0.264193  1
  Ir  Ir32  1  0.500000  0.139350  0.178459  1
  Rh  Rh33  1  0.500000  0.861172  0.822069  1
  Rh  Rh34  1  0.500000  0.360004  0.679298  1
  Rh  Rh35  1  0.500000  0.639648  0.320492  1
