# generated using pymatgen
data_Ac10Si16Hg
_symmetry_space_group_name_H-M   'P 1'
_cell_length_a   12.13624063
_cell_length_b   12.05114095
_cell_length_c   12.13624020
_cell_angle_alpha   145.03072809
_cell_angle_beta   135.85720271
_cell_angle_gamma   57.65122669
_symmetry_Int_Tables_number   1
_chemical_formula_structural   Ac10Si16Hg
_chemical_formula_sum   'Ac10 Si16 Hg1'
_cell_volume   702.23926464
_cell_formula_units_Z   1
loop_
 _symmetry_equiv_pos_site_id
 _symmetry_equiv_pos_as_xyz
  1  'x, y, z'
loop_
 _atom_site_type_symbol
 _atom_site_label
 _atom_site_symmetry_multiplicity
 _atom_site_fract_x
 _atom_site_fract_y
 _atom_site_fract_z
 _atom_site_occupancy
  Ac  Ac0  1  0.750366  0.763943  0.515609  1
  Ac  Ac1  1  0.443585  0.971030  0.016096  1
  Ac  Ac2  1  0.849426  0.363918  0.016262  1
  Ac  Ac3  1  0.954933  0.971030  0.527444  1
  Ac  Ac4  1  0.149579  0.162768  0.513489  1
  Ac  Ac5  1  0.347657  0.363918  0.514494  1
  Ac  Ac6  1  0.248334  0.763943  0.013577  1
  Ac  Ac7  1  0.546872  0.557413  0.501990  1
  Ac  Ac8  1  0.055423  0.557413  0.010540  1
  Ac  Ac9  1  0.649278  0.162768  0.013188  1
  Si  Si10  1  0.197787  0.622904  0.425115  1
  Si  Si11  1  0.000064  0.092689  0.092625  1
  Si  Si12  1  0.701447  0.284196  0.582751  1
  Si  Si13  1  0.801794  0.219682  0.417889  1
  Si  Si14  1  0.898601  0.501549  0.602947  1
  Si  Si15  1  0.403240  0.836722  0.433482  1
  Si  Si16  1  0.100369  0.702864  0.602496  1
  Si  Si17  1  0.300165  0.893654  0.593489  1
  Si  Si18  1  0.597308  0.035958  0.438650  1
  Si  Si19  1  0.999009  0.434109  0.435100  1
  Si  Si20  1  0.894910  0.827148  0.932238  1
  Si  Si21  1  0.399746  0.500769  0.101024  1
  Si  Si22  1  0.103681  0.039950  0.936269  1
  Si  Si23  1  0.300831  0.231668  0.930838  1
  Si  Si24  1  0.498142  0.432154  0.934012  1
  Si  Si25  1  0.595943  0.703759  0.107816  1
  Hg  Hg26  1  0.711510  0.663582  0.952073  1
