# generated using pymatgen
data_Ho8In3Os
_symmetry_space_group_name_H-M   'P 1'
_cell_length_a   10.36128500
_cell_length_b   10.36128523
_cell_length_c   7.03774800
_cell_angle_alpha   90.00000000
_cell_angle_beta   90.00000000
_cell_angle_gamma   120.00000247
_symmetry_Int_Tables_number   1
_chemical_formula_structural   Ho8In3Os
_chemical_formula_sum   'Ho16 In6 Os2'
_cell_volume   654.32208917
_cell_formula_units_Z   2
loop_
 _symmetry_equiv_pos_site_id
 _symmetry_equiv_pos_as_xyz
  1  'x, y, z'
loop_
 _atom_site_type_symbol
 _atom_site_label
 _atom_site_symmetry_multiplicity
 _atom_site_fract_x
 _atom_site_fract_y
 _atom_site_fract_z
 _atom_site_occupancy
  Ho  Ho0  1  0.533245  0.066489  0.507677  1
  Ho  Ho1  1  0.933511  0.466755  0.507677  1
  Ho  Ho2  1  0.533245  0.466755  0.507677  1
  Ho  Ho3  1  0.466755  0.933511  0.007677  1
  Ho  Ho4  1  0.066489  0.533245  0.007677  1
  Ho  Ho5  1  0.466755  0.533245  0.007677  1
  Ho  Ho6  1  0.177315  0.354629  0.712557  1
  Ho  Ho7  1  0.645371  0.822685  0.712557  1
  Ho  Ho8  1  0.177315  0.822685  0.712557  1
  Ho  Ho9  1  0.822685  0.645371  0.212557  1
  Ho  Ho10  1  0.354629  0.177315  0.212557  1
  Ho  Ho11  1  0.822685  0.177315  0.212557  1
  Ho  Ho12  1  0.666667  0.333333  0.885016  1
  Ho  Ho13  1  0.333333  0.666667  0.385016  1
  Ho  Ho14  1  0.000000  0.000000  0.493501  1
  Ho  Ho15  1  0.000000  0.000000  0.993501  1
  In  In16  1  0.837289  0.674578  0.752151  1
  In  In17  1  0.325422  0.162711  0.752151  1
  In  In18  1  0.837289  0.162711  0.752151  1
  In  In19  1  0.162711  0.325422  0.252151  1
  In  In20  1  0.674578  0.837289  0.252151  1
  In  In21  1  0.162711  0.837289  0.252151  1
  Os  Os22  1  0.666667  0.333333  0.283351  1
  Os  Os23  1  0.333333  0.666667  0.783351  1
