# generated using pymatgen
data_Pm4Fe(CuO4)3
_symmetry_space_group_name_H-M   'P 1'
_cell_length_a   5.39774114
_cell_length_b   5.62546514
_cell_length_c   7.69557555
_cell_angle_alpha   90.29078733
_cell_angle_beta   89.92882266
_cell_angle_gamma   90.14119127
_symmetry_Int_Tables_number   1
_chemical_formula_structural   Pm4Fe(CuO4)3
_chemical_formula_sum   'Pm4 Fe1 Cu3 O12'
_cell_volume   233.67075232
_cell_formula_units_Z   1
loop_
 _symmetry_equiv_pos_site_id
 _symmetry_equiv_pos_as_xyz
  1  'x, y, z'
loop_
 _atom_site_type_symbol
 _atom_site_label
 _atom_site_symmetry_multiplicity
 _atom_site_fract_x
 _atom_site_fract_y
 _atom_site_fract_z
 _atom_site_occupancy
  Pm  Pm0  1  0.986681  0.063733  0.252748  1
  Pm  Pm1  1  0.516527  0.560537  0.252829  1
  Pm  Pm2  1  0.483475  0.439463  0.747171  1
  Pm  Pm3  1  0.013320  0.936266  0.747252  1
  Fe  Fe4  1  0.500001  0.000000  0.000000  1
  Cu  Cu5  1  0.000000  0.500000  0.000000  1
  Cu  Cu6  1  0.500001  0.000000  0.500000  1
  Cu  Cu7  1  0.000000  0.500000  0.500000  1
  O  O8  1  0.700836  0.295249  0.048254  1
  O  O9  1  0.796261  0.799259  0.047010  1
  O  O10  1  0.089486  0.477440  0.250399  1
  O  O11  1  0.411613  0.975993  0.250212  1
  O  O12  1  0.705262  0.295887  0.453611  1
  O  O13  1  0.795679  0.794950  0.453938  1
  O  O14  1  0.204320  0.205049  0.546062  1
  O  O15  1  0.294738  0.704111  0.546389  1
  O  O16  1  0.588389  0.024007  0.749788  1
  O  O17  1  0.910514  0.522559  0.749601  1
  O  O18  1  0.203738  0.200740  0.952990  1
  O  O19  1  0.299164  0.704749  0.951746  1
