# generated using pymatgen
data_NdSmPt10
_symmetry_space_group_name_H-M   'P 1'
_cell_length_a   4.44758400
_cell_length_b   5.42248500
_cell_length_c   9.35665400
_cell_angle_alpha   89.99998943
_cell_angle_beta   90.00000000
_cell_angle_gamma   90.00000000
_symmetry_Int_Tables_number   1
_chemical_formula_structural   NdSmPt10
_chemical_formula_sum   'Nd1 Sm1 Pt10'
_cell_volume   225.65402711
_cell_formula_units_Z   1
loop_
 _symmetry_equiv_pos_site_id
 _symmetry_equiv_pos_as_xyz
  1  'x, y, z'
loop_
 _atom_site_type_symbol
 _atom_site_label
 _atom_site_symmetry_multiplicity
 _atom_site_fract_x
 _atom_site_fract_y
 _atom_site_fract_z
 _atom_site_occupancy
  Nd  Nd0  1  0.000000  0.499997  0.500000  1
  Sm  Sm1  1  0.000000  0.999976  0.000000  1
  Pt  Pt2  1  0.000000  0.999975  0.332149  1
  Pt  Pt3  1  0.000000  0.499981  0.833359  1
  Pt  Pt4  1  0.000000  0.499981  0.166641  1
  Pt  Pt5  1  0.000000  0.999975  0.667851  1
  Pt  Pt6  1  0.500000  0.999985  0.500000  1
  Pt  Pt7  1  0.500000  0.499989  0.000000  1
  Pt  Pt8  1  0.500000  0.249776  0.249930  1
  Pt  Pt9  1  0.500000  0.750194  0.750071  1
  Pt  Pt10  1  0.500000  0.750194  0.249929  1
  Pt  Pt11  1  0.500000  0.249776  0.750070  1
