# generated using pymatgen
data_CeTh2(GeIr)3
_symmetry_space_group_name_H-M   'P 1'
_cell_length_a   7.29649158
_cell_length_b   7.30470209
_cell_length_c   4.01713000
_cell_angle_alpha   90.00000000
_cell_angle_beta   90.00000000
_cell_angle_gamma   120.03721139
_symmetry_Int_Tables_number   1
_chemical_formula_structural   CeTh2(GeIr)3
_chemical_formula_sum   'Ce1 Th2 Ge3 Ir3'
_cell_volume   185.35322377
_cell_formula_units_Z   1
loop_
 _symmetry_equiv_pos_site_id
 _symmetry_equiv_pos_as_xyz
  1  'x, y, z'
loop_
 _atom_site_type_symbol
 _atom_site_label
 _atom_site_symmetry_multiplicity
 _atom_site_fract_x
 _atom_site_fract_y
 _atom_site_fract_z
 _atom_site_occupancy
  Ce  Ce0  1  0.000000  0.588225  0.000000  1
  Th  Th1  1  0.412989  0.413373  0.000000  1
  Th  Th2  1  0.587011  0.000382  0.000000  1
  Ge  Ge3  1  0.000000  0.251495  0.500000  1
  Ge  Ge4  1  0.757359  0.753006  0.500000  1
  Ge  Ge5  1  0.242641  0.995647  0.500000  1
  Ir  Ir6  1  0.000000  0.001563  0.000000  1
  Ir  Ir7  1  0.667650  0.331979  0.500000  1
  Ir  Ir8  1  0.332350  0.664330  0.500000  1
