# generated using pymatgen
data_PrLu2BiO7
_symmetry_space_group_name_H-M   'P 1'
_cell_length_a   6.55766566
_cell_length_b   6.55986634
_cell_length_c   7.67439728
_cell_angle_alpha   106.96775958
_cell_angle_beta   89.99156037
_cell_angle_gamma   99.49519141
_symmetry_Int_Tables_number   1
_chemical_formula_structural   PrLu2BiO7
_chemical_formula_sum   'Pr2 Lu4 Bi2 O14'
_cell_volume   311.03229902
_cell_formula_units_Z   2
loop_
 _symmetry_equiv_pos_site_id
 _symmetry_equiv_pos_as_xyz
  1  'x, y, z'
loop_
 _atom_site_type_symbol
 _atom_site_label
 _atom_site_symmetry_multiplicity
 _atom_site_fract_x
 _atom_site_fract_y
 _atom_site_fract_z
 _atom_site_occupancy
  Pr  Pr0  1  0.740593  0.481275  0.622170  1
  Pr  Pr1  1  0.259407  0.518725  0.377830  1
  Lu  Lu2  1  0.467324  0.006421  0.248861  1
  Lu  Lu3  1  0.532676  0.993579  0.751139  1
  Lu  Lu4  1  0.277195  0.538430  0.886772  1
  Lu  Lu5  1  0.722805  0.461570  0.113228  1
  Bi  Bi6  1  0.000000  0.000000  0.500000  1
  Bi  Bi7  1  0.000000  0.000000  0.000000  1
  O  O8  1  0.459397  0.659040  0.156511  1
  O  O9  1  0.540603  0.340960  0.843489  1
  O  O10  1  0.302067  0.922589  0.952338  1
  O  O11  1  0.697933  0.077411  0.047662  1
  O  O12  1  0.303018  0.933301  0.514960  1
  O  O13  1  0.696982  0.066699  0.485040  1
  O  O14  1  0.549346  0.355271  0.330474  1
  O  O15  1  0.450654  0.644729  0.669526  1
  O  O16  1  0.925656  0.661619  0.959687  1
  O  O17  1  0.074344  0.338381  0.040313  1
  O  O18  1  0.080711  0.344979  0.629086  1
  O  O19  1  0.919289  0.655021  0.370914  1
  O  O20  1  0.867583  0.905978  0.725588  1
  O  O21  1  0.132417  0.094022  0.274412  1
