# generated using pymatgen
data_Pr6NdBi(SeO5)4
_symmetry_space_group_name_H-M   'P 1'
_cell_length_a   8.86391362
_cell_length_b   8.93722442
_cell_length_c   11.30797747
_cell_angle_alpha   91.32818700
_cell_angle_beta   88.81384976
_cell_angle_gamma   142.74777369
_symmetry_Int_Tables_number   1
_chemical_formula_structural   Pr6NdBi(SeO5)4
_chemical_formula_sum   'Pr6 Nd1 Bi1 Se4 O20'
_cell_volume   542.10318894
_cell_formula_units_Z   1
loop_
 _symmetry_equiv_pos_site_id
 _symmetry_equiv_pos_as_xyz
  1  'x, y, z'
loop_
 _atom_site_type_symbol
 _atom_site_label
 _atom_site_symmetry_multiplicity
 _atom_site_fract_x
 _atom_site_fract_y
 _atom_site_fract_z
 _atom_site_occupancy
  Pr  Pr0  1  0.249614  0.757014  0.389190  1
  Pr  Pr1  1  0.250959  0.750113  0.884193  1
  Pr  Pr2  1  0.753979  0.245204  0.120048  1
  Pr  Pr3  1  0.885207  0.069178  0.379536  1
  Pr  Pr4  1  0.069414  0.923685  0.613519  1
  Pr  Pr5  1  0.379149  0.577459  0.615774  1
  Nd  Nd6  1  0.751916  0.257922  0.609248  1
  Bi  Bi7  1  0.570088  0.416234  0.409514  1
  Se  Se8  1  0.397344  0.580166  0.122457  1
  Se  Se9  1  0.571116  0.385092  0.866323  1
  Se  Se10  1  0.887089  0.071559  0.868403  1
  Se  Se11  1  0.070786  0.878768  0.138155  1
  O  O12  1  0.152935  0.454037  0.212268  1
  O  O13  1  0.431897  0.125579  0.784387  1
  O  O14  1  0.646496  0.957762  0.784149  1
  O  O15  1  0.978112  0.641087  0.209106  1
  O  O16  1  0.570943  0.913563  0.512058  1
  O  O17  1  0.898946  0.583895  0.506821  1
  O  O18  1  0.068915  0.410970  0.484830  1
  O  O19  1  0.406412  0.091248  0.504387  1
  O  O20  1  0.129673  0.580250  0.712417  1
  O  O21  1  0.634599  0.074593  0.288043  1
  O  O22  1  0.489098  0.814938  0.046068  1
  O  O23  1  0.822321  0.494890  0.932366  1
  O  O24  1  0.174884  0.068168  0.253903  1
  O  O25  1  0.105590  0.202381  0.760500  1
  O  O26  1  0.707826  0.592817  0.756056  1
  O  O27  1  0.630220  0.737247  0.220731  1
  O  O28  1  0.241561  0.254030  0.502849  1
  O  O29  1  0.734571  0.749258  0.502398  1
  O  O30  1  0.341439  0.026257  0.065126  1
  O  O31  1  0.001942  0.319682  0.945178  1
