# generated using pymatgen
data_Dy7Er3Si5P
_symmetry_space_group_name_H-M   'P 1'
_cell_length_a   8.39434402
_cell_length_b   8.39962907
_cell_length_c   6.28598306
_cell_angle_alpha   90.01628066
_cell_angle_beta   89.99260919
_cell_angle_gamma   119.97697173
_symmetry_Int_Tables_number   1
_chemical_formula_structural   Dy7Er3Si5P
_chemical_formula_sum   'Dy7 Er3 Si5 P1'
_cell_volume   383.92944634
_cell_formula_units_Z   1
loop_
 _symmetry_equiv_pos_site_id
 _symmetry_equiv_pos_as_xyz
  1  'x, y, z'
loop_
 _atom_site_type_symbol
 _atom_site_label
 _atom_site_symmetry_multiplicity
 _atom_site_fract_x
 _atom_site_fract_y
 _atom_site_fract_z
 _atom_site_occupancy
  Dy  Dy0  1  0.000803  0.756630  0.750213  1
  Dy  Dy1  1  0.000623  0.244275  0.249819  1
  Dy  Dy2  1  0.756505  0.755532  0.249794  1
  Dy  Dy3  1  0.755035  0.000107  0.750170  1
  Dy  Dy4  1  0.244252  0.243184  0.750138  1
  Dy  Dy5  1  0.243883  0.000122  0.249843  1
  Dy  Dy6  1  0.333723  0.667538  0.500427  1
  Er  Er7  1  0.666470  0.332781  0.999987  1
  Er  Er8  1  0.666531  0.332877  0.499925  1
  Er  Er9  1  0.333659  0.667207  0.999857  1
  Si  Si10  1  0.395102  0.393953  0.249427  1
  Si  Si11  1  0.999930  0.605373  0.249365  1
  Si  Si12  1  0.999471  0.393880  0.750575  1
  Si  Si13  1  0.606124  0.605384  0.750560  1
  Si  Si14  1  0.606706  0.000609  0.249403  1
  P  P15  1  0.391185  0.000546  0.750496  1
