# generated using pymatgen
data_Sc10Sb6HSe
_symmetry_space_group_name_H-M   'P 1'
_cell_length_a   8.52851000
_cell_length_b   8.52850959
_cell_length_c   6.02583200
_cell_angle_alpha   90.00000000
_cell_angle_beta   90.00000000
_cell_angle_gamma   119.99998607
_symmetry_Int_Tables_number   1
_chemical_formula_structural   Sc10Sb6HSe
_chemical_formula_sum   'Sc10 Sb6 H1 Se1'
_cell_volume   379.57186812
_cell_formula_units_Z   1
loop_
 _symmetry_equiv_pos_site_id
 _symmetry_equiv_pos_as_xyz
  1  'x, y, z'
loop_
 _atom_site_type_symbol
 _atom_site_label
 _atom_site_symmetry_multiplicity
 _atom_site_fract_x
 _atom_site_fract_y
 _atom_site_fract_z
 _atom_site_occupancy
  Sc  Sc0  1  0.666667  0.333333  0.000000  1
  Sc  Sc1  1  0.333333  0.666667  0.000000  1
  Sc  Sc2  1  0.333333  0.666667  0.500000  1
  Sc  Sc3  1  0.666667  0.333333  0.500000  1
  Sc  Sc4  1  0.744767  0.744767  0.765852  1
  Sc  Sc5  1  0.255233  0.000000  0.765852  1
  Sc  Sc6  1  0.000000  0.255233  0.765852  1
  Sc  Sc7  1  0.255233  0.255233  0.234148  1
  Sc  Sc8  1  0.744767  0.000000  0.234148  1
  Sc  Sc9  1  0.000000  0.744767  0.234148  1
  Sb  Sb10  1  0.391531  0.391531  0.749443  1
  Sb  Sb11  1  0.608469  0.000000  0.749443  1
  Sb  Sb12  1  0.000000  0.608469  0.749443  1
  Sb  Sb13  1  0.608469  0.608469  0.250557  1
  Sb  Sb14  1  0.391531  0.000000  0.250557  1
  Sb  Sb15  1  0.000000  0.391531  0.250557  1
  H  H16  1  0.000000  0.000000  0.000000  1
  Se  Se17  1  0.000000  0.000000  0.500000  1
