# generated using pymatgen
data_NaSr2Re2H17
_symmetry_space_group_name_H-M   'P 1'
_cell_length_a   5.22731504
_cell_length_b   5.22731621
_cell_length_c   9.06625780
_cell_angle_alpha   89.59701390
_cell_angle_beta   90.40298375
_cell_angle_gamma   119.81442958
_symmetry_Int_Tables_number   1
_chemical_formula_structural   NaSr2Re2H17
_chemical_formula_sum   'Na1 Sr2 Re2 H17'
_cell_volume   214.93684025
_cell_formula_units_Z   1
loop_
 _symmetry_equiv_pos_site_id
 _symmetry_equiv_pos_as_xyz
  1  'x, y, z'
loop_
 _atom_site_type_symbol
 _atom_site_label
 _atom_site_symmetry_multiplicity
 _atom_site_fract_x
 _atom_site_fract_y
 _atom_site_fract_z
 _atom_site_occupancy
  Na  Na0  1  0.661045  0.338955  0.225547  1
  Sr  Sr1  1  0.991398  0.008602  0.985176  1
  Sr  Sr2  1  0.993070  0.006930  0.486999  1
  Re  Re3  1  0.323286  0.676714  0.255542  1
  Re  Re4  1  0.645218  0.354782  0.751530  1
  H  H5  1  0.520260  0.479740  0.893707  1
  H  H6  1  0.447715  0.552285  0.399515  1
  H  H7  1  0.519305  0.480695  0.611794  1
  H  H8  1  0.488684  0.962221  0.381710  1
  H  H9  1  0.914232  0.492380  0.620785  1
  H  H10  1  0.467262  0.909454  0.106446  1
  H  H11  1  0.926965  0.492696  0.878956  1
  H  H12  1  0.507620  0.085768  0.620785  1
  H  H13  1  0.037779  0.511316  0.381710  1
  H  H14  1  0.507304  0.073035  0.878956  1
  H  H15  1  0.090546  0.532738  0.106446  1
  H  H16  1  0.678933  0.768244  0.218965  1
  H  H17  1  0.808672  0.725713  0.746019  1
  H  H18  1  0.274287  0.191328  0.746019  1
  H  H19  1  0.231756  0.321067  0.218965  1
  H  H20  1  0.134883  0.865117  0.240115  1
  H  H21  1  0.829779  0.170221  0.744316  1
