# generated using pymatgen
data_Dy4MnNbOs6
_symmetry_space_group_name_H-M   'P 1'
_cell_length_a   5.29861654
_cell_length_b   5.29861773
_cell_length_c   8.91440000
_cell_angle_alpha   90.00000000
_cell_angle_beta   90.00000000
_cell_angle_gamma   117.87397113
_symmetry_Int_Tables_number   1
_chemical_formula_structural   Dy4MnNbOs6
_chemical_formula_sum   'Dy4 Mn1 Nb1 Os6'
_cell_volume   221.23748327
_cell_formula_units_Z   1
loop_
 _symmetry_equiv_pos_site_id
 _symmetry_equiv_pos_as_xyz
  1  'x, y, z'
loop_
 _atom_site_type_symbol
 _atom_site_label
 _atom_site_symmetry_multiplicity
 _atom_site_fract_x
 _atom_site_fract_y
 _atom_site_fract_z
 _atom_site_occupancy
  Dy  Dy0  1  0.328979  0.671021  0.440809  1
  Dy  Dy1  1  0.666960  0.333040  0.567994  1
  Dy  Dy2  1  0.666960  0.333040  0.932006  1
  Dy  Dy3  1  0.328979  0.671021  0.059191  1
  Mn  Mn4  1  0.169644  0.830356  0.750000  1
  Nb  Nb5  1  0.838288  0.161712  0.250000  1
  Os  Os6  1  0.998332  0.001668  0.508577  1
  Os  Os7  1  0.998332  0.001668  0.991423  1
  Os  Os8  1  0.823581  0.654574  0.250000  1
  Os  Os9  1  0.345426  0.176419  0.250000  1
  Os  Os10  1  0.178010  0.343489  0.750000  1
  Os  Os11  1  0.656511  0.821990  0.750000  1
