# generated using pymatgen
data_Mg7U(B6Ru)4
_symmetry_space_group_name_H-M   'P 1'
_cell_length_a   8.86800104
_cell_length_b   11.10519706
_cell_length_c   3.50770200
_cell_angle_alpha   90.00000000
_cell_angle_beta   90.00000000
_cell_angle_gamma   90.01135183
_symmetry_Int_Tables_number   1
_chemical_formula_structural   Mg7U(B6Ru)4
_chemical_formula_sum   'Mg7 U1 B24 Ru4'
_cell_volume   345.44163984
_cell_formula_units_Z   1
loop_
 _symmetry_equiv_pos_site_id
 _symmetry_equiv_pos_as_xyz
  1  'x, y, z'
loop_
 _atom_site_type_symbol
 _atom_site_label
 _atom_site_symmetry_multiplicity
 _atom_site_fract_x
 _atom_site_fract_y
 _atom_site_fract_z
 _atom_site_occupancy
  Mg  Mg0  1  0.055155  0.130764  0.000000  1
  Mg  Mg1  1  0.552957  0.375094  0.000000  1
  Mg  Mg2  1  0.171390  0.417962  0.000000  1
  Mg  Mg3  1  0.832019  0.587302  0.000000  1
  Mg  Mg4  1  0.442989  0.627594  0.000000  1
  Mg  Mg5  1  0.945352  0.867450  0.000000  1
  Mg  Mg6  1  0.327440  0.908872  0.000000  1
  U  U7  1  0.677132  0.085465  0.000000  1
  B  B8  1  0.907602  0.024970  0.500000  1
  B  B9  1  0.444800  0.064899  0.500000  1
  B  B10  1  0.242732  0.080083  0.500000  1
  B  B11  1  0.868981  0.182106  0.500000  1
  B  B12  1  0.517427  0.212129  0.500000  1
  B  B13  1  0.203171  0.238654  0.500000  1
  B  B14  1  0.703883  0.263935  0.500000  1
  B  B15  1  0.018841  0.290056  0.500000  1
  B  B16  1  0.367386  0.320261  0.500000  1
  B  B17  1  0.744776  0.423358  0.500000  1
  B  B18  1  0.944656  0.435908  0.500000  1
  B  B19  1  0.406462  0.475104  0.500000  1
  B  B20  1  0.592717  0.525256  0.500000  1
  B  B21  1  0.054761  0.565500  0.500000  1
  B  B22  1  0.256281  0.580049  0.500000  1
  B  B23  1  0.630344  0.679755  0.500000  1
  B  B24  1  0.981073  0.711536  0.500000  1
  B  B25  1  0.296519  0.738868  0.500000  1
  B  B26  1  0.796351  0.759648  0.500000  1
  B  B27  1  0.480687  0.786037  0.500000  1
  B  B28  1  0.130924  0.819537  0.500000  1
  B  B29  1  0.755421  0.918128  0.500000  1
  B  B30  1  0.556052  0.932496  0.500000  1
  B  B31  1  0.094769  0.973975  0.500000  1
  Ru  Ru32  1  0.359498  0.179493  0.000000  1
  Ru  Ru33  1  0.854975  0.318557  0.000000  1
  Ru  Ru34  1  0.142405  0.680441  0.000000  1
  Ru  Ru35  1  0.642069  0.818751  0.000000  1
