# generated using pymatgen
data_Np7ZnSb10
_symmetry_space_group_name_H-M   'P 1'
_cell_length_a   9.30433600
_cell_length_b   9.30433484
_cell_length_c   6.21355000
_cell_angle_alpha   90.00000000
_cell_angle_beta   90.00000000
_cell_angle_gamma   120.00000413
_symmetry_Int_Tables_number   1
_chemical_formula_structural   Np7ZnSb10
_chemical_formula_sum   'Np7 Zn1 Sb10'
_cell_volume   465.84466640
_cell_formula_units_Z   1
loop_
 _symmetry_equiv_pos_site_id
 _symmetry_equiv_pos_as_xyz
  1  'x, y, z'
loop_
 _atom_site_type_symbol
 _atom_site_label
 _atom_site_symmetry_multiplicity
 _atom_site_fract_x
 _atom_site_fract_y
 _atom_site_fract_z
 _atom_site_occupancy
  Np  Np0  1  0.000000  0.000000  0.500000  1
  Np  Np1  1  0.614195  0.000000  0.746971  1
  Np  Np2  1  0.385805  0.000000  0.253029  1
  Np  Np3  1  0.000000  0.614195  0.746971  1
  Np  Np4  1  0.000000  0.385805  0.253029  1
  Np  Np5  1  0.385805  0.385805  0.746971  1
  Np  Np6  1  0.614195  0.614195  0.253029  1
  Zn  Zn7  1  0.000000  0.000000  0.000000  1
  Sb  Sb8  1  0.270651  0.000000  0.759301  1
  Sb  Sb9  1  0.729349  0.000000  0.240699  1
  Sb  Sb10  1  0.000000  0.270651  0.759301  1
  Sb  Sb11  1  0.000000  0.729349  0.240699  1
  Sb  Sb12  1  0.729349  0.729349  0.759301  1
  Sb  Sb13  1  0.270651  0.270651  0.240699  1
  Sb  Sb14  1  0.333333  0.666667  0.500000  1
  Sb  Sb15  1  0.666667  0.333333  0.500000  1
  Sb  Sb16  1  0.666667  0.333333  0.000000  1
  Sb  Sb17  1  0.333333  0.666667  0.000000  1
