# generated using pymatgen
data_TbEr5PtI10
_symmetry_space_group_name_H-M   'P 1'
_cell_length_a   7.71532545
_cell_length_b   9.68197685
_cell_length_c   9.72666601
_cell_angle_alpha   106.85728867
_cell_angle_beta   96.85603127
_cell_angle_gamma   104.28312133
_symmetry_Int_Tables_number   1
_chemical_formula_structural   TbEr5PtI10
_chemical_formula_sum   'Tb1 Er5 Pt1 I10'
_cell_volume   659.43009404
_cell_formula_units_Z   1
loop_
 _symmetry_equiv_pos_site_id
 _symmetry_equiv_pos_as_xyz
  1  'x, y, z'
loop_
 _atom_site_type_symbol
 _atom_site_label
 _atom_site_symmetry_multiplicity
 _atom_site_fract_x
 _atom_site_fract_y
 _atom_site_fract_z
 _atom_site_occupancy
  Tb  Tb0  1  0.348229  0.123729  0.165868  1
  Er  Er1  1  0.656022  0.877431  0.836204  1
  Er  Er2  1  0.967449  0.284109  0.084350  1
  Er  Er3  1  0.031160  0.715410  0.914782  1
  Er  Er4  1  0.884104  0.957994  0.239671  1
  Er  Er5  1  0.113461  0.041016  0.759591  1
  Pt  Pt6  1  0.999839  0.999881  0.000110  1
  I  I7  1  0.345659  0.451170  0.271828  1
  I  I8  1  0.652417  0.551457  0.727244  1
  I  I9  1  0.777195  0.256372  0.345347  1
  I  I10  1  0.228432  0.745586  0.657498  1
  I  I11  1  0.545207  0.184650  0.905503  1
  I  I12  1  0.455314  0.812576  0.091658  1
  I  I13  1  0.743644  0.913078  0.537658  1
  I  I14  1  0.253249  0.086076  0.463655  1
  I  I15  1  0.913931  0.626295  0.178897  1
  I  I16  1  0.084687  0.373173  0.820136  1
