# generated using pymatgen
data_YbSmNi6(BPt)2
_symmetry_space_group_name_H-M   'P 1'
_cell_length_a   5.11512500
_cell_length_b   5.11038469
_cell_length_c   7.09792300
_cell_angle_alpha   90.00000000
_cell_angle_beta   90.00000000
_cell_angle_gamma   120.03068248
_symmetry_Int_Tables_number   1
_chemical_formula_structural   YbSmNi6(BPt)2
_chemical_formula_sum   'Yb1 Sm1 Ni6 B2 Pt2'
_cell_volume   160.63397381
_cell_formula_units_Z   1
loop_
 _symmetry_equiv_pos_site_id
 _symmetry_equiv_pos_as_xyz
  1  'x, y, z'
loop_
 _atom_site_type_symbol
 _atom_site_label
 _atom_site_symmetry_multiplicity
 _atom_site_fract_x
 _atom_site_fract_y
 _atom_site_fract_z
 _atom_site_occupancy
  Yb  Yb0  1  0.999984  0.000000  0.500000  1
  Sm  Sm1  1  0.999984  0.000000  0.000000  1
  Ni  Ni2  1  0.499978  0.000000  0.308701  1
  Ni  Ni3  1  0.499985  0.500000  0.308914  1
  Ni  Ni4  1  0.999985  0.500000  0.308914  1
  Ni  Ni5  1  0.499978  0.000000  0.691299  1
  Ni  Ni6  1  0.499985  0.500000  0.691086  1
  Ni  Ni7  1  0.999985  0.500000  0.691086  1
  B  B8  1  0.333264  0.666557  0.500000  1
  B  B9  1  0.666706  0.333443  0.500000  1
  Pt  Pt10  1  0.333268  0.666575  0.000000  1
  Pt  Pt11  1  0.666694  0.333425  0.000000  1
