# generated using pymatgen
data_BaGaPRh2
_symmetry_space_group_name_H-M   'P 1'
_cell_length_a   6.86964071
_cell_length_b   6.86964103
_cell_length_c   6.86964091
_cell_angle_alpha   145.05586291
_cell_angle_beta   145.05586550
_cell_angle_gamma   50.25128410
_symmetry_Int_Tables_number   1
_chemical_formula_structural   BaGaPRh2
_chemical_formula_sum   'Ba1 Ga1 P1 Rh2'
_cell_volume   105.83563534
_cell_formula_units_Z   1
loop_
 _symmetry_equiv_pos_site_id
 _symmetry_equiv_pos_as_xyz
  1  'x, y, z'
loop_
 _atom_site_type_symbol
 _atom_site_label
 _atom_site_symmetry_multiplicity
 _atom_site_fract_x
 _atom_site_fract_y
 _atom_site_fract_z
 _atom_site_occupancy
  Ba  Ba0  1  0.989977  0.989977  0.000000  1
  Ga  Ga1  1  0.645641  0.645641  0.000000  1
  P  P2  1  0.346053  0.346053  0.000000  1
  Rh  Rh3  1  0.759165  0.259165  0.500000  1
  Rh  Rh4  1  0.259165  0.759165  0.500000  1
