# generated using pymatgen
data_Tm4TcOsC4
_symmetry_space_group_name_H-M   'P 1'
_cell_length_a   5.01524600
_cell_length_b   6.45699766
_cell_length_c   9.69960130
_cell_angle_alpha   89.67939274
_cell_angle_beta   90.00000000
_cell_angle_gamma   90.00000000
_symmetry_Int_Tables_number   1
_chemical_formula_structural   Tm4TcOsC4
_chemical_formula_sum   'Tm8 Tc2 Os2 C8'
_cell_volume   314.10145859
_cell_formula_units_Z   2
loop_
 _symmetry_equiv_pos_site_id
 _symmetry_equiv_pos_as_xyz
  1  'x, y, z'
loop_
 _atom_site_type_symbol
 _atom_site_label
 _atom_site_symmetry_multiplicity
 _atom_site_fract_x
 _atom_site_fract_y
 _atom_site_fract_z
 _atom_site_occupancy
  Tm  Tm0  1  0.250000  0.677691  0.555721  1
  Tm  Tm1  1  0.750000  0.322309  0.444279  1
  Tm  Tm2  1  0.750000  0.822759  0.056596  1
  Tm  Tm3  1  0.250000  0.177241  0.943404  1
  Tm  Tm4  1  0.250000  0.531253  0.217984  1
  Tm  Tm5  1  0.750000  0.468747  0.782016  1
  Tm  Tm6  1  0.750000  0.970059  0.715328  1
  Tm  Tm7  1  0.250000  0.029941  0.284672  1
  Tc  Tc8  1  0.250000  0.718350  0.868075  1
  Tc  Tc9  1  0.750000  0.281650  0.131925  1
  Os  Os10  1  0.750000  0.780141  0.367539  1
  Os  Os11  1  0.250000  0.219859  0.632461  1
  C  C12  1  0.250000  0.453036  0.758518  1
  C  C13  1  0.750000  0.546964  0.241482  1
  C  C14  1  0.750000  0.046264  0.259078  1
  C  C15  1  0.250000  0.953736  0.740922  1
  C  C16  1  0.250000  0.825437  0.054452  1
  C  C17  1  0.750000  0.174563  0.945548  1
  C  C18  1  0.750000  0.673469  0.554998  1
  C  C19  1  0.250000  0.326531  0.445002  1
