# generated using pymatgen
data_Tb3Ce(Al3Tc)2
_symmetry_space_group_name_H-M   'P 1'
_cell_length_a   5.53233500
_cell_length_b   5.53233642
_cell_length_c   8.95044700
_cell_angle_alpha   90.00000000
_cell_angle_beta   90.00000000
_cell_angle_gamma   119.99999751
_symmetry_Int_Tables_number   1
_chemical_formula_structural   Tb3Ce(Al3Tc)2
_chemical_formula_sum   'Tb3 Ce1 Al6 Tc2'
_cell_volume   237.24246037
_cell_formula_units_Z   1
loop_
 _symmetry_equiv_pos_site_id
 _symmetry_equiv_pos_as_xyz
  1  'x, y, z'
loop_
 _atom_site_type_symbol
 _atom_site_label
 _atom_site_symmetry_multiplicity
 _atom_site_fract_x
 _atom_site_fract_y
 _atom_site_fract_z
 _atom_site_occupancy
  Tb  Tb0  1  0.333333  0.666667  0.943913  1
  Tb  Tb1  1  0.666667  0.333333  0.055163  1
  Tb  Tb2  1  0.666667  0.333333  0.450946  1
  Ce  Ce3  1  0.333333  0.666667  0.546734  1
  Al  Al4  1  0.837884  0.162116  0.751891  1
  Al  Al5  1  0.837884  0.675767  0.751891  1
  Al  Al6  1  0.324233  0.162116  0.751891  1
  Al  Al7  1  0.162418  0.837582  0.248223  1
  Al  Al8  1  0.162418  0.324836  0.248223  1
  Al  Al9  1  0.675164  0.837582  0.248223  1
  Tc  Tc10  1  0.000000  0.000000  0.001416  1
  Tc  Tc11  1  0.000000  0.000000  0.501486  1
