# generated using pymatgen
data_Mn8NbOs3
_symmetry_space_group_name_H-M   'P 1'
_cell_length_a   4.68969100
_cell_length_b   4.68968941
_cell_length_c   7.68675000
_cell_angle_alpha   90.00000000
_cell_angle_beta   90.00000000
_cell_angle_gamma   120.00000413
_symmetry_Int_Tables_number   1
_chemical_formula_structural   Mn8NbOs3
_chemical_formula_sum   'Mn8 Nb1 Os3'
_cell_volume   146.40694551
_cell_formula_units_Z   1
loop_
 _symmetry_equiv_pos_site_id
 _symmetry_equiv_pos_as_xyz
  1  'x, y, z'
loop_
 _atom_site_type_symbol
 _atom_site_label
 _atom_site_symmetry_multiplicity
 _atom_site_fract_x
 _atom_site_fract_y
 _atom_site_fract_z
 _atom_site_occupancy
  Mn  Mn0  1  0.174062  0.348123  0.747271  1
  Mn  Mn1  1  0.825083  0.174917  0.255298  1
  Mn  Mn2  1  0.349835  0.174917  0.255298  1
  Mn  Mn3  1  0.651877  0.825938  0.747271  1
  Mn  Mn4  1  0.000000  0.000000  0.999548  1
  Mn  Mn5  1  0.000000  0.000000  0.500026  1
  Mn  Mn6  1  0.825083  0.650165  0.255298  1
  Mn  Mn7  1  0.174062  0.825938  0.747271  1
  Nb  Nb8  1  0.333333  0.666667  0.063980  1
  Os  Os9  1  0.333333  0.666667  0.433338  1
  Os  Os10  1  0.666667  0.333333  0.925428  1
  Os  Os11  1  0.666667  0.333333  0.569972  1
