# generated using pymatgen
data_Lu11ScZnCo4Sn
_symmetry_space_group_name_H-M   'P 1'
_cell_length_a   8.09137550
_cell_length_b   8.08658613
_cell_length_c   8.08658703
_cell_angle_alpha   111.20818299
_cell_angle_beta   110.36554135
_cell_angle_gamma   106.84935423
_symmetry_Int_Tables_number   1
_chemical_formula_structural   Lu11ScZnCo4Sn
_chemical_formula_sum   'Lu11 Sc1 Zn1 Co4 Sn1'
_cell_volume   406.77543634
_cell_formula_units_Z   1
loop_
 _symmetry_equiv_pos_site_id
 _symmetry_equiv_pos_as_xyz
  1  'x, y, z'
loop_
 _atom_site_type_symbol
 _atom_site_label
 _atom_site_symmetry_multiplicity
 _atom_site_fract_x
 _atom_site_fract_y
 _atom_site_fract_z
 _atom_site_occupancy
  Lu  Lu0  1  0.576693  0.779622  0.797073  1
  Lu  Lu1  1  0.015862  0.221443  0.794419  1
  Lu  Lu2  1  0.978018  0.772037  0.205981  1
  Lu  Lu3  1  0.187064  0.284428  0.469988  1
  Lu  Lu4  1  0.813914  0.710820  0.527774  1
  Lu  Lu5  1  0.187064  0.717077  0.902637  1
  Lu  Lu6  1  0.813914  0.286139  0.103094  1
  Lu  Lu7  1  0.316260  0.616120  0.303960  1
  Lu  Lu8  1  0.683379  0.380555  0.694109  1
  Lu  Lu9  1  0.316260  0.012300  0.700139  1
  Lu  Lu10  1  0.683379  0.989270  0.302825  1
  Sc  Sc11  1  0.434256  0.225479  0.208775  1
  Zn  Zn12  1  0.015433  0.004565  0.010868  1
  Co  Co13  1  0.364265  0.003413  0.360853  1
  Co  Co14  1  0.615187  0.999073  0.616114  1
  Co  Co15  1  0.114740  0.615046  0.499695  1
  Co  Co16  1  0.886111  0.385733  0.500378  1
  Sn  Sn17  1  0.498200  0.496880  0.001319  1
