# generated using pymatgen
data_Ba4Mn(BrN2)2
_symmetry_space_group_name_H-M   'P 1'
_cell_length_a   5.95761200
_cell_length_b   8.26490568
_cell_length_c   11.47451300
_cell_angle_alpha   85.60081719
_cell_angle_beta   90.00000000
_cell_angle_gamma   90.00000000
_symmetry_Int_Tables_number   1
_chemical_formula_structural   Ba4Mn(BrN2)2
_chemical_formula_sum   'Ba8 Mn2 Br4 N8'
_cell_volume   563.33014641
_cell_formula_units_Z   2
loop_
 _symmetry_equiv_pos_site_id
 _symmetry_equiv_pos_as_xyz
  1  'x, y, z'
loop_
 _atom_site_type_symbol
 _atom_site_label
 _atom_site_symmetry_multiplicity
 _atom_site_fract_x
 _atom_site_fract_y
 _atom_site_fract_z
 _atom_site_occupancy
  Ba  Ba0  1  0.750000  0.263497  0.299242  1
  Ba  Ba1  1  0.750000  0.013870  0.621501  1
  Ba  Ba2  1  0.750000  0.457938  0.600428  1
  Ba  Ba3  1  0.750000  0.757352  0.131712  1
  Ba  Ba4  1  0.250000  0.986130  0.378499  1
  Ba  Ba5  1  0.250000  0.542062  0.399572  1
  Ba  Ba6  1  0.250000  0.242648  0.868288  1
  Ba  Ba7  1  0.250000  0.736503  0.700758  1
  Mn  Mn8  1  0.750000  0.764762  0.415863  1
  Mn  Mn9  1  0.250000  0.235238  0.584137  1
  Br  Br10  1  0.250000  0.363224  0.149437  1
  Br  Br11  1  0.750000  0.636776  0.850563  1
  Br  Br12  1  0.250000  0.880664  0.082471  1
  Br  Br13  1  0.750000  0.119336  0.917529  1
  N  N14  1  0.250000  0.068039  0.684319  1
  N  N15  1  0.015853  0.235633  0.492535  1
  N  N16  1  0.515853  0.764367  0.507465  1
  N  N17  1  0.984147  0.764367  0.507465  1
  N  N18  1  0.750000  0.588113  0.340291  1
  N  N19  1  0.750000  0.931961  0.315681  1
  N  N20  1  0.484147  0.235633  0.492535  1
  N  N21  1  0.250000  0.411887  0.659709  1
