# generated using pymatgen
data_CaDy19Si15Rh
_symmetry_space_group_name_H-M   'P 1'
_cell_length_a   7.43271587
_cell_length_b   7.68154543
_cell_length_c   14.65639898
_cell_angle_alpha   89.71675447
_cell_angle_beta   89.72345910
_cell_angle_gamma   90.12183246
_symmetry_Int_Tables_number   1
_chemical_formula_structural   CaDy19Si15Rh
_chemical_formula_sum   'Ca1 Dy19 Si15 Rh1'
_cell_volume   836.78145050
_cell_formula_units_Z   1
loop_
 _symmetry_equiv_pos_site_id
 _symmetry_equiv_pos_as_xyz
  1  'x, y, z'
loop_
 _atom_site_type_symbol
 _atom_site_label
 _atom_site_symmetry_multiplicity
 _atom_site_fract_x
 _atom_site_fract_y
 _atom_site_fract_z
 _atom_site_occupancy
  Ca  Ca0  1  0.648474  0.991879  0.248957  1
  Dy  Dy1  1  0.146366  0.510548  0.247419  1
  Dy  Dy2  1  0.848339  0.488049  0.757880  1
  Dy  Dy3  1  0.351703  0.009218  0.751677  1
  Dy  Dy4  1  0.971878  0.816990  0.096596  1
  Dy  Dy5  1  0.470497  0.684418  0.401585  1
  Dy  Dy6  1  0.529144  0.320690  0.900482  1
  Dy  Dy7  1  0.028603  0.184198  0.600142  1
  Dy  Dy8  1  0.028834  0.184505  0.901202  1
  Dy  Dy9  1  0.529536  0.317288  0.599282  1
  Dy  Dy10  1  0.473593  0.684499  0.099952  1
  Dy  Dy11  1  0.968269  0.817124  0.401484  1
  Dy  Dy12  1  0.683984  0.810480  0.881852  1
  Dy  Dy13  1  0.179401  0.680903  0.622128  1
  Dy  Dy14  1  0.816578  0.334045  0.117025  1
  Dy  Dy15  1  0.317180  0.178785  0.377278  1
  Dy  Dy16  1  0.323079  0.180442  0.122719  1
  Dy  Dy17  1  0.818190  0.318177  0.377615  1
  Dy  Dy18  1  0.178160  0.674947  0.878413  1
  Dy  Dy19  1  0.683678  0.817924  0.622919  1
  Si  Si20  1  0.765188  0.622048  0.252331  1
  Si  Si21  1  0.256894  0.873105  0.251034  1
  Si  Si22  1  0.732608  0.123246  0.748878  1
  Si  Si23  1  0.235312  0.372055  0.746852  1
  Si  Si24  1  0.025641  0.108179  0.248691  1
  Si  Si25  1  0.521971  0.402360  0.251577  1
  Si  Si26  1  0.472787  0.605454  0.746802  1
  Si  Si27  1  0.977503  0.897463  0.748632  1
  Si  Si28  1  0.354054  0.971683  0.539687  1
  Si  Si29  1  0.647763  0.029403  0.037682  1
  Si  Si30  1  0.146365  0.471362  0.459602  1
  Si  Si31  1  0.155580  0.473305  0.041657  1
  Si  Si32  1  0.645805  0.030329  0.463260  1
  Si  Si33  1  0.353675  0.969110  0.961602  1
  Si  Si34  1  0.854544  0.527056  0.538957  1
  Rh  Rh35  1  0.858821  0.518731  0.956150  1
