# generated using pymatgen
data_TbDy5(Ho2Sn3)2
_symmetry_space_group_name_H-M   'P 1'
_cell_length_a   8.96849520
_cell_length_b   8.96525015
_cell_length_c   6.53813800
_cell_angle_alpha   90.00000000
_cell_angle_beta   90.00000000
_cell_angle_gamma   119.98803269
_symmetry_Int_Tables_number   1
_chemical_formula_structural   TbDy5(Ho2Sn3)2
_chemical_formula_sum   'Tb1 Dy5 Ho4 Sn6'
_cell_volume   455.32245145
_cell_formula_units_Z   1
loop_
 _symmetry_equiv_pos_site_id
 _symmetry_equiv_pos_as_xyz
  1  'x, y, z'
loop_
 _atom_site_type_symbol
 _atom_site_label
 _atom_site_symmetry_multiplicity
 _atom_site_fract_x
 _atom_site_fract_y
 _atom_site_fract_z
 _atom_site_occupancy
  Tb  Tb0  1  0.000000  0.761458  0.750000  1
  Dy  Dy1  1  0.000000  0.238534  0.250000  1
  Dy  Dy2  1  0.761340  0.761399  0.250000  1
  Dy  Dy3  1  0.761377  0.000059  0.750000  1
  Dy  Dy4  1  0.238623  0.238681  0.750000  1
  Dy  Dy5  1  0.238660  0.000059  0.250000  1
  Ho  Ho6  1  0.333368  0.666656  0.499981  1
  Ho  Ho7  1  0.666632  0.333288  0.000019  1
  Ho  Ho8  1  0.666632  0.333288  0.499981  1
  Ho  Ho9  1  0.333368  0.666656  0.000019  1
  Sn  Sn10  1  0.395695  0.000138  0.750000  1
  Sn  Sn11  1  0.395462  0.395470  0.250000  1
  Sn  Sn12  1  0.000000  0.604554  0.250000  1
  Sn  Sn13  1  0.000000  0.395308  0.750000  1
  Sn  Sn14  1  0.604305  0.604444  0.750000  1
  Sn  Sn15  1  0.604538  0.000008  0.250000  1
