# generated using pymatgen
data_La2Tb2YbGe4
_symmetry_space_group_name_H-M   'P 1'
_cell_length_a   7.64556600
_cell_length_b   8.03920300
_cell_length_c   15.16810800
_cell_angle_alpha   90.00000000
_cell_angle_beta   90.00000000
_cell_angle_gamma   90.00000000
_symmetry_Int_Tables_number   1
_chemical_formula_structural   La2Tb2YbGe4
_chemical_formula_sum   'La8 Tb8 Yb4 Ge16'
_cell_volume   932.29649020
_cell_formula_units_Z   4
loop_
 _symmetry_equiv_pos_site_id
 _symmetry_equiv_pos_as_xyz
  1  'x, y, z'
loop_
 _atom_site_type_symbol
 _atom_site_label
 _atom_site_symmetry_multiplicity
 _atom_site_fract_x
 _atom_site_fract_y
 _atom_site_fract_z
 _atom_site_occupancy
  La  La0  1  0.976942  0.817423  0.402380  1
  La  La1  1  0.476942  0.682577  0.097620  1
  La  La2  1  0.523058  0.317423  0.597620  1
  La  La3  1  0.023058  0.182577  0.902380  1
  La  La4  1  0.023058  0.182577  0.597620  1
  La  La5  1  0.523058  0.317423  0.902380  1
  La  La6  1  0.476942  0.682577  0.402380  1
  La  La7  1  0.976942  0.817423  0.097620  1
  Tb  Tb8  1  0.319153  0.176134  0.122950  1
  Tb  Tb9  1  0.819153  0.323866  0.377050  1
  Tb  Tb10  1  0.180847  0.676134  0.877050  1
  Tb  Tb11  1  0.680847  0.823866  0.622950  1
  Tb  Tb12  1  0.319153  0.176134  0.377050  1
  Tb  Tb13  1  0.819153  0.323866  0.122950  1
  Tb  Tb14  1  0.180847  0.676134  0.622950  1
  Tb  Tb15  1  0.680847  0.823866  0.877050  1
  Yb  Yb16  1  0.345684  0.013462  0.750000  1
  Yb  Yb17  1  0.845684  0.486538  0.750000  1
  Yb  Yb18  1  0.154316  0.513462  0.250000  1
  Yb  Yb19  1  0.654316  0.986538  0.250000  1
  Ge  Ge20  1  0.843715  0.533833  0.538934  1
  Ge  Ge21  1  0.343715  0.966167  0.961066  1
  Ge  Ge22  1  0.656285  0.033833  0.461066  1
  Ge  Ge23  1  0.156285  0.466167  0.038934  1
  Ge  Ge24  1  0.156285  0.466167  0.461066  1
  Ge  Ge25  1  0.656285  0.033833  0.038934  1
  Ge  Ge26  1  0.343715  0.966167  0.538934  1
  Ge  Ge27  1  0.843715  0.533833  0.961066  1
  Ge  Ge28  1  0.978465  0.881597  0.750000  1
  Ge  Ge29  1  0.478465  0.618403  0.750000  1
  Ge  Ge30  1  0.521535  0.381597  0.250000  1
  Ge  Ge31  1  0.021535  0.118403  0.250000  1
  Ge  Ge32  1  0.231423  0.382638  0.750000  1
  Ge  Ge33  1  0.731423  0.117362  0.750000  1
  Ge  Ge34  1  0.268577  0.882638  0.250000  1
  Ge  Ge35  1  0.768577  0.617362  0.250000  1
