# generated using pymatgen
data_ErTh3(ScIr)4
_symmetry_space_group_name_H-M   'P 1'
_cell_length_a   4.42522000
_cell_length_b   7.11107764
_cell_length_c   8.70668419
_cell_angle_alpha   92.30160697
_cell_angle_beta   90.00000000
_cell_angle_gamma   90.00000000
_symmetry_Int_Tables_number   1
_chemical_formula_structural   ErTh3(ScIr)4
_chemical_formula_sum   'Er1 Th3 Sc4 Ir4'
_cell_volume   273.76163021
_cell_formula_units_Z   1
loop_
 _symmetry_equiv_pos_site_id
 _symmetry_equiv_pos_as_xyz
  1  'x, y, z'
loop_
 _atom_site_type_symbol
 _atom_site_label
 _atom_site_symmetry_multiplicity
 _atom_site_fract_x
 _atom_site_fract_y
 _atom_site_fract_z
 _atom_site_occupancy
  Er  Er0  1  0.750000  0.516426  0.827269  1
  Th  Th1  1  0.250000  0.982949  0.318770  1
  Th  Th2  1  0.250000  0.482094  0.168864  1
  Th  Th3  1  0.750000  0.024158  0.681864  1
  Sc  Sc4  1  0.250000  0.372710  0.574221  1
  Sc  Sc5  1  0.250000  0.847992  0.928131  1
  Sc  Sc6  1  0.750000  0.633652  0.439313  1
  Sc  Sc7  1  0.750000  0.137061  0.061907  1
  Ir  Ir8  1  0.250000  0.241981  0.895141  1
  Ir  Ir9  1  0.250000  0.760463  0.594329  1
  Ir  Ir10  1  0.750000  0.751591  0.105026  1
  Ir  Ir11  1  0.750000  0.248924  0.405168  1
