# generated using pymatgen
data_SrMnSb12OsRu2
_symmetry_space_group_name_H-M   'P 1'
_cell_length_a   8.18024083
_cell_length_b   8.16532094
_cell_length_c   8.18225309
_cell_angle_alpha   109.43119540
_cell_angle_beta   109.52004863
_cell_angle_gamma   109.40520922
_symmetry_Int_Tables_number   1
_chemical_formula_structural   SrMnSb12OsRu2
_chemical_formula_sum   'Sr1 Mn1 Sb12 Os1 Ru2'
_cell_volume   421.01372559
_cell_formula_units_Z   1
loop_
 _symmetry_equiv_pos_site_id
 _symmetry_equiv_pos_as_xyz
  1  'x, y, z'
loop_
 _atom_site_type_symbol
 _atom_site_label
 _atom_site_symmetry_multiplicity
 _atom_site_fract_x
 _atom_site_fract_y
 _atom_site_fract_z
 _atom_site_occupancy
  Sr  Sr0  1  0.000000  0.000000  0.000000  1
  Mn  Mn1  1  0.000000  0.500000  0.000000  1
  Sb  Sb2  1  0.338725  0.181009  0.841158  1
  Sb  Sb3  1  0.661275  0.818991  0.158842  1
  Sb  Sb4  1  0.654041  0.500740  0.840418  1
  Sb  Sb5  1  0.345959  0.499260  0.159582  1
  Sb  Sb6  1  0.186525  0.846813  0.346172  1
  Sb  Sb7  1  0.813475  0.153187  0.653828  1
  Sb  Sb8  1  0.502623  0.841152  0.660209  1
  Sb  Sb9  1  0.497377  0.158848  0.339791  1
  Sb  Sb10  1  0.841388  0.340617  0.186956  1
  Sb  Sb11  1  0.158612  0.659383  0.813044  1
  Sb  Sb12  1  0.841347  0.661047  0.502346  1
  Sb  Sb13  1  0.158653  0.338953  0.497654  1
  Os  Os14  1  0.500000  0.000000  0.000000  1
  Ru  Ru15  1  0.000000  0.000000  0.500000  1
  Ru  Ru16  1  0.500000  0.500000  0.500000  1
