# generated using pymatgen
data_UI2Br3
_symmetry_space_group_name_H-M   'P 1'
_cell_length_a   7.59383472
_cell_length_b   8.17814410
_cell_length_c   11.42408847
_cell_angle_alpha   109.12320112
_cell_angle_beta   93.08041363
_cell_angle_gamma   114.44905521
_symmetry_Int_Tables_number   1
_chemical_formula_structural   UI2Br3
_chemical_formula_sum   'U2 I4 Br6'
_cell_volume   595.24869107
_cell_formula_units_Z   2
loop_
 _symmetry_equiv_pos_site_id
 _symmetry_equiv_pos_as_xyz
  1  'x, y, z'
loop_
 _atom_site_type_symbol
 _atom_site_label
 _atom_site_symmetry_multiplicity
 _atom_site_fract_x
 _atom_site_fract_y
 _atom_site_fract_z
 _atom_site_occupancy
  U  U0  1  0.105756  0.210577  0.210675  1
  U  U1  1  0.894244  0.789423  0.789325  1
  I  I2  1  0.934389  0.185643  0.425213  1
  I  I3  1  0.065611  0.814357  0.574787  1
  I  I4  1  0.247646  0.188300  0.958598  1
  I  I5  1  0.752354  0.811700  0.041402  1
  Br  Br6  1  0.099289  0.619550  0.843455  1
  Br  Br7  1  0.900711  0.380450  0.156545  1
  Br  Br8  1  0.702106  0.979696  0.752062  1
  Br  Br9  1  0.297894  0.020304  0.247938  1
  Br  Br10  1  0.579019  0.450460  0.671057  1
  Br  Br11  1  0.420981  0.549540  0.328943  1
