# generated using pymatgen
data_Pr2Nd2Ga5Ir9
_symmetry_space_group_name_H-M   'P 1'
_cell_length_a   12.38507667
_cell_length_b   12.38507713
_cell_length_c   12.38507751
_cell_angle_alpha   26.32786719
_cell_angle_beta   26.32787234
_cell_angle_gamma   26.32786760
_symmetry_Int_Tables_number   1
_chemical_formula_structural   Pr2Nd2Ga5Ir9
_chemical_formula_sum   'Pr2 Nd2 Ga5 Ir9'
_cell_volume   329.30395849
_cell_formula_units_Z   1
loop_
 _symmetry_equiv_pos_site_id
 _symmetry_equiv_pos_as_xyz
  1  'x, y, z'
loop_
 _atom_site_type_symbol
 _atom_site_label
 _atom_site_symmetry_multiplicity
 _atom_site_fract_x
 _atom_site_fract_y
 _atom_site_fract_z
 _atom_site_occupancy
  Pr  Pr0  1  0.950741  0.950741  0.950741  1
  Pr  Pr1  1  0.049259  0.049259  0.049259  1
  Nd  Nd2  1  0.853401  0.853401  0.853401  1
  Nd  Nd3  1  0.146599  0.146599  0.146599  1
  Ga  Ga4  1  0.500000  0.500000  0.500000  1
  Ga  Ga5  1  0.721480  0.721480  0.721480  1
  Ga  Ga6  1  0.278520  0.278520  0.278520  1
  Ga  Ga7  1  0.611022  0.611022  0.611022  1
  Ga  Ga8  1  0.388978  0.388978  0.388978  1
  Ir  Ir9  1  0.500000  0.500000  0.000000  1
  Ir  Ir10  1  0.000000  0.500000  0.500000  1
  Ir  Ir11  1  0.500000  0.000000  0.500000  1
  Ir  Ir12  1  0.387083  0.895947  0.387083  1
  Ir  Ir13  1  0.387083  0.387083  0.895947  1
  Ir  Ir14  1  0.895947  0.387083  0.387083  1
  Ir  Ir15  1  0.612917  0.104053  0.612917  1
  Ir  Ir16  1  0.612917  0.612917  0.104053  1
  Ir  Ir17  1  0.104053  0.612917  0.612917  1
