# generated using pymatgen
data_La4LuTl3Br
_symmetry_space_group_name_H-M   'P 1'
_cell_length_a   9.68454900
_cell_length_b   9.68454885
_cell_length_c   6.89912600
_cell_angle_alpha   90.00000000
_cell_angle_beta   90.00000000
_cell_angle_gamma   120.00000392
_symmetry_Int_Tables_number   1
_chemical_formula_structural   La4LuTl3Br
_chemical_formula_sum   'La8 Lu2 Tl6 Br2'
_cell_volume   560.38110892
_cell_formula_units_Z   2
loop_
 _symmetry_equiv_pos_site_id
 _symmetry_equiv_pos_as_xyz
  1  'x, y, z'
loop_
 _atom_site_type_symbol
 _atom_site_label
 _atom_site_symmetry_multiplicity
 _atom_site_fract_x
 _atom_site_fract_y
 _atom_site_fract_z
 _atom_site_occupancy
  La  La0  1  0.732199  0.732199  0.254299  1
  La  La1  1  0.000000  0.732199  0.745701  1
  La  La2  1  0.732199  0.000000  0.745701  1
  La  La3  1  0.267801  0.267801  0.745701  1
  La  La4  1  0.000000  0.267801  0.254299  1
  La  La5  1  0.267801  0.000000  0.254299  1
  La  La6  1  0.333333  0.666667  0.000000  1
  La  La7  1  0.666667  0.333333  0.000000  1
  Lu  Lu8  1  0.333333  0.666667  0.500000  1
  Lu  Lu9  1  0.666667  0.333333  0.500000  1
  Tl  Tl10  1  0.392811  0.000000  0.744159  1
  Tl  Tl11  1  0.000000  0.607189  0.255841  1
  Tl  Tl12  1  0.607189  0.000000  0.255841  1
  Tl  Tl13  1  0.000000  0.392811  0.744159  1
  Tl  Tl14  1  0.392811  0.392811  0.255841  1
  Tl  Tl15  1  0.607189  0.607189  0.744159  1
  Br  Br16  1  0.000000  0.000000  0.500000  1
  Br  Br17  1  0.000000  0.000000  0.000000  1
