# generated using pymatgen
data_Nd4Tm6Ga7Ge
_symmetry_space_group_name_H-M   'P 1'
_cell_length_a   7.58981800
_cell_length_b   7.99415100
_cell_length_c   15.33406800
_cell_angle_alpha   90.00000000
_cell_angle_beta   90.00000000
_cell_angle_gamma   90.00000000
_symmetry_Int_Tables_number   1
_chemical_formula_structural   Nd4Tm6Ga7Ge
_chemical_formula_sum   'Nd8 Tm12 Ga14 Ge2'
_cell_volume   930.38155965
_cell_formula_units_Z   2
loop_
 _symmetry_equiv_pos_site_id
 _symmetry_equiv_pos_as_xyz
  1  'x, y, z'
loop_
 _atom_site_type_symbol
 _atom_site_label
 _atom_site_symmetry_multiplicity
 _atom_site_fract_x
 _atom_site_fract_y
 _atom_site_fract_z
 _atom_site_occupancy
  Nd  Nd0  1  0.977032  0.819377  0.095448  1
  Nd  Nd1  1  0.477032  0.680623  0.404552  1
  Nd  Nd2  1  0.520814  0.321262  0.905310  1
  Nd  Nd3  1  0.020814  0.178738  0.594690  1
  Nd  Nd4  1  0.020814  0.178738  0.905310  1
  Nd  Nd5  1  0.520814  0.321262  0.594690  1
  Nd  Nd6  1  0.477032  0.680623  0.095448  1
  Nd  Nd7  1  0.977032  0.819377  0.404552  1
  Tm  Tm8  1  0.654832  0.989468  0.250000  1
  Tm  Tm9  1  0.154832  0.510532  0.250000  1
  Tm  Tm10  1  0.845928  0.489560  0.750000  1
  Tm  Tm11  1  0.345928  0.010440  0.750000  1
  Tm  Tm12  1  0.679321  0.823707  0.877133  1
  Tm  Tm13  1  0.179321  0.676293  0.622867  1
  Tm  Tm14  1  0.820214  0.324681  0.121620  1
  Tm  Tm15  1  0.320214  0.175319  0.378380  1
  Tm  Tm16  1  0.320214  0.175319  0.121620  1
  Tm  Tm17  1  0.820214  0.324681  0.378380  1
  Tm  Tm18  1  0.179321  0.676293  0.877133  1
  Tm  Tm19  1  0.679321  0.823707  0.622867  1
  Ga  Ga20  1  0.767890  0.621792  0.250000  1
  Ga  Ga21  1  0.267890  0.878208  0.250000  1
  Ga  Ga22  1  0.732951  0.122516  0.750000  1
  Ga  Ga23  1  0.232951  0.377484  0.750000  1
  Ga  Ga24  1  0.024594  0.114456  0.250000  1
  Ga  Ga25  1  0.524594  0.385544  0.250000  1
  Ga  Ga26  1  0.849480  0.532785  0.957438  1
  Ga  Ga27  1  0.349480  0.967215  0.542562  1
  Ga  Ga28  1  0.651887  0.031114  0.039751  1
  Ga  Ga29  1  0.151887  0.468886  0.460249  1
  Ga  Ga30  1  0.151887  0.468886  0.039751  1
  Ga  Ga31  1  0.651887  0.031114  0.460249  1
  Ga  Ga32  1  0.349480  0.967215  0.957438  1
  Ga  Ga33  1  0.849480  0.532785  0.542562  1
  Ge  Ge34  1  0.476308  0.617852  0.750000  1
  Ge  Ge35  1  0.976308  0.882148  0.750000  1
