# generated using pymatgen
data_Ce2BeAs4
_symmetry_space_group_name_H-M   'P 1'
_cell_length_a   4.00043100
_cell_length_b   4.00043100
_cell_length_c   9.16839000
_cell_angle_alpha   90.00000000
_cell_angle_beta   90.00000000
_cell_angle_gamma   90.00000000
_symmetry_Int_Tables_number   1
_chemical_formula_structural   Ce2BeAs4
_chemical_formula_sum   'Ce2 Be1 As4'
_cell_volume   146.72585431
_cell_formula_units_Z   1
loop_
 _symmetry_equiv_pos_site_id
 _symmetry_equiv_pos_as_xyz
  1  'x, y, z'
loop_
 _atom_site_type_symbol
 _atom_site_label
 _atom_site_symmetry_multiplicity
 _atom_site_fract_x
 _atom_site_fract_y
 _atom_site_fract_z
 _atom_site_occupancy
  Ce  Ce0  1  0.500000  0.000000  0.753348  1
  Ce  Ce1  1  0.000000  0.500000  0.246652  1
  Be  Be2  1  0.500000  0.500000  0.000000  1
  As  As3  1  0.500000  0.000000  0.132135  1
  As  As4  1  0.000000  0.500000  0.867865  1
  As  As5  1  0.500000  0.500000  0.500000  1
  As  As6  1  0.000000  0.000000  0.500000  1
