# generated using pymatgen
data_Er3MgAs6Ru7
_symmetry_space_group_name_H-M   'P 1'
_cell_length_a   7.13389858
_cell_length_b   7.27334347
_cell_length_c   7.13389778
_cell_angle_alpha   109.86767711
_cell_angle_beta   109.07187606
_cell_angle_gamma   109.86767429
_symmetry_Int_Tables_number   1
_chemical_formula_structural   Er3MgAs6Ru7
_chemical_formula_sum   'Er3 Mg1 As6 Ru7'
_cell_volume   283.54216968
_cell_formula_units_Z   1
loop_
 _symmetry_equiv_pos_site_id
 _symmetry_equiv_pos_as_xyz
  1  'x, y, z'
loop_
 _atom_site_type_symbol
 _atom_site_label
 _atom_site_symmetry_multiplicity
 _atom_site_fract_x
 _atom_site_fract_y
 _atom_site_fract_z
 _atom_site_occupancy
  Er  Er0  1  0.000000  0.000000  0.500000  1
  Er  Er1  1  0.500000  0.000000  0.000000  1
  Er  Er2  1  0.500000  0.500000  0.500000  1
  Mg  Mg3  1  0.000000  0.500000  0.000000  1
  As  As4  1  0.310570  0.995152  0.310570  1
  As  As5  1  0.000000  0.315418  0.310570  1
  As  As6  1  0.000000  0.684582  0.689430  1
  As  As7  1  0.310570  0.315418  0.000000  1
  As  As8  1  0.689430  0.684582  0.000000  1
  As  As9  1  0.689430  0.004848  0.689430  1
  Ru  Ru10  1  0.754567  0.500000  0.245433  1
  Ru  Ru11  1  0.490865  0.745433  0.245433  1
  Ru  Ru12  1  0.509135  0.254567  0.754567  1
  Ru  Ru13  1  0.754567  0.254567  0.509135  1
  Ru  Ru14  1  0.245433  0.745433  0.490865  1
  Ru  Ru15  1  0.245433  0.500000  0.754567  1
  Ru  Ru16  1  0.000000  0.000000  0.000000  1
