# generated using pymatgen
data_Ho16MgIn3(IrPt)2
_symmetry_space_group_name_H-M   'P 1'
_cell_length_a   9.61442485
_cell_length_b   9.64535479
_cell_length_c   9.64520649
_cell_angle_alpha   60.61708845
_cell_angle_beta   60.41788445
_cell_angle_gamma   60.41395065
_symmetry_Int_Tables_number   1
_chemical_formula_structural   Ho16MgIn3(IrPt)2
_chemical_formula_sum   'Ho16 Mg1 In3 Ir2 Pt2'
_cell_volume   639.36632728
_cell_formula_units_Z   1
loop_
 _symmetry_equiv_pos_site_id
 _symmetry_equiv_pos_as_xyz
  1  'x, y, z'
loop_
 _atom_site_type_symbol
 _atom_site_label
 _atom_site_symmetry_multiplicity
 _atom_site_fract_x
 _atom_site_fract_y
 _atom_site_fract_z
 _atom_site_occupancy
  Ho  Ho0  1  0.437728  0.433561  0.062664  1
  Ho  Ho1  1  0.650214  0.644872  0.054042  1
  Ho  Ho2  1  0.185919  0.808207  0.192756  1
  Ho  Ho3  1  0.061079  0.436760  0.059216  1
  Ho  Ho4  1  0.193039  0.807421  0.807425  1
  Ho  Ho5  1  0.063545  0.434795  0.434808  1
  Ho  Ho6  1  0.809781  0.188455  0.188482  1
  Ho  Ho7  1  0.656046  0.652148  0.652156  1
  Ho  Ho8  1  0.808857  0.195684  0.806790  1
  Ho  Ho9  1  0.185915  0.192734  0.808230  1
  Ho  Ho10  1  0.047441  0.649016  0.649029  1
  Ho  Ho11  1  0.439015  0.060627  0.060614  1
  Ho  Ho12  1  0.061065  0.059209  0.436792  1
  Ho  Ho13  1  0.650211  0.054031  0.644882  1
  Ho  Ho14  1  0.808861  0.806781  0.195698  1
  Ho  Ho15  1  0.437730  0.062681  0.433573  1
  Mg  Mg16  1  0.421197  0.423042  0.423017  1
  In  In17  1  0.416140  0.417928  0.748140  1
  In  In18  1  0.416269  0.748145  0.417815  1
  In  In19  1  0.749324  0.416731  0.416622  1
  Ir  Ir20  1  0.858954  0.425272  0.862220  1
  Ir  Ir21  1  0.858962  0.862202  0.425298  1
  Pt  Pt22  1  0.426094  0.861254  0.861285  1
  Pt  Pt23  1  0.856613  0.858446  0.858450  1
