# generated using pymatgen
data_CeHo5ZnIr17
_symmetry_space_group_name_H-M   'P 1'
_cell_length_a   5.32376007
_cell_length_b   5.32472367
_cell_length_c   17.33809000
_cell_angle_alpha   90.00000000
_cell_angle_beta   90.00000000
_cell_angle_gamma   120.01300995
_symmetry_Int_Tables_number   1
_chemical_formula_structural   CeHo5ZnIr17
_chemical_formula_sum   'Ce1 Ho5 Zn1 Ir17'
_cell_volume   425.58908798
_cell_formula_units_Z   1
loop_
 _symmetry_equiv_pos_site_id
 _symmetry_equiv_pos_as_xyz
  1  'x, y, z'
loop_
 _atom_site_type_symbol
 _atom_site_label
 _atom_site_symmetry_multiplicity
 _atom_site_fract_x
 _atom_site_fract_y
 _atom_site_fract_z
 _atom_site_occupancy
  Ce  Ce0  1  0.666641  0.333339  0.250000  1
  Ho  Ho1  1  0.333338  0.666670  0.959858  1
  Ho  Ho2  1  0.666665  0.333331  0.041123  1
  Ho  Ho3  1  0.666665  0.333331  0.458877  1
  Ho  Ho4  1  0.333338  0.666670  0.540142  1
  Ho  Ho5  1  0.333318  0.666664  0.750000  1
  Zn  Zn6  1  0.666673  0.333337  0.750000  1
  Ir  Ir7  1  0.167117  0.832880  0.375605  1
  Ir  Ir8  1  0.167136  0.334226  0.375592  1
  Ir  Ir9  1  0.665787  0.832887  0.375574  1
  Ir  Ir10  1  0.831055  0.168946  0.626029  1
  Ir  Ir11  1  0.831056  0.662116  0.626030  1
  Ir  Ir12  1  0.337882  0.168944  0.626033  1
  Ir  Ir13  1  0.831055  0.168946  0.873971  1
  Ir  Ir14  1  0.831056  0.662116  0.873970  1
  Ir  Ir15  1  0.337882  0.168944  0.873967  1
  Ir  Ir16  1  0.167117  0.832880  0.124395  1
  Ir  Ir17  1  0.167136  0.334226  0.124408  1
  Ir  Ir18  1  0.665787  0.832887  0.124426  1
  Ir  Ir19  1  0.333233  0.666668  0.250000  1
  Ir  Ir20  1  0.000124  0.000014  0.250000  1
  Ir  Ir21  1  0.999970  0.999988  0.750000  1
  Ir  Ir22  1  0.999985  0.999995  0.502958  1
  Ir  Ir23  1  0.999985  0.999995  0.997042  1
