# generated using pymatgen
data_Dy4Er12MgIn3Rh4
_symmetry_space_group_name_H-M   'P 1'
_cell_length_a   9.60771525
_cell_length_b   9.60423644
_cell_length_c   9.61131800
_cell_angle_alpha   59.99816450
_cell_angle_beta   59.81661746
_cell_angle_gamma   60.05912021
_symmetry_Int_Tables_number   1
_chemical_formula_structural   Dy4Er12MgIn3Rh4
_chemical_formula_sum   'Dy4 Er12 Mg1 In3 Rh4'
_cell_volume   626.51651146
_cell_formula_units_Z   1
loop_
 _symmetry_equiv_pos_site_id
 _symmetry_equiv_pos_as_xyz
  1  'x, y, z'
loop_
 _atom_site_type_symbol
 _atom_site_label
 _atom_site_symmetry_multiplicity
 _atom_site_fract_x
 _atom_site_fract_y
 _atom_site_fract_z
 _atom_site_occupancy
  Dy  Dy0  1  0.189700  0.190639  0.810899  1
  Dy  Dy1  1  0.438121  0.061376  0.061984  1
  Dy  Dy2  1  0.434700  0.064229  0.434685  1
  Dy  Dy3  1  0.062468  0.438359  0.062963  1
  Er  Er4  1  0.649100  0.049699  0.648407  1
  Er  Er5  1  0.189344  0.811846  0.811995  1
  Er  Er6  1  0.060785  0.061930  0.438434  1
  Er  Er7  1  0.810640  0.190481  0.190252  1
  Er  Er8  1  0.812689  0.812166  0.189129  1
  Er  Er9  1  0.650732  0.648657  0.046962  1
  Er  Er10  1  0.653277  0.652617  0.652465  1
  Er  Er11  1  0.063306  0.435676  0.437706  1
  Er  Er12  1  0.046075  0.649249  0.650361  1
  Er  Er13  1  0.809804  0.191084  0.809958  1
  Er  Er14  1  0.438315  0.436095  0.062960  1
  Er  Er15  1  0.187168  0.814051  0.187659  1
  Mg  Mg16  1  0.422096  0.733634  0.422627  1
  In  In17  1  0.417408  0.418823  0.747672  1
  In  In18  1  0.748155  0.418611  0.417277  1
  In  In19  1  0.416454  0.418442  0.416322  1
  Rh  Rh20  1  0.856461  0.427064  0.857794  1
  Rh  Rh21  1  0.858550  0.858831  0.426580  1
  Rh  Rh22  1  0.427234  0.857151  0.858478  1
  Rh  Rh23  1  0.857421  0.859293  0.856429  1
