# generated using pymatgen
data_Sb(S8Cl)3
_symmetry_space_group_name_H-M   'P 1'
_cell_length_a   5.03566184
_cell_length_b   14.90453516
_cell_length_c   14.90468064
_cell_angle_alpha   118.68588424
_cell_angle_beta   96.46972188
_cell_angle_gamma   96.46855563
_symmetry_Int_Tables_number   1
_chemical_formula_structural   Sb(S8Cl)3
_chemical_formula_sum   'Sb1 S24 Cl3'
_cell_volume   957.10286981
_cell_formula_units_Z   1
loop_
 _symmetry_equiv_pos_site_id
 _symmetry_equiv_pos_as_xyz
  1  'x, y, z'
loop_
 _atom_site_type_symbol
 _atom_site_label
 _atom_site_symmetry_multiplicity
 _atom_site_fract_x
 _atom_site_fract_y
 _atom_site_fract_z
 _atom_site_occupancy
  Sb  Sb0  1  0.754941  0.999789  0.999785  1
  S  S1  1  0.353234  0.399618  0.000181  1
  S  S2  1  0.528068  0.720199  0.999825  1
  S  S3  1  0.252633  0.517138  0.130479  1
  S  S4  1  0.376256  0.743610  0.130886  1
  S  S5  1  0.533972  0.652398  0.184529  1
  S  S6  1  0.632948  0.387613  0.256438  1
  S  S7  1  0.808002  0.279855  0.279853  1
  S  S8  1  0.882400  0.532085  0.347533  1
  S  S9  1  0.123361  0.869411  0.386632  1
  S  S10  1  0.632935  0.256444  0.387610  1
  S  S11  1  0.353213  0.000181  0.399618  1
  S  S12  1  0.350696  0.815502  0.468138  1
  S  S13  1  0.736180  0.613367  0.482657  1
  S  S14  1  0.252609  0.130478  0.517138  1
  S  S15  1  0.882392  0.347534  0.532085  1
  S  S16  1  0.953586  0.600513  0.600509  1
  S  S17  1  0.245399  0.868856  0.612598  1
  S  S18  1  0.736192  0.482664  0.613365  1
  S  S19  1  0.533971  0.184519  0.652392  1
  S  S20  1  0.528053  0.999821  0.720198  1
  S  S21  1  0.376240  0.130876  0.743599  1
  S  S22  1  0.350686  0.468135  0.815503  1
  S  S23  1  0.245405  0.612598  0.868862  1
  S  S24  1  0.123350  0.386632  0.869411  1
  Cl  Cl25  1  0.038702  0.139232  0.999976  1
  Cl  Cl26  1  0.038702  0.999975  0.139232  1
  Cl  Cl27  1  0.901176  0.860976  0.860974  1
