# generated using pymatgen
data_K5(Cd2Hg)2
_symmetry_space_group_name_H-M   'P 1'
_cell_length_a   18.37124916
_cell_length_b   18.37124922
_cell_length_c   5.56496300
_cell_angle_alpha   90.00000000
_cell_angle_beta   90.00000000
_cell_angle_gamma   166.49735644
_symmetry_Int_Tables_number   1
_chemical_formula_structural   K5(Cd2Hg)2
_chemical_formula_sum   'K5 Cd4 Hg2'
_cell_volume   438.53914514
_cell_formula_units_Z   1
loop_
 _symmetry_equiv_pos_site_id
 _symmetry_equiv_pos_as_xyz
  1  'x, y, z'
loop_
 _atom_site_type_symbol
 _atom_site_label
 _atom_site_symmetry_multiplicity
 _atom_site_fract_x
 _atom_site_fract_y
 _atom_site_fract_z
 _atom_site_occupancy
  K  K0  1  0.001094  0.998906  0.000000  1
  K  K1  1  0.617421  0.382577  0.000000  1
  K  K2  1  0.384430  0.615568  0.000000  1
  K  K3  1  0.807677  0.192321  0.500001  1
  K  K4  1  0.193346  0.806652  0.500001  1
  Cd  Cd5  1  0.276621  0.723377  0.000000  1
  Cd  Cd6  1  0.539745  0.460253  0.500001  1
  Cd  Cd7  1  0.460305  0.539693  0.500001  1
  Cd  Cd8  1  0.092987  0.907012  0.500001  1
  Hg  Hg9  1  0.721000  0.278998  0.000000  1
  Hg  Hg10  1  0.905367  0.094632  0.500001  1
