# generated using pymatgen
data_Ce10CuSn6As
_symmetry_space_group_name_H-M   'P 1'
_cell_length_a   9.46322000
_cell_length_b   9.46322007
_cell_length_c   6.51546400
_cell_angle_alpha   90.00000000
_cell_angle_beta   90.00000000
_cell_angle_gamma   119.99999976
_symmetry_Int_Tables_number   1
_chemical_formula_structural   Ce10CuSn6As
_chemical_formula_sum   'Ce10 Cu1 Sn6 As1'
_cell_volume   505.30530605
_cell_formula_units_Z   1
loop_
 _symmetry_equiv_pos_site_id
 _symmetry_equiv_pos_as_xyz
  1  'x, y, z'
loop_
 _atom_site_type_symbol
 _atom_site_label
 _atom_site_symmetry_multiplicity
 _atom_site_fract_x
 _atom_site_fract_y
 _atom_site_fract_z
 _atom_site_occupancy
  Ce  Ce0  1  0.262273  0.000000  0.746216  1
  Ce  Ce1  1  0.737727  0.000000  0.253784  1
  Ce  Ce2  1  0.000000  0.262273  0.746216  1
  Ce  Ce3  1  0.000000  0.737727  0.253784  1
  Ce  Ce4  1  0.737727  0.737727  0.746216  1
  Ce  Ce5  1  0.262273  0.262273  0.253784  1
  Ce  Ce6  1  0.333333  0.666667  0.500000  1
  Ce  Ce7  1  0.666667  0.333333  0.500000  1
  Ce  Ce8  1  0.666667  0.333333  0.000000  1
  Ce  Ce9  1  0.333333  0.666667  0.000000  1
  Cu  Cu10  1  0.000000  0.000000  0.000000  1
  Sn  Sn11  1  0.616269  0.000000  0.752960  1
  Sn  Sn12  1  0.383731  0.000000  0.247040  1
  Sn  Sn13  1  0.000000  0.616269  0.752960  1
  Sn  Sn14  1  0.000000  0.383731  0.247040  1
  Sn  Sn15  1  0.383731  0.383731  0.752960  1
  Sn  Sn16  1  0.616269  0.616269  0.247040  1
  As  As17  1  0.000000  0.000000  0.500000  1
