# generated using pymatgen
data_La10Ir3OsRh2
_symmetry_space_group_name_H-M   'P 1'
_cell_length_a   11.39893016
_cell_length_b   11.40269200
_cell_length_c   6.68121069
_cell_angle_alpha   90.00000000
_cell_angle_beta   90.17400059
_cell_angle_gamma   90.00000000
_symmetry_Int_Tables_number   1
_chemical_formula_structural   La10Ir3OsRh2
_chemical_formula_sum   'La20 Ir6 Os2 Rh4'
_cell_volume   868.40967077
_cell_formula_units_Z   2
loop_
 _symmetry_equiv_pos_site_id
 _symmetry_equiv_pos_as_xyz
  1  'x, y, z'
loop_
 _atom_site_type_symbol
 _atom_site_label
 _atom_site_symmetry_multiplicity
 _atom_site_fract_x
 _atom_site_fract_y
 _atom_site_fract_z
 _atom_site_occupancy
  La  La0  1  0.295156  0.089063  0.389265  1
  La  La1  1  0.295156  0.910937  0.889265  1
  La  La2  1  0.702817  0.090304  0.886797  1
  La  La3  1  0.702817  0.909696  0.386797  1
  La  La4  1  0.587468  0.794582  0.889317  1
  La  La5  1  0.587468  0.205418  0.389317  1
  La  La6  1  0.410089  0.795202  0.389561  1
  La  La7  1  0.410089  0.204798  0.889561  1
  La  La8  1  0.209472  0.407279  0.611684  1
  La  La9  1  0.209472  0.592721  0.111684  1
  La  La10  1  0.790802  0.409439  0.112064  1
  La  La11  1  0.790802  0.590561  0.612064  1
  La  La12  1  0.908414  0.708715  0.113330  1
  La  La13  1  0.908414  0.291285  0.613330  1
  La  La14  1  0.094218  0.708129  0.611708  1
  La  La15  1  0.094218  0.291871  0.111708  1
  La  La16  1  0.999998  0.999484  0.495093  1
  La  La17  1  0.999998  0.000516  0.995093  1
  La  La18  1  0.499854  0.499679  0.994650  1
  La  La19  1  0.499854  0.500321  0.494650  1
  Ir  Ir20  1  0.149741  0.155939  0.749978  1
  Ir  Ir21  1  0.149741  0.844061  0.249978  1
  Ir  Ir22  1  0.656972  0.349772  0.749711  1
  Ir  Ir23  1  0.656972  0.650228  0.249711  1
  Ir  Ir24  1  0.343899  0.349680  0.249335  1
  Ir  Ir25  1  0.343899  0.650320  0.749335  1
  Os  Os26  1  0.500977  0.999981  0.125615  1
  Os  Os27  1  0.500977  0.000019  0.625615  1
  Rh  Rh28  1  0.850892  0.155687  0.250367  1
  Rh  Rh29  1  0.850892  0.844313  0.750367  1
  Rh  Rh30  1  0.999231  0.500999  0.881518  1
  Rh  Rh31  1  0.999231  0.499001  0.381518  1
