# generated using pymatgen
data_LaPr3Sm2Ta2O14
_symmetry_space_group_name_H-M   'P 1'
_cell_length_a   6.69167519
_cell_length_b   6.69167594
_cell_length_c   7.74085400
_cell_angle_alpha   89.99970933
_cell_angle_beta   90.00029466
_cell_angle_gamma   108.82123722
_symmetry_Int_Tables_number   1
_chemical_formula_structural   LaPr3Sm2Ta2O14
_chemical_formula_sum   'La1 Pr3 Sm2 Ta2 O14'
_cell_volume   328.08992641
_cell_formula_units_Z   1
loop_
 _symmetry_equiv_pos_site_id
 _symmetry_equiv_pos_as_xyz
  1  'x, y, z'
loop_
 _atom_site_type_symbol
 _atom_site_label
 _atom_site_symmetry_multiplicity
 _atom_site_fract_x
 _atom_site_fract_y
 _atom_site_fract_z
 _atom_site_occupancy
  La  La0  1  0.478657  0.478657  0.500000  1
  Pr  Pr1  1  0.468616  0.468616  0.000000  1
  Pr  Pr2  1  0.537499  0.994650  0.750493  1
  Pr  Pr3  1  0.994650  0.537499  0.249507  1
  Sm  Sm4  1  0.467040  0.996485  0.250366  1
  Sm  Sm5  1  0.996485  0.467040  0.749634  1
  Ta  Ta6  1  0.000247  0.000247  0.500000  1
  Ta  Ta7  1  0.998840  0.998840  0.000000  1
  O  O8  1  0.695402  0.944921  0.464234  1
  O  O9  1  0.944921  0.695402  0.535766  1
  O  O10  1  0.696880  0.947475  0.036661  1
  O  O11  1  0.947475  0.696880  0.963339  1
  O  O12  1  0.318033  0.072066  0.525060  1
  O  O13  1  0.072066  0.318033  0.474940  1
  O  O14  1  0.319415  0.074960  0.975681  1
  O  O15  1  0.074960  0.319415  0.024319  1
  O  O16  1  0.943632  0.058706  0.750030  1
  O  O17  1  0.058706  0.943632  0.249970  1
  O  O18  1  0.361551  0.624901  0.750800  1
  O  O19  1  0.624901  0.361551  0.249200  1
  O  O20  1  0.638003  0.362021  0.751025  1
  O  O21  1  0.362021  0.638003  0.248975  1
