# generated using pymatgen
data_Sr5Hg2Rh
_symmetry_space_group_name_H-M   'P 1'
_cell_length_a   9.91910437
_cell_length_b   9.91910808
_cell_length_c   9.91910659
_cell_angle_alpha   129.47176849
_cell_angle_beta   129.57649574
_cell_angle_gamma   74.16870466
_symmetry_Int_Tables_number   1
_chemical_formula_structural   Sr5Hg2Rh
_chemical_formula_sum   'Sr10 Hg4 Rh2'
_cell_volume   566.15234012
_cell_formula_units_Z   2
loop_
 _symmetry_equiv_pos_site_id
 _symmetry_equiv_pos_as_xyz
  1  'x, y, z'
loop_
 _atom_site_type_symbol
 _atom_site_label
 _atom_site_symmetry_multiplicity
 _atom_site_fract_x
 _atom_site_fract_y
 _atom_site_fract_z
 _atom_site_occupancy
  Sr  Sr0  1  0.465613  0.953778  0.147193  1
  Sr  Sr1  1  0.193415  0.681580  0.147193  1
  Sr  Sr2  1  0.530680  0.013764  0.822669  1
  Sr  Sr3  1  0.030680  0.208011  0.516915  1
  Sr  Sr4  1  0.693415  0.546222  0.511835  1
  Sr  Sr5  1  0.965613  0.818420  0.511835  1
  Sr  Sr6  1  0.995361  0.986645  0.982006  1
  Sr  Sr7  1  0.495361  0.513355  0.008716  1
  Sr  Sr8  1  0.808905  0.291989  0.822669  1
  Sr  Sr9  1  0.308905  0.486236  0.516915  1
  Hg  Hg10  1  0.378370  0.117885  0.496256  1
  Hg  Hg11  1  0.878370  0.382115  0.260486  1
  Hg  Hg12  1  0.756951  0.750000  0.006951  1
  Hg  Hg13  1  0.256951  0.250000  0.006951  1
  Rh  Rh14  1  0.120706  0.619991  0.740695  1
  Rh  Rh15  1  0.620706  0.880009  0.500715  1
