# generated using pymatgen
data_La6Pr3Er(Sn3Cl)2
_symmetry_space_group_name_H-M   'P 1'
_cell_length_a   9.58898800
_cell_length_b   9.58898819
_cell_length_c   6.84490600
_cell_angle_alpha   90.00000000
_cell_angle_beta   90.00000000
_cell_angle_gamma   119.99999245
_symmetry_Int_Tables_number   1
_chemical_formula_structural   La6Pr3Er(Sn3Cl)2
_chemical_formula_sum   'La6 Pr3 Er1 Sn6 Cl2'
_cell_volume   545.05924710
_cell_formula_units_Z   1
loop_
 _symmetry_equiv_pos_site_id
 _symmetry_equiv_pos_as_xyz
  1  'x, y, z'
loop_
 _atom_site_type_symbol
 _atom_site_label
 _atom_site_symmetry_multiplicity
 _atom_site_fract_x
 _atom_site_fract_y
 _atom_site_fract_z
 _atom_site_occupancy
  La  La0  1  0.738640  0.999905  0.750795  1
  La  La1  1  0.738640  0.738735  0.249205  1
  La  La2  1  0.000095  0.261360  0.249205  1
  La  La3  1  0.000095  0.738735  0.750795  1
  La  La4  1  0.261265  0.261360  0.750795  1
  La  La5  1  0.261265  0.999905  0.249205  1
  Pr  Pr6  1  0.666667  0.333333  0.000000  1
  Pr  Pr7  1  0.333333  0.666667  0.500000  1
  Pr  Pr8  1  0.666667  0.333333  0.500000  1
  Er  Er9  1  0.333333  0.666667  0.000000  1
  Sn  Sn10  1  0.607891  0.611820  0.753332  1
  Sn  Sn11  1  0.003929  0.611820  0.246668  1
  Sn  Sn12  1  0.607891  0.996071  0.246668  1
  Sn  Sn13  1  0.388180  0.996071  0.753332  1
  Sn  Sn14  1  0.003929  0.392109  0.753332  1
  Sn  Sn15  1  0.388180  0.392109  0.246668  1
  Cl  Cl16  1  0.000000  0.000000  0.500000  1
  Cl  Cl17  1  0.000000  0.000000  0.000000  1
