# generated using pymatgen
data_TbSmTcB6
_symmetry_space_group_name_H-M   'P 1'
_cell_length_a   3.73372700
_cell_length_b   9.22700200
_cell_length_c   11.65346400
_cell_angle_alpha   90.00000000
_cell_angle_beta   90.00000000
_cell_angle_gamma   90.00000000
_symmetry_Int_Tables_number   1
_chemical_formula_structural   TbSmTcB6
_chemical_formula_sum   'Tb4 Sm4 Tc4 B24'
_cell_volume   401.47472932
_cell_formula_units_Z   4
loop_
 _symmetry_equiv_pos_site_id
 _symmetry_equiv_pos_as_xyz
  1  'x, y, z'
loop_
 _atom_site_type_symbol
 _atom_site_label
 _atom_site_symmetry_multiplicity
 _atom_site_fract_x
 _atom_site_fract_y
 _atom_site_fract_z
 _atom_site_occupancy
  Tb  Tb0  1  0.000000  0.942756  0.368808  1
  Tb  Tb1  1  0.000000  0.057244  0.631192  1
  Tb  Tb2  1  0.000000  0.442756  0.131192  1
  Tb  Tb3  1  0.000000  0.557244  0.868808  1
  Sm  Sm4  1  0.000000  0.323333  0.414414  1
  Sm  Sm5  1  0.000000  0.676667  0.585586  1
  Sm  Sm6  1  0.000000  0.823333  0.085586  1
  Sm  Sm7  1  0.000000  0.176667  0.914414  1
  Tc  Tc8  1  0.000000  0.639291  0.319770  1
  Tc  Tc9  1  0.000000  0.360709  0.680230  1
  Tc  Tc10  1  0.000000  0.139291  0.180230  1
  Tc  Tc11  1  0.000000  0.860709  0.819770  1
  B  B12  1  0.500000  0.554504  0.431440  1
  B  B13  1  0.500000  0.445496  0.568560  1
  B  B14  1  0.500000  0.054504  0.068560  1
  B  B15  1  0.500000  0.945496  0.931440  1
  B  B16  1  0.500000  0.748704  0.416883  1
  B  B17  1  0.500000  0.251296  0.583117  1
  B  B18  1  0.500000  0.248704  0.083117  1
  B  B19  1  0.500000  0.751296  0.916883  1
  B  B20  1  0.500000  0.791030  0.265705  1
  B  B21  1  0.500000  0.208970  0.734295  1
  B  B22  1  0.500000  0.291030  0.234295  1
  B  B23  1  0.500000  0.708970  0.765705  1
  B  B24  1  0.500000  0.630580  0.186427  1
  B  B25  1  0.500000  0.369420  0.813573  1
  B  B26  1  0.500000  0.130580  0.313573  1
  B  B27  1  0.500000  0.869420  0.686427  1
  B  B28  1  0.500000  0.984003  0.212083  1
  B  B29  1  0.500000  0.015997  0.787917  1
  B  B30  1  0.500000  0.484003  0.287917  1
  B  B31  1  0.500000  0.515997  0.712083  1
  B  B32  1  0.500000  0.598479  0.027275  1
  B  B33  1  0.500000  0.401521  0.972725  1
  B  B34  1  0.500000  0.098479  0.472725  1
  B  B35  1  0.500000  0.901521  0.527275  1
