# generated using pymatgen
data_Pr6CuRh17
_symmetry_space_group_name_H-M   'P 1'
_cell_length_a   5.36681950
_cell_length_b   5.37061578
_cell_length_c   17.55143300
_cell_angle_alpha   90.00000000
_cell_angle_beta   90.00000000
_cell_angle_gamma   119.90068661
_symmetry_Int_Tables_number   1
_chemical_formula_structural   Pr6CuRh17
_chemical_formula_sum   'Pr6 Cu1 Rh17'
_cell_volume   438.54890866
_cell_formula_units_Z   1
loop_
 _symmetry_equiv_pos_site_id
 _symmetry_equiv_pos_as_xyz
  1  'x, y, z'
loop_
 _atom_site_type_symbol
 _atom_site_label
 _atom_site_symmetry_multiplicity
 _atom_site_fract_x
 _atom_site_fract_y
 _atom_site_fract_z
 _atom_site_occupancy
  Pr  Pr0  1  0.333318  0.666684  0.958184  1
  Pr  Pr1  1  0.666677  0.333293  0.042262  1
  Pr  Pr2  1  0.666677  0.333293  0.457738  1
  Pr  Pr3  1  0.333318  0.666684  0.541816  1
  Pr  Pr4  1  0.333336  0.666666  0.750000  1
  Pr  Pr5  1  0.666675  0.333322  0.250000  1
  Cu  Cu6  1  0.333369  0.666707  0.250000  1
  Rh  Rh7  1  0.167883  0.832106  0.371880  1
  Rh  Rh8  1  0.167839  0.335641  0.371834  1
  Rh  Rh9  1  0.664305  0.832120  0.371859  1
  Rh  Rh10  1  0.833589  0.166431  0.626382  1
  Rh  Rh11  1  0.833643  0.667324  0.626458  1
  Rh  Rh12  1  0.332750  0.166405  0.626423  1
  Rh  Rh13  1  0.833589  0.166431  0.873618  1
  Rh  Rh14  1  0.833643  0.667324  0.873542  1
  Rh  Rh15  1  0.332750  0.166405  0.873577  1
  Rh  Rh16  1  0.167883  0.832106  0.128120  1
  Rh  Rh17  1  0.167839  0.335641  0.128166  1
  Rh  Rh18  1  0.664305  0.832120  0.128141  1
  Rh  Rh19  1  0.666652  0.333411  0.750000  1
  Rh  Rh20  1  0.999954  0.000019  0.250000  1
  Rh  Rh21  1  0.000016  0.999900  0.750000  1
  Rh  Rh22  1  0.999993  0.999982  0.497805  1
  Rh  Rh23  1  0.999993  0.999982  0.002195  1
