# generated using pymatgen
data_Dy2Ho4GaNiOs
_symmetry_space_group_name_H-M   'P 1'
_cell_length_a   8.32666066
_cell_length_b   8.32666167
_cell_length_c   8.32666072
_cell_angle_alpha   113.22158938
_cell_angle_beta   110.25470609
_cell_angle_gamma   105.04144237
_symmetry_Int_Tables_number   1
_chemical_formula_structural   Dy2Ho4GaNiOs
_chemical_formula_sum   'Dy4 Ho8 Ga2 Ni2 Os2'
_cell_volume   442.12231460
_cell_formula_units_Z   2
loop_
 _symmetry_equiv_pos_site_id
 _symmetry_equiv_pos_as_xyz
  1  'x, y, z'
loop_
 _atom_site_type_symbol
 _atom_site_label
 _atom_site_symmetry_multiplicity
 _atom_site_fract_x
 _atom_site_fract_y
 _atom_site_fract_z
 _atom_site_occupancy
  Dy  Dy0  1  0.435394  0.242597  0.192796  1
  Dy  Dy1  1  0.564606  0.757403  0.807204  1
  Dy  Dy2  1  0.049801  0.242597  0.807204  1
  Dy  Dy3  1  0.950199  0.757403  0.192796  1
  Ho  Ho4  1  0.179754  0.278425  0.458178  1
  Ho  Ho5  1  0.820246  0.721575  0.541822  1
  Ho  Ho6  1  0.179754  0.721575  0.901329  1
  Ho  Ho7  1  0.820246  0.278425  0.098671  1
  Ho  Ho8  1  0.330584  0.642853  0.312269  1
  Ho  Ho9  1  0.669416  0.357147  0.687731  1
  Ho  Ho10  1  0.330584  0.018314  0.687731  1
  Ho  Ho11  1  0.669416  0.981686  0.312269  1
  Ga  Ga12  1  0.500000  0.500000  0.000000  1
  Ga  Ga13  1  0.000000  0.000000  0.000000  1
  Ni  Ni14  1  0.116465  0.616465  0.500000  1
  Ni  Ni15  1  0.883535  0.383535  0.500000  1
  Os  Os16  1  0.329855  0.000000  0.329855  1
  Os  Os17  1  0.670145  0.000000  0.670145  1
