# generated using pymatgen
data_Zr10Bi2Pb5
_symmetry_space_group_name_H-M   'P 1'
_cell_length_a   6.03536527
_cell_length_b   8.83109126
_cell_length_c   8.83102141
_cell_angle_alpha   119.99733824
_cell_angle_beta   90.03453791
_cell_angle_gamma   89.98410366
_symmetry_Int_Tables_number   1
_chemical_formula_structural   Zr10Bi2Pb5
_chemical_formula_sum   'Zr10 Bi2 Pb5'
_cell_volume   407.63462866
_cell_formula_units_Z   1
loop_
 _symmetry_equiv_pos_site_id
 _symmetry_equiv_pos_as_xyz
  1  'x, y, z'
loop_
 _atom_site_type_symbol
 _atom_site_label
 _atom_site_symmetry_multiplicity
 _atom_site_fract_x
 _atom_site_fract_y
 _atom_site_fract_z
 _atom_site_occupancy
  Zr  Zr0  1  0.500456  0.333468  0.666867  1
  Zr  Zr1  1  0.500452  0.666529  0.333407  1
  Zr  Zr2  1  0.999398  0.666465  0.333350  1
  Zr  Zr3  1  0.999405  0.333537  0.666903  1
  Zr  Zr4  1  0.777946  0.268543  0.999958  1
  Zr  Zr5  1  0.777940  0.731449  0.731436  1
  Zr  Zr6  1  0.777944  0.999997  0.268556  1
  Zr  Zr7  1  0.221986  0.730848  0.999129  1
  Zr  Zr8  1  0.221972  0.269135  0.268280  1
  Zr  Zr9  1  0.221740  0.000020  0.731570  1
  Bi  Bi10  1  0.256962  0.000014  0.386604  1
  Bi  Bi11  1  0.500398  0.999997  0.999635  1
  Pb  Pb12  1  0.742905  0.613712  0.999810  1
  Pb  Pb13  1  0.742889  0.386266  0.386108  1
  Pb  Pb14  1  0.742898  0.000015  0.614428  1
  Pb  Pb15  1  0.257355  0.386095  0.000005  1
  Pb  Pb16  1  0.257353  0.613913  0.613955  1
