# generated using pymatgen
data_Ce2TaOs3
_symmetry_space_group_name_H-M   'P 1'
_cell_length_a   5.71991551
_cell_length_b   5.71991515
_cell_length_c   5.26564680
_cell_angle_alpha   57.10267682
_cell_angle_beta   57.10267788
_cell_angle_gamma   59.99999936
_symmetry_Int_Tables_number   1
_chemical_formula_structural   Ce2TaOs3
_chemical_formula_sum   'Ce2 Ta1 Os3'
_cell_volume   116.20868771
_cell_formula_units_Z   1
loop_
 _symmetry_equiv_pos_site_id
 _symmetry_equiv_pos_as_xyz
  1  'x, y, z'
loop_
 _atom_site_type_symbol
 _atom_site_label
 _atom_site_symmetry_multiplicity
 _atom_site_fract_x
 _atom_site_fract_y
 _atom_site_fract_z
 _atom_site_occupancy
  Ce  Ce0  1  0.747189  0.747189  0.758432  1
  Ce  Ce1  1  0.502811  0.502811  0.491568  1
  Ta  Ta2  1  0.125000  0.125000  0.625000  1
  Os  Os3  1  0.125000  0.625000  0.125000  1
  Os  Os4  1  0.625000  0.125000  0.125000  1
  Os  Os5  1  0.125000  0.125000  0.125000  1
