# generated using pymatgen
data_Dy9Ho3TcRu3
_symmetry_space_group_name_H-M   'P 1'
_cell_length_a   6.28594791
_cell_length_b   7.34376001
_cell_length_c   9.14966519
_cell_angle_alpha   89.99945068
_cell_angle_beta   90.02358802
_cell_angle_gamma   90.03192077
_symmetry_Int_Tables_number   1
_chemical_formula_structural   Dy9Ho3TcRu3
_chemical_formula_sum   'Dy9 Ho3 Tc1 Ru3'
_cell_volume   422.37125299
_cell_formula_units_Z   1
loop_
 _symmetry_equiv_pos_site_id
 _symmetry_equiv_pos_as_xyz
  1  'x, y, z'
loop_
 _atom_site_type_symbol
 _atom_site_label
 _atom_site_symmetry_multiplicity
 _atom_site_fract_x
 _atom_site_fract_y
 _atom_site_fract_z
 _atom_site_occupancy
  Dy  Dy0  1  0.332880  0.676240  0.064613  1
  Dy  Dy1  1  0.167513  0.175848  0.435752  1
  Dy  Dy2  1  0.668046  0.323764  0.564091  1
  Dy  Dy3  1  0.834408  0.824689  0.936934  1
  Dy  Dy4  1  0.668120  0.323605  0.935882  1
  Dy  Dy5  1  0.867842  0.539807  0.250115  1
  Dy  Dy6  1  0.628289  0.041382  0.250075  1
  Dy  Dy7  1  0.134540  0.458091  0.749899  1
  Dy  Dy8  1  0.365896  0.958310  0.749909  1
  Ho  Ho9  1  0.834283  0.824710  0.562949  1
  Ho  Ho10  1  0.332872  0.676124  0.435459  1
  Ho  Ho11  1  0.167574  0.175823  0.064325  1
  Tc  Tc12  1  0.037459  0.885034  0.250250  1
  Ru  Ru13  1  0.461164  0.384248  0.249973  1
  Ru  Ru14  1  0.960482  0.116889  0.750117  1
  Ru  Ru15  1  0.538632  0.615439  0.749658  1
