# generated using pymatgen
data_Er2Tc3Os
_symmetry_space_group_name_H-M   'P 1'
_cell_length_a   5.27910500
_cell_length_b   5.27910522
_cell_length_c   9.06246000
_cell_angle_alpha   90.00000000
_cell_angle_beta   90.00000000
_cell_angle_gamma   120.00000491
_symmetry_Int_Tables_number   1
_chemical_formula_structural   Er2Tc3Os
_chemical_formula_sum   'Er4 Tc6 Os2'
_cell_volume   218.72444884
_cell_formula_units_Z   2
loop_
 _symmetry_equiv_pos_site_id
 _symmetry_equiv_pos_as_xyz
  1  'x, y, z'
loop_
 _atom_site_type_symbol
 _atom_site_label
 _atom_site_symmetry_multiplicity
 _atom_site_fract_x
 _atom_site_fract_y
 _atom_site_fract_z
 _atom_site_occupancy
  Er  Er0  1  0.333333  0.666667  0.436523  1
  Er  Er1  1  0.666667  0.333333  0.563477  1
  Er  Er2  1  0.666667  0.333333  0.936523  1
  Er  Er3  1  0.333333  0.666667  0.063477  1
  Tc  Tc4  1  0.829360  0.170640  0.250000  1
  Tc  Tc5  1  0.829360  0.658720  0.250000  1
  Tc  Tc6  1  0.341280  0.170640  0.250000  1
  Tc  Tc7  1  0.170640  0.829360  0.750000  1
  Tc  Tc8  1  0.170640  0.341280  0.750000  1
  Tc  Tc9  1  0.658720  0.829360  0.750000  1
  Os  Os10  1  0.000000  0.000000  0.500000  1
  Os  Os11  1  0.000000  0.000000  0.000000  1
