# generated using pymatgen
data_TbTh(CoC2)2
_symmetry_space_group_name_H-M   'P 1'
_cell_length_a   3.76280235
_cell_length_b   3.72961774
_cell_length_c   7.40911264
_cell_angle_alpha   82.08745150
_cell_angle_beta   82.14163056
_cell_angle_gamma   90.12244935
_symmetry_Int_Tables_number   1
_chemical_formula_structural   TbTh(CoC2)2
_chemical_formula_sum   'Tb1 Th1 Co2 C4'
_cell_volume   101.99773789
_cell_formula_units_Z   1
loop_
 _symmetry_equiv_pos_site_id
 _symmetry_equiv_pos_as_xyz
  1  'x, y, z'
loop_
 _atom_site_type_symbol
 _atom_site_label
 _atom_site_symmetry_multiplicity
 _atom_site_fract_x
 _atom_site_fract_y
 _atom_site_fract_z
 _atom_site_occupancy
  Tb  Tb0  1  0.068964  0.929922  0.001055  1
  Th  Th1  1  0.930250  0.069575  0.498421  1
  Co  Co2  1  0.371992  0.514140  0.697264  1
  Co  Co3  1  0.511571  0.373960  0.192624  1
  C  C4  1  0.443035  0.592554  0.427034  1
  C  C5  1  0.592906  0.442568  0.929548  1
  C  C6  1  0.491280  0.854686  0.269091  1
  C  C7  1  0.857002  0.489594  0.778761  1
