# generated using pymatgen
data_V12GaSiPt2
_symmetry_space_group_name_H-M   'P 1'
_cell_length_a   4.77582400
_cell_length_b   4.77260200
_cell_length_c   9.58173600
_cell_angle_alpha   90.00000000
_cell_angle_beta   90.00000000
_cell_angle_gamma   90.00000000
_symmetry_Int_Tables_number   1
_chemical_formula_structural   V12GaSiPt2
_chemical_formula_sum   'V12 Ga1 Si1 Pt2'
_cell_volume   218.39753556
_cell_formula_units_Z   1
loop_
 _symmetry_equiv_pos_site_id
 _symmetry_equiv_pos_as_xyz
  1  'x, y, z'
loop_
 _atom_site_type_symbol
 _atom_site_label
 _atom_site_symmetry_multiplicity
 _atom_site_fract_x
 _atom_site_fract_y
 _atom_site_fract_z
 _atom_site_occupancy
  V  V0  1  0.000000  0.500000  0.126624  1
  V  V1  1  0.000000  0.500000  0.624914  1
  V  V2  1  0.500000  0.250259  0.751924  1
  V  V3  1  0.500000  0.245235  0.249633  1
  V  V4  1  0.752759  0.000000  0.004833  1
  V  V5  1  0.750839  0.000000  0.493568  1
  V  V6  1  0.000000  0.500000  0.869101  1
  V  V7  1  0.000000  0.500000  0.379335  1
  V  V8  1  0.500000  0.749741  0.751924  1
  V  V9  1  0.500000  0.754765  0.249633  1
  V  V10  1  0.247241  0.000000  0.004833  1
  V  V11  1  0.249161  0.000000  0.493568  1
  Ga  Ga12  1  0.500000  0.500000  0.001250  1
  Si  Si13  1  0.000000  0.000000  0.249097  1
  Pt  Pt14  1  0.500000  0.500000  0.500825  1
  Pt  Pt15  1  0.000000  0.000000  0.748940  1
