# generated using pymatgen
data_Y2B(IrPd2)2
_symmetry_space_group_name_H-M   'P 1'
_cell_length_a   5.91519100
_cell_length_b   5.91519076
_cell_length_c   5.89508300
_cell_angle_alpha   60.11239138
_cell_angle_beta   60.11239270
_cell_angle_gamma   59.96531982
_symmetry_Int_Tables_number   1
_chemical_formula_structural   Y2B(IrPd2)2
_chemical_formula_sum   'Y2 B1 Ir2 Pd4'
_cell_volume   146.06084528
_cell_formula_units_Z   1
loop_
 _symmetry_equiv_pos_site_id
 _symmetry_equiv_pos_as_xyz
  1  'x, y, z'
loop_
 _atom_site_type_symbol
 _atom_site_label
 _atom_site_symmetry_multiplicity
 _atom_site_fract_x
 _atom_site_fract_y
 _atom_site_fract_z
 _atom_site_occupancy
  Y  Y0  1  0.248916  0.248916  0.255000  1
  Y  Y1  1  0.751084  0.751084  0.752833  1
  B  B2  1  0.000000  0.000000  0.980149  1
  Ir  Ir3  1  0.738473  0.261528  0.746997  1
  Ir  Ir4  1  0.261528  0.738473  0.746997  1
  Pd  Pd5  1  0.747934  0.252067  0.255476  1
  Pd  Pd6  1  0.252067  0.747934  0.255476  1
  Pd  Pd7  1  0.740941  0.740941  0.262595  1
  Pd  Pd8  1  0.259058  0.259058  0.744478  1
