# generated using pymatgen
data_Ho2TmRh9
_symmetry_space_group_name_H-M   'P 1'
_cell_length_a   5.24980200
_cell_length_b   5.24980332
_cell_length_c   17.56923600
_cell_angle_alpha   90.00000000
_cell_angle_beta   90.00000000
_cell_angle_gamma   119.99997907
_symmetry_Int_Tables_number   1
_chemical_formula_structural   Ho2TmRh9
_chemical_formula_sum   'Ho4 Tm2 Rh18'
_cell_volume   419.34315383
_cell_formula_units_Z   2
loop_
 _symmetry_equiv_pos_site_id
 _symmetry_equiv_pos_as_xyz
  1  'x, y, z'
loop_
 _atom_site_type_symbol
 _atom_site_label
 _atom_site_symmetry_multiplicity
 _atom_site_fract_x
 _atom_site_fract_y
 _atom_site_fract_z
 _atom_site_occupancy
  Ho  Ho0  1  0.666667  0.333333  0.457997  1
  Ho  Ho1  1  0.333333  0.666667  0.542003  1
  Ho  Ho2  1  0.333333  0.666667  0.750187  1
  Ho  Ho3  1  0.666667  0.333333  0.249813  1
  Tm  Tm4  1  0.333333  0.666667  0.958055  1
  Tm  Tm5  1  0.666667  0.333333  0.041945  1
  Rh  Rh6  1  0.167370  0.832630  0.374307  1
  Rh  Rh7  1  0.167370  0.334741  0.374307  1
  Rh  Rh8  1  0.665259  0.832630  0.374307  1
  Rh  Rh9  1  0.832630  0.167370  0.625693  1
  Rh  Rh10  1  0.832630  0.665259  0.625693  1
  Rh  Rh11  1  0.334741  0.167370  0.625693  1
  Rh  Rh12  1  0.832534  0.167466  0.874810  1
  Rh  Rh13  1  0.832534  0.665068  0.874810  1
  Rh  Rh14  1  0.334932  0.167466  0.874810  1
  Rh  Rh15  1  0.167466  0.832534  0.125190  1
  Rh  Rh16  1  0.167466  0.334932  0.125190  1
  Rh  Rh17  1  0.665068  0.832534  0.125190  1
  Rh  Rh18  1  0.333333  0.666667  0.249873  1
  Rh  Rh19  1  0.666667  0.333333  0.750127  1
  Rh  Rh20  1  0.000000  0.000000  0.249766  1
  Rh  Rh21  1  0.000000  0.000000  0.750234  1
  Rh  Rh22  1  0.000000  0.000000  0.500000  1
  Rh  Rh23  1  0.000000  0.000000  0.000000  1
