# generated using pymatgen
data_Ho2Lu2ReB12Ru
_symmetry_space_group_name_H-M   'P 1'
_cell_length_a   3.62821300
_cell_length_b   9.08001068
_cell_length_c   11.46787219
_cell_angle_alpha   90.17908978
_cell_angle_beta   90.00000000
_cell_angle_gamma   90.00000000
_symmetry_Int_Tables_number   1
_chemical_formula_structural   Ho2Lu2ReB12Ru
_chemical_formula_sum   'Ho4 Lu4 Re2 B24 Ru2'
_cell_volume   377.79817621
_cell_formula_units_Z   2
loop_
 _symmetry_equiv_pos_site_id
 _symmetry_equiv_pos_as_xyz
  1  'x, y, z'
loop_
 _atom_site_type_symbol
 _atom_site_label
 _atom_site_symmetry_multiplicity
 _atom_site_fract_x
 _atom_site_fract_y
 _atom_site_fract_z
 _atom_site_occupancy
  Ho  Ho0  1  0.000000  0.320578  0.412543  1
  Ho  Ho1  1  0.000000  0.679422  0.587457  1
  Ho  Ho2  1  0.000000  0.823971  0.084683  1
  Ho  Ho3  1  0.000000  0.176029  0.915317  1
  Lu  Lu4  1  0.000000  0.943356  0.370836  1
  Lu  Lu5  1  0.000000  0.056644  0.629164  1
  Lu  Lu6  1  0.000000  0.443292  0.128949  1
  Lu  Lu7  1  0.000000  0.556708  0.871051  1
  Re  Re8  1  0.000000  0.139162  0.180331  1
  Re  Re9  1  0.000000  0.860838  0.819669  1
  B  B10  1  0.500000  0.554232  0.433054  1
  B  B11  1  0.500000  0.445768  0.566946  1
  B  B12  1  0.500000  0.053437  0.066941  1
  B  B13  1  0.500000  0.946563  0.933059  1
  B  B14  1  0.500000  0.750208  0.418860  1
  B  B15  1  0.500000  0.249792  0.581140  1
  B  B16  1  0.500000  0.250664  0.080956  1
  B  B17  1  0.500000  0.749336  0.919044  1
  B  B18  1  0.500000  0.791757  0.265705  1
  B  B19  1  0.500000  0.208243  0.734295  1
  B  B20  1  0.500000  0.293090  0.234985  1
  B  B21  1  0.500000  0.706910  0.765015  1
  B  B22  1  0.500000  0.630384  0.185208  1
  B  B23  1  0.500000  0.369616  0.814792  1
  B  B24  1  0.500000  0.130693  0.315789  1
  B  B25  1  0.500000  0.869307  0.684211  1
  B  B26  1  0.500000  0.981856  0.213143  1
  B  B27  1  0.500000  0.018144  0.786857  1
  B  B28  1  0.500000  0.482850  0.287549  1
  B  B29  1  0.500000  0.517150  0.712451  1
  B  B30  1  0.500000  0.601014  0.028051  1
  B  B31  1  0.500000  0.398986  0.971949  1
  B  B32  1  0.500000  0.101302  0.472323  1
  B  B33  1  0.500000  0.898698  0.527677  1
  Ru  Ru34  1  0.000000  0.638624  0.320820  1
  Ru  Ru35  1  0.000000  0.361376  0.679180  1
