# generated using pymatgen
data_Y13Er7Ir11Ru
_symmetry_space_group_name_H-M   'P 1'
_cell_length_a   10.87587407
_cell_length_b   10.87119026
_cell_length_c   6.39566211
_cell_angle_alpha   90.02108346
_cell_angle_beta   90.00009098
_cell_angle_gamma   90.01335237
_symmetry_Int_Tables_number   1
_chemical_formula_structural   Y13Er7Ir11Ru
_chemical_formula_sum   'Y13 Er7 Ir11 Ru1'
_cell_volume   756.18269946
_cell_formula_units_Z   1
loop_
 _symmetry_equiv_pos_site_id
 _symmetry_equiv_pos_as_xyz
  1  'x, y, z'
loop_
 _atom_site_type_symbol
 _atom_site_label
 _atom_site_symmetry_multiplicity
 _atom_site_fract_x
 _atom_site_fract_y
 _atom_site_fract_z
 _atom_site_occupancy
  Y  Y0  1  0.291350  0.087168  0.376199  1
  Y  Y1  1  0.291733  0.912727  0.878922  1
  Y  Y2  1  0.708254  0.087273  0.879148  1
  Y  Y3  1  0.708277  0.913162  0.376355  1
  Y  Y4  1  0.587016  0.792077  0.879116  1
  Y  Y5  1  0.586940  0.208351  0.376427  1
  Y  Y6  1  0.413007  0.791637  0.376499  1
  Y  Y7  1  0.412858  0.207930  0.879268  1
  Y  Y8  1  0.209226  0.411894  0.622496  1
  Y  Y9  1  0.209339  0.587765  0.122138  1
  Y  Y10  1  0.790888  0.411824  0.122045  1
  Y  Y11  1  0.790794  0.587835  0.622475  1
  Y  Y12  1  0.912509  0.709608  0.122102  1
  Er  Er13  1  0.912429  0.291323  0.621637  1
  Er  Er14  1  0.087728  0.708525  0.621470  1
  Er  Er15  1  0.087320  0.291419  0.121131  1
  Er  Er16  1  0.000050  0.000045  0.499682  1
  Er  Er17  1  0.000165  0.000384  0.999459  1
  Er  Er18  1  0.499995  0.499955  0.999146  1
  Er  Er19  1  0.499960  0.499931  0.499334  1
  Ir  Ir20  1  0.849430  0.153297  0.251199  1
  Ir  Ir21  1  0.849106  0.847721  0.749300  1
  Ir  Ir22  1  0.150643  0.152918  0.751138  1
  Ir  Ir23  1  0.151258  0.847087  0.251605  1
  Ir  Ir24  1  0.652938  0.348253  0.749118  1
  Ir  Ir25  1  0.652449  0.651503  0.249836  1
  Ir  Ir26  1  0.346592  0.348309  0.249325  1
  Ir  Ir27  1  0.347070  0.651701  0.749144  1
  Ir  Ir28  1  0.499994  0.000043  0.623617  1
  Ir  Ir29  1  0.000384  0.499102  0.877129  1
  Ir  Ir30  1  0.000368  0.499202  0.379034  1
  Ru  Ru31  1  0.499927  0.000031  0.124503  1
