# generated using pymatgen
data_YbPr3(Al8Pt3)3
_symmetry_space_group_name_H-M   'P 1'
_cell_length_a   7.54847272
_cell_length_b   7.56868607
_cell_length_c   13.36851992
_cell_angle_alpha   84.65596181
_cell_angle_beta   100.80260594
_cell_angle_gamma   119.71080781
_symmetry_Int_Tables_number   1
_chemical_formula_structural   YbPr3(Al8Pt3)3
_chemical_formula_sum   'Yb1 Pr3 Al24 Pt9'
_cell_volume   651.60810072
_cell_formula_units_Z   1
loop_
 _symmetry_equiv_pos_site_id
 _symmetry_equiv_pos_as_xyz
  1  'x, y, z'
loop_
 _atom_site_type_symbol
 _atom_site_label
 _atom_site_symmetry_multiplicity
 _atom_site_fract_x
 _atom_site_fract_y
 _atom_site_fract_z
 _atom_site_occupancy
  Yb  Yb0  1  0.233540  0.498248  0.193444  1
  Pr  Pr1  1  0.436944  0.830637  0.808783  1
  Pr  Pr2  1  0.562762  0.169144  0.191957  1
  Pr  Pr3  1  0.769102  0.502278  0.809120  1
  Al  Al4  1  0.479288  0.166032  0.946240  1
  Al  Al5  1  0.518625  0.831753  0.054682  1
  Al  Al6  1  0.021785  0.168333  0.560272  1
  Al  Al7  1  0.978414  0.831707  0.439577  1
  Al  Al8  1  0.354281  0.833402  0.558230  1
  Al  Al9  1  0.645818  0.166299  0.441832  1
  Al  Al10  1  0.618504  0.833139  0.331840  1
  Al  Al11  1  0.379846  0.165524  0.667032  1
  Al  Al12  1  0.055157  0.492727  0.666556  1
  Al  Al13  1  0.946276  0.508342  0.332070  1
  Al  Al14  1  0.730540  0.841050  0.665200  1
  Al  Al15  1  0.268473  0.160161  0.333751  1
  Al  Al16  1  0.148619  0.497898  0.949248  1
  Al  Al17  1  0.854439  0.501790  0.054220  1
  Al  Al18  1  0.819197  0.834168  0.956728  1
  Al  Al19  1  0.180661  0.166675  0.044006  1
  Al  Al20  1  0.313883  0.500561  0.440677  1
  Al  Al21  1  0.685778  0.499771  0.558553  1
  Al  Al22  1  0.100472  0.834989  0.183702  1
  Al  Al23  1  0.899857  0.164791  0.816045  1
  Al  Al24  1  0.304042  0.366340  0.814840  1
  Al  Al25  1  0.694896  0.633348  0.184419  1
  Al  Al26  1  0.102429  0.962230  0.815471  1
  Al  Al27  1  0.898020  0.039263  0.184100  1
  Pt  Pt28  1  0.385104  0.505498  0.635993  1
  Pt  Pt29  1  0.613823  0.494344  0.363085  1
  Pt  Pt30  1  0.171121  0.829359  0.999811  1
  Pt  Pt31  1  0.828638  0.170064  0.000468  1
  Pt  Pt32  1  0.293423  0.831951  0.362929  1
  Pt  Pt33  1  0.706066  0.167110  0.636414  1
  Pt  Pt34  1  0.046852  0.827787  0.635280  1
  Pt  Pt35  1  0.953469  0.173636  0.363615  1
  Pt  Pt36  1  0.499856  0.499652  0.999811  1
