# generated using pymatgen
data_Sn(S8I)3
_symmetry_space_group_name_H-M   'P 1'
_cell_length_a   15.33061352
_cell_length_b   15.33061392
_cell_length_c   15.33061388
_cell_angle_alpha   118.80407037
_cell_angle_beta   118.80407243
_cell_angle_gamma   118.80407176
_symmetry_Int_Tables_number   1
_chemical_formula_structural   Sn(S8I)3
_chemical_formula_sum   'Sn1 S24 I3'
_cell_volume   1018.20039873
_cell_formula_units_Z   1
loop_
 _symmetry_equiv_pos_site_id
 _symmetry_equiv_pos_as_xyz
  1  'x, y, z'
loop_
 _atom_site_type_symbol
 _atom_site_label
 _atom_site_symmetry_multiplicity
 _atom_site_fract_x
 _atom_site_fract_y
 _atom_site_fract_z
 _atom_site_occupancy
  Sn  Sn0  1  0.248067  0.248067  0.248067  1
  S  S1  1  0.013641  0.606985  0.606985  1
  S  S2  1  0.606985  0.606985  0.013641  1
  S  S3  1  0.606985  0.013641  0.606985  1
  S  S4  1  0.233403  0.842456  0.715050  1
  S  S5  1  0.842456  0.715050  0.233403  1
  S  S6  1  0.715050  0.233403  0.842456  1
  S  S7  1  0.842456  0.233403  0.715050  1
  S  S8  1  0.233403  0.715050  0.842456  1
  S  S9  1  0.715050  0.842456  0.233403  1
  S  S10  1  0.101487  0.629027  0.448807  1
  S  S11  1  0.629027  0.448807  0.101487  1
  S  S12  1  0.448807  0.101487  0.629027  1
  S  S13  1  0.629027  0.101487  0.448807  1
  S  S14  1  0.101487  0.448807  0.629027  1
  S  S15  1  0.448807  0.629027  0.101487  1
  S  S16  1  0.356913  0.745487  0.617965  1
  S  S17  1  0.745487  0.617965  0.356913  1
  S  S18  1  0.617965  0.356913  0.745487  1
  S  S19  1  0.745487  0.356913  0.617965  1
  S  S20  1  0.356913  0.617965  0.745487  1
  S  S21  1  0.617965  0.745487  0.356913  1
  S  S22  1  0.188271  0.469793  0.469793  1
  S  S23  1  0.469793  0.469793  0.188271  1
  S  S24  1  0.469793  0.188271  0.469793  1
  I  I25  1  0.131917  0.965228  0.965228  1
  I  I26  1  0.965228  0.965228  0.131917  1
  I  I27  1  0.965228  0.131917  0.965228  1
