# generated using pymatgen
data_Nd10Ru2Cl15
_symmetry_space_group_name_H-M   'P 1'
_cell_length_a   9.39472230
_cell_length_b   10.27361266
_cell_length_c   10.85255023
_cell_angle_alpha   90.22951786
_cell_angle_beta   114.82393271
_cell_angle_gamma   111.36133271
_symmetry_Int_Tables_number   1
_chemical_formula_structural   Nd10Ru2Cl15
_chemical_formula_sum   'Nd10 Ru2 Cl15'
_cell_volume   869.97742348
_cell_formula_units_Z   1
loop_
 _symmetry_equiv_pos_site_id
 _symmetry_equiv_pos_as_xyz
  1  'x, y, z'
loop_
 _atom_site_type_symbol
 _atom_site_label
 _atom_site_symmetry_multiplicity
 _atom_site_fract_x
 _atom_site_fract_y
 _atom_site_fract_z
 _atom_site_occupancy
  Nd  Nd0  1  0.817389  0.418092  0.274332  1
  Nd  Nd1  1  0.182611  0.581908  0.725668  1
  Nd  Nd2  1  0.677252  0.745886  0.816330  1
  Nd  Nd3  1  0.322748  0.254114  0.183670  1
  Nd  Nd4  1  0.532367  0.703237  0.110906  1
  Nd  Nd5  1  0.467633  0.296763  0.889094  1
  Nd  Nd6  1  0.605288  0.050764  0.346530  1
  Nd  Nd7  1  0.394712  0.949236  0.653470  1
  Nd  Nd8  1  0.754395  0.087482  0.051288  1
  Nd  Nd9  1  0.245605  0.912518  0.948712  1
  Ru  Ru10  1  0.465396  0.827402  0.883036  1
  Ru  Ru11  1  0.534604  0.172598  0.116964  1
  Cl  Cl12  1  0.000000  0.000000  0.000000  1
  Cl  Cl13  1  0.633590  0.891129  0.591274  1
  Cl  Cl14  1  0.366410  0.108871  0.408726  1
  Cl  Cl15  1  0.891933  0.306125  0.519475  1
  Cl  Cl16  1  0.108067  0.693875  0.480525  1
  Cl  Cl17  1  0.321370  0.776798  0.195533  1
  Cl  Cl18  1  0.678630  0.223202  0.804467  1
  Cl  Cl19  1  0.062126  0.345426  0.223828  1
  Cl  Cl20  1  0.178289  0.058575  0.703496  1
  Cl  Cl21  1  0.821711  0.941425  0.296504  1
  Cl  Cl22  1  0.259992  0.418614  0.953185  1
  Cl  Cl23  1  0.740008  0.581386  0.046815  1
  Cl  Cl24  1  0.404306  0.477418  0.671300  1
  Cl  Cl25  1  0.595694  0.522582  0.328700  1
  Cl  Cl26  1  0.937874  0.654574  0.776172  1
