# generated using pymatgen
data_TbY3Sc4(CrB6)4
_symmetry_space_group_name_H-M   'P 1'
_cell_length_a   3.47237200
_cell_length_b   9.01793000
_cell_length_c   11.38522400
_cell_angle_alpha   90.00006196
_cell_angle_beta   90.00000000
_cell_angle_gamma   90.00000000
_symmetry_Int_Tables_number   1
_chemical_formula_structural   TbY3Sc4(CrB6)4
_chemical_formula_sum   'Tb1 Y3 Sc4 Cr4 B24'
_cell_volume   356.51243712
_cell_formula_units_Z   1
loop_
 _symmetry_equiv_pos_site_id
 _symmetry_equiv_pos_as_xyz
  1  'x, y, z'
loop_
 _atom_site_type_symbol
 _atom_site_label
 _atom_site_symmetry_multiplicity
 _atom_site_fract_x
 _atom_site_fract_y
 _atom_site_fract_z
 _atom_site_occupancy
  Tb  Tb0  1  0.000000  0.822811  0.085299  1
  Y  Y1  1  0.000000  0.177227  0.914711  1
  Y  Y2  1  0.000000  0.322789  0.414698  1
  Y  Y3  1  0.000000  0.677234  0.585274  1
  Sc  Sc4  1  0.000000  0.443193  0.130924  1
  Sc  Sc5  1  0.000000  0.556765  0.869089  1
  Sc  Sc6  1  0.000000  0.943273  0.369153  1
  Sc  Sc7  1  0.000000  0.056715  0.630835  1
  Cr  Cr8  1  0.000000  0.141663  0.182157  1
  Cr  Cr9  1  0.000000  0.858329  0.817836  1
  Cr  Cr10  1  0.000000  0.641625  0.317923  1
  Cr  Cr11  1  0.000000  0.358357  0.682126  1
  B  B12  1  0.500000  0.055062  0.067962  1
  B  B13  1  0.500000  0.945080  0.931905  1
  B  B14  1  0.500000  0.554931  0.432090  1
  B  B15  1  0.500000  0.445080  0.567912  1
  B  B16  1  0.500000  0.253240  0.082783  1
  B  B17  1  0.500000  0.746779  0.917019  1
  B  B18  1  0.500000  0.753239  0.417210  1
  B  B19  1  0.500000  0.246745  0.582786  1
  B  B20  1  0.500000  0.294537  0.235430  1
  B  B21  1  0.500000  0.705460  0.764539  1
  B  B22  1  0.500000  0.794447  0.264701  1
  B  B23  1  0.500000  0.205439  0.735447  1
  B  B24  1  0.500000  0.129495  0.316491  1
  B  B25  1  0.500000  0.870528  0.683507  1
  B  B26  1  0.500000  0.629398  0.183620  1
  B  B27  1  0.500000  0.370501  0.816516  1
  B  B28  1  0.500000  0.482802  0.286434  1
  B  B29  1  0.500000  0.517216  0.713583  1
  B  B30  1  0.500000  0.982955  0.213646  1
  B  B31  1  0.500000  0.017216  0.786414  1
  B  B32  1  0.500000  0.095842  0.473986  1
  B  B33  1  0.500000  0.904176  0.526035  1
  B  B34  1  0.500000  0.595659  0.025982  1
  B  B35  1  0.500000  0.404197  0.973978  1
