# generated using pymatgen
data_NaYP6Pd20Pb
_symmetry_space_group_name_H-M   'P 1'
_cell_length_a   8.67529746
_cell_length_b   8.67552256
_cell_length_c   8.67523203
_cell_angle_alpha   59.99671007
_cell_angle_beta   59.99875208
_cell_angle_gamma   60.00061709
_symmetry_Int_Tables_number   1
_chemical_formula_structural   NaYP6Pd20Pb
_chemical_formula_sum   'Na1 Y1 P6 Pd20 Pb1'
_cell_volume   461.67169632
_cell_formula_units_Z   1
loop_
 _symmetry_equiv_pos_site_id
 _symmetry_equiv_pos_as_xyz
  1  'x, y, z'
loop_
 _atom_site_type_symbol
 _atom_site_label
 _atom_site_symmetry_multiplicity
 _atom_site_fract_x
 _atom_site_fract_y
 _atom_site_fract_z
 _atom_site_occupancy
  Na  Na0  1  0.000002  0.000010  0.999984  1
  Y  Y1  1  0.750002  0.749985  0.749989  1
  P  P2  1  0.738697  0.261302  0.261302  1
  P  P3  1  0.261298  0.738701  0.738702  1
  P  P4  1  0.261309  0.738685  0.261314  1
  P  P5  1  0.738690  0.261314  0.738696  1
  P  P6  1  0.261286  0.261299  0.738709  1
  P  P7  1  0.738707  0.738702  0.261300  1
  Pd  Pd8  1  0.384248  0.384301  0.384244  1
  Pd  Pd9  1  0.614207  0.614234  0.614222  1
  Pd  Pd10  1  0.384296  0.384229  0.847219  1
  Pd  Pd11  1  0.384262  0.847259  0.384198  1
  Pd  Pd12  1  0.614251  0.614216  0.157314  1
  Pd  Pd13  1  0.614224  0.157298  0.614231  1
  Pd  Pd14  1  0.847273  0.384251  0.384258  1
  Pd  Pd15  1  0.157312  0.614232  0.614226  1
  Pd  Pd16  1  0.348944  0.996604  0.996678  1
  Pd  Pd17  1  0.657798  0.996594  0.996626  1
  Pd  Pd18  1  0.996656  0.348913  0.657751  1
  Pd  Pd19  1  0.996605  0.657828  0.348966  1
  Pd  Pd20  1  0.996596  0.348936  0.996632  1
  Pd  Pd21  1  0.657870  0.996580  0.348965  1
  Pd  Pd22  1  0.996552  0.657863  0.996605  1
  Pd  Pd23  1  0.348921  0.996640  0.657810  1
  Pd  Pd24  1  0.996606  0.996597  0.348945  1
  Pd  Pd25  1  0.996628  0.996664  0.657793  1
  Pd  Pd26  1  0.657793  0.348954  0.996635  1
  Pd  Pd27  1  0.348955  0.657797  0.996656  1
  Pb  Pb28  1  0.250010  0.250013  0.250029  1
