# generated using pymatgen
data_HoLu6Th(CdRh)2
_symmetry_space_group_name_H-M   'P 1'
_cell_length_a   9.42997160
_cell_length_b   9.42997138
_cell_length_c   9.43956400
_cell_angle_alpha   59.96634400
_cell_angle_beta   59.96634478
_cell_angle_gamma   60.03550929
_symmetry_Int_Tables_number   1
_chemical_formula_structural   HoLu6Th(CdRh)2
_chemical_formula_sum   'Ho2 Lu12 Th2 Cd4 Rh4'
_cell_volume   593.40728783
_cell_formula_units_Z   2
loop_
 _symmetry_equiv_pos_site_id
 _symmetry_equiv_pos_as_xyz
  1  'x, y, z'
loop_
 _atom_site_type_symbol
 _atom_site_label
 _atom_site_symmetry_multiplicity
 _atom_site_fract_x
 _atom_site_fract_y
 _atom_site_fract_z
 _atom_site_occupancy
  Ho  Ho0  1  0.568764  0.568764  0.931236  1
  Ho  Ho1  1  0.941069  0.941069  0.558931  1
  Lu  Lu2  1  0.358509  0.938923  0.351284  1
  Lu  Lu3  1  0.938923  0.358509  0.351284  1
  Lu  Lu4  1  0.813458  0.187089  0.187763  1
  Lu  Lu5  1  0.187089  0.813458  0.811690  1
  Lu  Lu6  1  0.187089  0.813458  0.187763  1
  Lu  Lu7  1  0.813458  0.187089  0.811690  1
  Lu  Lu8  1  0.183296  0.183296  0.816704  1
  Lu  Lu9  1  0.812543  0.812543  0.187457  1
  Lu  Lu10  1  0.935536  0.567278  0.564488  1
  Lu  Lu11  1  0.567278  0.935536  0.932699  1
  Lu  Lu12  1  0.567278  0.935536  0.564488  1
  Lu  Lu13  1  0.935536  0.567278  0.932699  1
  Th  Th14  1  0.347456  0.347456  0.352517  1
  Th  Th15  1  0.347456  0.347456  0.952571  1
  Cd  Cd16  1  0.583135  0.583135  0.578919  1
  Cd  Cd17  1  0.583135  0.583135  0.254813  1
  Cd  Cd18  1  0.581741  0.252059  0.583100  1
  Cd  Cd19  1  0.252059  0.581741  0.583100  1
  Rh  Rh20  1  0.140470  0.140470  0.150985  1
  Rh  Rh21  1  0.140470  0.140470  0.568075  1
  Rh  Rh22  1  0.141370  0.572886  0.142871  1
  Rh  Rh23  1  0.572886  0.141370  0.142871  1
