# generated using pymatgen
data_Y4Ho2Co11P12Ir7
_symmetry_space_group_name_H-M   'P 1'
_cell_length_a   3.77860400
_cell_length_b   10.78214727
_cell_length_c   12.49311532
_cell_angle_alpha   89.73441440
_cell_angle_beta   90.00000000
_cell_angle_gamma   90.00000000
_symmetry_Int_Tables_number   1
_chemical_formula_structural   Y4Ho2Co11P12Ir7
_chemical_formula_sum   'Y4 Ho2 Co11 P12 Ir7'
_cell_volume   508.98235018
_cell_formula_units_Z   1
loop_
 _symmetry_equiv_pos_site_id
 _symmetry_equiv_pos_as_xyz
  1  'x, y, z'
loop_
 _atom_site_type_symbol
 _atom_site_label
 _atom_site_symmetry_multiplicity
 _atom_site_fract_x
 _atom_site_fract_y
 _atom_site_fract_z
 _atom_site_occupancy
  Y  Y0  1  0.000000  0.500949  0.522171  1
  Y  Y1  1  0.500000  0.994853  0.481993  1
  Y  Y2  1  0.500000  0.814445  0.199748  1
  Y  Y3  1  0.000000  0.687481  0.798000  1
  Ho  Ho4  1  0.500000  0.184007  0.197712  1
  Ho  Ho5  1  0.000000  0.316629  0.802376  1
  Co  Co6  1  0.000000  0.500487  0.990684  1
  Co  Co7  1  0.500000  0.000416  0.008735  1
  Co  Co8  1  0.000000  0.796001  0.570791  1
  Co  Co9  1  0.500000  0.881200  0.713221  1
  Co  Co10  1  0.500000  0.121341  0.717775  1
  Co  Co11  1  0.000000  0.619505  0.284738  1
  Co  Co12  1  0.000000  0.378427  0.283431  1
  Co  Co13  1  0.500000  0.333023  0.995109  1
  Co  Co14  1  0.500000  0.668533  0.994295  1
  Co  Co15  1  0.000000  0.167048  0.004814  1
  Co  Co16  1  0.000000  0.833688  0.004585  1
  P  P17  1  0.500000  0.309004  0.625796  1
  P  P18  1  0.500000  0.697821  0.621510  1
  P  P19  1  0.000000  0.189403  0.375834  1
  P  P20  1  0.000000  0.811744  0.382462  1
  P  P21  1  0.500000  0.501202  0.893075  1
  P  P22  1  0.000000  0.999698  0.106678  1
  P  P23  1  0.500000  0.844711  0.895900  1
  P  P24  1  0.500000  0.157546  0.896649  1
  P  P25  1  0.000000  0.656618  0.102655  1
  P  P26  1  0.000000  0.342910  0.102758  1
  P  P27  1  0.500000  0.499711  0.344542  1
  P  P28  1  0.000000  0.990461  0.653336  1
  Ir  Ir29  1  0.500000  0.297243  0.426605  1
  Ir  Ir30  1  0.500000  0.700831  0.427748  1
  Ir  Ir31  1  0.000000  0.198701  0.575551  1
  Ir  Ir32  1  0.500000  0.500899  0.159539  1
  Ir  Ir33  1  0.000000  0.002134  0.839844  1
  Ir  Ir34  1  0.500000  0.501070  0.707329  1
  Ir  Ir35  1  0.000000  0.000259  0.292010  1
