# generated using pymatgen
data_Eu2Al20Ir3Ru
_symmetry_space_group_name_H-M   'P 1'
_cell_length_a   6.87221631
_cell_length_b   6.86086277
_cell_length_c   9.15466924
_cell_angle_alpha   89.98258242
_cell_angle_beta   89.92488234
_cell_angle_gamma   96.95233410
_symmetry_Int_Tables_number   1
_chemical_formula_structural   Eu2Al20Ir3Ru
_chemical_formula_sum   'Eu2 Al20 Ir3 Ru1'
_cell_volume   428.46239462
_cell_formula_units_Z   1
loop_
 _symmetry_equiv_pos_site_id
 _symmetry_equiv_pos_as_xyz
  1  'x, y, z'
loop_
 _atom_site_type_symbol
 _atom_site_label
 _atom_site_symmetry_multiplicity
 _atom_site_fract_x
 _atom_site_fract_y
 _atom_site_fract_z
 _atom_site_occupancy
  Eu  Eu0  1  0.877364  0.121731  0.749892  1
  Eu  Eu1  1  0.122636  0.878269  0.250108  1
  Al  Al2  1  0.776864  0.776165  0.999415  1
  Al  Al3  1  0.777956  0.774986  0.498692  1
  Al  Al4  1  0.223136  0.223835  0.000585  1
  Al  Al5  1  0.222044  0.225014  0.501308  1
  Al  Al6  1  0.621678  0.378878  0.947457  1
  Al  Al7  1  0.378322  0.621122  0.052543  1
  Al  Al8  1  0.623691  0.379541  0.551853  1
  Al  Al9  1  0.376309  0.620459  0.448147  1
  Al  Al10  1  0.842466  0.160278  0.398604  1
  Al  Al11  1  0.157534  0.839722  0.601396  1
  Al  Al12  1  0.841339  0.158068  0.102742  1
  Al  Al13  1  0.158661  0.841932  0.897258  1
  Al  Al14  1  0.410827  0.142759  0.749703  1
  Al  Al15  1  0.141888  0.412444  0.251391  1
  Al  Al16  1  0.589173  0.857241  0.250297  1
  Al  Al17  1  0.858112  0.587556  0.748609  1
  Al  Al18  1  0.519212  0.774641  0.750343  1
  Al  Al19  1  0.776655  0.519295  0.252182  1
  Al  Al20  1  0.480788  0.225359  0.249657  1
  Al  Al21  1  0.223345  0.480705  0.747818  1
  Ir  Ir22  1  0.500000  0.000000  0.000000  1
  Ir  Ir23  1  0.000000  0.500000  0.000000  1
  Ir  Ir24  1  0.500000  0.000000  0.500000  1
  Ru  Ru25  1  0.000000  0.500000  0.500000  1
