# generated using pymatgen
data_RbNa(NbCl3)3
_symmetry_space_group_name_H-M   'P 1'
_cell_length_a   9.63172738
_cell_length_b   9.81687632
_cell_length_c   9.86200183
_cell_angle_alpha   119.18634204
_cell_angle_beta   97.51040438
_cell_angle_gamma   105.15963681
_symmetry_Int_Tables_number   1
_chemical_formula_structural   RbNa(NbCl3)3
_chemical_formula_sum   'Rb2 Na2 Nb6 Cl18'
_cell_volume   747.96117965
_cell_formula_units_Z   2
loop_
 _symmetry_equiv_pos_site_id
 _symmetry_equiv_pos_as_xyz
  1  'x, y, z'
loop_
 _atom_site_type_symbol
 _atom_site_label
 _atom_site_symmetry_multiplicity
 _atom_site_fract_x
 _atom_site_fract_y
 _atom_site_fract_z
 _atom_site_occupancy
  Rb  Rb0  1  0.331017  0.476895  0.264592  1
  Rb  Rb1  1  0.668983  0.523105  0.735408  1
  Na  Na2  1  0.639295  0.200155  0.055794  1
  Na  Na3  1  0.360705  0.799845  0.944206  1
  Nb  Nb4  1  0.128560  0.894419  0.353732  1
  Nb  Nb5  1  0.862641  0.761297  0.434149  1
  Nb  Nb6  1  0.859680  0.973788  0.302651  1
  Nb  Nb7  1  0.871440  0.105581  0.646268  1
  Nb  Nb8  1  0.137359  0.238703  0.565851  1
  Nb  Nb9  1  0.140320  0.026212  0.697349  1
  Cl  Cl10  1  0.679769  0.461959  0.357085  1
  Cl  Cl11  1  0.676474  0.929350  0.043826  1
  Cl  Cl12  1  0.326435  0.314633  0.813157  1
  Cl  Cl13  1  0.673565  0.685367  0.186843  1
  Cl  Cl14  1  0.289678  0.756720  0.176214  1
  Cl  Cl15  1  0.683773  0.090197  0.437757  1
  Cl  Cl16  1  0.320231  0.538041  0.642915  1
  Cl  Cl17  1  0.986596  0.594157  0.248308  1
  Cl  Cl18  1  0.687127  0.842088  0.594817  1
  Cl  Cl19  1  0.710322  0.243280  0.823786  1
  Cl  Cl20  1  0.006160  0.747274  0.652144  1
  Cl  Cl21  1  0.011381  0.149029  0.903677  1
  Cl  Cl22  1  0.993840  0.252726  0.347856  1
  Cl  Cl23  1  0.312873  0.157912  0.405183  1
  Cl  Cl24  1  0.323526  0.070650  0.956174  1
  Cl  Cl25  1  0.013404  0.405843  0.751692  1
  Cl  Cl26  1  0.988619  0.850971  0.096323  1
  Cl  Cl27  1  0.316227  0.909803  0.562243  1
