# generated using pymatgen
data_Dy5Lu5Si5P
_symmetry_space_group_name_H-M   'P 1'
_cell_length_a   8.31621071
_cell_length_b   8.33597488
_cell_length_c   6.17784400
_cell_angle_alpha   90.00000000
_cell_angle_beta   90.00000000
_cell_angle_gamma   120.05577635
_symmetry_Int_Tables_number   1
_chemical_formula_structural   Dy5Lu5Si5P
_chemical_formula_sum   'Dy5 Lu5 Si5 P1'
_cell_volume   370.68506307
_cell_formula_units_Z   1
loop_
 _symmetry_equiv_pos_site_id
 _symmetry_equiv_pos_as_xyz
  1  'x, y, z'
loop_
 _atom_site_type_symbol
 _atom_site_label
 _atom_site_symmetry_multiplicity
 _atom_site_fract_x
 _atom_site_fract_y
 _atom_site_fract_z
 _atom_site_occupancy
  Dy  Dy0  1  0.000693  0.754893  0.750000  1
  Dy  Dy1  1  0.755958  0.755216  0.250000  1
  Dy  Dy2  1  0.754153  0.000457  0.750000  1
  Dy  Dy3  1  0.244555  0.244349  0.750000  1
  Dy  Dy4  1  0.245072  0.000347  0.250000  1
  Lu  Lu5  1  0.001073  0.245806  0.250000  1
  Lu  Lu6  1  0.666524  0.332372  0.000438  1
  Lu  Lu7  1  0.333360  0.667105  0.499509  1
  Lu  Lu8  1  0.333360  0.667105  0.000491  1
  Lu  Lu9  1  0.666524  0.332372  0.499562  1
  Si  Si10  1  0.393671  0.394337  0.250000  1
  Si  Si11  1  0.000661  0.603848  0.250000  1
  Si  Si12  1  0.000109  0.394947  0.750000  1
  Si  Si13  1  0.605243  0.605324  0.750000  1
  Si  Si14  1  0.607867  0.001352  0.250000  1
  P  P15  1  0.391179  0.000169  0.750000  1
