# generated using pymatgen
data_Nd6Si3Pd
_symmetry_space_group_name_H-M   'P 1'
_cell_length_a   7.78845530
_cell_length_b   7.78845530
_cell_length_c   4.37936200
_cell_angle_alpha   90.00000000
_cell_angle_beta   90.00000000
_cell_angle_gamma   93.71260748
_symmetry_Int_Tables_number   1
_chemical_formula_structural   Nd6Si3Pd
_chemical_formula_sum   'Nd6 Si3 Pd1'
_cell_volume   265.09475683
_cell_formula_units_Z   1
loop_
 _symmetry_equiv_pos_site_id
 _symmetry_equiv_pos_as_xyz
  1  'x, y, z'
loop_
 _atom_site_type_symbol
 _atom_site_label
 _atom_site_symmetry_multiplicity
 _atom_site_fract_x
 _atom_site_fract_y
 _atom_site_fract_z
 _atom_site_occupancy
  Nd  Nd0  1  0.007804  0.008575  0.000000  1
  Nd  Nd1  1  0.491425  0.492196  0.000000  1
  Nd  Nd2  1  0.678126  0.169541  0.500000  1
  Nd  Nd3  1  0.160954  0.339047  0.500000  1
  Nd  Nd4  1  0.825007  0.674994  0.500000  1
  Nd  Nd5  1  0.330460  0.821875  0.500000  1
  Si  Si6  1  0.882483  0.387569  0.000000  1
  Si  Si7  1  0.112431  0.617517  0.000000  1
  Si  Si8  1  0.622886  0.877114  0.000000  1
  Pd  Pd9  1  0.388426  0.111574  0.000000  1
