# generated using pymatgen
data_Li3GeIr
_symmetry_space_group_name_H-M   'P 1'
_cell_length_a   6.66384900
_cell_length_b   6.66384900
_cell_length_c   6.66384900
_cell_angle_alpha   90.00000000
_cell_angle_beta   90.00000000
_cell_angle_gamma   90.00000000
_symmetry_Int_Tables_number   1
_chemical_formula_structural   Li3GeIr
_chemical_formula_sum   'Li12 Ge4 Ir4'
_cell_volume   295.92076617
_cell_formula_units_Z   4
loop_
 _symmetry_equiv_pos_site_id
 _symmetry_equiv_pos_as_xyz
  1  'x, y, z'
loop_
 _atom_site_type_symbol
 _atom_site_label
 _atom_site_symmetry_multiplicity
 _atom_site_fract_x
 _atom_site_fract_y
 _atom_site_fract_z
 _atom_site_occupancy
  Li  Li0  1  0.126157  0.198247  0.457146  1
  Li  Li1  1  0.457146  0.126157  0.198247  1
  Li  Li2  1  0.198247  0.457146  0.126157  1
  Li  Li3  1  0.301753  0.542854  0.626157  1
  Li  Li4  1  0.957146  0.373843  0.801753  1
  Li  Li5  1  0.801753  0.957146  0.373843  1
  Li  Li6  1  0.042854  0.873843  0.698247  1
  Li  Li7  1  0.542854  0.626157  0.301753  1
  Li  Li8  1  0.698247  0.042854  0.873843  1
  Li  Li9  1  0.626157  0.301753  0.542854  1
  Li  Li10  1  0.873843  0.698247  0.042854  1
  Li  Li11  1  0.373843  0.801753  0.957146  1
  Ge  Ge12  1  0.930689  0.569311  0.430689  1
  Ge  Ge13  1  0.569311  0.430689  0.930689  1
  Ge  Ge14  1  0.430689  0.930689  0.569311  1
  Ge  Ge15  1  0.069311  0.069311  0.069311  1
  Ir  Ir16  1  0.315659  0.184341  0.815659  1
  Ir  Ir17  1  0.184341  0.815659  0.315659  1
  Ir  Ir18  1  0.815659  0.315659  0.184341  1
  Ir  Ir19  1  0.684341  0.684341  0.684341  1
