# generated using pymatgen
data_LiY7Er9In3Rh4
_symmetry_space_group_name_H-M   'P 1'
_cell_length_a   9.63841807
_cell_length_b   9.62566776
_cell_length_c   9.62618610
_cell_angle_alpha   60.01656694
_cell_angle_beta   59.81197638
_cell_angle_gamma   60.04747695
_symmetry_Int_Tables_number   1
_chemical_formula_structural   LiY7Er9In3Rh4
_chemical_formula_sum   'Li1 Y7 Er9 In3 Rh4'
_cell_volume   630.90552396
_cell_formula_units_Z   1
loop_
 _symmetry_equiv_pos_site_id
 _symmetry_equiv_pos_as_xyz
  1  'x, y, z'
loop_
 _atom_site_type_symbol
 _atom_site_label
 _atom_site_symmetry_multiplicity
 _atom_site_fract_x
 _atom_site_fract_y
 _atom_site_fract_z
 _atom_site_occupancy
  Li  Li0  1  0.428179  0.715805  0.428218  1
  Y  Y1  1  0.189265  0.192029  0.809775  1
  Y  Y2  1  0.439410  0.060808  0.062033  1
  Y  Y3  1  0.436940  0.064037  0.434296  1
  Y  Y4  1  0.062547  0.439141  0.063721  1
  Y  Y5  1  0.648772  0.054131  0.647282  1
  Y  Y6  1  0.188317  0.811630  0.813435  1
  Y  Y7  1  0.061680  0.062447  0.437487  1
  Er  Er8  1  0.809674  0.191662  0.188649  1
  Er  Er9  1  0.813497  0.812539  0.188001  1
  Er  Er10  1  0.651224  0.647644  0.047486  1
  Er  Er11  1  0.654394  0.651274  0.652790  1
  Er  Er12  1  0.062789  0.437636  0.436344  1
  Er  Er13  1  0.044644  0.649248  0.651065  1
  Er  Er14  1  0.809353  0.191421  0.810659  1
  Er  Er15  1  0.437915  0.436881  0.062898  1
  Er  Er16  1  0.186690  0.813679  0.186621  1
  In  In17  1  0.415972  0.422405  0.746157  1
  In  In18  1  0.746119  0.422218  0.416250  1
  In  In19  1  0.415451  0.420983  0.416034  1
  Rh  Rh20  1  0.854007  0.429880  0.857275  1
  Rh  Rh21  1  0.859114  0.857650  0.424928  1
  Rh  Rh22  1  0.428994  0.855341  0.860123  1
  Rh  Rh23  1  0.855049  0.859515  0.858471  1
