# generated using pymatgen
data_Th3C2O
_symmetry_space_group_name_H-M   'P 1'
_cell_length_a   3.75212700
_cell_length_b   3.75212699
_cell_length_c   9.06569700
_cell_angle_alpha   90.00000000
_cell_angle_beta   90.00000000
_cell_angle_gamma   120.00000890
_symmetry_Int_Tables_number   1
_chemical_formula_structural   Th3C2O
_chemical_formula_sum   'Th3 C2 O1'
_cell_volume   110.53170028
_cell_formula_units_Z   1
loop_
 _symmetry_equiv_pos_site_id
 _symmetry_equiv_pos_as_xyz
  1  'x, y, z'
loop_
 _atom_site_type_symbol
 _atom_site_label
 _atom_site_symmetry_multiplicity
 _atom_site_fract_x
 _atom_site_fract_y
 _atom_site_fract_z
 _atom_site_occupancy
  Th  Th0  1  0.000000  0.000000  0.500000  1
  Th  Th1  1  0.333333  0.666667  0.167597  1
  Th  Th2  1  0.666667  0.333333  0.832403  1
  C  C3  1  0.333333  0.666667  0.681687  1
  C  C4  1  0.666667  0.333333  0.318313  1
  O  O5  1  0.000000  0.000000  0.000000  1
