# generated using pymatgen
data_Tb8Mn(Si4Au)3
_symmetry_space_group_name_H-M   'P 1'
_cell_length_a   8.18372400
_cell_length_b   8.18372374
_cell_length_c   8.21469000
_cell_angle_alpha   90.00000000
_cell_angle_beta   90.00000000
_cell_angle_gamma   120.00000915
_symmetry_Int_Tables_number   1
_chemical_formula_structural   Tb8Mn(Si4Au)3
_chemical_formula_sum   'Tb8 Mn1 Si12 Au3'
_cell_volume   476.45699243
_cell_formula_units_Z   1
loop_
 _symmetry_equiv_pos_site_id
 _symmetry_equiv_pos_as_xyz
  1  'x, y, z'
loop_
 _atom_site_type_symbol
 _atom_site_label
 _atom_site_symmetry_multiplicity
 _atom_site_fract_x
 _atom_site_fract_y
 _atom_site_fract_z
 _atom_site_occupancy
  Tb  Tb0  1  0.496852  0.993704  0.258195  1
  Tb  Tb1  1  0.495523  0.991047  0.741826  1
  Tb  Tb2  1  0.006296  0.503148  0.258195  1
  Tb  Tb3  1  0.008953  0.504477  0.741826  1
  Tb  Tb4  1  0.496852  0.503148  0.258195  1
  Tb  Tb5  1  0.495523  0.504477  0.741826  1
  Tb  Tb6  1  0.000000  0.000000  0.250794  1
  Tb  Tb7  1  0.000000  0.000000  0.749062  1
  Mn  Mn8  1  0.333333  0.666667  0.497662  1
  Si  Si9  1  0.162720  0.325440  0.996208  1
  Si  Si10  1  0.836757  0.673514  0.003432  1
  Si  Si11  1  0.674560  0.837280  0.996208  1
  Si  Si12  1  0.839098  0.678196  0.501482  1
  Si  Si13  1  0.326486  0.163243  0.003432  1
  Si  Si14  1  0.172236  0.344472  0.498718  1
  Si  Si15  1  0.162720  0.837280  0.996208  1
  Si  Si16  1  0.321804  0.160902  0.501482  1
  Si  Si17  1  0.836757  0.163243  0.003432  1
  Si  Si18  1  0.655528  0.827764  0.498718  1
  Si  Si19  1  0.839098  0.160902  0.501482  1
  Si  Si20  1  0.172236  0.827764  0.498718  1
  Au  Au21  1  0.333333  0.666667  0.003749  1
  Au  Au22  1  0.666667  0.333333  0.997949  1
  Au  Au23  1  0.666667  0.333333  0.501199  1
