# generated using pymatgen
data_GdH7Os
_symmetry_space_group_name_H-M   'P 1'
_cell_length_a   4.72816759
_cell_length_b   4.65687684
_cell_length_c   7.83628500
_cell_angle_alpha   90.00000000
_cell_angle_beta   90.00000000
_cell_angle_gamma   62.79131792
_symmetry_Int_Tables_number   1
_chemical_formula_structural   GdH7Os
_chemical_formula_sum   'Gd2 H14 Os2'
_cell_volume   153.45079008
_cell_formula_units_Z   2
loop_
 _symmetry_equiv_pos_site_id
 _symmetry_equiv_pos_as_xyz
  1  'x, y, z'
loop_
 _atom_site_type_symbol
 _atom_site_label
 _atom_site_symmetry_multiplicity
 _atom_site_fract_x
 _atom_site_fract_y
 _atom_site_fract_z
 _atom_site_occupancy
  Gd  Gd0  1  0.000000  0.000000  0.000000  1
  Gd  Gd1  1  0.000000  0.000000  0.500000  1
  H  H2  1  0.790637  0.921236  0.250000  1
  H  H3  1  0.209363  0.078764  0.750000  1
  H  H4  1  0.707041  0.685863  0.459904  1
  H  H5  1  0.292959  0.314137  0.959904  1
  H  H6  1  0.292959  0.314137  0.540096  1
  H  H7  1  0.707041  0.685863  0.040096  1
  H  H8  1  0.498596  0.447246  0.358908  1
  H  H9  1  0.501404  0.552754  0.858908  1
  H  H10  1  0.501404  0.552754  0.641092  1
  H  H11  1  0.498596  0.447246  0.141092  1
  H  H12  1  0.299020  0.969797  0.250000  1
  H  H13  1  0.700980  0.030203  0.750000  1
  H  H14  1  0.034493  0.339894  0.250000  1
  H  H15  1  0.965507  0.660106  0.750000  1
  Os  Os16  1  0.658120  0.637566  0.250000  1
  Os  Os17  1  0.341880  0.362434  0.750000  1
