# generated using pymatgen
data_Tb4HoBi2Ru
_symmetry_space_group_name_H-M   'P 1'
_cell_length_a   7.99989937
_cell_length_b   9.02108558
_cell_length_c   12.51291144
_cell_angle_alpha   89.97002369
_cell_angle_beta   90.00150894
_cell_angle_gamma   90.00334503
_symmetry_Int_Tables_number   1
_chemical_formula_structural   Tb4HoBi2Ru
_chemical_formula_sum   'Tb16 Ho4 Bi8 Ru4'
_cell_volume   903.02887571
_cell_formula_units_Z   4
loop_
 _symmetry_equiv_pos_site_id
 _symmetry_equiv_pos_as_xyz
  1  'x, y, z'
loop_
 _atom_site_type_symbol
 _atom_site_label
 _atom_site_symmetry_multiplicity
 _atom_site_fract_x
 _atom_site_fract_y
 _atom_site_fract_z
 _atom_site_occupancy
  Tb  Tb0  1  0.844591  0.750294  0.793803  1
  Tb  Tb1  1  0.155504  0.249915  0.206505  1
  Tb  Tb2  1  0.344702  0.249765  0.706152  1
  Tb  Tb3  1  0.655221  0.750121  0.294047  1
  Tb  Tb4  1  0.376350  0.750321  0.691771  1
  Tb  Tb5  1  0.622776  0.249528  0.308199  1
  Tb  Tb6  1  0.877245  0.249695  0.807414  1
  Tb  Tb7  1  0.123818  0.750541  0.192599  1
  Tb  Tb8  1  0.947933  0.750586  0.504393  1
  Tb  Tb9  1  0.053667  0.249718  0.495588  1
  Tb  Tb10  1  0.446321  0.249391  0.995745  1
  Tb  Tb11  1  0.551961  0.750328  0.004286  1
  Tb  Tb12  1  0.823609  0.040564  0.063879  1
  Tb  Tb13  1  0.676575  0.459510  0.563791  1
  Tb  Tb14  1  0.823067  0.459395  0.063958  1
  Tb  Tb15  1  0.176884  0.540620  0.936075  1
  Ho  Ho16  1  0.674940  0.041023  0.563915  1
  Ho  Ho17  1  0.325097  0.958928  0.436086  1
  Ho  Ho18  1  0.175281  0.958685  0.935906  1
  Ho  Ho19  1  0.324567  0.541013  0.436058  1
  Bi  Bi20  1  0.571010  0.493060  0.827140  1
  Bi  Bi21  1  0.429090  0.506916  0.173086  1
  Bi  Bi22  1  0.070982  0.507135  0.672575  1
  Bi  Bi23  1  0.429172  0.993057  0.173110  1
  Bi  Bi24  1  0.929663  0.493223  0.327592  1
  Bi  Bi25  1  0.570206  0.006758  0.827080  1
  Bi  Bi26  1  0.929669  0.006958  0.327588  1
  Bi  Bi27  1  0.070206  0.993140  0.672607  1
  Ru  Ru28  1  0.570697  0.750438  0.510327  1
  Ru  Ru29  1  0.427482  0.249481  0.489182  1
  Ru  Ru30  1  0.073356  0.249499  0.988853  1
  Ru  Ru31  1  0.928357  0.750397  0.010690  1
