# generated using pymatgen
data_CaTh7(Si3Pd)4
_symmetry_space_group_name_H-M   'P 1'
_cell_length_a   8.28454800
_cell_length_b   8.23697113
_cell_length_c   8.49937000
_cell_angle_alpha   90.00000000
_cell_angle_beta   90.00000000
_cell_angle_gamma   120.19125369
_symmetry_Int_Tables_number   1
_chemical_formula_structural   CaTh7(Si3Pd)4
_chemical_formula_sum   'Ca1 Th7 Si12 Pd4'
_cell_volume   501.31826454
_cell_formula_units_Z   1
loop_
 _symmetry_equiv_pos_site_id
 _symmetry_equiv_pos_as_xyz
  1  'x, y, z'
loop_
 _atom_site_type_symbol
 _atom_site_label
 _atom_site_symmetry_multiplicity
 _atom_site_fract_x
 _atom_site_fract_y
 _atom_site_fract_z
 _atom_site_occupancy
  Ca  Ca0  1  0.500979  0.001956  0.250000  1
  Th  Th1  1  0.499064  0.998130  0.750000  1
  Th  Th2  1  0.998079  0.499052  0.250000  1
  Th  Th3  1  0.001843  0.500888  0.750000  1
  Th  Th4  1  0.500974  0.499052  0.250000  1
  Th  Th5  1  0.499043  0.500888  0.750000  1
  Th  Th6  1  0.000106  0.000213  0.250000  1
  Th  Th7  1  0.999812  0.999624  0.750000  1
  Si  Si8  1  0.166062  0.332123  0.998425  1
  Si  Si9  1  0.833895  0.667790  0.997387  1
  Si  Si10  1  0.669461  0.833337  0.001201  1
  Si  Si11  1  0.833895  0.667790  0.502613  1
  Si  Si12  1  0.330783  0.166731  0.000145  1
  Si  Si13  1  0.166062  0.332123  0.501575  1
  Si  Si14  1  0.163877  0.833337  0.001201  1
  Si  Si15  1  0.330783  0.166731  0.499855  1
  Si  Si16  1  0.835948  0.166731  0.000145  1
  Si  Si17  1  0.669461  0.833337  0.498799  1
  Si  Si18  1  0.835948  0.166731  0.499855  1
  Si  Si19  1  0.163877  0.833337  0.498799  1
  Pd  Pd20  1  0.334932  0.669864  0.003223  1
  Pd  Pd21  1  0.665093  0.330185  0.998495  1
  Pd  Pd22  1  0.665093  0.330185  0.501505  1
  Pd  Pd23  1  0.334932  0.669864  0.496777  1
