# generated using pymatgen
data_HgPd2Se3
_symmetry_space_group_name_H-M   'P 1'
_cell_length_a   7.50511600
_cell_length_b   7.50511553
_cell_length_c   5.42525100
_cell_angle_alpha   90.00000000
_cell_angle_beta   90.00000000
_cell_angle_gamma   120.00001087
_symmetry_Int_Tables_number   1
_chemical_formula_structural   HgPd2Se3
_chemical_formula_sum   'Hg2 Pd4 Se6'
_cell_volume   264.64592503
_cell_formula_units_Z   2
loop_
 _symmetry_equiv_pos_site_id
 _symmetry_equiv_pos_as_xyz
  1  'x, y, z'
loop_
 _atom_site_type_symbol
 _atom_site_label
 _atom_site_symmetry_multiplicity
 _atom_site_fract_x
 _atom_site_fract_y
 _atom_site_fract_z
 _atom_site_occupancy
  Hg  Hg0  1  0.333333  0.666667  0.643229  1
  Hg  Hg1  1  0.666667  0.333333  0.356771  1
  Pd  Pd2  1  0.000000  0.000000  0.000000  1
  Pd  Pd3  1  0.500000  0.500000  0.000000  1
  Pd  Pd4  1  0.000000  0.500000  0.000000  1
  Pd  Pd5  1  0.500000  0.000000  0.000000  1
  Se  Se6  1  0.827466  0.654931  0.762409  1
  Se  Se7  1  0.827466  0.172534  0.762409  1
  Se  Se8  1  0.345069  0.172534  0.762409  1
  Se  Se9  1  0.172534  0.345069  0.237591  1
  Se  Se10  1  0.172534  0.827466  0.237591  1
  Se  Se11  1  0.654931  0.827466  0.237591  1
