# generated using pymatgen
data_Al4Tc3Ge2
_symmetry_space_group_name_H-M   'P 1'
_cell_length_a   4.74465880
_cell_length_b   4.74465920
_cell_length_c   6.67418855
_cell_angle_alpha   89.89665456
_cell_angle_beta   89.89665299
_cell_angle_gamma   119.77349628
_symmetry_Int_Tables_number   1
_chemical_formula_structural   Al4Tc3Ge2
_chemical_formula_sum   'Al4 Tc3 Ge2'
_cell_volume   130.41364189
_cell_formula_units_Z   1
loop_
 _symmetry_equiv_pos_site_id
 _symmetry_equiv_pos_as_xyz
  1  'x, y, z'
loop_
 _atom_site_type_symbol
 _atom_site_label
 _atom_site_symmetry_multiplicity
 _atom_site_fract_x
 _atom_site_fract_y
 _atom_site_fract_z
 _atom_site_occupancy
  Al  Al0  1  0.167168  0.832832  0.500000  1
  Al  Al1  1  0.334063  0.167283  0.168244  1
  Al  Al2  1  0.832717  0.665937  0.831756  1
  Al  Al3  1  0.828533  0.171467  0.500000  1
  Tc  Tc4  1  0.000011  0.498683  0.161889  1
  Tc  Tc5  1  0.501317  0.999989  0.838111  1
  Tc  Tc6  1  0.500250  0.499750  0.500000  1
  Ge  Ge7  1  0.669873  0.833546  0.170314  1
  Ge  Ge8  1  0.166454  0.330127  0.829686  1
