# generated using pymatgen
data_MnTlGaF6
_symmetry_space_group_name_H-M   'P 1'
_cell_length_a   7.37685400
_cell_length_b   7.45214500
_cell_length_c   10.20742000
_cell_angle_alpha   90.00000000
_cell_angle_beta   90.00000000
_cell_angle_gamma   90.00000000
_symmetry_Int_Tables_number   1
_chemical_formula_structural   MnTlGaF6
_chemical_formula_sum   'Mn4 Tl4 Ga4 F24'
_cell_volume   561.13643617
_cell_formula_units_Z   4
loop_
 _symmetry_equiv_pos_site_id
 _symmetry_equiv_pos_as_xyz
  1  'x, y, z'
loop_
 _atom_site_type_symbol
 _atom_site_label
 _atom_site_symmetry_multiplicity
 _atom_site_fract_x
 _atom_site_fract_y
 _atom_site_fract_z
 _atom_site_occupancy
  Mn  Mn0  1  0.750000  0.203773  0.738440  1
  Mn  Mn1  1  0.750000  0.703773  0.761560  1
  Mn  Mn2  1  0.250000  0.296227  0.238440  1
  Mn  Mn3  1  0.250000  0.796227  0.261560  1
  Tl  Tl4  1  0.250000  0.499567  0.885443  1
  Tl  Tl5  1  0.750000  0.000433  0.385443  1
  Tl  Tl6  1  0.750000  0.500433  0.114557  1
  Tl  Tl7  1  0.250000  0.999567  0.614557  1
  Ga  Ga8  1  0.000000  0.500000  0.500000  1
  Ga  Ga9  1  0.500000  0.500000  0.500000  1
  Ga  Ga10  1  0.500000  0.000000  0.000000  1
  Ga  Ga11  1  0.000000  0.000000  0.000000  1
  F  F12  1  0.561526  0.779280  0.915867  1
  F  F13  1  0.061526  0.220720  0.084133  1
  F  F14  1  0.938474  0.279280  0.584133  1
  F  F15  1  0.438474  0.720720  0.415867  1
  F  F16  1  0.438474  0.220720  0.084133  1
  F  F17  1  0.938474  0.779280  0.915867  1
  F  F18  1  0.061526  0.720720  0.415867  1
  F  F19  1  0.561526  0.279280  0.584133  1
  F  F20  1  0.003102  0.620437  0.665359  1
  F  F21  1  0.503102  0.379563  0.334641  1
  F  F22  1  0.496898  0.120437  0.834641  1
  F  F23  1  0.996898  0.879563  0.165359  1
  F  F24  1  0.750000  0.942959  0.654815  1
  F  F25  1  0.250000  0.057041  0.345185  1
  F  F26  1  0.750000  0.442959  0.845185  1
  F  F27  1  0.250000  0.557041  0.154815  1
  F  F28  1  0.750000  0.074478  0.019539  1
  F  F29  1  0.250000  0.925522  0.980461  1
  F  F30  1  0.750000  0.574478  0.480461  1
  F  F31  1  0.250000  0.425522  0.519539  1
  F  F32  1  0.003102  0.120437  0.834641  1
  F  F33  1  0.503102  0.879563  0.165359  1
  F  F34  1  0.496898  0.620437  0.665359  1
  F  F35  1  0.996898  0.379563  0.334641  1
