# generated using pymatgen
data_Ho9Th(SiPb3)2
_symmetry_space_group_name_H-M   'P 1'
_cell_length_a   9.34611432
_cell_length_b   9.35033469
_cell_length_c   6.50688800
_cell_angle_alpha   90.00000000
_cell_angle_beta   90.00000000
_cell_angle_gamma   120.01494451
_symmetry_Int_Tables_number   1
_chemical_formula_structural   Ho9Th(SiPb3)2
_chemical_formula_sum   'Ho9 Th1 Si2 Pb6'
_cell_volume   492.37590059
_cell_formula_units_Z   1
loop_
 _symmetry_equiv_pos_site_id
 _symmetry_equiv_pos_as_xyz
  1  'x, y, z'
loop_
 _atom_site_type_symbol
 _atom_site_label
 _atom_site_symmetry_multiplicity
 _atom_site_fract_x
 _atom_site_fract_y
 _atom_site_fract_z
 _atom_site_occupancy
  Ho  Ho0  1  0.667334  0.333752  0.499618  1
  Ho  Ho1  1  0.332666  0.666419  0.499618  1
  Ho  Ho2  1  0.332666  0.666419  0.000382  1
  Ho  Ho3  1  0.667334  0.333752  0.000382  1
  Ho  Ho4  1  0.747032  0.748315  0.250000  1
  Ho  Ho5  1  0.252968  0.001283  0.250000  1
  Ho  Ho6  1  0.000000  0.254337  0.250000  1
  Ho  Ho7  1  0.245972  0.244657  0.750000  1
  Ho  Ho8  1  0.754028  0.998685  0.750000  1
  Th  Th9  1  0.000000  0.751771  0.750000  1
  Si  Si10  1  0.000000  0.002781  0.485923  1
  Si  Si11  1  0.000000  0.002781  0.014077  1
  Pb  Pb12  1  0.391583  0.391930  0.250000  1
  Pb  Pb13  1  0.608417  0.000347  0.250000  1
  Pb  Pb14  1  0.000000  0.609529  0.250000  1
  Pb  Pb15  1  0.599553  0.602319  0.750000  1
  Pb  Pb16  1  0.400447  0.002766  0.750000  1
  Pb  Pb17  1  0.000000  0.388154  0.750000  1
