# generated using pymatgen
data_K4TiTe4
_symmetry_space_group_name_H-M   'P 1'
_cell_length_a   9.09340200
_cell_length_b   10.63862100
_cell_length_c   15.71853600
_cell_angle_alpha   90.00000000
_cell_angle_beta   90.00000000
_cell_angle_gamma   90.00000000
_symmetry_Int_Tables_number   1
_chemical_formula_structural   K4TiTe4
_chemical_formula_sum   'K16 Ti4 Te16'
_cell_volume   1520.63093836
_cell_formula_units_Z   4
loop_
 _symmetry_equiv_pos_site_id
 _symmetry_equiv_pos_as_xyz
  1  'x, y, z'
loop_
 _atom_site_type_symbol
 _atom_site_label
 _atom_site_symmetry_multiplicity
 _atom_site_fract_x
 _atom_site_fract_y
 _atom_site_fract_z
 _atom_site_occupancy
  K  K0  1  0.500000  0.500000  0.500000  1
  K  K1  1  0.157099  0.449368  0.276903  1
  K  K2  1  0.157099  0.050632  0.276903  1
  K  K3  1  0.019823  0.750000  0.424157  1
  K  K4  1  0.980177  0.250000  0.575843  1
  K  K5  1  0.657099  0.949368  0.223097  1
  K  K6  1  0.342901  0.050632  0.776903  1
  K  K7  1  0.842901  0.949368  0.723097  1
  K  K8  1  0.342901  0.449368  0.776903  1
  K  K9  1  0.000000  0.500000  0.000000  1
  K  K10  1  0.519823  0.250000  0.075843  1
  K  K11  1  0.657099  0.550632  0.223097  1
  K  K12  1  0.480177  0.750000  0.924157  1
  K  K13  1  0.000000  0.000000  0.000000  1
  K  K14  1  0.842901  0.550632  0.723097  1
  K  K15  1  0.500000  0.000000  0.500000  1
  Ti  Ti16  1  0.742229  0.250000  0.833103  1
  Ti  Ti17  1  0.757771  0.250000  0.333103  1
  Ti  Ti18  1  0.242229  0.750000  0.666897  1
  Ti  Ti19  1  0.257771  0.750000  0.166897  1
  Te  Te20  1  0.531306  0.750000  0.676612  1
  Te  Te21  1  0.468694  0.250000  0.323388  1
  Te  Te22  1  0.374450  0.750000  0.320852  1
  Te  Te23  1  0.125550  0.750000  0.820852  1
  Te  Te24  1  0.031306  0.250000  0.823388  1
  Te  Te25  1  0.968694  0.750000  0.176612  1
  Te  Te26  1  0.625550  0.250000  0.679148  1
  Te  Te27  1  0.874450  0.250000  0.179148  1
  Te  Te28  1  0.844960  0.452981  0.412270  1
  Te  Te29  1  0.655040  0.047019  0.912270  1
  Te  Te30  1  0.344960  0.952981  0.087730  1
  Te  Te31  1  0.344960  0.547019  0.087730  1
  Te  Te32  1  0.155040  0.547019  0.587730  1
  Te  Te33  1  0.844960  0.047019  0.412270  1
  Te  Te34  1  0.155040  0.952981  0.587730  1
  Te  Te35  1  0.655040  0.452981  0.912270  1
