# generated using pymatgen
data_La3Zn2BiSb5
_symmetry_space_group_name_H-M   'P 1'
_cell_length_a   4.36946900
_cell_length_b   10.55651403
_cell_length_c   13.66061105
_cell_angle_alpha   89.99071423
_cell_angle_beta   90.00000000
_cell_angle_gamma   90.00000000
_symmetry_Int_Tables_number   1
_chemical_formula_structural   La3Zn2BiSb5
_chemical_formula_sum   'La6 Zn4 Bi2 Sb10'
_cell_volume   630.11426584
_cell_formula_units_Z   2
loop_
 _symmetry_equiv_pos_site_id
 _symmetry_equiv_pos_as_xyz
  1  'x, y, z'
loop_
 _atom_site_type_symbol
 _atom_site_label
 _atom_site_symmetry_multiplicity
 _atom_site_fract_x
 _atom_site_fract_y
 _atom_site_fract_z
 _atom_site_occupancy
  La  La0  1  0.750000  0.245974  0.748020  1
  La  La1  1  0.750000  0.258158  0.412990  1
  La  La2  1  0.250000  0.743645  0.910236  1
  La  La3  1  0.250000  0.739746  0.589083  1
  La  La4  1  0.250000  0.756300  0.250424  1
  La  La5  1  0.750000  0.256124  0.089207  1
  Zn  Zn6  1  0.250000  0.002612  0.091976  1
  Zn  Zn7  1  0.250000  0.002373  0.408426  1
  Zn  Zn8  1  0.750000  0.997202  0.591722  1
  Zn  Zn9  1  0.750000  0.997848  0.907745  1
  Bi  Bi10  1  0.750000  0.504426  0.251289  1
  Bi  Bi11  1  0.750000  0.491880  0.915463  1
  Sb  Sb12  1  0.750000  0.843203  0.749566  1
  Sb  Sb13  1  0.750000  0.844693  0.421302  1
  Sb  Sb14  1  0.250000  0.155320  0.920268  1
  Sb  Sb15  1  0.250000  0.155024  0.579084  1
  Sb  Sb16  1  0.250000  0.157293  0.250664  1
  Sb  Sb17  1  0.250000  0.508287  0.083462  1
  Sb  Sb18  1  0.250000  0.495211  0.746705  1
  Sb  Sb19  1  0.250000  0.507342  0.419939  1
  Sb  Sb20  1  0.750000  0.492138  0.583431  1
  Sb  Sb21  1  0.750000  0.845200  0.078998  1
