# generated using pymatgen
data_Sm6As13(PdRh4)4
_symmetry_space_group_name_H-M   'P 1'
_cell_length_a   13.93045000
_cell_length_b   13.93045172
_cell_length_c   4.04317800
_cell_angle_alpha   90.00000000
_cell_angle_beta   90.00000000
_cell_angle_gamma   120.00000065
_symmetry_Int_Tables_number   1
_chemical_formula_structural   Sm6As13(PdRh4)4
_chemical_formula_sum   'Sm6 As13 Pd4 Rh16'
_cell_volume   679.49119855
_cell_formula_units_Z   1
loop_
 _symmetry_equiv_pos_site_id
 _symmetry_equiv_pos_as_xyz
  1  'x, y, z'
loop_
 _atom_site_type_symbol
 _atom_site_label
 _atom_site_symmetry_multiplicity
 _atom_site_fract_x
 _atom_site_fract_y
 _atom_site_fract_z
 _atom_site_occupancy
  Sm  Sm0  1  0.181321  0.463526  0.000000  1
  Sm  Sm1  1  0.536474  0.717795  0.000000  1
  Sm  Sm2  1  0.282205  0.818679  0.000000  1
  Sm  Sm3  1  0.717065  0.187977  0.500000  1
  Sm  Sm4  1  0.812023  0.529088  0.500000  1
  Sm  Sm5  1  0.470912  0.282935  0.500000  1
  As  As6  1  0.387710  0.524260  0.500000  1
  As  As7  1  0.475740  0.863449  0.500000  1
  As  As8  1  0.136551  0.612290  0.500000  1
  As  As9  1  0.049288  0.280895  0.500000  1
  As  As10  1  0.719105  0.768391  0.500000  1
  As  As11  1  0.231609  0.950712  0.500000  1
  As  As12  1  0.524302  0.139327  0.000000  1
  As  As13  1  0.860673  0.384974  0.000000  1
  As  As14  1  0.615026  0.475698  0.000000  1
  As  As15  1  0.765284  0.053113  0.000000  1
  As  As16  1  0.946887  0.712171  0.000000  1
  As  As17  1  0.287829  0.234716  0.000000  1
  As  As18  1  0.000000  0.000000  0.000000  1
  Pd  Pd19  1  0.333333  0.666667  0.500000  1
  Pd  Pd20  1  0.919768  0.076922  0.500000  1
  Pd  Pd21  1  0.923078  0.842847  0.500000  1
  Pd  Pd22  1  0.157153  0.080232  0.500000  1
  Rh  Rh23  1  0.098598  0.198653  0.000000  1
  Rh  Rh24  1  0.801347  0.899944  0.000000  1
  Rh  Rh25  1  0.100056  0.901402  0.000000  1
  Rh  Rh26  1  0.666667  0.333333  0.000000  1
  Rh  Rh27  1  0.416741  0.442538  0.000000  1
  Rh  Rh28  1  0.557462  0.974202  0.000000  1
  Rh  Rh29  1  0.025798  0.583259  0.000000  1
  Rh  Rh30  1  0.253674  0.324817  0.500000  1
  Rh  Rh31  1  0.675183  0.928858  0.500000  1
  Rh  Rh32  1  0.071142  0.746326  0.500000  1
  Rh  Rh33  1  0.438996  0.021532  0.500000  1
  Rh  Rh34  1  0.978468  0.417464  0.500000  1
  Rh  Rh35  1  0.582536  0.561004  0.500000  1
  Rh  Rh36  1  0.918096  0.246240  0.000000  1
  Rh  Rh37  1  0.753760  0.671857  0.000000  1
  Rh  Rh38  1  0.328143  0.081904  0.000000  1
