# generated using pymatgen
data_BaEu2HoF10
_symmetry_space_group_name_H-M   'P 1'
_cell_length_a   8.49673221
_cell_length_b   8.43975438
_cell_length_c   8.43975464
_cell_angle_alpha   60.44715061
_cell_angle_beta   59.77642276
_cell_angle_gamma   59.77641610
_symmetry_Int_Tables_number   1
_chemical_formula_structural   BaEu2HoF10
_chemical_formula_sum   'Ba2 Eu4 Ho2 F20'
_cell_volume   427.91416971
_cell_formula_units_Z   2
loop_
 _symmetry_equiv_pos_site_id
 _symmetry_equiv_pos_as_xyz
  1  'x, y, z'
loop_
 _atom_site_type_symbol
 _atom_site_label
 _atom_site_symmetry_multiplicity
 _atom_site_fract_x
 _atom_site_fract_y
 _atom_site_fract_z
 _atom_site_occupancy
  Ba  Ba0  1  0.250000  0.250000  0.250000  1
  Ba  Ba1  1  0.750000  0.750000  0.750000  1
  Eu  Eu2  1  0.241028  0.758972  0.241028  1
  Eu  Eu3  1  0.758972  0.241028  0.758972  1
  Eu  Eu4  1  0.241028  0.241028  0.758972  1
  Eu  Eu5  1  0.758972  0.758972  0.241028  1
  Ho  Ho6  1  0.761796  0.238204  0.238204  1
  Ho  Ho7  1  0.238204  0.761796  0.761796  1
  F  F8  1  0.841091  0.500000  0.500000  1
  F  F9  1  0.158909  0.500000  0.500000  1
  F  F10  1  0.500000  0.841091  0.158909  1
  F  F11  1  0.500000  0.158909  0.841091  1
  F  F12  1  0.488658  0.832711  0.511342  1
  F  F13  1  0.167289  0.511342  0.832711  1
  F  F14  1  0.511342  0.167289  0.488658  1
  F  F15  1  0.832711  0.488658  0.167289  1
  F  F16  1  0.488658  0.511342  0.832711  1
  F  F17  1  0.511342  0.488658  0.167289  1
  F  F18  1  0.167289  0.832711  0.511342  1
  F  F19  1  0.832711  0.167289  0.488658  1
  F  F20  1  0.104230  0.121184  0.121184  1
  F  F21  1  0.895770  0.878816  0.878816  1
  F  F22  1  0.121184  0.104230  0.653402  1
  F  F23  1  0.121184  0.653402  0.104230  1
  F  F24  1  0.878816  0.895770  0.346598  1
  F  F25  1  0.878816  0.346598  0.895770  1
  F  F26  1  0.653402  0.121184  0.121184  1
  F  F27  1  0.346598  0.878816  0.878816  1
