# generated using pymatgen
data_Sc8V10ReSi16W
_symmetry_space_group_name_H-M   'P 1'
_cell_length_a   6.47649671
_cell_length_b   6.65100609
_cell_length_c   12.57686800
_cell_angle_alpha   90.00000000
_cell_angle_beta   90.00000000
_cell_angle_gamma   90.00606845
_symmetry_Int_Tables_number   1
_chemical_formula_structural   Sc8V10ReSi16W
_chemical_formula_sum   'Sc8 V10 Re1 Si16 W1'
_cell_volume   541.75134118
_cell_formula_units_Z   1
loop_
 _symmetry_equiv_pos_site_id
 _symmetry_equiv_pos_as_xyz
  1  'x, y, z'
loop_
 _atom_site_type_symbol
 _atom_site_label
 _atom_site_symmetry_multiplicity
 _atom_site_fract_x
 _atom_site_fract_y
 _atom_site_fract_z
 _atom_site_occupancy
  Sc  Sc0  1  0.495204  0.670908  0.593287  1
  Sc  Sc1  1  0.996811  0.828751  0.906446  1
  Sc  Sc2  1  0.503123  0.328295  0.093872  1
  Sc  Sc3  1  0.002931  0.170661  0.406309  1
  Sc  Sc4  1  0.503123  0.328295  0.406128  1
  Sc  Sc5  1  0.002931  0.170661  0.093691  1
  Sc  Sc6  1  0.495204  0.670908  0.906713  1
  Sc  Sc7  1  0.996811  0.828751  0.593554  1
  V  V8  1  0.663778  0.166792  0.626280  1
  V  V9  1  0.166024  0.332773  0.873929  1
  V  V10  1  0.336419  0.832151  0.125855  1
  V  V11  1  0.836424  0.668133  0.374474  1
  V  V12  1  0.336419  0.832151  0.374145  1
  V  V13  1  0.836424  0.668133  0.125526  1
  V  V14  1  0.663778  0.166792  0.873720  1
  V  V15  1  0.166024  0.332773  0.626071  1
  V  V16  1  0.336854  0.009765  0.750000  1
  V  V17  1  0.162658  0.511133  0.250000  1
  Re  Re18  1  0.836148  0.493998  0.750000  1
  Si  Si19  1  0.667217  0.957951  0.459595  1
  Si  Si20  1  0.167424  0.540685  0.042018  1
  Si  Si21  1  0.332558  0.040416  0.957823  1
  Si  Si22  1  0.833105  0.457353  0.541811  1
  Si  Si23  1  0.332558  0.040416  0.542177  1
  Si  Si24  1  0.833105  0.457353  0.958189  1
  Si  Si25  1  0.667217  0.957951  0.040405  1
  Si  Si26  1  0.167424  0.540685  0.457982  1
  Si  Si27  1  0.462451  0.374643  0.750000  1
  Si  Si28  1  0.964619  0.123691  0.750000  1
  Si  Si29  1  0.534955  0.620877  0.250000  1
  Si  Si30  1  0.040364  0.874281  0.250000  1
  Si  Si31  1  0.696575  0.865407  0.750000  1
  Si  Si32  1  0.200145  0.637700  0.750000  1
  Si  Si33  1  0.296521  0.138902  0.250000  1
  Si  Si34  1  0.803213  0.367585  0.250000  1
  W  W35  1  0.663463  0.992279  0.250000  1
