# generated using pymatgen
data_Y4Ho4Sc11Si16Hg
_symmetry_space_group_name_H-M   'P 1'
_cell_length_a   7.04248815
_cell_length_b   7.39030270
_cell_length_c   14.00705606
_cell_angle_alpha   90.00384151
_cell_angle_beta   90.00961419
_cell_angle_gamma   89.90879580
_symmetry_Int_Tables_number   1
_chemical_formula_structural   Y4Ho4Sc11Si16Hg
_chemical_formula_sum   'Y4 Ho4 Sc11 Si16 Hg1'
_cell_volume   729.01197297
_cell_formula_units_Z   1
loop_
 _symmetry_equiv_pos_site_id
 _symmetry_equiv_pos_as_xyz
  1  'x, y, z'
loop_
 _atom_site_type_symbol
 _atom_site_label
 _atom_site_symmetry_multiplicity
 _atom_site_fract_x
 _atom_site_fract_y
 _atom_site_fract_z
 _atom_site_occupancy
  Y  Y0  1  0.010169  0.174354  0.096652  1
  Y  Y1  1  0.990826  0.817541  0.901878  1
  Y  Y2  1  0.485152  0.673287  0.902185  1
  Y  Y3  1  0.990857  0.817544  0.597993  1
  Ho  Ho4  1  0.510936  0.323764  0.097033  1
  Ho  Ho5  1  0.010385  0.174664  0.403239  1
  Ho  Ho6  1  0.510954  0.323799  0.403096  1
  Ho  Ho7  1  0.485019  0.673621  0.597974  1
  Sc  Sc8  1  0.838128  0.497665  0.250093  1
  Sc  Sc9  1  0.339462  0.003365  0.250078  1
  Sc  Sc10  1  0.657752  0.997718  0.749895  1
  Sc  Sc11  1  0.326078  0.182804  0.625802  1
  Sc  Sc12  1  0.670860  0.823824  0.375064  1
  Sc  Sc13  1  0.169883  0.679817  0.373437  1
  Sc  Sc14  1  0.670859  0.823810  0.125069  1
  Sc  Sc15  1  0.837199  0.325246  0.625797  1
  Sc  Sc16  1  0.326090  0.182759  0.874112  1
  Sc  Sc17  1  0.837208  0.325229  0.874059  1
  Sc  Sc18  1  0.169852  0.679736  0.126622  1
  Si  Si19  1  0.027796  0.095648  0.749975  1
  Si  Si20  1  0.967885  0.887620  0.250146  1
  Si  Si21  1  0.467105  0.616640  0.250029  1
  Si  Si22  1  0.543846  0.379826  0.749860  1
  Si  Si23  1  0.291528  0.887693  0.749794  1
  Si  Si24  1  0.713089  0.128801  0.250172  1
  Si  Si25  1  0.213141  0.372844  0.250218  1
  Si  Si26  1  0.769737  0.631099  0.749780  1
  Si  Si27  1  0.162768  0.459046  0.528729  1
  Si  Si28  1  0.841688  0.535853  0.461943  1
  Si  Si29  1  0.343684  0.966285  0.462185  1
  Si  Si30  1  0.841682  0.536160  0.038029  1
  Si  Si31  1  0.657424  0.033554  0.540438  1
  Si  Si32  1  0.162357  0.459092  0.971252  1
  Si  Si33  1  0.657448  0.033877  0.959578  1
  Si  Si34  1  0.344162  0.966289  0.037870  1
  Hg  Hg35  1  0.156987  0.509126  0.749924  1
