# generated using pymatgen
data_Ho2FeCoSi2C
_symmetry_space_group_name_H-M   'P 1'
_cell_length_a   5.58731025
_cell_length_b   5.58730996
_cell_length_c   6.73945930
_cell_angle_alpha   126.41759864
_cell_angle_beta   126.41759642
_cell_angle_gamma   40.61311994
_symmetry_Int_Tables_number   1
_chemical_formula_structural   Ho2FeCoSi2C
_chemical_formula_sum   'Ho2 Fe1 Co1 Si2 C1'
_cell_volume   106.02282971
_cell_formula_units_Z   1
loop_
 _symmetry_equiv_pos_site_id
 _symmetry_equiv_pos_as_xyz
  1  'x, y, z'
loop_
 _atom_site_type_symbol
 _atom_site_label
 _atom_site_symmetry_multiplicity
 _atom_site_fract_x
 _atom_site_fract_y
 _atom_site_fract_z
 _atom_site_occupancy
  Ho  Ho0  1  0.561222  0.561222  0.293582  1
  Ho  Ho1  1  0.438283  0.438283  0.705952  1
  Fe  Fe2  1  0.200312  0.200312  0.090196  1
  Co  Co3  1  0.798097  0.798097  0.907267  1
  Si  Si4  1  0.841885  0.841885  0.292762  1
  Si  Si5  1  0.157116  0.157116  0.706544  1
  C  C6  1  0.003085  0.003085  0.003699  1
