# generated using pymatgen
data_Dy3Sc2Sn3
_symmetry_space_group_name_H-M   'P 1'
_cell_length_a   8.80180100
_cell_length_b   8.80180082
_cell_length_c   6.28504700
_cell_angle_alpha   90.00000000
_cell_angle_beta   90.00000000
_cell_angle_gamma   120.00126419
_symmetry_Int_Tables_number   1
_chemical_formula_structural   Dy3Sc2Sn3
_chemical_formula_sum   'Dy6 Sc4 Sn6'
_cell_volume   421.67389023
_cell_formula_units_Z   2
loop_
 _symmetry_equiv_pos_site_id
 _symmetry_equiv_pos_as_xyz
  1  'x, y, z'
loop_
 _atom_site_type_symbol
 _atom_site_label
 _atom_site_symmetry_multiplicity
 _atom_site_fract_x
 _atom_site_fract_y
 _atom_site_fract_z
 _atom_site_occupancy
  Dy  Dy0  1  0.239400  0.000010  0.250000  1
  Dy  Dy1  1  0.760601  0.999991  0.750000  1
  Dy  Dy2  1  0.000009  0.239399  0.250000  1
  Dy  Dy3  1  0.760605  0.760605  0.250000  1
  Dy  Dy4  1  0.239396  0.239396  0.750000  1
  Dy  Dy5  1  0.999990  0.760600  0.750000  1
  Sc  Sc6  1  0.333324  0.666678  0.000000  1
  Sc  Sc7  1  0.666677  0.333322  0.500000  1
  Sc  Sc8  1  0.666677  0.333322  0.000000  1
  Sc  Sc9  1  0.333324  0.666678  0.500000  1
  Sn  Sn10  1  0.599916  0.999998  0.250000  1
  Sn  Sn11  1  0.400084  0.000002  0.750000  1
  Sn  Sn12  1  0.999998  0.599915  0.250000  1
  Sn  Sn13  1  0.400100  0.400100  0.250000  1
  Sn  Sn14  1  0.599899  0.599900  0.750000  1
  Sn  Sn15  1  0.000002  0.400085  0.750000  1
