# generated using pymatgen
data_Sr2AlH3Pd16
_symmetry_space_group_name_H-M   'P 1'
_cell_length_a   7.02678921
_cell_length_b   7.05731906
_cell_length_c   7.02678843
_cell_angle_alpha   83.43268531
_cell_angle_beta   82.80290911
_cell_angle_gamma   83.43269008
_symmetry_Int_Tables_number   1
_chemical_formula_structural   Sr2AlH3Pd16
_chemical_formula_sum   'Sr2 Al1 H3 Pd16'
_cell_volume   341.67268585
_cell_formula_units_Z   1
loop_
 _symmetry_equiv_pos_site_id
 _symmetry_equiv_pos_as_xyz
  1  'x, y, z'
loop_
 _atom_site_type_symbol
 _atom_site_label
 _atom_site_symmetry_multiplicity
 _atom_site_fract_x
 _atom_site_fract_y
 _atom_site_fract_z
 _atom_site_occupancy
  Sr  Sr0  1  0.656514  0.664049  0.656514  1
  Sr  Sr1  1  0.343486  0.335951  0.343486  1
  Al  Al2  1  0.000000  0.500000  0.000000  1
  H  H3  1  0.500000  0.500000  0.000000  1
  H  H4  1  0.000000  0.500000  0.500000  1
  H  H5  1  0.500000  0.000000  0.500000  1
  Pd  Pd6  1  0.000000  0.000000  0.500000  1
  Pd  Pd7  1  0.500000  0.000000  0.000000  1
  Pd  Pd8  1  0.709587  0.299366  0.001967  1
  Pd  Pd9  1  0.998033  0.700634  0.290413  1
  Pd  Pd10  1  0.294857  0.000000  0.705143  1
  Pd  Pd11  1  0.001967  0.299366  0.709587  1
  Pd  Pd12  1  0.705143  0.000000  0.294857  1
  Pd  Pd13  1  0.290413  0.700634  0.998033  1
  Pd  Pd14  1  0.343562  0.348077  0.860000  1
  Pd  Pd15  1  0.860000  0.348077  0.343562  1
  Pd  Pd16  1  0.346846  0.849405  0.346846  1
  Pd  Pd17  1  0.656438  0.651923  0.140000  1
  Pd  Pd18  1  0.140000  0.651923  0.656438  1
  Pd  Pd19  1  0.653154  0.150595  0.653154  1
  Pd  Pd20  1  0.904861  0.891271  0.904861  1
  Pd  Pd21  1  0.095139  0.108729  0.095139  1
