# generated using pymatgen
data_CaPr6GaBr12
_symmetry_space_group_name_H-M   'P 1'
_cell_length_a   9.59630656
_cell_length_b   9.61180702
_cell_length_c   9.59574438
_cell_angle_alpha   107.08790641
_cell_angle_beta   106.94213082
_cell_angle_gamma   107.07977747
_symmetry_Int_Tables_number   1
_chemical_formula_structural   CaPr6GaBr12
_chemical_formula_sum   'Ca1 Pr6 Ga1 Br12'
_cell_volume   736.37364997
_cell_formula_units_Z   1
loop_
 _symmetry_equiv_pos_site_id
 _symmetry_equiv_pos_as_xyz
  1  'x, y, z'
loop_
 _atom_site_type_symbol
 _atom_site_label
 _atom_site_symmetry_multiplicity
 _atom_site_fract_x
 _atom_site_fract_y
 _atom_site_fract_z
 _atom_site_occupancy
  Ca  Ca0  1  0.500000  0.500000  0.500000  1
  Pr  Pr1  1  0.324577  0.108401  0.027349  1
  Pr  Pr2  1  0.027853  0.325015  0.109397  1
  Pr  Pr3  1  0.108030  0.027419  0.324518  1
  Pr  Pr4  1  0.891970  0.972581  0.675483  1
  Pr  Pr5  1  0.972147  0.674986  0.890604  1
  Pr  Pr6  1  0.675424  0.891599  0.972652  1
  Ga  Ga7  1  0.000000  0.000000  0.000000  1
  Br  Br8  1  0.683576  0.223080  0.070695  1
  Br  Br9  1  0.379230  0.458600  0.165972  1
  Br  Br10  1  0.070245  0.683681  0.222295  1
  Br  Br11  1  0.776612  0.929252  0.316342  1
  Br  Br12  1  0.458371  0.165825  0.378917  1
  Br  Br13  1  0.165832  0.379162  0.459324  1
  Br  Br14  1  0.834168  0.620839  0.540676  1
  Br  Br15  1  0.541629  0.834176  0.621083  1
  Br  Br16  1  0.223389  0.070749  0.683658  1
  Br  Br17  1  0.929755  0.316319  0.777706  1
  Br  Br18  1  0.620771  0.541400  0.834028  1
  Br  Br19  1  0.316425  0.776920  0.929305  1
