# generated using pymatgen
data_Sr2GdPaO6
_symmetry_space_group_name_H-M   'P 1'
_cell_length_a   6.19142600
_cell_length_b   6.04789593
_cell_length_c   10.55719630
_cell_angle_alpha   55.00511208
_cell_angle_beta   90.00000000
_cell_angle_gamma   90.00000000
_symmetry_Int_Tables_number   1
_chemical_formula_structural   Sr2GdPaO6
_chemical_formula_sum   'Sr4 Gd2 Pa2 O12'
_cell_volume   323.84354304
_cell_formula_units_Z   2
loop_
 _symmetry_equiv_pos_site_id
 _symmetry_equiv_pos_as_xyz
  1  'x, y, z'
loop_
 _atom_site_type_symbol
 _atom_site_label
 _atom_site_symmetry_multiplicity
 _atom_site_fract_x
 _atom_site_fract_y
 _atom_site_fract_z
 _atom_site_occupancy
  Sr  Sr0  1  0.456629  0.260465  0.750738  1
  Sr  Sr1  1  0.956629  0.739535  0.749262  1
  Sr  Sr2  1  0.043371  0.260465  0.250738  1
  Sr  Sr3  1  0.543371  0.739535  0.249262  1
  Gd  Gd4  1  0.500000  0.000000  0.500000  1
  Gd  Gd5  1  0.000000  0.000000  0.000000  1
  Pa  Pa6  1  0.000000  0.500000  0.500000  1
  Pa  Pa7  1  0.500000  0.500000  0.000000  1
  O  O8  1  0.194591  0.738549  0.553007  1
  O  O9  1  0.694591  0.261451  0.946993  1
  O  O10  1  0.805409  0.261451  0.446993  1
  O  O11  1  0.305409  0.738549  0.053007  1
  O  O12  1  0.709696  0.635972  0.557473  1
  O  O13  1  0.209696  0.364028  0.942527  1
  O  O14  1  0.290304  0.364028  0.442527  1
  O  O15  1  0.790304  0.635972  0.057473  1
  O  O16  1  0.041043  0.154034  0.742441  1
  O  O17  1  0.541043  0.845966  0.757559  1
  O  O18  1  0.958957  0.845966  0.257559  1
  O  O19  1  0.458957  0.154034  0.242441  1
