# generated using pymatgen
data_CaAl5Au3
_symmetry_space_group_name_H-M   'P 1'
_cell_length_a   4.13632900
_cell_length_b   12.07616200
_cell_length_c   13.54583400
_cell_angle_alpha   90.00000000
_cell_angle_beta   90.00000000
_cell_angle_gamma   90.00000000
_symmetry_Int_Tables_number   1
_chemical_formula_structural   CaAl5Au3
_chemical_formula_sum   'Ca4 Al20 Au12'
_cell_volume   676.62767088
_cell_formula_units_Z   4
loop_
 _symmetry_equiv_pos_site_id
 _symmetry_equiv_pos_as_xyz
  1  'x, y, z'
loop_
 _atom_site_type_symbol
 _atom_site_label
 _atom_site_symmetry_multiplicity
 _atom_site_fract_x
 _atom_site_fract_y
 _atom_site_fract_z
 _atom_site_occupancy
  Ca  Ca0  1  0.250000  0.898118  0.297120  1
  Ca  Ca1  1  0.750000  0.101882  0.702880  1
  Ca  Ca2  1  0.750000  0.398118  0.202880  1
  Ca  Ca3  1  0.250000  0.601882  0.797120  1
  Al  Al4  1  0.250000  0.411447  0.005813  1
  Al  Al5  1  0.750000  0.588553  0.994187  1
  Al  Al6  1  0.750000  0.911447  0.494187  1
  Al  Al7  1  0.250000  0.088553  0.505813  1
  Al  Al8  1  0.250000  0.601669  0.311948  1
  Al  Al9  1  0.750000  0.398331  0.688052  1
  Al  Al10  1  0.750000  0.101669  0.188052  1
  Al  Al11  1  0.250000  0.898331  0.811948  1
  Al  Al12  1  0.250000  0.012846  0.069628  1
  Al  Al13  1  0.750000  0.987154  0.930372  1
  Al  Al14  1  0.750000  0.512846  0.430372  1
  Al  Al15  1  0.250000  0.487154  0.569628  1
  Al  Al16  1  0.250000  0.772407  0.022981  1
  Al  Al17  1  0.750000  0.227593  0.977019  1
  Al  Al18  1  0.750000  0.272407  0.477019  1
  Al  Al19  1  0.250000  0.727593  0.522981  1
  Al  Al20  1  0.250000  0.199217  0.307989  1
  Al  Al21  1  0.750000  0.800783  0.692011  1
  Al  Al22  1  0.750000  0.699217  0.192011  1
  Al  Al23  1  0.250000  0.300783  0.807989  1
  Au  Au24  1  0.250000  0.584628  0.120882  1
  Au  Au25  1  0.750000  0.415372  0.879118  1
  Au  Au26  1  0.750000  0.084628  0.379118  1
  Au  Au27  1  0.250000  0.915372  0.620882  1
  Au  Au28  1  0.250000  0.224500  0.109945  1
  Au  Au29  1  0.750000  0.775500  0.890055  1
  Au  Au30  1  0.750000  0.724500  0.390055  1
  Au  Au31  1  0.250000  0.275500  0.609945  1
  Au  Au32  1  0.250000  0.393118  0.390598  1
  Au  Au33  1  0.750000  0.606882  0.609402  1
  Au  Au34  1  0.750000  0.893118  0.109402  1
  Au  Au35  1  0.250000  0.106882  0.890598  1
