# generated using pymatgen
data_RbTe12Rh2I5
_symmetry_space_group_name_H-M   'P 1'
_cell_length_a   10.49274891
_cell_length_b   10.49274808
_cell_length_c   10.22169393
_cell_angle_alpha   109.31492267
_cell_angle_beta   109.31491969
_cell_angle_gamma   112.18138777
_symmetry_Int_Tables_number   1
_chemical_formula_structural   RbTe12Rh2I5
_chemical_formula_sum   'Rb1 Te12 Rh2 I5'
_cell_volume   839.18729737
_cell_formula_units_Z   1
loop_
 _symmetry_equiv_pos_site_id
 _symmetry_equiv_pos_as_xyz
  1  'x, y, z'
loop_
 _atom_site_type_symbol
 _atom_site_label
 _atom_site_symmetry_multiplicity
 _atom_site_fract_x
 _atom_site_fract_y
 _atom_site_fract_z
 _atom_site_occupancy
  Rb  Rb0  1  0.929899  0.570101  0.250000  1
  Te  Te1  1  0.979797  0.196018  0.196072  1
  Te  Te2  1  0.172302  0.933293  0.154247  1
  Te  Te3  1  0.175186  0.177643  0.946089  1
  Te  Te4  1  0.682823  0.669695  0.444985  1
  Te  Te5  1  0.439823  0.660785  0.656005  1
  Te  Te6  1  0.665830  0.451936  0.686751  1
  Te  Te7  1  0.048064  0.834170  0.813249  1
  Te  Te8  1  0.839215  0.060177  0.843995  1
  Te  Te9  1  0.830305  0.817177  0.055015  1
  Te  Te10  1  0.322357  0.324814  0.553911  1
  Te  Te11  1  0.566707  0.327698  0.345753  1
  Te  Te12  1  0.303982  0.520203  0.303928  1
  Rh  Rh13  1  0.261081  0.238919  0.250000  1
  Rh  Rh14  1  0.749700  0.750300  0.750000  1
  I  I15  1  0.259436  0.986816  0.506875  1
  I  I16  1  0.513184  0.240564  0.993125  1
  I  I17  1  0.772203  0.009721  0.503370  1
  I  I18  1  0.490279  0.727797  0.996630  1
  I  I19  1  0.997828  0.502172  0.750000  1
