# generated using pymatgen
data_PrLu(Bi3O7)2
_symmetry_space_group_name_H-M   'P 1'
_cell_length_a   6.68129268
_cell_length_b   6.91072707
_cell_length_c   7.90897936
_cell_angle_alpha   106.77653711
_cell_angle_beta   89.29865713
_cell_angle_gamma   99.15335213
_symmetry_Int_Tables_number   1
_chemical_formula_structural   PrLu(Bi3O7)2
_chemical_formula_sum   'Pr1 Lu1 Bi6 O14'
_cell_volume   344.96392524
_cell_formula_units_Z   1
loop_
 _symmetry_equiv_pos_site_id
 _symmetry_equiv_pos_as_xyz
  1  'x, y, z'
loop_
 _atom_site_type_symbol
 _atom_site_label
 _atom_site_symmetry_multiplicity
 _atom_site_fract_x
 _atom_site_fract_y
 _atom_site_fract_z
 _atom_site_occupancy
  Pr  Pr0  1  0.541794  0.996314  0.754144  1
  Lu  Lu1  1  0.461488  0.002475  0.250437  1
  Bi  Bi2  1  0.001443  0.001288  0.498590  1
  Bi  Bi3  1  0.003210  0.001946  0.007598  1
  Bi  Bi4  1  0.254182  0.516810  0.875780  1
  Bi  Bi5  1  0.736405  0.493036  0.121725  1
  Bi  Bi6  1  0.715897  0.456461  0.598358  1
  Bi  Bi7  1  0.274908  0.530373  0.381050  1
  O  O8  1  0.466966  0.665289  0.186924  1
  O  O9  1  0.536907  0.354608  0.817181  1
  O  O10  1  0.305589  0.936804  0.968537  1
  O  O11  1  0.700416  0.050752  0.058472  1
  O  O12  1  0.296812  0.916183  0.499160  1
  O  O13  1  0.703937  0.083794  0.480342  1
  O  O14  1  0.524726  0.341571  0.344130  1
  O  O15  1  0.457760  0.636895  0.638066  1
  O  O16  1  0.920803  0.678299  0.966834  1
  O  O17  1  0.093402  0.323266  0.039927  1
  O  O18  1  0.087891  0.324067  0.627781  1
  O  O19  1  0.893658  0.679310  0.376941  1
  O  O20  1  0.893778  0.934505  0.736040  1
  O  O21  1  0.128028  0.075955  0.271981  1
