# generated using pymatgen
data_Pr2Mn(Al2Pt)8
_symmetry_space_group_name_H-M   'P 1'
_cell_length_a   11.18279716
_cell_length_b   11.18279761
_cell_length_c   11.18282702
_cell_angle_alpha   158.46119619
_cell_angle_beta   116.12012805
_cell_angle_gamma   68.25803093
_symmetry_Int_Tables_number   1
_chemical_formula_structural   Pr2Mn(Al2Pt)8
_chemical_formula_sum   'Pr2 Mn1 Al16 Pt8'
_cell_volume   457.73536021
_cell_formula_units_Z   1
loop_
 _symmetry_equiv_pos_site_id
 _symmetry_equiv_pos_as_xyz
  1  'x, y, z'
loop_
 _atom_site_type_symbol
 _atom_site_label
 _atom_site_symmetry_multiplicity
 _atom_site_fract_x
 _atom_site_fract_y
 _atom_site_fract_z
 _atom_site_occupancy
  Pr  Pr0  1  0.229343  0.230250  0.999106  1
  Pr  Pr1  1  0.768856  0.769762  0.999106  1
  Mn  Mn2  1  0.776591  0.499879  0.276470  1
  Al  Al3  1  0.275514  0.392358  0.883181  1
  Al  Al4  1  0.090791  0.923579  0.167236  1
  Al  Al5  1  0.506797  0.202675  0.304147  1
  Al  Al6  1  0.243657  0.076445  0.167236  1
  Al  Al7  1  0.911072  0.416138  0.494944  1
  Al  Al8  1  0.722103  0.598429  0.123690  1
  Al  Al9  1  0.900327  0.206795  0.693565  1
  Al  Al10  1  0.486771  0.793238  0.693565  1
  Al  Al11  1  0.387336  0.000007  0.387343  1
  Al  Al12  1  0.624855  0.000030  0.624884  1
  Al  Al13  1  0.490824  0.607667  0.883181  1
  Al  Al14  1  0.101472  0.797349  0.304147  1
  Al  Al15  1  0.904057  0.082902  0.821231  1
  Al  Al16  1  0.738329  0.917175  0.821231  1
  Al  Al17  1  0.525260  0.401587  0.123690  1
  Al  Al18  1  0.078806  0.583873  0.494944  1
  Pt  Pt19  1  0.026901  0.342501  0.684372  1
  Pt  Pt20  1  0.626287  0.124297  0.501952  1
  Pt  Pt21  1  0.255140  0.499970  0.755110  1
  Pt  Pt22  1  0.377655  0.875664  0.501952  1
  Pt  Pt23  1  0.987470  0.999977  0.987447  1
  Pt  Pt24  1  0.649630  0.338664  0.310948  1
  Pt  Pt25  1  0.341871  0.657471  0.684372  1
  Pt  Pt26  1  0.972284  0.661318  0.310948  1
