# generated using pymatgen
data_TbCeU(AlIr)3
_symmetry_space_group_name_H-M   'P 1'
_cell_length_a   6.98677301
_cell_length_b   7.15962421
_cell_length_c   4.04175500
_cell_angle_alpha   90.00000000
_cell_angle_beta   90.00000000
_cell_angle_gamma   120.17046848
_symmetry_Int_Tables_number   1
_chemical_formula_structural   TbCeU(AlIr)3
_chemical_formula_sum   'Tb1 Ce1 U1 Al3 Ir3'
_cell_volume   174.79093314
_cell_formula_units_Z   1
loop_
 _symmetry_equiv_pos_site_id
 _symmetry_equiv_pos_as_xyz
  1  'x, y, z'
loop_
 _atom_site_type_symbol
 _atom_site_label
 _atom_site_symmetry_multiplicity
 _atom_site_fract_x
 _atom_site_fract_y
 _atom_site_fract_z
 _atom_site_occupancy
  Tb  Tb0  1  0.583989  0.001305  0.500000  1
  Ce  Ce1  1  0.420112  0.420455  0.500000  1
  U  U2  1  0.999298  0.579390  0.500000  1
  Al  Al3  1  0.761177  0.769206  0.000000  1
  Al  Al4  1  0.244639  0.998713  0.000000  1
  Al  Al5  1  0.995366  0.225698  0.000000  1
  Ir  Ir6  1  0.693225  0.369812  0.000000  1
  Ir  Ir7  1  0.296172  0.648398  0.000000  1
  Ir  Ir8  1  0.006021  0.987022  0.500000  1
