# generated using pymatgen
data_Sc5Ti3Al14SiRh7
_symmetry_space_group_name_H-M   'P 1'
_cell_length_a   8.78989590
_cell_length_b   8.78989581
_cell_length_c   8.78989547
_cell_angle_alpha   120.23411473
_cell_angle_beta   119.90345458
_cell_angle_gamma   89.88114321
_symmetry_Int_Tables_number   1
_chemical_formula_structural   Sc5Ti3Al14SiRh7
_chemical_formula_sum   'Sc5 Ti3 Al14 Si1 Rh7'
_cell_volume   479.71009713
_cell_formula_units_Z   1
loop_
 _symmetry_equiv_pos_site_id
 _symmetry_equiv_pos_as_xyz
  1  'x, y, z'
loop_
 _atom_site_type_symbol
 _atom_site_label
 _atom_site_symmetry_multiplicity
 _atom_site_fract_x
 _atom_site_fract_y
 _atom_site_fract_z
 _atom_site_occupancy
  Sc  Sc0  1  0.795029  0.288767  0.076492  1
  Sc  Sc1  1  0.212276  0.288767  0.493738  1
  Sc  Sc2  1  0.202787  0.702787  0.500000  1
  Sc  Sc3  1  0.212276  0.718538  0.923508  1
  Sc  Sc4  1  0.795029  0.718538  0.506262  1
  Ti  Ti5  1  0.788193  0.288193  0.500000  1
  Ti  Ti6  1  0.378990  0.122667  0.743677  1
  Ti  Ti7  1  0.378990  0.635313  0.256323  1
  Al  Al8  1  0.162662  0.335922  0.173259  1
  Al  Al9  1  0.162662  0.989403  0.826741  1
  Al  Al10  1  0.154226  0.339761  0.814466  1
  Al  Al11  1  0.525295  0.339761  0.185534  1
  Al  Al12  1  0.838028  0.655356  0.817329  1
  Al  Al13  1  0.838028  0.020699  0.182671  1
  Al  Al14  1  0.832906  0.662448  0.170457  1
  Al  Al15  1  0.491990  0.662448  0.829543  1
  Al  Al16  1  0.388204  0.124238  0.263966  1
  Al  Al17  1  0.860273  0.124238  0.736034  1
  Al  Al18  1  0.622628  0.884595  0.261967  1
  Al  Al19  1  0.622628  0.360662  0.738033  1
  Al  Al20  1  0.618469  0.876777  0.741692  1
  Al  Al21  1  0.135084  0.876777  0.258308  1
  Si  Si22  1  0.988681  0.488681  0.500000  1
  Rh  Rh23  1  0.000905  0.000905  0.501545  1
  Rh  Rh24  1  0.499360  0.000905  0.000000  1
  Rh  Rh25  1  0.496987  0.496987  0.000000  1
  Rh  Rh26  1  0.499360  0.499360  0.498455  1
  Rh  Rh27  1  0.000905  0.499360  0.000000  1
  Rh  Rh28  1  0.000263  0.000263  0.000000  1
  Rh  Rh29  1  0.496880  0.996880  0.500000  1
