# generated using pymatgen
data_YbLu15(ZnIn3)2
_symmetry_space_group_name_H-M   'P 1'
_cell_length_a   10.43812600
_cell_length_b   10.43812712
_cell_length_c   6.67616000
_cell_angle_alpha   90.00000000
_cell_angle_beta   90.00000000
_cell_angle_gamma   120.00000279
_symmetry_Int_Tables_number   1
_chemical_formula_structural   YbLu15(ZnIn3)2
_chemical_formula_sum   'Yb1 Lu15 Zn2 In6'
_cell_volume   629.94476680
_cell_formula_units_Z   1
loop_
 _symmetry_equiv_pos_site_id
 _symmetry_equiv_pos_as_xyz
  1  'x, y, z'
loop_
 _atom_site_type_symbol
 _atom_site_label
 _atom_site_symmetry_multiplicity
 _atom_site_fract_x
 _atom_site_fract_y
 _atom_site_fract_z
 _atom_site_occupancy
  Yb  Yb0  1  0.000000  0.000000  0.995941  1
  Lu  Lu1  1  0.519440  0.038879  0.516974  1
  Lu  Lu2  1  0.961121  0.480560  0.516974  1
  Lu  Lu3  1  0.519440  0.480560  0.516974  1
  Lu  Lu4  1  0.480500  0.961000  0.017853  1
  Lu  Lu5  1  0.039000  0.519500  0.017853  1
  Lu  Lu6  1  0.480500  0.519500  0.017853  1
  Lu  Lu7  1  0.172953  0.345906  0.734581  1
  Lu  Lu8  1  0.654094  0.827047  0.734581  1
  Lu  Lu9  1  0.172953  0.827047  0.734581  1
  Lu  Lu10  1  0.826902  0.653804  0.231849  1
  Lu  Lu11  1  0.346196  0.173098  0.231849  1
  Lu  Lu12  1  0.826902  0.173098  0.231849  1
  Lu  Lu13  1  0.666667  0.333333  0.868448  1
  Lu  Lu14  1  0.333333  0.666667  0.372544  1
  Lu  Lu15  1  0.000000  0.000000  0.495683  1
  Zn  Zn16  1  0.666667  0.333333  0.300624  1
  Zn  Zn17  1  0.333333  0.666667  0.804899  1
  In  In18  1  0.833603  0.667205  0.748065  1
  In  In19  1  0.332795  0.166397  0.748065  1
  In  In20  1  0.833603  0.166397  0.748065  1
  In  In21  1  0.166304  0.332608  0.252699  1
  In  In22  1  0.667392  0.833696  0.252699  1
  In  In23  1  0.166304  0.833696  0.252699  1
