# generated using pymatgen
data_Ce(DyCo)4
_symmetry_space_group_name_H-M   'P 1'
_cell_length_a   5.76593676
_cell_length_b   5.76593555
_cell_length_c   9.17368908
_cell_angle_alpha   71.80407551
_cell_angle_beta   71.80408111
_cell_angle_gamma   39.94677876
_symmetry_Int_Tables_number   1
_chemical_formula_structural   Ce(DyCo)4
_chemical_formula_sum   'Ce1 Dy4 Co4'
_cell_volume   184.70109711
_cell_formula_units_Z   1
loop_
 _symmetry_equiv_pos_site_id
 _symmetry_equiv_pos_as_xyz
  1  'x, y, z'
loop_
 _atom_site_type_symbol
 _atom_site_label
 _atom_site_symmetry_multiplicity
 _atom_site_fract_x
 _atom_site_fract_y
 _atom_site_fract_z
 _atom_site_occupancy
  Ce  Ce0  1  0.500000  0.500000  0.500000  1
  Dy  Dy1  1  0.729149  0.729149  0.679704  1
  Dy  Dy2  1  0.270851  0.270851  0.320296  1
  Dy  Dy3  1  0.390145  0.390145  0.898520  1
  Dy  Dy4  1  0.609855  0.609855  0.101480  1
  Co  Co5  1  0.030430  0.030430  0.643549  1
  Co  Co6  1  0.969570  0.969570  0.356451  1
  Co  Co7  1  0.088434  0.088434  0.880017  1
  Co  Co8  1  0.911566  0.911566  0.119983  1
