# generated using pymatgen
data_Dy10Ho2Al(InFe)2
_symmetry_space_group_name_H-M   'P 1'
_cell_length_a   8.43241375
_cell_length_b   8.43241471
_cell_length_c   8.43347715
_cell_angle_alpha   110.01253193
_cell_angle_beta   110.01253579
_cell_angle_gamma   108.38872706
_symmetry_Int_Tables_number   1
_chemical_formula_structural   Dy10Ho2Al(InFe)2
_chemical_formula_sum   'Dy10 Ho2 Al1 In2 Fe2'
_cell_volume   461.53124491
_cell_formula_units_Z   1
loop_
 _symmetry_equiv_pos_site_id
 _symmetry_equiv_pos_as_xyz
  1  'x, y, z'
loop_
 _atom_site_type_symbol
 _atom_site_label
 _atom_site_symmetry_multiplicity
 _atom_site_fract_x
 _atom_site_fract_y
 _atom_site_fract_z
 _atom_site_occupancy
  Dy  Dy0  1  0.449412  0.204541  0.244571  1
  Dy  Dy1  1  0.550588  0.795459  0.755429  1
  Dy  Dy2  1  0.959969  0.204841  0.755429  1
  Dy  Dy3  1  0.204841  0.959969  0.755429  1
  Dy  Dy4  1  0.040031  0.795159  0.244571  1
  Dy  Dy5  1  0.795159  0.040031  0.244571  1
  Dy  Dy6  1  0.204541  0.449412  0.244571  1
  Dy  Dy7  1  0.795459  0.550588  0.755429  1
  Dy  Dy8  1  0.304017  0.304017  0.608034  1
  Dy  Dy9  1  0.695983  0.695983  0.391966  1
  Ho  Ho10  1  0.304135  0.695865  0.000000  1
  Ho  Ho11  1  0.695865  0.304135  0.000000  1
  Al  Al12  1  0.000000  0.000000  0.000000  1
  In  In13  1  0.500000  0.000000  0.500000  1
  In  In14  1  0.000000  0.500000  0.500000  1
  Fe  Fe15  1  0.389340  0.389340  0.000000  1
  Fe  Fe16  1  0.610660  0.610660  0.000000  1
