# generated using pymatgen
data_La14Ir2PdRh3
_symmetry_space_group_name_H-M   'P 1'
_cell_length_a   10.25080000
_cell_length_b   10.24295147
_cell_length_c   6.56676024
_cell_angle_alpha   89.75525338
_cell_angle_beta   90.00000000
_cell_angle_gamma   120.02535017
_symmetry_Int_Tables_number   1
_chemical_formula_structural   La14Ir2PdRh3
_chemical_formula_sum   'La14 Ir2 Pd1 Rh3'
_cell_volume   596.96433602
_cell_formula_units_Z   1
loop_
 _symmetry_equiv_pos_site_id
 _symmetry_equiv_pos_as_xyz
  1  'x, y, z'
loop_
 _atom_site_type_symbol
 _atom_site_label
 _atom_site_symmetry_multiplicity
 _atom_site_fract_x
 _atom_site_fract_y
 _atom_site_fract_z
 _atom_site_occupancy
  La  La0  1  0.335524  0.671048  0.467731  1
  La  La1  1  0.666088  0.332174  0.974075  1
  La  La2  1  0.125349  0.877508  0.241708  1
  La  La3  1  0.752159  0.877508  0.241708  1
  La  La4  1  0.123855  0.247711  0.233071  1
  La  La5  1  0.867198  0.120302  0.741966  1
  La  La6  1  0.253104  0.120302  0.741966  1
  La  La7  1  0.876008  0.752016  0.744102  1
  La  La8  1  0.540191  0.462160  0.438416  1
  La  La9  1  0.921969  0.462160  0.438416  1
  La  La10  1  0.538734  0.077467  0.432320  1
  La  La11  1  0.468831  0.542743  0.940720  1
  La  La12  1  0.073913  0.542743  0.940720  1
  La  La13  1  0.459355  0.918709  0.939514  1
  Ir  Ir14  1  0.813644  0.188586  0.195697  1
  Ir  Ir15  1  0.374941  0.188586  0.195697  1
  Pd  Pd16  1  0.188058  0.376116  0.692107  1
  Rh  Rh17  1  0.811290  0.622579  0.193234  1
  Rh  Rh18  1  0.187283  0.809791  0.696310  1
  Rh  Rh19  1  0.622508  0.809791  0.696310  1
