# generated using pymatgen
data_DyTmLu(CuSi)4
_symmetry_space_group_name_H-M   'P 1'
_cell_length_a   4.09092659
_cell_length_b   6.51889247
_cell_length_c   7.75425139
_cell_angle_alpha   114.85624314
_cell_angle_beta   105.29483697
_cell_angle_gamma   90.00000075
_symmetry_Int_Tables_number   1
_chemical_formula_structural   DyTmLu(CuSi)4
_chemical_formula_sum   'Dy1 Tm1 Lu1 Cu4 Si4'
_cell_volume   179.53242319
_cell_formula_units_Z   1
loop_
 _symmetry_equiv_pos_site_id
 _symmetry_equiv_pos_as_xyz
  1  'x, y, z'
loop_
 _atom_site_type_symbol
 _atom_site_label
 _atom_site_symmetry_multiplicity
 _atom_site_fract_x
 _atom_site_fract_y
 _atom_site_fract_z
 _atom_site_occupancy
  Dy  Dy0  1  0.000128  0.500128  0.000257  1
  Tm  Tm1  1  0.872139  0.872139  0.744279  1
  Lu  Lu2  1  0.128026  0.128026  0.256052  1
  Cu  Cu3  1  0.669979  0.861442  0.339957  1
  Cu  Cu4  1  0.669979  0.478515  0.339957  1
  Cu  Cu5  1  0.329766  0.520459  0.659532  1
  Cu  Cu6  1  0.329766  0.139073  0.659532  1
  Si  Si7  1  0.782594  0.282594  0.565189  1
  Si  Si8  1  0.217005  0.717005  0.434008  1
  Si  Si9  1  0.500309  0.184658  0.000619  1
  Si  Si10  1  0.500309  0.815961  0.000619  1
