# generated using pymatgen
data_YbAgRh2F12
_symmetry_space_group_name_H-M   'P 1'
_cell_length_a   5.27035644
_cell_length_b   5.30715276
_cell_length_c   10.29189531
_cell_angle_alpha   75.56465031
_cell_angle_beta   75.18876583
_cell_angle_gamma   59.79089054
_symmetry_Int_Tables_number   1
_chemical_formula_structural   YbAgRh2F12
_chemical_formula_sum   'Yb1 Ag1 Rh2 F12'
_cell_volume   237.98855365
_cell_formula_units_Z   1
loop_
 _symmetry_equiv_pos_site_id
 _symmetry_equiv_pos_as_xyz
  1  'x, y, z'
loop_
 _atom_site_type_symbol
 _atom_site_label
 _atom_site_symmetry_multiplicity
 _atom_site_fract_x
 _atom_site_fract_y
 _atom_site_fract_z
 _atom_site_occupancy
  Yb  Yb0  1  0.500000  0.500000  0.500000  1
  Ag  Ag1  1  0.000000  0.000000  0.000000  1
  Rh  Rh2  1  0.741548  0.756510  0.750251  1
  Rh  Rh3  1  0.258452  0.243490  0.249749  1
  F  F4  1  0.489587  0.783483  0.632256  1
  F  F5  1  0.510413  0.216517  0.367744  1
  F  F6  1  0.769328  0.096049  0.633817  1
  F  F7  1  0.230672  0.903951  0.366183  1
  F  F8  1  0.702586  0.423603  0.861411  1
  F  F9  1  0.297414  0.576397  0.138589  1
  F  F10  1  0.004706  0.717854  0.862606  1
  F  F11  1  0.995294  0.282146  0.137394  1
  F  F12  1  0.597463  0.978572  0.137261  1
  F  F13  1  0.402537  0.021428  0.862739  1
  F  F14  1  0.913987  0.493144  0.369187  1
  F  F15  1  0.086013  0.506856  0.630813  1
