# generated using pymatgen
data_Ho7Er9Cd4(IrRu)2
_symmetry_space_group_name_H-M   'P 1'
_cell_length_a   9.56837085
_cell_length_b   9.56837181
_cell_length_c   9.61216200
_cell_angle_alpha   59.84849291
_cell_angle_beta   59.84848958
_cell_angle_gamma   59.74456391
_symmetry_Int_Tables_number   1
_chemical_formula_structural   Ho7Er9Cd4(IrRu)2
_chemical_formula_sum   'Ho7 Er9 Cd4 Ir2 Ru2'
_cell_volume   619.64393108
_cell_formula_units_Z   1
loop_
 _symmetry_equiv_pos_site_id
 _symmetry_equiv_pos_as_xyz
  1  'x, y, z'
loop_
 _atom_site_type_symbol
 _atom_site_label
 _atom_site_symmetry_multiplicity
 _atom_site_fract_x
 _atom_site_fract_y
 _atom_site_fract_z
 _atom_site_occupancy
  Ho  Ho0  1  0.059477  0.059477  0.440523  1
  Ho  Ho1  1  0.188496  0.809564  0.813210  1
  Ho  Ho2  1  0.809564  0.188496  0.188731  1
  Ho  Ho3  1  0.809564  0.188496  0.813210  1
  Ho  Ho4  1  0.188496  0.809564  0.188731  1
  Ho  Ho5  1  0.811167  0.811167  0.188833  1
  Ho  Ho6  1  0.188865  0.188865  0.811135  1
  Er  Er7  1  0.598172  0.598172  0.597948  1
  Er  Er8  1  0.598172  0.598172  0.205711  1
  Er  Er9  1  0.597043  0.209253  0.596853  1
  Er  Er10  1  0.209253  0.597043  0.596853  1
  Er  Er11  1  0.061908  0.438021  0.440101  1
  Er  Er12  1  0.438021  0.061908  0.059970  1
  Er  Er13  1  0.438021  0.061908  0.440101  1
  Er  Er14  1  0.061908  0.438021  0.059970  1
  Er  Er15  1  0.438036  0.438036  0.061964  1
  Cd  Cd16  1  0.830450  0.830450  0.830762  1
  Cd  Cd17  1  0.830450  0.830450  0.508338  1
  Cd  Cd18  1  0.830577  0.507472  0.830974  1
  Cd  Cd19  1  0.507472  0.830577  0.830974  1
  Ir  Ir20  1  0.394247  0.826983  0.389385  1
  Ir  Ir21  1  0.826983  0.394247  0.389385  1
  Ru  Ru22  1  0.391830  0.391830  0.387708  1
  Ru  Ru23  1  0.391830  0.391830  0.828633  1
