# generated using pymatgen
data_CePr7(Si3Ir)4
_symmetry_space_group_name_H-M   'P 1'
_cell_length_a   8.25708303
_cell_length_b   8.29743038
_cell_length_c   8.52171200
_cell_angle_alpha   90.00000000
_cell_angle_beta   90.00000000
_cell_angle_gamma   120.16176873
_symmetry_Int_Tables_number   1
_chemical_formula_structural   CePr7(Si3Ir)4
_chemical_formula_sum   'Ce1 Pr7 Si12 Ir4'
_cell_volume   504.79785923
_cell_formula_units_Z   1
loop_
 _symmetry_equiv_pos_site_id
 _symmetry_equiv_pos_as_xyz
  1  'x, y, z'
loop_
 _atom_site_type_symbol
 _atom_site_label
 _atom_site_symmetry_multiplicity
 _atom_site_fract_x
 _atom_site_fract_y
 _atom_site_fract_z
 _atom_site_occupancy
  Ce  Ce0  1  0.999859  0.499930  0.750000  1
  Pr  Pr1  1  0.000726  0.000363  0.250000  1
  Pr  Pr2  1  0.999758  0.999879  0.750000  1
  Pr  Pr3  1  0.501212  0.498318  0.250000  1
  Pr  Pr4  1  0.501212  0.002895  0.250000  1
  Pr  Pr5  1  0.997390  0.498695  0.250000  1
  Pr  Pr6  1  0.498055  0.502201  0.750000  1
  Pr  Pr7  1  0.498055  0.995853  0.750000  1
  Si  Si8  1  0.166457  0.833846  0.504038  1
  Si  Si9  1  0.166457  0.332613  0.504038  1
  Si  Si10  1  0.664276  0.832138  0.501241  1
  Si  Si11  1  0.833570  0.165810  0.498764  1
  Si  Si12  1  0.833570  0.667759  0.498764  1
  Si  Si13  1  0.336294  0.168146  0.499199  1
  Si  Si14  1  0.833570  0.165810  0.001236  1
  Si  Si15  1  0.833570  0.667759  0.001236  1
  Si  Si16  1  0.336294  0.168146  0.000801  1
  Si  Si17  1  0.166457  0.833846  0.995962  1
  Si  Si18  1  0.166457  0.332613  0.995962  1
  Si  Si19  1  0.664276  0.832138  0.998759  1
  Ir  Ir20  1  0.328875  0.664438  0.496570  1
  Ir  Ir21  1  0.672369  0.336184  0.511531  1
  Ir  Ir22  1  0.672369  0.336184  0.988469  1
  Ir  Ir23  1  0.328875  0.664438  0.003430  1
