# generated using pymatgen
data_Ho4Ga6Ir4Pt3
_symmetry_space_group_name_H-M   'P 1'
_cell_length_a   7.34450820
_cell_length_b   7.35435203
_cell_length_c   7.35435200
_cell_angle_alpha   109.56546084
_cell_angle_beta   109.45119453
_cell_angle_gamma   109.45121004
_symmetry_Int_Tables_number   1
_chemical_formula_structural   Ho4Ga6Ir4Pt3
_chemical_formula_sum   'Ho4 Ga6 Ir4 Pt3'
_cell_volume   305.58945599
_cell_formula_units_Z   1
loop_
 _symmetry_equiv_pos_site_id
 _symmetry_equiv_pos_as_xyz
  1  'x, y, z'
loop_
 _atom_site_type_symbol
 _atom_site_label
 _atom_site_symmetry_multiplicity
 _atom_site_fract_x
 _atom_site_fract_y
 _atom_site_fract_z
 _atom_site_occupancy
  Ho  Ho0  1  0.006234  0.003117  0.503117  1
  Ho  Ho1  1  0.006234  0.503117  0.003117  1
  Ho  Ho2  1  0.493972  0.991221  0.991221  1
  Ho  Ho3  1  0.493972  0.502752  0.502752  1
  Ga  Ga4  1  0.678296  0.679089  0.999207  1
  Ga  Ga5  1  0.320569  0.999363  0.321206  1
  Ga  Ga6  1  0.000777  0.320965  0.320965  1
  Ga  Ga7  1  0.320569  0.321206  0.999363  1
  Ga  Ga8  1  0.678296  0.999207  0.679089  1
  Ga  Ga9  1  0.000777  0.679813  0.679813  1
  Ir  Ir10  1  0.501535  0.250767  0.750767  1
  Ir  Ir11  1  0.249350  0.499526  0.749824  1
  Ir  Ir12  1  0.249350  0.749824  0.499526  1
  Ir  Ir13  1  0.501535  0.750767  0.250767  1
  Pt  Pt14  1  0.749244  0.249663  0.499581  1
  Pt  Pt15  1  0.749244  0.499581  0.249663  1
  Pt  Pt16  1  0.000045  0.000022  0.000022  1
