# generated using pymatgen
data_Rb2YbVF6
_symmetry_space_group_name_H-M   'P 1'
_cell_length_a   6.14323922
_cell_length_b   6.14323944
_cell_length_c   6.14323900
_cell_angle_alpha   59.99999701
_cell_angle_beta   59.99999580
_cell_angle_gamma   60.00000152
_symmetry_Int_Tables_number   1
_chemical_formula_structural   Rb2YbVF6
_chemical_formula_sum   'Rb2 Yb1 V1 F6'
_cell_volume   163.93710652
_cell_formula_units_Z   1
loop_
 _symmetry_equiv_pos_site_id
 _symmetry_equiv_pos_as_xyz
  1  'x, y, z'
loop_
 _atom_site_type_symbol
 _atom_site_label
 _atom_site_symmetry_multiplicity
 _atom_site_fract_x
 _atom_site_fract_y
 _atom_site_fract_z
 _atom_site_occupancy
  Rb  Rb0  1  0.250000  0.250000  0.250000  1
  Rb  Rb1  1  0.750000  0.750000  0.750000  1
  Yb  Yb2  1  0.500000  0.500000  0.500000  1
  V  V3  1  0.000000  0.000000  0.000000  1
  F  F4  1  0.755477  0.244523  0.244523  1
  F  F5  1  0.244523  0.755477  0.755477  1
  F  F6  1  0.244523  0.755477  0.244523  1
  F  F7  1  0.755477  0.244523  0.755477  1
  F  F8  1  0.244523  0.244523  0.755477  1
  F  F9  1  0.755477  0.755477  0.244523  1
