# generated using pymatgen
data_CsTbCeSe6
_symmetry_space_group_name_H-M   'P 1'
_cell_length_a   12.12337513
_cell_length_b   12.12337584
_cell_length_c   12.12337364
_cell_angle_alpha   159.81582743
_cell_angle_beta   152.94463765
_cell_angle_gamma   33.98788450
_symmetry_Int_Tables_number   1
_chemical_formula_structural   CsTbCeSe6
_chemical_formula_sum   'Cs1 Tb1 Ce1 Se6'
_cell_volume   279.38915079
_cell_formula_units_Z   1
loop_
 _symmetry_equiv_pos_site_id
 _symmetry_equiv_pos_as_xyz
  1  'x, y, z'
loop_
 _atom_site_type_symbol
 _atom_site_label
 _atom_site_symmetry_multiplicity
 _atom_site_fract_x
 _atom_site_fract_y
 _atom_site_fract_z
 _atom_site_occupancy
  Cs  Cs0  1  0.997926  0.997926  0.000000  1
  Tb  Tb1  1  0.313325  0.813325  0.500000  1
  Ce  Ce2  1  0.690101  0.190101  0.500000  1
  Se  Se3  1  0.174338  0.387426  0.786912  1
  Se  Se4  1  0.224563  0.224563  0.000000  1
  Se  Se5  1  0.402630  0.612920  0.789711  1
  Se  Se6  1  0.600516  0.387426  0.213088  1
  Se  Se7  1  0.823209  0.612920  0.210289  1
  Se  Se8  1  0.773394  0.773394  0.000000  1
