# generated using pymatgen
data_TbY13Er2(CdPd)4
_symmetry_space_group_name_H-M   'P 1'
_cell_length_a   9.72063223
_cell_length_b   9.75123185
_cell_length_c   9.72632700
_cell_angle_alpha   60.08445381
_cell_angle_beta   59.98062195
_cell_angle_gamma   60.05751589
_symmetry_Int_Tables_number   1
_chemical_formula_structural   TbY13Er2(CdPd)4
_chemical_formula_sum   'Tb1 Y13 Er2 Cd4 Pd4'
_cell_volume   652.51300874
_cell_formula_units_Z   1
loop_
 _symmetry_equiv_pos_site_id
 _symmetry_equiv_pos_as_xyz
  1  'x, y, z'
loop_
 _atom_site_type_symbol
 _atom_site_label
 _atom_site_symmetry_multiplicity
 _atom_site_fract_x
 _atom_site_fract_y
 _atom_site_fract_z
 _atom_site_occupancy
  Tb  Tb0  1  0.356423  0.935905  0.353836  1
  Y  Y1  1  0.933890  0.357226  0.354442  1
  Y  Y2  1  0.810526  0.189735  0.189980  1
  Y  Y3  1  0.189823  0.810577  0.809700  1
  Y  Y4  1  0.189823  0.810577  0.189900  1
  Y  Y5  1  0.810526  0.189735  0.809759  1
  Y  Y6  1  0.191139  0.191057  0.808902  1
  Y  Y7  1  0.811691  0.811769  0.188270  1
  Y  Y8  1  0.935096  0.564939  0.565380  1
  Y  Y9  1  0.564565  0.934953  0.935090  1
  Y  Y10  1  0.564565  0.934953  0.565393  1
  Y  Y11  1  0.935096  0.564939  0.934586  1
  Y  Y12  1  0.565091  0.565457  0.934726  1
  Y  Y13  1  0.935368  0.934921  0.564856  1
  Er  Er14  1  0.353414  0.353354  0.351524  1
  Er  Er15  1  0.353414  0.353354  0.941709  1
  Cd  Cd16  1  0.581239  0.580931  0.584149  1
  Cd  Cd17  1  0.581239  0.580931  0.253682  1
  Cd  Cd18  1  0.580366  0.253541  0.583047  1
  Cd  Cd19  1  0.253783  0.580021  0.583099  1
  Pd  Pd20  1  0.146389  0.145565  0.144847  1
  Pd  Pd21  1  0.146389  0.145565  0.563198  1
  Pd  Pd22  1  0.146590  0.563905  0.144753  1
  Pd  Pd23  1  0.563560  0.146093  0.145173  1
