# generated using pymatgen
data_Y6Cd22SbPd
_symmetry_space_group_name_H-M   'P 1'
_cell_length_a   9.99436117
_cell_length_b   9.99436094
_cell_length_c   9.99436200
_cell_angle_alpha   60.00000312
_cell_angle_beta   60.00000386
_cell_angle_gamma   60.00000566
_symmetry_Int_Tables_number   1
_chemical_formula_structural   Y6Cd22SbPd
_chemical_formula_sum   'Y6 Cd22 Sb1 Pd1'
_cell_volume   705.91138869
_cell_formula_units_Z   1
loop_
 _symmetry_equiv_pos_site_id
 _symmetry_equiv_pos_as_xyz
  1  'x, y, z'
loop_
 _atom_site_type_symbol
 _atom_site_label
 _atom_site_symmetry_multiplicity
 _atom_site_fract_x
 _atom_site_fract_y
 _atom_site_fract_z
 _atom_site_occupancy
  Y  Y0  1  0.786158  0.786158  0.213842  1
  Y  Y1  1  0.213842  0.786158  0.213842  1
  Y  Y2  1  0.786158  0.213842  0.213842  1
  Y  Y3  1  0.213842  0.213842  0.786158  1
  Y  Y4  1  0.786158  0.213842  0.786158  1
  Y  Y5  1  0.213842  0.786158  0.786158  1
  Cd  Cd6  1  0.837529  0.837529  0.487411  1
  Cd  Cd7  1  0.837529  0.487411  0.837529  1
  Cd  Cd8  1  0.487411  0.837529  0.837529  1
  Cd  Cd9  1  0.837529  0.837529  0.837529  1
  Cd  Cd10  1  0.162471  0.162471  0.512589  1
  Cd  Cd11  1  0.162471  0.512589  0.162471  1
  Cd  Cd12  1  0.512589  0.162471  0.162471  1
  Cd  Cd13  1  0.162471  0.162471  0.162471  1
  Cd  Cd14  1  0.617598  0.617598  0.147207  1
  Cd  Cd15  1  0.617598  0.147207  0.617598  1
  Cd  Cd16  1  0.147207  0.617598  0.617598  1
  Cd  Cd17  1  0.617598  0.617598  0.617598  1
  Cd  Cd18  1  0.382402  0.382402  0.852793  1
  Cd  Cd19  1  0.382402  0.852793  0.382402  1
  Cd  Cd20  1  0.852793  0.382402  0.382402  1
  Cd  Cd21  1  0.382402  0.382402  0.382402  1
  Cd  Cd22  1  0.000000  0.000000  0.500000  1
  Cd  Cd23  1  0.500000  0.000000  0.500000  1
  Cd  Cd24  1  0.000000  0.500000  0.500000  1
  Cd  Cd25  1  0.500000  0.500000  0.000000  1
  Cd  Cd26  1  0.000000  0.500000  0.000000  1
  Cd  Cd27  1  0.500000  0.000000  0.000000  1
  Sb  Sb28  1  0.000000  0.000000  0.000000  1
  Pd  Pd29  1  0.500000  0.500000  0.500000  1
