# generated using pymatgen
data_Li4Gd4Pt3Rh
_symmetry_space_group_name_H-M   'P 1'
_cell_length_a   3.99477800
_cell_length_b   7.06882470
_cell_length_c   8.43024200
_cell_angle_alpha   89.78514918
_cell_angle_beta   90.00000000
_cell_angle_gamma   90.00000000
_symmetry_Int_Tables_number   1
_chemical_formula_structural   Li4Gd4Pt3Rh
_chemical_formula_sum   'Li4 Gd4 Pt3 Rh1'
_cell_volume   238.05474885
_cell_formula_units_Z   1
loop_
 _symmetry_equiv_pos_site_id
 _symmetry_equiv_pos_as_xyz
  1  'x, y, z'
loop_
 _atom_site_type_symbol
 _atom_site_label
 _atom_site_symmetry_multiplicity
 _atom_site_fract_x
 _atom_site_fract_y
 _atom_site_fract_z
 _atom_site_occupancy
  Li  Li0  1  0.250000  0.626341  0.556083  1
  Li  Li1  1  0.750000  0.375802  0.444347  1
  Li  Li2  1  0.750000  0.875025  0.057456  1
  Li  Li3  1  0.250000  0.124445  0.943556  1
  Gd  Gd4  1  0.250000  0.548195  0.179878  1
  Gd  Gd5  1  0.750000  0.449163  0.815394  1
  Gd  Gd6  1  0.750000  0.959511  0.679243  1
  Gd  Gd7  1  0.250000  0.049314  0.323383  1
  Pt  Pt8  1  0.250000  0.745863  0.873505  1
  Pt  Pt9  1  0.750000  0.252945  0.125580  1
  Pt  Pt10  1  0.750000  0.752536  0.373837  1
  Rh  Rh11  1  0.250000  0.240858  0.627738  1
