# generated using pymatgen
data_Tm5Cu(P2Ru3)6
_symmetry_space_group_name_H-M   'P 1'
_cell_length_a   12.46729400
_cell_length_b   12.46729422
_cell_length_c   3.96466400
_cell_angle_alpha   90.00000000
_cell_angle_beta   90.00000000
_cell_angle_gamma   120.00000472
_symmetry_Int_Tables_number   1
_chemical_formula_structural   Tm5Cu(P2Ru3)6
_chemical_formula_sum   'Tm5 Cu1 P12 Ru18'
_cell_volume   533.68059046
_cell_formula_units_Z   1
loop_
 _symmetry_equiv_pos_site_id
 _symmetry_equiv_pos_as_xyz
  1  'x, y, z'
loop_
 _atom_site_type_symbol
 _atom_site_label
 _atom_site_symmetry_multiplicity
 _atom_site_fract_x
 _atom_site_fract_y
 _atom_site_fract_z
 _atom_site_occupancy
  Tm  Tm0  1  0.666667  0.333333  0.000000  1
  Tm  Tm1  1  0.333333  0.666667  0.000000  1
  Tm  Tm2  1  0.190594  0.190594  0.500000  1
  Tm  Tm3  1  0.809406  0.000000  0.500000  1
  Tm  Tm4  1  0.000000  0.809406  0.500000  1
  Cu  Cu5  1  0.000000  0.000000  0.000000  1
  P  P6  1  0.373306  0.373306  0.000000  1
  P  P7  1  0.626694  0.000000  0.000000  1
  P  P8  1  0.000000  0.626694  0.000000  1
  P  P9  1  0.829536  0.306272  0.500000  1
  P  P10  1  0.693728  0.523265  0.500000  1
  P  P11  1  0.476735  0.170464  0.500000  1
  P  P12  1  0.306272  0.829536  0.500000  1
  P  P13  1  0.523265  0.693728  0.500000  1
  P  P14  1  0.170464  0.476735  0.500000  1
  P  P15  1  0.819232  0.819232  0.000000  1
  P  P16  1  0.180768  0.000000  0.000000  1
  P  P17  1  0.000000  0.180768  0.000000  1
  Ru  Ru18  1  0.815191  0.189183  0.000000  1
  Ru  Ru19  1  0.810817  0.626008  0.000000  1
  Ru  Ru20  1  0.373992  0.184809  0.000000  1
  Ru  Ru21  1  0.189183  0.815191  0.000000  1
  Ru  Ru22  1  0.626008  0.810817  0.000000  1
  Ru  Ru23  1  0.184809  0.373992  0.000000  1
  Ru  Ru24  1  0.556270  0.556270  0.000000  1
  Ru  Ru25  1  0.443730  0.000000  0.000000  1
  Ru  Ru26  1  0.000000  0.443730  0.000000  1
  Ru  Ru27  1  0.634416  0.127253  0.500000  1
  Ru  Ru28  1  0.872747  0.507164  0.500000  1
  Ru  Ru29  1  0.492836  0.365584  0.500000  1
  Ru  Ru30  1  0.127253  0.634416  0.500000  1
  Ru  Ru31  1  0.507164  0.872747  0.500000  1
  Ru  Ru32  1  0.365584  0.492836  0.500000  1
  Ru  Ru33  1  0.720807  0.720807  0.500000  1
  Ru  Ru34  1  0.279193  0.000000  0.500000  1
  Ru  Ru35  1  0.000000  0.279193  0.500000  1
