# generated using pymatgen
data_Nd5SmAl20(SiOs2)4
_symmetry_space_group_name_H-M   'P 1'
_cell_length_a   8.77692900
_cell_length_b   8.77692827
_cell_length_c   9.74585100
_cell_angle_alpha   90.00000000
_cell_angle_beta   90.00000000
_cell_angle_gamma   119.99725622
_symmetry_Int_Tables_number   1
_chemical_formula_structural   Nd5SmAl20(SiOs2)4
_chemical_formula_sum   'Nd5 Sm1 Al20 Si4 Os8'
_cell_volume   650.20086081
_cell_formula_units_Z   1
loop_
 _symmetry_equiv_pos_site_id
 _symmetry_equiv_pos_as_xyz
  1  'x, y, z'
loop_
 _atom_site_type_symbol
 _atom_site_label
 _atom_site_symmetry_multiplicity
 _atom_site_fract_x
 _atom_site_fract_y
 _atom_site_fract_z
 _atom_site_occupancy
  Nd  Nd0  1  0.192939  0.385913  0.250000  1
  Nd  Nd1  1  0.807093  0.613857  0.750000  1
  Nd  Nd2  1  0.614087  0.807061  0.250000  1
  Nd  Nd3  1  0.386143  0.192907  0.750000  1
  Nd  Nd4  1  0.192995  0.807005  0.250000  1
  Sm  Sm5  1  0.806333  0.193667  0.750000  1
  Al  Al6  1  0.164883  0.330327  0.574922  1
  Al  Al7  1  0.834667  0.669396  0.425413  1
  Al  Al8  1  0.669673  0.835117  0.574922  1
  Al  Al9  1  0.834667  0.669396  0.074587  1
  Al  Al10  1  0.330604  0.165333  0.425413  1
  Al  Al11  1  0.164883  0.330327  0.925078  1
  Al  Al12  1  0.165303  0.834697  0.574764  1
  Al  Al13  1  0.330604  0.165333  0.074587  1
  Al  Al14  1  0.834683  0.165317  0.425799  1
  Al  Al15  1  0.669673  0.835117  0.925078  1
  Al  Al16  1  0.834683  0.165317  0.074201  1
  Al  Al17  1  0.165303  0.834697  0.925236  1
  Al  Al18  1  0.564723  0.129410  0.250000  1
  Al  Al19  1  0.435946  0.871122  0.750000  1
  Al  Al20  1  0.870590  0.435277  0.250000  1
  Al  Al21  1  0.128878  0.564054  0.750000  1
  Al  Al22  1  0.564734  0.435266  0.250000  1
  Al  Al23  1  0.435253  0.564747  0.750000  1
  Al  Al24  1  0.000010  0.999990  0.250000  1
  Al  Al25  1  0.999516  0.000484  0.750000  1
  Si  Si26  1  0.333372  0.666628  0.033043  1
  Si  Si27  1  0.667039  0.332961  0.966248  1
  Si  Si28  1  0.667039  0.332961  0.533752  1
  Si  Si29  1  0.333372  0.666628  0.466957  1
  Os  Os30  1  0.500421  0.000242  0.999663  1
  Os  Os31  1  0.999758  0.499579  0.999663  1
  Os  Os32  1  0.500421  0.000242  0.500337  1
  Os  Os33  1  0.500062  0.499938  0.999891  1
  Os  Os34  1  0.999758  0.499579  0.500337  1
  Os  Os35  1  0.500062  0.499938  0.500109  1
  Os  Os36  1  0.999914  0.000086  0.999878  1
  Os  Os37  1  0.999914  0.000086  0.500122  1
