# generated using pymatgen
data_Nd3Pa3(Cu3Sn4)2
_symmetry_space_group_name_H-M   'P 1'
_cell_length_a   8.35176808
_cell_length_b   8.35109231
_cell_length_c   8.35538000
_cell_angle_alpha   109.51606488
_cell_angle_beta   109.39656894
_cell_angle_gamma   109.47908223
_symmetry_Int_Tables_number   1
_chemical_formula_structural   Nd3Pa3(Cu3Sn4)2
_chemical_formula_sum   'Nd3 Pa3 Cu6 Sn8'
_cell_volume   448.72805562
_cell_formula_units_Z   1
loop_
 _symmetry_equiv_pos_site_id
 _symmetry_equiv_pos_as_xyz
  1  'x, y, z'
loop_
 _atom_site_type_symbol
 _atom_site_label
 _atom_site_symmetry_multiplicity
 _atom_site_fract_x
 _atom_site_fract_y
 _atom_site_fract_z
 _atom_site_occupancy
  Nd  Nd0  1  0.878414  0.751855  0.126167  1
  Nd  Nd1  1  0.122224  0.372187  0.250014  1
  Nd  Nd2  1  0.625627  0.252261  0.373885  1
  Pa  Pa3  1  0.748667  0.871776  0.624305  1
  Pa  Pa4  1  0.377587  0.127663  0.749991  1
  Pa  Pa5  1  0.247603  0.624516  0.875837  1
  Cu  Cu6  1  0.741614  0.372152  0.117522  1
  Cu  Cu7  1  0.624690  0.874620  0.250245  1
  Cu  Cu8  1  0.254472  0.124013  0.382193  1
  Cu  Cu9  1  0.376395  0.755893  0.629260  1
  Cu  Cu10  1  0.875057  0.625384  0.750134  1
  Cu  Cu11  1  0.126393  0.246401  0.870337  1
  Sn  Sn12  1  0.166220  0.998310  0.995331  1
  Sn  Sn13  1  0.660430  0.997016  0.995895  1
  Sn  Sn14  1  0.498425  0.501577  0.162251  1
  Sn  Sn15  1  0.339339  0.836263  0.337707  1
  Sn  Sn16  1  0.003084  0.670870  0.504768  1
  Sn  Sn17  1  0.001258  0.164653  0.504153  1
  Sn  Sn18  1  0.498212  0.501803  0.667547  1
  Sn  Sn19  1  0.834291  0.330786  0.832460  1
