# generated using pymatgen
data_LiYb2Rh3
_symmetry_space_group_name_H-M   'P 1'
_cell_length_a   5.35552501
_cell_length_b   5.22304362
_cell_length_c   5.35552500
_cell_angle_alpha   59.15733806
_cell_angle_beta   60.00000623
_cell_angle_gamma   59.15733591
_symmetry_Int_Tables_number   1
_chemical_formula_structural   LiYb2Rh3
_chemical_formula_sum   'Li1 Yb2 Rh3'
_cell_volume   104.55918283
_cell_formula_units_Z   1
loop_
 _symmetry_equiv_pos_site_id
 _symmetry_equiv_pos_as_xyz
  1  'x, y, z'
loop_
 _atom_site_type_symbol
 _atom_site_label
 _atom_site_symmetry_multiplicity
 _atom_site_fract_x
 _atom_site_fract_y
 _atom_site_fract_z
 _atom_site_occupancy
  Li  Li0  1  0.125000  0.625000  0.125000  1
  Yb  Yb1  1  0.747577  0.757270  0.747577  1
  Yb  Yb2  1  0.502423  0.492730  0.502423  1
  Rh  Rh3  1  0.125000  0.125000  0.625000  1
  Rh  Rh4  1  0.625000  0.125000  0.125000  1
  Rh  Rh5  1  0.125000  0.125000  0.125000  1
