# generated using pymatgen
data_AcDy5(MoO7)2
_symmetry_space_group_name_H-M   'P 1'
_cell_length_a   6.47985495
_cell_length_b   6.47985526
_cell_length_c   7.57174400
_cell_angle_alpha   90.05464443
_cell_angle_beta   89.94535557
_cell_angle_gamma   109.03034332
_symmetry_Int_Tables_number   1
_chemical_formula_structural   AcDy5(MoO7)2
_chemical_formula_sum   'Ac1 Dy5 Mo2 O14'
_cell_volume   300.55019648
_cell_formula_units_Z   1
loop_
 _symmetry_equiv_pos_site_id
 _symmetry_equiv_pos_as_xyz
  1  'x, y, z'
loop_
 _atom_site_type_symbol
 _atom_site_label
 _atom_site_symmetry_multiplicity
 _atom_site_fract_x
 _atom_site_fract_y
 _atom_site_fract_z
 _atom_site_occupancy
  Ac  Ac0  1  0.500000  0.500000  0.000000  1
  Dy  Dy1  1  0.500000  0.500000  0.500000  1
  Dy  Dy2  1  0.535435  0.000917  0.743837  1
  Dy  Dy3  1  0.000917  0.535435  0.256163  1
  Dy  Dy4  1  0.464565  0.999083  0.256163  1
  Dy  Dy5  1  0.999083  0.464565  0.743837  1
  Mo  Mo6  1  0.000000  0.000000  0.500000  1
  Mo  Mo7  1  0.000000  0.000000  0.000000  1
  O  O8  1  0.680335  0.926797  0.469712  1
  O  O9  1  0.926797  0.680335  0.530288  1
  O  O10  1  0.680119  0.933109  0.031489  1
  O  O11  1  0.933109  0.680119  0.968511  1
  O  O12  1  0.319665  0.073203  0.530288  1
  O  O13  1  0.073203  0.319665  0.469712  1
  O  O14  1  0.319881  0.066891  0.968511  1
  O  O15  1  0.066891  0.319881  0.031489  1
  O  O16  1  0.927972  0.072028  0.750249  1
  O  O17  1  0.072028  0.927972  0.249751  1
  O  O18  1  0.362571  0.637429  0.731802  1
  O  O19  1  0.637429  0.362571  0.268198  1
  O  O20  1  0.641206  0.358794  0.733555  1
  O  O21  1  0.358794  0.641206  0.266445  1
