# generated using pymatgen
data_S24BrCl3
_symmetry_space_group_name_H-M   'P 1'
_cell_length_a   15.10374271
_cell_length_b   15.10374156
_cell_length_c   15.10374192
_cell_angle_alpha   118.69716453
_cell_angle_beta   118.69716288
_cell_angle_gamma   118.69716793
_symmetry_Int_Tables_number   1
_chemical_formula_structural   S24BrCl3
_chemical_formula_sum   'S24 Br1 Cl3'
_cell_volume   1015.39260934
_cell_formula_units_Z   1
loop_
 _symmetry_equiv_pos_site_id
 _symmetry_equiv_pos_as_xyz
  1  'x, y, z'
loop_
 _atom_site_type_symbol
 _atom_site_label
 _atom_site_symmetry_multiplicity
 _atom_site_fract_x
 _atom_site_fract_y
 _atom_site_fract_z
 _atom_site_occupancy
  S  S0  1  0.021560  0.618515  0.618515  1
  S  S1  1  0.618515  0.618515  0.021560  1
  S  S2  1  0.618515  0.021560  0.618515  1
  S  S3  1  0.233622  0.844878  0.715743  1
  S  S4  1  0.844878  0.715743  0.233622  1
  S  S5  1  0.715743  0.233622  0.844878  1
  S  S6  1  0.844878  0.233622  0.715743  1
  S  S7  1  0.233622  0.715743  0.844878  1
  S  S8  1  0.715743  0.844878  0.233622  1
  S  S9  1  0.102721  0.631914  0.449817  1
  S  S10  1  0.631914  0.449817  0.102721  1
  S  S11  1  0.449817  0.102721  0.631914  1
  S  S12  1  0.631914  0.102721  0.449817  1
  S  S13  1  0.102721  0.449817  0.631914  1
  S  S14  1  0.449817  0.631914  0.102721  1
  S  S15  1  0.353294  0.741480  0.612092  1
  S  S16  1  0.741480  0.612092  0.353294  1
  S  S17  1  0.612092  0.353294  0.741480  1
  S  S18  1  0.741480  0.353294  0.612092  1
  S  S19  1  0.353294  0.612092  0.741480  1
  S  S20  1  0.612092  0.741480  0.353294  1
  S  S21  1  0.191777  0.471316  0.471316  1
  S  S22  1  0.471316  0.471316  0.191777  1
  S  S23  1  0.471316  0.191777  0.471316  1
  Br  Br24  1  0.070083  0.070083  0.070083  1
  Cl  Cl25  1  0.174289  0.019305  0.019305  1
  Cl  Cl26  1  0.019305  0.019305  0.174289  1
  Cl  Cl27  1  0.019305  0.174289  0.019305  1
