# generated using pymatgen
data_ErLu7(Sc3Si4)4
_symmetry_space_group_name_H-M   'P 1'
_cell_length_a   7.03618758
_cell_length_b   7.33091384
_cell_length_c   13.88084769
_cell_angle_alpha   90.03282708
_cell_angle_beta   89.98489179
_cell_angle_gamma   89.95613354
_symmetry_Int_Tables_number   1
_chemical_formula_structural   ErLu7(Sc3Si4)4
_chemical_formula_sum   'Er1 Lu7 Sc12 Si16'
_cell_volume   715.99715901
_cell_formula_units_Z   1
loop_
 _symmetry_equiv_pos_site_id
 _symmetry_equiv_pos_as_xyz
  1  'x, y, z'
loop_
 _atom_site_type_symbol
 _atom_site_label
 _atom_site_symmetry_multiplicity
 _atom_site_fract_x
 _atom_site_fract_y
 _atom_site_fract_z
 _atom_site_occupancy
  Er  Er0  1  0.487807  0.676414  0.595991  1
  Lu  Lu1  1  0.012340  0.176858  0.096481  1
  Lu  Lu2  1  0.987677  0.823154  0.903791  1
  Lu  Lu3  1  0.487640  0.676964  0.903260  1
  Lu  Lu4  1  0.987894  0.823561  0.596470  1
  Lu  Lu5  1  0.512258  0.322967  0.096517  1
  Lu  Lu6  1  0.012012  0.176793  0.403299  1
  Lu  Lu7  1  0.512534  0.322864  0.403145  1
  Sc  Sc8  1  0.160820  0.504130  0.750183  1
  Sc  Sc9  1  0.839038  0.495560  0.249995  1
  Sc  Sc10  1  0.339150  0.004249  0.249941  1
  Sc  Sc11  1  0.661004  0.995985  0.750233  1
  Sc  Sc12  1  0.330723  0.176882  0.625109  1
  Sc  Sc13  1  0.669541  0.823316  0.374808  1
  Sc  Sc14  1  0.168845  0.677377  0.374767  1
  Sc  Sc15  1  0.669158  0.822844  0.125078  1
  Sc  Sc16  1  0.831279  0.322264  0.625193  1
  Sc  Sc17  1  0.330905  0.177121  0.875107  1
  Sc  Sc18  1  0.831057  0.322668  0.875107  1
  Sc  Sc19  1  0.169005  0.677287  0.125137  1
  Si  Si20  1  0.032529  0.112623  0.750092  1
  Si  Si21  1  0.967496  0.887345  0.249911  1
  Si  Si22  1  0.467445  0.612927  0.249934  1
  Si  Si23  1  0.532800  0.386219  0.750273  1
  Si  Si24  1  0.284230  0.870231  0.750577  1
  Si  Si25  1  0.715045  0.130626  0.249984  1
  Si  Si26  1  0.215281  0.369338  0.249993  1
  Si  Si27  1  0.785600  0.630423  0.750597  1
  Si  Si28  1  0.158442  0.465125  0.539209  1
  Si  Si29  1  0.840194  0.533973  0.460428  1
  Si  Si30  1  0.339370  0.966915  0.460127  1
  Si  Si31  1  0.839825  0.534019  0.039463  1
  Si  Si32  1  0.660827  0.035105  0.539133  1
  Si  Si33  1  0.160386  0.465994  0.960637  1
  Si  Si34  1  0.660107  0.033962  0.960506  1
  Si  Si35  1  0.339734  0.965919  0.039526  1
