# generated using pymatgen
data_PrEu3(WO6)2
_symmetry_space_group_name_H-M   'P 1'
_cell_length_a   5.51460900
_cell_length_b   7.85084190
_cell_length_c   11.70061900
_cell_angle_alpha   75.92774162
_cell_angle_beta   90.00000000
_cell_angle_gamma   90.00000000
_symmetry_Int_Tables_number   1
_chemical_formula_structural   PrEu3(WO6)2
_chemical_formula_sum   'Pr2 Eu6 W4 O24'
_cell_volume   491.36813256
_cell_formula_units_Z   2
loop_
 _symmetry_equiv_pos_site_id
 _symmetry_equiv_pos_as_xyz
  1  'x, y, z'
loop_
 _atom_site_type_symbol
 _atom_site_label
 _atom_site_symmetry_multiplicity
 _atom_site_fract_x
 _atom_site_fract_y
 _atom_site_fract_z
 _atom_site_occupancy
  Pr  Pr0  1  0.684729  0.500000  0.750000  1
  Pr  Pr1  1  0.315271  0.500000  0.250000  1
  Eu  Eu2  1  0.737321  0.000000  0.750000  1
  Eu  Eu3  1  0.262679  0.000000  0.250000  1
  Eu  Eu4  1  0.196870  0.803375  0.576228  1
  Eu  Eu5  1  0.803130  0.803375  0.076228  1
  Eu  Eu6  1  0.196870  0.196625  0.923772  1
  Eu  Eu7  1  0.803130  0.196625  0.423772  1
  W  W8  1  0.249857  0.721717  0.887511  1
  W  W9  1  0.750143  0.721717  0.387511  1
  W  W10  1  0.249857  0.278283  0.612489  1
  W  W11  1  0.750143  0.278283  0.112489  1
  O  O12  1  0.035698  0.935303  0.897400  1
  O  O13  1  0.511131  0.856551  0.929576  1
  O  O14  1  0.964302  0.935303  0.397400  1
  O  O15  1  0.455770  0.783137  0.733983  1
  O  O16  1  0.488869  0.856551  0.429576  1
  O  O17  1  0.987922  0.713807  0.774954  1
  O  O18  1  0.544230  0.783137  0.233983  1
  O  O19  1  0.851198  0.639638  0.546056  1
  O  O20  1  0.355578  0.492597  0.890478  1
  O  O21  1  0.012078  0.713807  0.274954  1
  O  O22  1  0.355578  0.507403  0.609522  1
  O  O23  1  0.851198  0.360362  0.953944  1
  O  O24  1  0.148802  0.639638  0.046056  1
  O  O25  1  0.644422  0.492597  0.390478  1
  O  O26  1  0.987922  0.286193  0.725046  1
  O  O27  1  0.644422  0.507403  0.109522  1
  O  O28  1  0.148802  0.360362  0.453944  1
  O  O29  1  0.455770  0.216863  0.766017  1
  O  O30  1  0.012078  0.286193  0.225046  1
  O  O31  1  0.511131  0.143449  0.570424  1
  O  O32  1  0.544230  0.216863  0.266017  1
  O  O33  1  0.035698  0.064697  0.602600  1
  O  O34  1  0.488869  0.143449  0.070424  1
  O  O35  1  0.964302  0.064697  0.102600  1
