# generated using pymatgen
data_Nd3Y2(Ni2Sn5)2
_symmetry_space_group_name_H-M   'P 1'
_cell_length_a   13.92319100
_cell_length_b   13.92319100
_cell_length_c   4.52555000
_cell_angle_alpha   90.00000000
_cell_angle_beta   90.00000000
_cell_angle_gamma   90.00000000
_symmetry_Int_Tables_number   1
_chemical_formula_structural   Nd3Y2(Ni2Sn5)2
_chemical_formula_sum   'Nd6 Y4 Ni8 Sn20'
_cell_volume   877.30161588
_cell_formula_units_Z   2
loop_
 _symmetry_equiv_pos_site_id
 _symmetry_equiv_pos_as_xyz
  1  'x, y, z'
loop_
 _atom_site_type_symbol
 _atom_site_label
 _atom_site_symmetry_multiplicity
 _atom_site_fract_x
 _atom_site_fract_y
 _atom_site_fract_z
 _atom_site_occupancy
  Nd  Nd0  1  0.000000  0.000000  0.000000  1
  Nd  Nd1  1  0.500000  0.500000  0.000000  1
  Nd  Nd2  1  0.892241  0.607759  0.500000  1
  Nd  Nd3  1  0.107759  0.392241  0.500000  1
  Nd  Nd4  1  0.392241  0.892241  0.500000  1
  Nd  Nd5  1  0.607759  0.107759  0.500000  1
  Y  Y6  1  0.180961  0.680961  0.500000  1
  Y  Y7  1  0.819039  0.319039  0.500000  1
  Y  Y8  1  0.680961  0.819039  0.500000  1
  Y  Y9  1  0.319039  0.180961  0.500000  1
  Ni  Ni10  1  0.256204  0.534171  0.000000  1
  Ni  Ni11  1  0.743796  0.465829  0.000000  1
  Ni  Ni12  1  0.756204  0.965829  0.000000  1
  Ni  Ni13  1  0.243796  0.034171  0.000000  1
  Ni  Ni14  1  0.465829  0.256204  0.000000  1
  Ni  Ni15  1  0.534171  0.743796  0.000000  1
  Ni  Ni16  1  0.034171  0.756204  0.000000  1
  Ni  Ni17  1  0.965829  0.243796  0.000000  1
  Sn  Sn18  1  0.350338  0.700302  0.000000  1
  Sn  Sn19  1  0.649662  0.299698  0.000000  1
  Sn  Sn20  1  0.850338  0.799698  0.000000  1
  Sn  Sn21  1  0.149662  0.200302  0.000000  1
  Sn  Sn22  1  0.299698  0.350338  0.000000  1
  Sn  Sn23  1  0.700302  0.649662  0.000000  1
  Sn  Sn24  1  0.200302  0.850338  0.000000  1
  Sn  Sn25  1  0.799698  0.149662  0.000000  1
  Sn  Sn26  1  0.333431  0.508295  0.500000  1
  Sn  Sn27  1  0.666569  0.491705  0.500000  1
  Sn  Sn28  1  0.833431  0.991705  0.500000  1
  Sn  Sn29  1  0.166569  0.008295  0.500000  1
  Sn  Sn30  1  0.491705  0.333431  0.500000  1
  Sn  Sn31  1  0.508295  0.666569  0.500000  1
  Sn  Sn32  1  0.008295  0.833431  0.500000  1
  Sn  Sn33  1  0.991705  0.166569  0.500000  1
  Sn  Sn34  1  0.072631  0.572631  0.000000  1
  Sn  Sn35  1  0.927369  0.427369  0.000000  1
  Sn  Sn36  1  0.572631  0.927369  0.000000  1
  Sn  Sn37  1  0.427369  0.072631  0.000000  1
