# generated using pymatgen
data_Tb6Cd23S
_symmetry_space_group_name_H-M   'P 1'
_cell_length_a   9.93113991
_cell_length_b   9.93113957
_cell_length_c   9.93114000
_cell_angle_alpha   60.00000522
_cell_angle_beta   60.00000636
_cell_angle_gamma   60.00000503
_symmetry_Int_Tables_number   1
_chemical_formula_structural   Tb6Cd23S
_chemical_formula_sum   'Tb6 Cd23 S1'
_cell_volume   692.59977543
_cell_formula_units_Z   1
loop_
 _symmetry_equiv_pos_site_id
 _symmetry_equiv_pos_as_xyz
  1  'x, y, z'
loop_
 _atom_site_type_symbol
 _atom_site_label
 _atom_site_symmetry_multiplicity
 _atom_site_fract_x
 _atom_site_fract_y
 _atom_site_fract_z
 _atom_site_occupancy
  Tb  Tb0  1  0.801288  0.801288  0.198712  1
  Tb  Tb1  1  0.198712  0.801288  0.198712  1
  Tb  Tb2  1  0.801288  0.198712  0.198712  1
  Tb  Tb3  1  0.198712  0.198712  0.801288  1
  Tb  Tb4  1  0.801288  0.198712  0.801288  1
  Tb  Tb5  1  0.198712  0.801288  0.801288  1
  Cd  Cd6  1  0.836204  0.836204  0.491390  1
  Cd  Cd7  1  0.836204  0.491390  0.836204  1
  Cd  Cd8  1  0.491390  0.836204  0.836204  1
  Cd  Cd9  1  0.836204  0.836204  0.836204  1
  Cd  Cd10  1  0.163796  0.163796  0.508610  1
  Cd  Cd11  1  0.163796  0.508610  0.163796  1
  Cd  Cd12  1  0.508610  0.163796  0.163796  1
  Cd  Cd13  1  0.163796  0.163796  0.163796  1
  Cd  Cd14  1  0.621337  0.621337  0.135988  1
  Cd  Cd15  1  0.621337  0.135988  0.621337  1
  Cd  Cd16  1  0.135988  0.621337  0.621337  1
  Cd  Cd17  1  0.621337  0.621337  0.621337  1
  Cd  Cd18  1  0.378663  0.378663  0.864012  1
  Cd  Cd19  1  0.378663  0.864012  0.378663  1
  Cd  Cd20  1  0.864012  0.378663  0.378663  1
  Cd  Cd21  1  0.378663  0.378663  0.378663  1
  Cd  Cd22  1  0.000000  0.000000  0.500000  1
  Cd  Cd23  1  0.500000  0.000000  0.500000  1
  Cd  Cd24  1  0.000000  0.500000  0.500000  1
  Cd  Cd25  1  0.500000  0.500000  0.000000  1
  Cd  Cd26  1  0.000000  0.500000  0.000000  1
  Cd  Cd27  1  0.500000  0.000000  0.000000  1
  Cd  Cd28  1  0.500000  0.500000  0.500000  1
  S  S29  1  0.000000  0.000000  0.000000  1
