# generated using pymatgen
data_Ho2Al9OsPt2
_symmetry_space_group_name_H-M   'P 1'
_cell_length_a   7.58597600
_cell_length_b   7.58597535
_cell_length_c   9.46083100
_cell_angle_alpha   90.00000000
_cell_angle_beta   90.00000000
_cell_angle_gamma   119.39210001
_symmetry_Int_Tables_number   1
_chemical_formula_structural   Ho2Al9OsPt2
_chemical_formula_sum   'Ho4 Al18 Os2 Pt4'
_cell_volume   474.36284359
_cell_formula_units_Z   2
loop_
 _symmetry_equiv_pos_site_id
 _symmetry_equiv_pos_as_xyz
  1  'x, y, z'
loop_
 _atom_site_type_symbol
 _atom_site_label
 _atom_site_symmetry_multiplicity
 _atom_site_fract_x
 _atom_site_fract_y
 _atom_site_fract_z
 _atom_site_occupancy
  Ho  Ho0  1  0.994598  0.672811  0.250000  1
  Ho  Ho1  1  0.005402  0.327189  0.750000  1
  Ho  Ho2  1  0.672811  0.994598  0.250000  1
  Ho  Ho3  1  0.327189  0.005402  0.750000  1
  Al  Al4  1  0.126807  0.126807  0.250000  1
  Al  Al5  1  0.873193  0.873193  0.750000  1
  Al  Al6  1  0.000232  0.330753  0.076300  1
  Al  Al7  1  0.999768  0.669247  0.923700  1
  Al  Al8  1  0.999768  0.669247  0.576300  1
  Al  Al9  1  0.330753  0.000232  0.423700  1
  Al  Al10  1  0.000232  0.330753  0.423700  1
  Al  Al11  1  0.669247  0.999768  0.576300  1
  Al  Al12  1  0.669247  0.999768  0.923700  1
  Al  Al13  1  0.330753  0.000232  0.076300  1
  Al  Al14  1  0.328325  0.328325  0.555184  1
  Al  Al15  1  0.671675  0.671676  0.444816  1
  Al  Al16  1  0.671675  0.671676  0.055184  1
  Al  Al17  1  0.328325  0.328325  0.944816  1
  Al  Al18  1  0.342008  0.547608  0.250000  1
  Al  Al19  1  0.657992  0.452392  0.750000  1
  Al  Al20  1  0.547608  0.342008  0.250000  1
  Al  Al21  1  0.452392  0.657992  0.750000  1
  Os  Os22  1  0.000000  0.000000  0.000000  1
  Os  Os23  1  0.000000  0.000000  0.500000  1
  Pt  Pt24  1  0.672168  0.327832  0.000000  1
  Pt  Pt25  1  0.327832  0.672168  0.000000  1
  Pt  Pt26  1  0.327832  0.672168  0.500000  1
  Pt  Pt27  1  0.672168  0.327832  0.500000  1
