# generated using pymatgen
data_PrNd2Y(MoN3)4
_symmetry_space_group_name_H-M   'P 1'
_cell_length_a   7.33427180
_cell_length_b   7.33426893
_cell_length_c   6.26956403
_cell_angle_alpha   75.98659259
_cell_angle_beta   75.98662781
_cell_angle_gamma   83.57660938
_symmetry_Int_Tables_number   1
_chemical_formula_structural   PrNd2Y(MoN3)4
_chemical_formula_sum   'Pr1 Nd2 Y1 Mo4 N12'
_cell_volume   316.96632740
_cell_formula_units_Z   1
loop_
 _symmetry_equiv_pos_site_id
 _symmetry_equiv_pos_as_xyz
  1  'x, y, z'
loop_
 _atom_site_type_symbol
 _atom_site_label
 _atom_site_symmetry_multiplicity
 _atom_site_fract_x
 _atom_site_fract_y
 _atom_site_fract_z
 _atom_site_occupancy
  Pr  Pr0  1  0.311494  0.688506  0.750000  1
  Nd  Nd1  1  0.912434  0.087566  0.750000  1
  Nd  Nd2  1  0.687825  0.312175  0.250000  1
  Y  Y3  1  0.087758  0.912242  0.250000  1
  Mo  Mo4  1  0.801240  0.619116  0.746639  1
  Mo  Mo5  1  0.199505  0.382122  0.249315  1
  Mo  Mo6  1  0.617879  0.800494  0.250685  1
  Mo  Mo7  1  0.380884  0.198760  0.753362  1
  N  N8  1  0.221929  0.000868  0.859132  1
  N  N9  1  0.336654  0.368967  0.484722  1
  N  N10  1  0.656999  0.624343  0.518817  1
  N  N11  1  0.614107  0.111325  0.650448  1
  N  N12  1  0.999132  0.778071  0.640868  1
  N  N13  1  0.778812  0.996802  0.156954  1
  N  N14  1  0.113663  0.618880  0.158481  1
  N  N15  1  0.888675  0.385894  0.849552  1
  N  N16  1  0.003198  0.221188  0.343045  1
  N  N17  1  0.375657  0.343001  0.981182  1
  N  N18  1  0.631032  0.663345  0.015278  1
  N  N19  1  0.381120  0.886337  0.341518  1
