# generated using pymatgen
data_HoEr2(InAu)3
_symmetry_space_group_name_H-M   'P 1'
_cell_length_a   7.75492000
_cell_length_b   7.77223158
_cell_length_c   3.95907000
_cell_angle_alpha   90.00000000
_cell_angle_beta   90.00000000
_cell_angle_gamma   119.92634674
_symmetry_Int_Tables_number   1
_chemical_formula_structural   HoEr2(InAu)3
_chemical_formula_sum   'Ho1 Er2 In3 Au3'
_cell_volume   206.80865616
_cell_formula_units_Z   1
loop_
 _symmetry_equiv_pos_site_id
 _symmetry_equiv_pos_as_xyz
  1  'x, y, z'
loop_
 _atom_site_type_symbol
 _atom_site_label
 _atom_site_symmetry_multiplicity
 _atom_site_fract_x
 _atom_site_fract_y
 _atom_site_fract_z
 _atom_site_occupancy
  Ho  Ho0  1  0.595849  0.000000  0.500000  1
  Er  Er1  1  0.403839  0.403625  0.500000  1
  Er  Er2  1  0.000214  0.596375  0.500000  1
  In  In3  1  0.000281  0.261818  0.000000  1
  In  In4  1  0.738463  0.738182  0.000000  1
  In  In5  1  0.261724  0.000000  0.000000  1
  Au  Au6  1  0.666711  0.334022  0.000000  1
  Au  Au7  1  0.332688  0.665978  0.000000  1
  Au  Au8  1  0.000229  0.000000  0.500000  1
