# generated using pymatgen
data_Li3Ho4P12Ir17
_symmetry_space_group_name_H-M   'P 1'
_cell_length_a   3.98944100
_cell_length_b   10.77089801
_cell_length_c   12.63816905
_cell_angle_alpha   90.40693888
_cell_angle_beta   90.00000000
_cell_angle_gamma   90.00000000
_symmetry_Int_Tables_number   1
_chemical_formula_structural   Li3Ho4P12Ir17
_chemical_formula_sum   'Li3 Ho4 P12 Ir17'
_cell_volume   543.04668449
_cell_formula_units_Z   1
loop_
 _symmetry_equiv_pos_site_id
 _symmetry_equiv_pos_as_xyz
  1  'x, y, z'
loop_
 _atom_site_type_symbol
 _atom_site_label
 _atom_site_symmetry_multiplicity
 _atom_site_fract_x
 _atom_site_fract_y
 _atom_site_fract_z
 _atom_site_occupancy
  Li  Li0  1  0.250000  0.707312  0.992974  1
  Li  Li1  1  0.250000  0.792439  0.491532  1
  Li  Li2  1  0.750000  0.289523  0.006997  1
  Ho  Ho3  1  0.250000  0.578682  0.704716  1
  Ho  Ho4  1  0.250000  0.921166  0.204865  1
  Ho  Ho5  1  0.750000  0.426136  0.297346  1
  Ho  Ho6  1  0.750000  0.075517  0.800374  1
  P  P7  1  0.250000  0.425036  0.114659  1
  P  P8  1  0.250000  0.067644  0.619717  1
  P  P9  1  0.750000  0.571918  0.882426  1
  P  P10  1  0.750000  0.924029  0.384611  1
  P  P11  1  0.250000  0.258730  0.859629  1
  P  P12  1  0.250000  0.241331  0.361141  1
  P  P13  1  0.750000  0.737963  0.139491  1
  P  P14  1  0.750000  0.760666  0.638843  1
  P  P15  1  0.250000  0.605919  0.389341  1
  P  P16  1  0.250000  0.894673  0.893578  1
  P  P17  1  0.750000  0.405170  0.610858  1
  P  P18  1  0.750000  0.101389  0.108926  1
  Ir  Ir19  1  0.750000  0.229613  0.506068  1
  Ir  Ir20  1  0.250000  0.410880  0.474379  1
  Ir  Ir21  1  0.250000  0.093021  0.976052  1
  Ir  Ir22  1  0.750000  0.591759  0.523631  1
  Ir  Ir23  1  0.750000  0.905505  0.024767  1
  Ir  Ir24  1  0.250000  0.230072  0.177203  1
  Ir  Ir25  1  0.250000  0.264920  0.671460  1
  Ir  Ir26  1  0.750000  0.769033  0.825205  1
  Ir  Ir27  1  0.750000  0.726990  0.325911  1
  Ir  Ir28  1  0.250000  0.879619  0.704667  1
  Ir  Ir29  1  0.250000  0.617435  0.201503  1
  Ir  Ir30  1  0.750000  0.111867  0.295226  1
  Ir  Ir31  1  0.750000  0.377916  0.792316  1
  Ir  Ir32  1  0.250000  0.459015  0.929676  1
  Ir  Ir33  1  0.250000  0.047121  0.435367  1
  Ir  Ir34  1  0.750000  0.537014  0.065848  1
  Ir  Ir35  1  0.750000  0.962976  0.568698  1
