# generated using pymatgen
data_Th4Al24CrPt8
_symmetry_space_group_name_H-M   'P 1'
_cell_length_a   7.61140732
_cell_length_b   7.65708771
_cell_length_c   13.30349866
_cell_angle_alpha   84.74127555
_cell_angle_beta   79.16138483
_cell_angle_gamma   59.79179675
_symmetry_Int_Tables_number   1
_chemical_formula_structural   Th4Al24CrPt8
_chemical_formula_sum   'Th4 Al24 Cr1 Pt8'
_cell_volume   658.09719770
_cell_formula_units_Z   1
loop_
 _symmetry_equiv_pos_site_id
 _symmetry_equiv_pos_as_xyz
  1  'x, y, z'
loop_
 _atom_site_type_symbol
 _atom_site_label
 _atom_site_symmetry_multiplicity
 _atom_site_fract_x
 _atom_site_fract_y
 _atom_site_fract_z
 _atom_site_occupancy
  Th  Th0  1  0.390282  0.172447  0.808071  1
  Th  Th1  1  0.609718  0.827553  0.191929  1
  Th  Th2  1  0.737712  0.497947  0.808346  1
  Th  Th3  1  0.262288  0.502053  0.191654  1
  Al  Al4  1  0.693087  0.828497  0.948373  1
  Al  Al5  1  0.306913  0.171503  0.051627  1
  Al  Al6  1  0.145925  0.832714  0.560126  1
  Al  Al7  1  0.854075  0.167286  0.439874  1
  Al  Al8  1  0.481591  0.166987  0.557566  1
  Al  Al9  1  0.518409  0.833013  0.442434  1
  Al  Al10  1  0.212969  0.164110  0.333823  1
  Al  Al11  1  0.787031  0.835890  0.666177  1
  Al  Al12  1  0.435958  0.510782  0.666448  1
  Al  Al13  1  0.564042  0.489218  0.333552  1
  Al  Al14  1  0.111501  0.156236  0.662649  1
  Al  Al15  1  0.888499  0.843764  0.337351  1
  Al  Al16  1  0.341087  0.504243  0.948573  1
  Al  Al17  1  0.658913  0.495757  0.051427  1
  Al  Al18  1  0.013192  0.171688  0.960167  1
  Al  Al19  1  0.986808  0.828312  0.039833  1
  Al  Al20  1  0.186152  0.499335  0.442730  1
  Al  Al21  1  0.813848  0.500665  0.557270  1
  Al  Al22  1  0.738229  0.162882  0.183694  1
  Al  Al23  1  0.261771  0.837118  0.816306  1
  Al  Al24  1  0.060550  0.633728  0.819816  1
  Al  Al25  1  0.939450  0.366272  0.180184  1
  Al  Al26  1  0.860988  0.037488  0.815918  1
  Al  Al27  1  0.139012  0.962512  0.184083  1
  Cr  Cr28  1  0.000000  0.500000  0.000000  1
  Pt  Pt29  1  0.120989  0.493146  0.637889  1
  Pt  Pt30  1  0.879011  0.506854  0.362111  1
  Pt  Pt31  1  0.655557  0.171604  0.999991  1
  Pt  Pt32  1  0.344443  0.828396  0.000009  1
  Pt  Pt33  1  0.537786  0.166204  0.362972  1
  Pt  Pt34  1  0.462214  0.833796  0.637028  1
  Pt  Pt35  1  0.779730  0.174454  0.636148  1
  Pt  Pt36  1  0.220270  0.825546  0.363852  1
