# generated using pymatgen
data_Dy20Cd6FeNi
_symmetry_space_group_name_H-M   'P 1'
_cell_length_a   9.55462500
_cell_length_b   9.55462614
_cell_length_c   9.80173800
_cell_angle_alpha   90.00000000
_cell_angle_beta   90.00000000
_cell_angle_gamma   119.99999952
_symmetry_Int_Tables_number   1
_chemical_formula_structural   Dy20Cd6FeNi
_chemical_formula_sum   'Dy20 Cd6 Fe1 Ni1'
_cell_volume   774.92749149
_cell_formula_units_Z   1
loop_
 _symmetry_equiv_pos_site_id
 _symmetry_equiv_pos_as_xyz
  1  'x, y, z'
loop_
 _atom_site_type_symbol
 _atom_site_label
 _atom_site_symmetry_multiplicity
 _atom_site_fract_x
 _atom_site_fract_y
 _atom_site_fract_z
 _atom_site_occupancy
  Dy  Dy0  1  0.000000  0.000000  0.499981  1
  Dy  Dy1  1  0.000000  0.000000  0.000019  1
  Dy  Dy2  1  0.541857  0.458143  0.250000  1
  Dy  Dy3  1  0.541857  0.083713  0.250000  1
  Dy  Dy4  1  0.916287  0.458143  0.250000  1
  Dy  Dy5  1  0.456522  0.543478  0.750000  1
  Dy  Dy6  1  0.456522  0.913045  0.750000  1
  Dy  Dy7  1  0.086955  0.543478  0.750000  1
  Dy  Dy8  1  0.212042  0.787958  0.436189  1
  Dy  Dy9  1  0.212042  0.424085  0.436189  1
  Dy  Dy10  1  0.575915  0.787958  0.436189  1
  Dy  Dy11  1  0.788702  0.211298  0.562727  1
  Dy  Dy12  1  0.788702  0.577403  0.562727  1
  Dy  Dy13  1  0.422597  0.211298  0.562727  1
  Dy  Dy14  1  0.788702  0.211298  0.937273  1
  Dy  Dy15  1  0.788702  0.577403  0.937273  1
  Dy  Dy16  1  0.422597  0.211298  0.937273  1
  Dy  Dy17  1  0.212042  0.787958  0.063811  1
  Dy  Dy18  1  0.212042  0.424085  0.063811  1
  Dy  Dy19  1  0.575915  0.787958  0.063811  1
  Cd  Cd20  1  0.885138  0.114862  0.250000  1
  Cd  Cd21  1  0.885138  0.770276  0.250000  1
  Cd  Cd22  1  0.229724  0.114862  0.250000  1
  Cd  Cd23  1  0.114853  0.885147  0.750000  1
  Cd  Cd24  1  0.114853  0.229706  0.750000  1
  Cd  Cd25  1  0.770294  0.885147  0.750000  1
  Fe  Fe26  1  0.333333  0.666667  0.250000  1
  Ni  Ni27  1  0.666667  0.333333  0.750000  1
