# generated using pymatgen
data_Zr4CoOs6W
_symmetry_space_group_name_H-M   'P 1'
_cell_length_a   5.15892199
_cell_length_b   5.15892136
_cell_length_c   8.62983700
_cell_angle_alpha   90.00000000
_cell_angle_beta   90.00000000
_cell_angle_gamma   118.14503656
_symmetry_Int_Tables_number   1
_chemical_formula_structural   Zr4CoOs6W
_chemical_formula_sum   'Zr4 Co1 Os6 W1'
_cell_volume   202.52053329
_cell_formula_units_Z   1
loop_
 _symmetry_equiv_pos_site_id
 _symmetry_equiv_pos_as_xyz
  1  'x, y, z'
loop_
 _atom_site_type_symbol
 _atom_site_label
 _atom_site_symmetry_multiplicity
 _atom_site_fract_x
 _atom_site_fract_y
 _atom_site_fract_z
 _atom_site_occupancy
  Zr  Zr0  1  0.333185  0.666815  0.431770  1
  Zr  Zr1  1  0.671110  0.328890  0.560067  1
  Zr  Zr2  1  0.671110  0.328890  0.939933  1
  Zr  Zr3  1  0.333185  0.666815  0.068230  1
  Co  Co4  1  0.828024  0.171976  0.250000  1
  Os  Os5  1  0.000372  0.999628  0.492715  1
  Os  Os6  1  0.000372  0.999628  0.007285  1
  Os  Os7  1  0.824202  0.654090  0.250000  1
  Os  Os8  1  0.345910  0.175798  0.250000  1
  Os  Os9  1  0.172220  0.345949  0.750000  1
  Os  Os10  1  0.654051  0.827780  0.750000  1
  W  W11  1  0.166258  0.833742  0.750000  1
