# generated using pymatgen
data_Zr5Ti3Co16(As5P)2
_symmetry_space_group_name_H-M   'P 1'
_cell_length_a   12.31815100
_cell_length_b   12.31662721
_cell_length_c   3.72807400
_cell_angle_alpha   90.00000000
_cell_angle_beta   90.00000000
_cell_angle_gamma   120.00408459
_symmetry_Int_Tables_number   1
_chemical_formula_structural   Zr5Ti3Co16(As5P)2
_chemical_formula_sum   'Zr5 Ti3 Co16 As10 P2'
_cell_volume   489.81784075
_cell_formula_units_Z   1
loop_
 _symmetry_equiv_pos_site_id
 _symmetry_equiv_pos_as_xyz
  1  'x, y, z'
loop_
 _atom_site_type_symbol
 _atom_site_label
 _atom_site_symmetry_multiplicity
 _atom_site_fract_x
 _atom_site_fract_y
 _atom_site_fract_z
 _atom_site_occupancy
  Zr  Zr0  1  0.666876  0.333980  0.000000  1
  Zr  Zr1  1  0.332896  0.666020  0.000000  1
  Zr  Zr2  1  0.826855  0.821342  0.500000  1
  Zr  Zr3  1  0.173728  0.000000  0.500000  1
  Zr  Zr4  1  0.005513  0.178658  0.500000  1
  Ti  Ti5  1  0.439861  0.439854  0.000000  1
  Ti  Ti6  1  0.558804  0.000000  0.000000  1
  Ti  Ti7  1  0.000007  0.560146  0.000000  1
  Co  Co8  1  0.195439  0.366884  0.000000  1
  Co  Co9  1  0.171943  0.804309  0.000000  1
  Co  Co10  1  0.828555  0.633116  0.000000  1
  Co  Co11  1  0.803199  0.176880  0.000000  1
  Co  Co12  1  0.367635  0.195691  0.000000  1
  Co  Co13  1  0.124990  0.479026  0.500000  1
  Co  Co14  1  0.353717  0.875295  0.500000  1
  Co  Co15  1  0.520542  0.644613  0.500000  1
  Co  Co16  1  0.645963  0.520974  0.500000  1
  Co  Co17  1  0.875928  0.355387  0.500000  1
  Co  Co18  1  0.478421  0.124705  0.500000  1
  Co  Co19  1  0.007751  0.000000  0.000000  1
  Co  Co20  1  0.718408  0.000000  0.500000  1
  Co  Co21  1  0.999919  0.725179  0.500000  1
  Co  Co22  1  0.626319  0.823120  0.000000  1
  Co  Co23  1  0.274740  0.274821  0.500000  1
  As  As24  1  0.647296  0.646908  0.000000  1
  As  As25  1  0.351464  0.000000  0.000000  1
  As  As26  1  0.000389  0.353092  0.000000  1
  As  As27  1  0.482988  0.314581  0.500000  1
  As  As28  1  0.684707  0.169893  0.500000  1
  As  As29  1  0.831565  0.517037  0.500000  1
  As  As30  1  0.514813  0.830107  0.500000  1
  As  As31  1  0.168406  0.685419  0.500000  1
  As  As32  1  0.827961  0.000000  0.000000  1
  As  As33  1  0.314527  0.482963  0.500000  1
  P  P34  1  0.001079  0.824287  0.000000  1
  P  P35  1  0.176793  0.175713  0.000000  1
