# generated using pymatgen
data_La2Nd2ZnCd2Ni3
_symmetry_space_group_name_H-M   'P 1'
_cell_length_a   7.78551265
_cell_length_b   7.80546695
_cell_length_c   3.80736500
_cell_angle_alpha   90.00000000
_cell_angle_beta   90.00000000
_cell_angle_gamma   91.15284743
_symmetry_Int_Tables_number   1
_chemical_formula_structural   La2Nd2ZnCd2Ni3
_chemical_formula_sum   'La2 Nd2 Zn1 Cd2 Ni3'
_cell_volume   231.32506787
_cell_formula_units_Z   1
loop_
 _symmetry_equiv_pos_site_id
 _symmetry_equiv_pos_as_xyz
  1  'x, y, z'
loop_
 _atom_site_type_symbol
 _atom_site_label
 _atom_site_symmetry_multiplicity
 _atom_site_fract_x
 _atom_site_fract_y
 _atom_site_fract_z
 _atom_site_occupancy
  La  La0  1  0.672102  0.198660  0.000000  1
  La  La1  1  0.180535  0.320143  0.000000  1
  Nd  Nd2  1  0.302829  0.828106  0.000000  1
  Nd  Nd3  1  0.841941  0.661267  0.000000  1
  Zn  Zn4  1  0.616247  0.879263  0.500000  1
  Cd  Cd5  1  0.496083  0.516738  0.500000  1
  Cd  Cd6  1  0.990297  0.998638  0.500000  1
  Ni  Ni7  1  0.889435  0.377211  0.500000  1
  Ni  Ni8  1  0.120743  0.607380  0.500000  1
  Ni  Ni9  1  0.389787  0.112595  0.500000  1
