# generated using pymatgen
data_Tb2Dy13Er5Sn16
_symmetry_space_group_name_H-M   'P 1'
_cell_length_a   8.01836429
_cell_length_b   8.16333885
_cell_length_c   15.44785578
_cell_angle_alpha   89.97490470
_cell_angle_beta   90.01979348
_cell_angle_gamma   90.01770932
_symmetry_Int_Tables_number   1
_chemical_formula_structural   Tb2Dy13Er5Sn16
_chemical_formula_sum   'Tb2 Dy13 Er5 Sn16'
_cell_volume   1011.16429261
_cell_formula_units_Z   1
loop_
 _symmetry_equiv_pos_site_id
 _symmetry_equiv_pos_as_xyz
  1  'x, y, z'
loop_
 _atom_site_type_symbol
 _atom_site_label
 _atom_site_symmetry_multiplicity
 _atom_site_fract_x
 _atom_site_fract_y
 _atom_site_fract_z
 _atom_site_occupancy
  Tb  Tb0  1  0.519893  0.320634  0.597377  1
  Tb  Tb1  1  0.019895  0.179214  0.902747  1
  Dy  Dy2  1  0.867188  0.663160  0.622398  1
  Dy  Dy3  1  0.632727  0.162961  0.377810  1
  Dy  Dy4  1  0.132976  0.336950  0.121747  1
  Dy  Dy5  1  0.632692  0.163148  0.122274  1
  Dy  Dy6  1  0.132771  0.336890  0.377798  1
  Dy  Dy7  1  0.367383  0.836941  0.622288  1
  Dy  Dy8  1  0.867530  0.662939  0.878055  1
  Dy  Dy9  1  0.520175  0.320499  0.902643  1
  Dy  Dy10  1  0.020392  0.179272  0.597550  1
  Dy  Dy11  1  0.479924  0.679625  0.402667  1
  Dy  Dy12  1  0.979648  0.820347  0.097404  1
  Dy  Dy13  1  0.479898  0.679738  0.096942  1
  Dy  Dy14  1  0.979877  0.820586  0.402613  1
  Er  Er15  1  0.367104  0.837260  0.877329  1
  Er  Er16  1  0.198683  0.503394  0.750373  1
  Er  Er17  1  0.698296  0.996653  0.750176  1
  Er  Er18  1  0.801606  0.496954  0.249999  1
  Er  Er19  1  0.301600  0.002942  0.249711  1
  Sn  Sn20  1  0.293361  0.035577  0.041407  1
  Sn  Sn21  1  0.793528  0.464051  0.457783  1
  Sn  Sn22  1  0.707498  0.963421  0.542174  1
  Sn  Sn23  1  0.208054  0.537770  0.957912  1
  Sn  Sn24  1  0.705094  0.962835  0.958113  1
  Sn  Sn25  1  0.206405  0.536673  0.542037  1
  Sn  Sn26  1  0.292835  0.036263  0.457917  1
  Sn  Sn27  1  0.792751  0.463636  0.042199  1
  Sn  Sn28  1  0.564604  0.618893  0.750201  1
  Sn  Sn29  1  0.065071  0.881598  0.750382  1
  Sn  Sn30  1  0.435082  0.381727  0.249919  1
  Sn  Sn31  1  0.935379  0.118210  0.249768  1
  Sn  Sn32  1  0.329012  0.147646  0.750401  1
  Sn  Sn33  1  0.829068  0.351917  0.749944  1
  Sn  Sn34  1  0.671029  0.851778  0.249931  1
  Sn  Sn35  1  0.170970  0.647896  0.250007  1
