# generated using pymatgen
data_Sm5Y5(Tl3Br)2
_symmetry_space_group_name_H-M   'P 1'
_cell_length_a   9.31264200
_cell_length_b   9.30363978
_cell_length_c   6.81151100
_cell_angle_alpha   90.00000000
_cell_angle_beta   90.00000000
_cell_angle_gamma   120.03201319
_symmetry_Int_Tables_number   1
_chemical_formula_structural   Sm5Y5(Tl3Br)2
_chemical_formula_sum   'Sm5 Y5 Tl6 Br2'
_cell_volume   510.92799690
_cell_formula_units_Z   1
loop_
 _symmetry_equiv_pos_site_id
 _symmetry_equiv_pos_as_xyz
  1  'x, y, z'
loop_
 _atom_site_type_symbol
 _atom_site_label
 _atom_site_symmetry_multiplicity
 _atom_site_fract_x
 _atom_site_fract_y
 _atom_site_fract_z
 _atom_site_occupancy
  Sm  Sm0  1  0.734135  0.734224  0.250000  1
  Sm  Sm1  1  0.000418  0.734319  0.750000  1
  Sm  Sm2  1  0.734952  0.000000  0.750000  1
  Sm  Sm3  1  0.266098  0.265681  0.750000  1
  Sm  Sm4  1  0.999910  0.265776  0.250000  1
  Y  Y5  1  0.333005  0.667215  0.499722  1
  Y  Y6  1  0.665791  0.332785  0.499722  1
  Y  Y7  1  0.265481  0.000000  0.250000  1
  Y  Y8  1  0.333005  0.667215  0.000278  1
  Y  Y9  1  0.665791  0.332785  0.000278  1
  Tl  Tl10  1  0.394408  0.000000  0.750000  1
  Tl  Tl11  1  0.001597  0.607271  0.250000  1
  Tl  Tl12  1  0.603867  0.000000  0.250000  1
  Tl  Tl13  1  0.999790  0.394412  0.750000  1
  Tl  Tl14  1  0.394325  0.392729  0.250000  1
  Tl  Tl15  1  0.605378  0.605588  0.750000  1
  Br  Br16  1  0.001026  0.000000  0.498793  1
  Br  Br17  1  0.001026  0.000000  0.001207  1
