# generated using pymatgen
data_Dy3Th11Os6
_symmetry_space_group_name_H-M   'P 1'
_cell_length_a   9.88844504
_cell_length_b   9.97223461
_cell_length_c   6.36145864
_cell_angle_alpha   89.99393978
_cell_angle_beta   90.04899513
_cell_angle_gamma   120.12345577
_symmetry_Int_Tables_number   1
_chemical_formula_structural   Dy3Th11Os6
_chemical_formula_sum   'Dy3 Th11 Os6'
_cell_volume   542.58280298
_cell_formula_units_Z   1
loop_
 _symmetry_equiv_pos_site_id
 _symmetry_equiv_pos_as_xyz
  1  'x, y, z'
loop_
 _atom_site_type_symbol
 _atom_site_label
 _atom_site_symmetry_multiplicity
 _atom_site_fract_x
 _atom_site_fract_y
 _atom_site_fract_z
 _atom_site_occupancy
  Dy  Dy0  1  0.460842  0.536322  0.298697  1
  Dy  Dy1  1  0.073530  0.536099  0.299901  1
  Dy  Dy2  1  0.927339  0.462814  0.799037  1
  Th  Th3  1  0.251479  0.127797  0.509841  1
  Th  Th4  1  0.541252  0.081166  0.795917  1
  Th  Th5  1  0.746230  0.872286  0.012971  1
  Th  Th6  1  0.666803  0.333647  0.275581  1
  Th  Th7  1  0.126539  0.869780  0.007636  1
  Th  Th8  1  0.460563  0.918404  0.296138  1
  Th  Th9  1  0.537700  0.465522  0.800565  1
  Th  Th10  1  0.874744  0.129781  0.511177  1
  Th  Th11  1  0.125059  0.254653  0.013869  1
  Th  Th12  1  0.873865  0.746442  0.508830  1
  Th  Th13  1  0.332998  0.665816  0.772314  1
  Os  Os14  1  0.812236  0.628233  0.047406  1
  Os  Os15  1  0.813067  0.183028  0.047121  1
  Os  Os16  1  0.630276  0.814127  0.546453  1
  Os  Os17  1  0.371410  0.187175  0.042527  1
  Os  Os18  1  0.186262  0.369782  0.554260  1
  Os  Os19  1  0.187806  0.817126  0.543756  1
