# generated using pymatgen
data_DyHoNiB8Ir
_symmetry_space_group_name_H-M   'P 1'
_cell_length_a   6.91272402
_cell_length_b   6.91272407
_cell_length_c   6.91272406
_cell_angle_alpha   111.20665913
_cell_angle_beta   113.26813384
_cell_angle_gamma   104.07740871
_symmetry_Int_Tables_number   1
_chemical_formula_structural   DyHoNiB8Ir
_chemical_formula_sum   'Dy2 Ho2 Ni2 B16 Ir2'
_cell_volume   252.52847219
_cell_formula_units_Z   2
loop_
 _symmetry_equiv_pos_site_id
 _symmetry_equiv_pos_as_xyz
  1  'x, y, z'
loop_
 _atom_site_type_symbol
 _atom_site_label
 _atom_site_symmetry_multiplicity
 _atom_site_fract_x
 _atom_site_fract_y
 _atom_site_fract_z
 _atom_site_occupancy
  Dy  Dy0  1  0.790296  0.790296  0.000000  1
  Dy  Dy1  1  0.209704  0.209704  0.000000  1
  Ho  Ho2  1  0.751201  0.251201  0.500000  1
  Ho  Ho3  1  0.248799  0.748799  0.500000  1
  Ni  Ni4  1  0.500000  0.745510  0.245510  1
  Ni  Ni5  1  0.500000  0.254490  0.754490  1
  B  B6  1  0.272929  0.108324  0.381253  1
  B  B7  1  0.727071  0.891676  0.618747  1
  B  B8  1  0.272929  0.891676  0.164606  1
  B  B9  1  0.727071  0.108324  0.835394  1
  B  B10  1  0.110610  0.731188  0.841798  1
  B  B11  1  0.889390  0.268812  0.158202  1
  B  B12  1  0.110610  0.268812  0.379422  1
  B  B13  1  0.889390  0.731188  0.620578  1
  B  B14  1  0.115287  0.109747  0.529225  1
  B  B15  1  0.580520  0.586061  0.470775  1
  B  B16  1  0.115287  0.586061  0.005541  1
  B  B17  1  0.580520  0.109747  0.994459  1
  B  B18  1  0.884713  0.890253  0.470775  1
  B  B19  1  0.419480  0.413939  0.529225  1
  B  B20  1  0.884713  0.413939  0.994459  1
  B  B21  1  0.419480  0.890253  0.005541  1
  Ir  Ir22  1  0.275784  0.500000  0.775784  1
  Ir  Ir23  1  0.724216  0.500000  0.224216  1
