# generated using pymatgen
data_BiSb3(AuCl6)4
_symmetry_space_group_name_H-M   'P 1'
_cell_length_a   8.26745506
_cell_length_b   10.09877799
_cell_length_c   14.19305500
_cell_angle_alpha   102.39780189
_cell_angle_beta   97.80930069
_cell_angle_gamma   113.12778248
_symmetry_Int_Tables_number   1
_chemical_formula_structural   BiSb3(AuCl6)4
_chemical_formula_sum   'Bi1 Sb3 Au4 Cl24'
_cell_volume   1031.86271124
_cell_formula_units_Z   1
loop_
 _symmetry_equiv_pos_site_id
 _symmetry_equiv_pos_as_xyz
  1  'x, y, z'
loop_
 _atom_site_type_symbol
 _atom_site_label
 _atom_site_symmetry_multiplicity
 _atom_site_fract_x
 _atom_site_fract_y
 _atom_site_fract_z
 _atom_site_occupancy
  Bi  Bi0  1  0.033563  0.691619  0.133156  1
  Sb  Sb1  1  0.628109  0.941293  0.625849  1
  Sb  Sb2  1  0.386748  0.063944  0.381607  1
  Sb  Sb3  1  0.970097  0.335971  0.880050  1
  Au  Au4  1  0.286757  0.631931  0.770297  1
  Au  Au5  1  0.714129  0.370161  0.230815  1
  Au  Au6  1  0.495347  0.495632  0.497636  1
  Au  Au7  1  0.001809  0.000334  0.001178  1
  Cl  Cl8  1  0.584815  0.721895  0.761071  1
  Cl  Cl9  1  0.415497  0.279465  0.239550  1
  Cl  Cl10  1  0.274572  0.844786  0.743252  1
  Cl  Cl11  1  0.727845  0.158451  0.258544  1
  Cl  Cl12  1  0.984533  0.539853  0.781752  1
  Cl  Cl13  1  0.016962  0.464127  0.222972  1
  Cl  Cl14  1  0.291451  0.412939  0.796472  1
  Cl  Cl15  1  0.702924  0.586579  0.202032  1
  Cl  Cl16  1  0.687517  0.379898  0.507427  1
  Cl  Cl17  1  0.303330  0.610556  0.490045  1
  Cl  Cl18  1  0.742966  0.725291  0.527913  1
  Cl  Cl19  1  0.248077  0.264021  0.466028  1
  Cl  Cl20  1  0.800487  0.104452  0.977512  1
  Cl  Cl21  1  0.206744  0.898532  0.026858  1
  Cl  Cl22  1  0.783311  0.800436  0.037458  1
  Cl  Cl23  1  0.218398  0.196739  0.963994  1
  Cl  Cl24  1  0.638522  0.186722  0.737772  1
  Cl  Cl25  1  0.369932  0.812606  0.260985  1
  Cl  Cl26  1  0.941936  0.040615  0.718181  1
  Cl  Cl27  1  0.062676  0.953555  0.273826  1
  Cl  Cl28  1  0.723410  0.055495  0.493145  1
  Cl  Cl29  1  0.264115  0.939092  0.501094  1
  Cl  Cl30  1  0.770029  0.433086  0.964888  1
  Cl  Cl31  1  0.223394  0.559926  0.026641  1
