# generated using pymatgen
data_YbLu2Al2Co9B4
_symmetry_space_group_name_H-M   'P 1'
_cell_length_a   5.09674801
_cell_length_b   5.09656133
_cell_length_c   9.55108900
_cell_angle_alpha   89.99995820
_cell_angle_beta   90.00027661
_cell_angle_gamma   119.99348149
_symmetry_Int_Tables_number   1
_chemical_formula_structural   YbLu2Al2Co9B4
_chemical_formula_sum   'Yb1 Lu2 Al2 Co9 B4'
_cell_volume   214.87330472
_cell_formula_units_Z   1
loop_
 _symmetry_equiv_pos_site_id
 _symmetry_equiv_pos_as_xyz
  1  'x, y, z'
loop_
 _atom_site_type_symbol
 _atom_site_label
 _atom_site_symmetry_multiplicity
 _atom_site_fract_x
 _atom_site_fract_y
 _atom_site_fract_z
 _atom_site_occupancy
  Yb  Yb0  1  0.999986  0.000001  0.999933  1
  Lu  Lu1  1  0.000000  0.999999  0.337862  1
  Lu  Lu2  1  0.000003  0.999998  0.662154  1
  Al  Al3  1  0.333282  0.666643  0.999972  1
  Al  Al4  1  0.666685  0.333356  0.999977  1
  Co  Co5  1  0.499999  0.000001  0.500002  1
  Co  Co6  1  0.499998  0.500002  0.499993  1
  Co  Co7  1  0.999997  0.499999  0.500002  1
  Co  Co8  1  0.499995  0.000000  0.208062  1
  Co  Co9  1  0.499992  0.500001  0.208064  1
  Co  Co10  1  0.999993  0.499999  0.208056  1
  Co  Co11  1  0.499998  0.000000  0.791935  1
  Co  Co12  1  0.499996  0.500002  0.791946  1
  Co  Co13  1  0.999994  0.499996  0.791940  1
  B  B14  1  0.333320  0.666685  0.350146  1
  B  B15  1  0.666668  0.333316  0.350146  1
  B  B16  1  0.666659  0.333327  0.649906  1
  B  B17  1  0.333332  0.666674  0.649905  1
