# generated using pymatgen
data_LuHf8ZrSn6
_symmetry_space_group_name_H-M   'P 1'
_cell_length_a   8.54078313
_cell_length_b   8.54078423
_cell_length_c   5.76453200
_cell_angle_alpha   90.00000000
_cell_angle_beta   90.00000000
_cell_angle_gamma   120.94780069
_symmetry_Int_Tables_number   1
_chemical_formula_structural   LuHf8ZrSn6
_chemical_formula_sum   'Lu1 Hf8 Zr1 Sn6'
_cell_volume   360.63061078
_cell_formula_units_Z   1
loop_
 _symmetry_equiv_pos_site_id
 _symmetry_equiv_pos_as_xyz
  1  'x, y, z'
loop_
 _atom_site_type_symbol
 _atom_site_label
 _atom_site_symmetry_multiplicity
 _atom_site_fract_x
 _atom_site_fract_y
 _atom_site_fract_z
 _atom_site_occupancy
  Lu  Lu0  1  0.767985  0.767985  0.750000  1
  Hf  Hf1  1  0.250581  0.001343  0.750000  1
  Hf  Hf2  1  0.001343  0.250581  0.750000  1
  Hf  Hf3  1  0.751566  0.000104  0.250000  1
  Hf  Hf4  1  0.000104  0.751566  0.250000  1
  Hf  Hf5  1  0.664876  0.332932  0.000350  1
  Hf  Hf6  1  0.332932  0.664876  0.000350  1
  Hf  Hf7  1  0.332932  0.664876  0.499650  1
  Hf  Hf8  1  0.664876  0.332932  0.499650  1
  Zr  Zr9  1  0.234959  0.234959  0.250000  1
  Sn  Sn10  1  0.392167  0.392167  0.750000  1
  Sn  Sn11  1  0.606640  0.001909  0.750000  1
  Sn  Sn12  1  0.001909  0.606640  0.750000  1
  Sn  Sn13  1  0.606814  0.606814  0.250000  1
  Sn  Sn14  1  0.391806  0.998511  0.250000  1
  Sn  Sn15  1  0.998511  0.391806  0.250000  1
