# generated using pymatgen
data_Hf3Ti(PN3)4
_symmetry_space_group_name_H-M   'P 1'
_cell_length_a   6.52900222
_cell_length_b   6.52900207
_cell_length_c   5.22161441
_cell_angle_alpha   78.59236966
_cell_angle_beta   78.59236563
_cell_angle_gamma   83.03696196
_symmetry_Int_Tables_number   1
_chemical_formula_structural   Hf3Ti(PN3)4
_chemical_formula_sum   'Hf3 Ti1 P4 N12'
_cell_volume   213.09640182
_cell_formula_units_Z   1
loop_
 _symmetry_equiv_pos_site_id
 _symmetry_equiv_pos_as_xyz
  1  'x, y, z'
loop_
 _atom_site_type_symbol
 _atom_site_label
 _atom_site_symmetry_multiplicity
 _atom_site_fract_x
 _atom_site_fract_y
 _atom_site_fract_z
 _atom_site_occupancy
  Hf  Hf0  1  0.677956  0.322044  0.750000  1
  Hf  Hf1  1  0.904885  0.095115  0.250000  1
  Hf  Hf2  1  0.319931  0.680069  0.250000  1
  Ti  Ti3  1  0.108165  0.891835  0.750000  1
  P  P4  1  0.194651  0.384534  0.758770  1
  P  P5  1  0.383527  0.196045  0.259949  1
  P  P6  1  0.803955  0.616473  0.240051  1
  P  P7  1  0.615466  0.805349  0.741230  1
  N  N8  1  0.323411  0.388846  0.007044  1
  N  N9  1  0.014593  0.222807  0.842487  1
  N  N10  1  0.989724  0.774889  0.140679  1
  N  N11  1  0.387601  0.330792  0.503583  1
  N  N12  1  0.617153  0.122154  0.135959  1
  N  N13  1  0.374987  0.876519  0.858171  1
  N  N14  1  0.877846  0.382847  0.364041  1
  N  N15  1  0.669208  0.612399  0.996417  1
  N  N16  1  0.777193  0.985407  0.657513  1
  N  N17  1  0.123481  0.625013  0.641829  1
  N  N18  1  0.225111  0.010276  0.359321  1
  N  N19  1  0.611154  0.676589  0.492956  1
