# generated using pymatgen
data_Pa4InNi4Hg
_symmetry_space_group_name_H-M   'P 1'
_cell_length_a   7.49808700
_cell_length_b   7.49808700
_cell_length_c   3.51815300
_cell_angle_alpha   90.00000000
_cell_angle_beta   90.00000000
_cell_angle_gamma   90.00000000
_symmetry_Int_Tables_number   1
_chemical_formula_structural   Pa4InNi4Hg
_chemical_formula_sum   'Pa4 In1 Ni4 Hg1'
_cell_volume   197.79516572
_cell_formula_units_Z   1
loop_
 _symmetry_equiv_pos_site_id
 _symmetry_equiv_pos_as_xyz
  1  'x, y, z'
loop_
 _atom_site_type_symbol
 _atom_site_label
 _atom_site_symmetry_multiplicity
 _atom_site_fract_x
 _atom_site_fract_y
 _atom_site_fract_z
 _atom_site_occupancy
  Pa  Pa0  1  0.672649  0.171587  0.500000  1
  Pa  Pa1  1  0.171587  0.327351  0.500000  1
  Pa  Pa2  1  0.828413  0.672649  0.500000  1
  Pa  Pa3  1  0.327351  0.828413  0.500000  1
  In  In4  1  0.500000  0.500000  0.000000  1
  Ni  Ni5  1  0.871196  0.378551  0.000000  1
  Ni  Ni6  1  0.621449  0.871196  0.000000  1
  Ni  Ni7  1  0.128804  0.621449  0.000000  1
  Ni  Ni8  1  0.378551  0.128804  0.000000  1
  Hg  Hg9  1  0.000000  0.000000  0.000000  1
