# generated using pymatgen
data_Er5Lu7Tc4
_symmetry_space_group_name_H-M   'P 1'
_cell_length_a   6.16629192
_cell_length_b   7.41412791
_cell_length_c   8.94912201
_cell_angle_alpha   90.06787206
_cell_angle_beta   90.14424212
_cell_angle_gamma   89.97810161
_symmetry_Int_Tables_number   1
_chemical_formula_structural   Er5Lu7Tc4
_chemical_formula_sum   'Er5 Lu7 Tc4'
_cell_volume   409.13145694
_cell_formula_units_Z   1
loop_
 _symmetry_equiv_pos_site_id
 _symmetry_equiv_pos_as_xyz
  1  'x, y, z'
loop_
 _atom_site_type_symbol
 _atom_site_label
 _atom_site_symmetry_multiplicity
 _atom_site_fract_x
 _atom_site_fract_y
 _atom_site_fract_z
 _atom_site_occupancy
  Er  Er0  1  0.652756  0.176737  0.437786  1
  Er  Er1  1  0.875119  0.958604  0.750612  1
  Er  Er2  1  0.373944  0.542038  0.249756  1
  Er  Er3  1  0.624602  0.459479  0.750473  1
  Er  Er4  1  0.124966  0.040067  0.249111  1
  Lu  Lu5  1  0.651834  0.175288  0.061890  1
  Lu  Lu6  1  0.151379  0.324519  0.937462  1
  Lu  Lu7  1  0.847723  0.674437  0.437936  1
  Lu  Lu8  1  0.347347  0.824245  0.562672  1
  Lu  Lu9  1  0.348388  0.824684  0.937640  1
  Lu  Lu10  1  0.848468  0.675355  0.062530  1
  Lu  Lu11  1  0.154012  0.325114  0.562293  1
  Tc  Tc12  1  0.044688  0.616161  0.749867  1
  Tc  Tc13  1  0.545106  0.882834  0.249474  1
  Tc  Tc14  1  0.453401  0.116292  0.751893  1
  Tc  Tc15  1  0.956269  0.384146  0.248606  1
