# generated using pymatgen
data_Ce12AlSi5Tc6
_symmetry_space_group_name_H-M   'P 1'
_cell_length_a   7.70463200
_cell_length_b   7.70463060
_cell_length_c   9.79574700
_cell_angle_alpha   90.00000000
_cell_angle_beta   90.00000000
_cell_angle_gamma   119.99999742
_symmetry_Int_Tables_number   1
_chemical_formula_structural   Ce12AlSi5Tc6
_chemical_formula_sum   'Ce12 Al1 Si5 Tc6'
_cell_volume   503.58400122
_cell_formula_units_Z   1
loop_
 _symmetry_equiv_pos_site_id
 _symmetry_equiv_pos_as_xyz
  1  'x, y, z'
loop_
 _atom_site_type_symbol
 _atom_site_label
 _atom_site_symmetry_multiplicity
 _atom_site_fract_x
 _atom_site_fract_y
 _atom_site_fract_z
 _atom_site_occupancy
  Ce  Ce0  1  0.000000  0.587646  0.499026  1
  Ce  Ce1  1  0.587646  0.000000  0.499026  1
  Ce  Ce2  1  0.412354  0.412354  0.499026  1
  Ce  Ce3  1  0.000000  0.419099  0.001682  1
  Ce  Ce4  1  0.419099  0.000000  0.001682  1
  Ce  Ce5  1  0.580901  0.580901  0.001682  1
  Ce  Ce6  1  0.000000  0.734992  0.179499  1
  Ce  Ce7  1  0.734992  0.000000  0.179499  1
  Ce  Ce8  1  0.265008  0.265008  0.179499  1
  Ce  Ce9  1  0.000000  0.262470  0.674439  1
  Ce  Ce10  1  0.262470  0.000000  0.674439  1
  Ce  Ce11  1  0.737530  0.737530  0.674439  1
  Al  Al12  1  0.000000  0.000000  0.923220  1
  Si  Si13  1  0.666667  0.333333  0.274163  1
  Si  Si14  1  0.333333  0.666667  0.274163  1
  Si  Si15  1  0.333333  0.666667  0.771086  1
  Si  Si16  1  0.666667  0.333333  0.771086  1
  Si  Si17  1  0.000000  0.000000  0.421564  1
  Tc  Tc18  1  0.000000  0.342174  0.339589  1
  Tc  Tc19  1  0.342174  0.000000  0.339589  1
  Tc  Tc20  1  0.657826  0.657826  0.339589  1
  Tc  Tc21  1  0.000000  0.652285  0.837087  1
  Tc  Tc22  1  0.652285  0.000000  0.837087  1
  Tc  Tc23  1  0.347715  0.347715  0.837087  1
