# generated using pymatgen
data_Eu4ErIr2
_symmetry_space_group_name_H-M   'P 1'
_cell_length_a   6.63171686
_cell_length_b   7.48803202
_cell_length_c   8.83644834
_cell_angle_alpha   97.01020192
_cell_angle_beta   112.03964039
_cell_angle_gamma   89.99999453
_symmetry_Int_Tables_number   1
_chemical_formula_structural   Eu4ErIr2
_chemical_formula_sum   'Eu8 Er2 Ir4'
_cell_volume   403.19783423
_cell_formula_units_Z   2
loop_
 _symmetry_equiv_pos_site_id
 _symmetry_equiv_pos_as_xyz
  1  'x, y, z'
loop_
 _atom_site_type_symbol
 _atom_site_label
 _atom_site_symmetry_multiplicity
 _atom_site_fract_x
 _atom_site_fract_y
 _atom_site_fract_z
 _atom_site_occupancy
  Eu  Eu0  1  0.800097  0.079585  0.822618  1
  Eu  Eu1  1  0.977479  0.420415  0.177382  1
  Eu  Eu2  1  0.199903  0.920415  0.177382  1
  Eu  Eu3  1  0.022521  0.579585  0.822618  1
  Eu  Eu4  1  0.203232  0.183807  0.569214  1
  Eu  Eu5  1  0.634017  0.316193  0.430786  1
  Eu  Eu6  1  0.796768  0.816193  0.430786  1
  Eu  Eu7  1  0.365983  0.683807  0.569214  1
  Er  Er8  1  0.434577  0.250000  0.000000  1
  Er  Er9  1  0.565423  0.750000  0.000000  1
  Ir  Ir10  1  0.595383  0.427134  0.796548  1
  Ir  Ir11  1  0.798835  0.072866  0.203452  1
  Ir  Ir12  1  0.404617  0.572866  0.203452  1
  Ir  Ir13  1  0.201165  0.927134  0.796548  1
