# generated using pymatgen
data_Pr3Dy5Np4O24
_symmetry_space_group_name_H-M   'P 1'
_cell_length_a   5.64660500
_cell_length_b   7.96426255
_cell_length_c   11.93290039
_cell_angle_alpha   74.29948937
_cell_angle_beta   90.00000000
_cell_angle_gamma   90.00000000
_symmetry_Int_Tables_number   1
_chemical_formula_structural   Pr3Dy5Np4O24
_chemical_formula_sum   'Pr3 Dy5 Np4 O24'
_cell_volume   516.61278873
_cell_formula_units_Z   1
loop_
 _symmetry_equiv_pos_site_id
 _symmetry_equiv_pos_as_xyz
  1  'x, y, z'
loop_
 _atom_site_type_symbol
 _atom_site_label
 _atom_site_symmetry_multiplicity
 _atom_site_fract_x
 _atom_site_fract_y
 _atom_site_fract_z
 _atom_site_occupancy
  Pr  Pr0  1  0.747215  0.000000  0.750000  1
  Pr  Pr1  1  0.693002  0.500000  0.750000  1
  Pr  Pr2  1  0.304412  0.500000  0.250000  1
  Dy  Dy3  1  0.253781  0.000000  0.250000  1
  Dy  Dy4  1  0.187480  0.794720  0.577844  1
  Dy  Dy5  1  0.815364  0.793614  0.080771  1
  Dy  Dy6  1  0.187480  0.205280  0.922156  1
  Dy  Dy7  1  0.815364  0.206386  0.419229  1
  Np  Np8  1  0.254551  0.721231  0.888208  1
  Np  Np9  1  0.744304  0.728365  0.384730  1
  Np  Np10  1  0.254551  0.278769  0.611792  1
  Np  Np11  1  0.744304  0.271635  0.115270  1
  O  O12  1  0.054055  0.942576  0.901396  1
  O  O13  1  0.551092  0.839252  0.936911  1
  O  O14  1  0.953971  0.946907  0.395618  1
  O  O15  1  0.442134  0.795540  0.727909  1
  O  O16  1  0.444811  0.848310  0.431061  1
  O  O17  1  0.973183  0.716407  0.768015  1
  O  O18  1  0.551145  0.803628  0.225963  1
  O  O19  1  0.875007  0.636994  0.550172  1
  O  O20  1  0.374640  0.481823  0.888129  1
  O  O21  1  0.029476  0.722828  0.265855  1
  O  O22  1  0.374640  0.518177  0.611871  1
  O  O23  1  0.875007  0.363006  0.949828  1
  O  O24  1  0.121114  0.629185  0.052638  1
  O  O25  1  0.628468  0.488261  0.383814  1
  O  O26  1  0.973183  0.283593  0.731985  1
  O  O27  1  0.628468  0.511739  0.116186  1
  O  O28  1  0.121114  0.370815  0.447362  1
  O  O29  1  0.442134  0.204460  0.772091  1
  O  O30  1  0.029476  0.277172  0.234145  1
  O  O31  1  0.551092  0.160748  0.563089  1
  O  O32  1  0.551145  0.196372  0.274037  1
  O  O33  1  0.054055  0.057424  0.598604  1
  O  O34  1  0.444811  0.151690  0.068939  1
  O  O35  1  0.953971  0.053093  0.104382  1
