# generated using pymatgen
data_YbSm6Y(Si3Au)4
_symmetry_space_group_name_H-M   'P 1'
_cell_length_a   8.23421769
_cell_length_b   8.30163798
_cell_length_c   8.42303600
_cell_angle_alpha   90.00000000
_cell_angle_beta   90.00000000
_cell_angle_gamma   120.25388702
_symmetry_Int_Tables_number   1
_chemical_formula_structural   YbSm6Y(Si3Au)4
_chemical_formula_sum   'Yb1 Sm6 Y1 Si12 Au4'
_cell_volume   497.35748511
_cell_formula_units_Z   1
loop_
 _symmetry_equiv_pos_site_id
 _symmetry_equiv_pos_as_xyz
  1  'x, y, z'
loop_
 _atom_site_type_symbol
 _atom_site_label
 _atom_site_symmetry_multiplicity
 _atom_site_fract_x
 _atom_site_fract_y
 _atom_site_fract_z
 _atom_site_occupancy
  Yb  Yb0  1  0.999237  0.499618  0.250000  1
  Sm  Sm1  1  0.499912  0.999962  0.250000  1
  Sm  Sm2  1  0.500200  0.000134  0.750000  1
  Sm  Sm3  1  0.000198  0.500105  0.750000  1
  Sm  Sm4  1  0.499927  0.499947  0.250000  1
  Sm  Sm5  1  0.500193  0.500063  0.750000  1
  Sm  Sm6  1  0.000062  0.000032  0.250000  1
  Y  Y7  1  0.000096  0.000051  0.750000  1
  Si  Si8  1  0.164729  0.325775  0.998800  1
  Si  Si9  1  0.835420  0.674330  0.998463  1
  Si  Si10  1  0.669922  0.834941  0.996347  1
  Si  Si11  1  0.835420  0.674330  0.501537  1
  Si  Si12  1  0.330011  0.165027  0.996285  1
  Si  Si13  1  0.164729  0.325775  0.501200  1
  Si  Si14  1  0.164741  0.838903  0.998795  1
  Si  Si15  1  0.330011  0.165027  0.503715  1
  Si  Si16  1  0.835406  0.161143  0.998460  1
  Si  Si17  1  0.669922  0.834941  0.503653  1
  Si  Si18  1  0.835406  0.161143  0.501540  1
  Si  Si19  1  0.164741  0.838903  0.501205  1
  Au  Au20  1  0.327357  0.663686  0.005227  1
  Au  Au21  1  0.672499  0.336240  0.004449  1
  Au  Au22  1  0.672499  0.336240  0.495551  1
  Au  Au23  1  0.327357  0.663686  0.494773  1
