# generated using pymatgen
data_Lu2Si2IrRh
_symmetry_space_group_name_H-M   'P 1'
_cell_length_a   4.18801100
_cell_length_b   6.72212500
_cell_length_c   7.40664800
_cell_angle_alpha   90.00000000
_cell_angle_beta   90.00000000
_cell_angle_gamma   90.00000000
_symmetry_Int_Tables_number   1
_chemical_formula_structural   Lu2Si2IrRh
_chemical_formula_sum   'Lu4 Si4 Ir2 Rh2'
_cell_volume   208.51442419
_cell_formula_units_Z   2
loop_
 _symmetry_equiv_pos_site_id
 _symmetry_equiv_pos_as_xyz
  1  'x, y, z'
loop_
 _atom_site_type_symbol
 _atom_site_label
 _atom_site_symmetry_multiplicity
 _atom_site_fract_x
 _atom_site_fract_y
 _atom_site_fract_z
 _atom_site_occupancy
  Lu  Lu0  1  0.750000  0.503762  0.810794  1
  Lu  Lu1  1  0.250000  0.994830  0.310571  1
  Lu  Lu2  1  0.750000  0.003762  0.689206  1
  Lu  Lu3  1  0.250000  0.494830  0.189429  1
  Si  Si4  1  0.250000  0.706414  0.609911  1
  Si  Si5  1  0.250000  0.206414  0.890089  1
  Si  Si6  1  0.750000  0.292646  0.387408  1
  Si  Si7  1  0.750000  0.792646  0.112592  1
  Ir  Ir8  1  0.750000  0.658450  0.435829  1
  Ir  Ir9  1  0.750000  0.158450  0.064171  1
  Rh  Rh10  1  0.250000  0.843899  0.934895  1
  Rh  Rh11  1  0.250000  0.343899  0.565105  1
