# generated using pymatgen
data_Na6MoRhF12
_symmetry_space_group_name_H-M   'P 1'
_cell_length_a   6.74254159
_cell_length_b   6.74254103
_cell_length_c   6.74254100
_cell_angle_alpha   91.94575886
_cell_angle_beta   91.94575020
_cell_angle_gamma   91.94576280
_symmetry_Int_Tables_number   1
_chemical_formula_structural   Na6MoRhF12
_chemical_formula_sum   'Na6 Mo1 Rh1 F12'
_cell_volume   305.98593649
_cell_formula_units_Z   1
loop_
 _symmetry_equiv_pos_site_id
 _symmetry_equiv_pos_as_xyz
  1  'x, y, z'
loop_
 _atom_site_type_symbol
 _atom_site_label
 _atom_site_symmetry_multiplicity
 _atom_site_fract_x
 _atom_site_fract_y
 _atom_site_fract_z
 _atom_site_occupancy
  Na  Na0  1  0.932617  0.439648  0.743275  1
  Na  Na1  1  0.743275  0.932617  0.439648  1
  Na  Na2  1  0.560352  0.256725  0.067383  1
  Na  Na3  1  0.439648  0.743275  0.932617  1
  Na  Na4  1  0.256725  0.067383  0.560352  1
  Na  Na5  1  0.067383  0.560352  0.256725  1
  Mo  Mo6  1  0.000000  0.000000  0.000000  1
  Rh  Rh7  1  0.500000  0.500000  0.500000  1
  F  F8  1  0.925195  0.296886  0.063904  1
  F  F9  1  0.936096  0.074805  0.703114  1
  F  F10  1  0.787128  0.582878  0.459106  1
  F  F11  1  0.703114  0.936096  0.074805  1
  F  F12  1  0.582878  0.459106  0.787128  1
  F  F13  1  0.540894  0.212872  0.417122  1
  F  F14  1  0.459106  0.787128  0.582878  1
  F  F15  1  0.417122  0.540894  0.212872  1
  F  F16  1  0.296886  0.063904  0.925195  1
  F  F17  1  0.212872  0.417122  0.540894  1
  F  F18  1  0.063904  0.925195  0.296886  1
  F  F19  1  0.074805  0.703114  0.936096  1
