# generated using pymatgen
data_Tm2Ga3Tc14C3
_symmetry_space_group_name_H-M   'P 1'
_cell_length_a   6.94290454
_cell_length_b   6.94290497
_cell_length_c   6.94290525
_cell_angle_alpha   82.14169518
_cell_angle_beta   82.14170042
_cell_angle_gamma   82.14169463
_symmetry_Int_Tables_number   1
_chemical_formula_structural   Tm2Ga3Tc14C3
_chemical_formula_sum   'Tm2 Ga3 Tc14 C3'
_cell_volume   326.03481788
_cell_formula_units_Z   1
loop_
 _symmetry_equiv_pos_site_id
 _symmetry_equiv_pos_as_xyz
  1  'x, y, z'
loop_
 _atom_site_type_symbol
 _atom_site_label
 _atom_site_symmetry_multiplicity
 _atom_site_fract_x
 _atom_site_fract_y
 _atom_site_fract_z
 _atom_site_occupancy
  Tm  Tm0  1  0.656741  0.656741  0.656741  1
  Tm  Tm1  1  0.343259  0.343259  0.343259  1
  Ga  Ga2  1  0.000000  0.000000  0.500000  1
  Ga  Ga3  1  0.500000  0.000000  0.000000  1
  Ga  Ga4  1  0.000000  0.500000  0.000000  1
  Tc  Tc5  1  0.723047  0.276953  0.000000  1
  Tc  Tc6  1  0.000000  0.723047  0.276953  1
  Tc  Tc7  1  0.276953  0.000000  0.723047  1
  Tc  Tc8  1  0.000000  0.276953  0.723047  1
  Tc  Tc9  1  0.723047  0.000000  0.276953  1
  Tc  Tc10  1  0.276953  0.723047  0.000000  1
  Tc  Tc11  1  0.352355  0.352355  0.848014  1
  Tc  Tc12  1  0.848014  0.352355  0.352355  1
  Tc  Tc13  1  0.352355  0.848014  0.352355  1
  Tc  Tc14  1  0.647645  0.647645  0.151986  1
  Tc  Tc15  1  0.151986  0.647645  0.647645  1
  Tc  Tc16  1  0.647645  0.151986  0.647645  1
  Tc  Tc17  1  0.903994  0.903994  0.903994  1
  Tc  Tc18  1  0.096006  0.096006  0.096006  1
  C  C19  1  0.500000  0.500000  0.000000  1
  C  C20  1  0.000000  0.500000  0.500000  1
  C  C21  1  0.500000  0.000000  0.500000  1
