# generated using pymatgen
data_Tb4Mg4Ru3Au
_symmetry_space_group_name_H-M   'P 1'
_cell_length_a   4.10904000
_cell_length_b   7.21246773
_cell_length_c   8.61465199
_cell_angle_alpha   90.67224537
_cell_angle_beta   90.00000000
_cell_angle_gamma   90.00000000
_symmetry_Int_Tables_number   1
_chemical_formula_structural   Tb4Mg4Ru3Au
_chemical_formula_sum   'Tb4 Mg4 Ru3 Au1'
_cell_volume   255.28899663
_cell_formula_units_Z   1
loop_
 _symmetry_equiv_pos_site_id
 _symmetry_equiv_pos_as_xyz
  1  'x, y, z'
loop_
 _atom_site_type_symbol
 _atom_site_label
 _atom_site_symmetry_multiplicity
 _atom_site_fract_x
 _atom_site_fract_y
 _atom_site_fract_z
 _atom_site_occupancy
  Tb  Tb0  1  0.250000  0.023521  0.341521  1
  Tb  Tb1  1  0.250000  0.561283  0.174137  1
  Tb  Tb2  1  0.750000  0.962274  0.676144  1
  Tb  Tb3  1  0.750000  0.468652  0.816441  1
  Mg  Mg4  1  0.250000  0.132482  0.935717  1
  Mg  Mg5  1  0.250000  0.633587  0.555876  1
  Mg  Mg6  1  0.750000  0.862184  0.056375  1
  Mg  Mg7  1  0.750000  0.364690  0.446034  1
  Ru  Ru8  1  0.250000  0.250080  0.633963  1
  Ru  Ru9  1  0.250000  0.752277  0.866517  1
  Ru  Ru10  1  0.750000  0.745725  0.363609  1
  Au  Au11  1  0.750000  0.243244  0.133665  1
