# generated using pymatgen
data_Sr2YbMoO6
_symmetry_space_group_name_H-M   'P 1'
_cell_length_a   5.79881714
_cell_length_b   8.24068345
_cell_length_c   5.90193800
_cell_angle_alpha   90.00049778
_cell_angle_beta   89.99964348
_cell_angle_gamma   90.23095064
_symmetry_Int_Tables_number   1
_chemical_formula_structural   Sr2YbMoO6
_chemical_formula_sum   'Sr4 Yb2 Mo2 O12'
_cell_volume   282.02899546
_cell_formula_units_Z   2
loop_
 _symmetry_equiv_pos_site_id
 _symmetry_equiv_pos_as_xyz
  1  'x, y, z'
loop_
 _atom_site_type_symbol
 _atom_site_label
 _atom_site_symmetry_multiplicity
 _atom_site_fract_x
 _atom_site_fract_y
 _atom_site_fract_z
 _atom_site_occupancy
  Sr  Sr0  1  0.490613  0.249200  0.542423  1
  Sr  Sr1  1  0.009381  0.250805  0.042429  1
  Sr  Sr2  1  0.990619  0.749193  0.957570  1
  Sr  Sr3  1  0.509388  0.750799  0.457576  1
  Yb  Yb4  1  0.000001  0.500000  0.500001  1
  Yb  Yb5  1  0.500000  0.000001  0.000000  1
  Mo  Mo6  1  0.000000  0.999999  0.500000  1
  Mo  Mo7  1  0.500000  0.500002  0.999999  1
  O  O8  1  0.769073  0.540814  0.191068  1
  O  O9  1  0.230926  0.459186  0.808932  1
  O  O10  1  0.269074  0.040815  0.308940  1
  O  O11  1  0.730927  0.959184  0.691061  1
  O  O12  1  0.582008  0.270991  0.974755  1
  O  O13  1  0.917992  0.229018  0.474758  1
  O  O14  1  0.082009  0.770983  0.525242  1
  O  O15  1  0.417990  0.729010  0.025245  1
  O  O16  1  0.312779  0.453570  0.269542  1
  O  O17  1  0.812787  0.953568  0.230459  1
  O  O18  1  0.187214  0.046432  0.769541  1
  O  O19  1  0.687220  0.546429  0.730457  1
