# generated using pymatgen
data_Gd4Al18ZnIr5
_symmetry_space_group_name_H-M   'P 1'
_cell_length_a   7.57975489
_cell_length_b   7.59251438
_cell_length_c   9.49267300
_cell_angle_alpha   90.01796032
_cell_angle_beta   89.70584567
_cell_angle_gamma   119.07860282
_symmetry_Int_Tables_number   1
_chemical_formula_structural   Gd4Al18ZnIr5
_chemical_formula_sum   'Gd4 Al18 Zn1 Ir5'
_cell_volume   477.43108983
_cell_formula_units_Z   1
loop_
 _symmetry_equiv_pos_site_id
 _symmetry_equiv_pos_as_xyz
  1  'x, y, z'
loop_
 _atom_site_type_symbol
 _atom_site_label
 _atom_site_symmetry_multiplicity
 _atom_site_fract_x
 _atom_site_fract_y
 _atom_site_fract_z
 _atom_site_occupancy
  Gd  Gd0  1  0.995929  0.677605  0.249563  1
  Gd  Gd1  1  0.004071  0.322395  0.750437  1
  Gd  Gd2  1  0.677387  0.995704  0.249534  1
  Gd  Gd3  1  0.322613  0.004296  0.750466  1
  Al  Al4  1  0.138887  0.138773  0.256689  1
  Al  Al5  1  0.861113  0.861227  0.743311  1
  Al  Al6  1  0.003282  0.346407  0.079681  1
  Al  Al7  1  0.996718  0.653593  0.920319  1
  Al  Al8  1  0.999724  0.663148  0.572409  1
  Al  Al9  1  0.336823  0.999973  0.427746  1
  Al  Al10  1  0.000276  0.336852  0.427591  1
  Al  Al11  1  0.663177  0.000027  0.572254  1
  Al  Al12  1  0.653418  0.996485  0.920347  1
  Al  Al13  1  0.346582  0.003515  0.079653  1
  Al  Al14  1  0.332592  0.332601  0.548703  1
  Al  Al15  1  0.667408  0.667399  0.451297  1
  Al  Al16  1  0.657555  0.657425  0.057389  1
  Al  Al17  1  0.342445  0.342575  0.942611  1
  Al  Al18  1  0.340898  0.552876  0.251587  1
  Al  Al19  1  0.659102  0.447124  0.748413  1
  Al  Al20  1  0.552890  0.340752  0.251556  1
  Al  Al21  1  0.447110  0.659248  0.748444  1
  Zn  Zn22  1  0.000000  0.000000  0.000000  1
  Ir  Ir23  1  0.672087  0.328019  0.999769  1
  Ir  Ir24  1  0.327913  0.671981  0.000231  1
  Ir  Ir25  1  0.328756  0.671391  0.500124  1
  Ir  Ir26  1  0.671244  0.328609  0.499876  1
  Ir  Ir27  1  0.000000  0.000000  0.500000  1
