# generated using pymatgen
data_Mg4Al2Co9NiB4
_symmetry_space_group_name_H-M   'P 1'
_cell_length_a   8.83676554
_cell_length_b   8.82220053
_cell_length_c   2.79282700
_cell_angle_alpha   90.00000000
_cell_angle_beta   90.00000000
_cell_angle_gamma   89.91317529
_symmetry_Int_Tables_number   1
_chemical_formula_structural   Mg4Al2Co9NiB4
_chemical_formula_sum   'Mg4 Al2 Co9 Ni1 B4'
_cell_volume   217.72775429
_cell_formula_units_Z   1
loop_
 _symmetry_equiv_pos_site_id
 _symmetry_equiv_pos_as_xyz
  1  'x, y, z'
loop_
 _atom_site_type_symbol
 _atom_site_label
 _atom_site_symmetry_multiplicity
 _atom_site_fract_x
 _atom_site_fract_y
 _atom_site_fract_z
 _atom_site_occupancy
  Mg  Mg0  1  0.177093  0.677573  0.000000  1
  Mg  Mg1  1  0.325342  0.176355  0.000000  1
  Mg  Mg2  1  0.677149  0.823072  0.000000  1
  Mg  Mg3  1  0.819462  0.323959  0.000000  1
  Al  Al4  1  0.998783  0.995462  0.000000  1
  Al  Al5  1  0.500583  0.500154  0.000000  1
  Co  Co6  1  0.999447  0.497758  0.500000  1
  Co  Co7  1  0.220953  0.932908  0.500000  1
  Co  Co8  1  0.279605  0.428501  0.500000  1
  Co  Co9  1  0.431528  0.721140  0.500000  1
  Co  Co10  1  0.500455  0.999736  0.500000  1
  Co  Co11  1  0.567482  0.278692  0.500000  1
  Co  Co12  1  0.721171  0.568439  0.500000  1
  Co  Co13  1  0.779954  0.069447  0.500000  1
  Co  Co14  1  0.931474  0.777361  0.500000  1
  Ni  Ni15  1  0.068772  0.220617  0.500000  1
  B  B16  1  0.124947  0.385766  0.000000  1
  B  B17  1  0.377717  0.877719  0.000000  1
  B  B18  1  0.622327  0.122321  0.000000  1
  B  B19  1  0.875756  0.623020  0.000000  1
