# generated using pymatgen
data_Ho8Er4GaCo4Pb
_symmetry_space_group_name_H-M   'P 1'
_cell_length_a   8.30116280
_cell_length_b   8.29146331
_cell_length_c   8.29146263
_cell_angle_alpha   111.94020730
_cell_angle_beta   109.29668764
_cell_angle_gamma   107.16769260
_symmetry_Int_Tables_number   1
_chemical_formula_structural   Ho8Er4GaCo4Pb
_chemical_formula_sum   'Ho8 Er4 Ga1 Co4 Pb1'
_cell_volume   438.79250114
_cell_formula_units_Z   1
loop_
 _symmetry_equiv_pos_site_id
 _symmetry_equiv_pos_as_xyz
  1  'x, y, z'
loop_
 _atom_site_type_symbol
 _atom_site_label
 _atom_site_symmetry_multiplicity
 _atom_site_fract_x
 _atom_site_fract_y
 _atom_site_fract_z
 _atom_site_occupancy
  Ho  Ho0  1  0.324129  0.139508  0.814451  1
  Ho  Ho1  1  0.675871  0.490321  0.815379  1
  Ho  Ho2  1  0.565794  0.267782  0.298259  1
  Ho  Ho3  1  0.434206  0.732465  0.701989  1
  Ho  Ho4  1  0.179774  0.780067  0.960381  1
  Ho  Ho5  1  0.820226  0.780607  0.600294  1
  Ho  Ho6  1  0.179275  0.219460  0.399285  1
  Ho  Ho7  1  0.820725  0.220011  0.040185  1
  Er  Er8  1  0.969667  0.267691  0.702235  1
  Er  Er9  1  0.030333  0.732567  0.298023  1
  Er  Er10  1  0.675747  0.859842  0.185127  1
  Er  Er11  1  0.324253  0.509380  0.184095  1
  Ga  Ga12  1  0.000000  0.500029  0.500029  1
  Co  Co13  1  0.114139  0.114670  0.999677  1
  Co  Co14  1  0.885861  0.885538  0.000532  1
  Co  Co15  1  0.660888  0.500706  0.161110  1
  Co  Co16  1  0.339112  0.500221  0.839817  1
  Pb  Pb17  1  0.500000  0.999134  0.499134  1
