# generated using pymatgen
data_Zr5Sc(Ti2Pt3)2
_symmetry_space_group_name_H-M   'P 1'
_cell_length_a   5.17258100
_cell_length_b   8.15012122
_cell_length_c   8.13210788
_cell_angle_alpha   120.07330708
_cell_angle_beta   89.99983774
_cell_angle_gamma   90.00032517
_symmetry_Int_Tables_number   1
_chemical_formula_structural   Zr5Sc(Ti2Pt3)2
_chemical_formula_sum   'Zr5 Sc1 Ti4 Pt6'
_cell_volume   296.67697911
_cell_formula_units_Z   1
loop_
 _symmetry_equiv_pos_site_id
 _symmetry_equiv_pos_as_xyz
  1  'x, y, z'
loop_
 _atom_site_type_symbol
 _atom_site_label
 _atom_site_symmetry_multiplicity
 _atom_site_fract_x
 _atom_site_fract_y
 _atom_site_fract_z
 _atom_site_occupancy
  Zr  Zr0  1  0.750002  0.751052  0.750397  1
  Zr  Zr1  1  0.750002  0.000654  0.249603  1
  Zr  Zr2  1  0.250003  0.751038  0.000000  1
  Zr  Zr3  1  0.249998  0.248974  0.247455  1
  Zr  Zr4  1  0.249998  0.001520  0.752545  1
  Sc  Sc5  1  0.749990  0.249239  0.000000  1
  Ti  Ti6  1  0.499658  0.333132  0.667688  1
  Ti  Ti7  1  0.499658  0.665444  0.332312  1
  Ti  Ti8  1  0.000344  0.665447  0.332313  1
  Ti  Ti9  1  0.000344  0.333134  0.667687  1
  Pt  Pt10  1  0.750004  0.596182  0.000000  1
  Pt  Pt11  1  0.750001  0.405260  0.405191  1
  Pt  Pt12  1  0.750001  0.000070  0.594809  1
  Pt  Pt13  1  0.249999  0.404388  0.000000  1
  Pt  Pt14  1  0.249998  0.594828  0.595189  1
  Pt  Pt15  1  0.249998  0.999639  0.404811  1
