# generated using pymatgen
data_Cs2Ti11VO24
_symmetry_space_group_name_H-M   'P 1'
_cell_length_a   7.50786164
_cell_length_b   7.54602718
_cell_length_c   8.94974652
_cell_angle_alpha   101.39898168
_cell_angle_beta   101.53789096
_cell_angle_gamma   87.94972765
_symmetry_Int_Tables_number   1
_chemical_formula_structural   Cs2Ti11VO24
_chemical_formula_sum   'Cs2 Ti11 V1 O24'
_cell_volume   486.99444251
_cell_formula_units_Z   1
loop_
 _symmetry_equiv_pos_site_id
 _symmetry_equiv_pos_as_xyz
  1  'x, y, z'
loop_
 _atom_site_type_symbol
 _atom_site_label
 _atom_site_symmetry_multiplicity
 _atom_site_fract_x
 _atom_site_fract_y
 _atom_site_fract_z
 _atom_site_occupancy
  Cs  Cs0  1  0.000000  0.999343  0.216068  1
  Cs  Cs1  1  0.004657  0.004156  0.790824  1
  Ti  Ti2  1  0.469054  0.185027  0.613232  1
  Ti  Ti3  1  0.474973  0.187251  0.274147  1
  Ti  Ti4  1  0.187283  0.514757  0.113418  1
  Ti  Ti5  1  0.181312  0.533057  0.454636  1
  Ti  Ti6  1  0.182844  0.516844  0.787622  1
  Ti  Ti7  1  0.813472  0.479261  0.212736  1
  Ti  Ti8  1  0.812842  0.469703  0.545551  1
  Ti  Ti9  1  0.804491  0.487592  0.882458  1
  Ti  Ti10  1  0.521300  0.820540  0.724487  1
  Ti  Ti11  1  0.504486  0.825534  0.054117  1
  Ti  Ti12  1  0.530838  0.816628  0.391565  1
  V  V13  1  0.492486  0.184288  0.946843  1
  O  O14  1  0.358914  0.040891  0.075303  1
  O  O15  1  0.372069  0.053374  0.405131  1
  O  O16  1  0.367561  0.042371  0.725167  1
  O  O17  1  0.291935  0.369648  0.275108  1
  O  O18  1  0.290682  0.381290  0.943976  1
  O  O19  1  0.294252  0.375492  0.612445  1
  O  O20  1  0.054425  0.630496  0.282054  1
  O  O21  1  0.056885  0.635557  0.612608  1
  O  O22  1  0.052624  0.635421  0.948811  1
  O  O23  1  0.625925  0.296339  0.485646  1
  O  O24  1  0.634082  0.299235  0.808261  1
  O  O25  1  0.635599  0.295075  0.169769  1
  O  O26  1  0.372751  0.701582  0.181542  1
  O  O27  1  0.378259  0.701838  0.511190  1
  O  O28  1  0.369392  0.707994  0.844386  1
  O  O29  1  0.944711  0.368412  0.051493  1
  O  O30  1  0.947087  0.369928  0.388438  1
  O  O31  1  0.948939  0.373203  0.718006  1
  O  O32  1  0.707053  0.628191  0.720384  1
  O  O33  1  0.701155  0.621451  0.055330  1
  O  O34  1  0.707620  0.627976  0.389231  1
  O  O35  1  0.639368  0.934191  0.930640  1
  O  O36  1  0.631857  0.942999  0.261731  1
  O  O37  1  0.636815  0.943064  0.595649  1
