# generated using pymatgen
data_LuU7F30
_symmetry_space_group_name_H-M   'P 1'
_cell_length_a   8.66338730
_cell_length_b   8.66338701
_cell_length_c   8.66338722
_cell_angle_alpha   99.93878562
_cell_angle_beta   99.93878401
_cell_angle_gamma   99.93878581
_symmetry_Int_Tables_number   1
_chemical_formula_structural   LuU7F30
_chemical_formula_sum   'Lu1 U7 F30'
_cell_volume   616.97646177
_cell_formula_units_Z   1
loop_
 _symmetry_equiv_pos_site_id
 _symmetry_equiv_pos_as_xyz
  1  'x, y, z'
loop_
 _atom_site_type_symbol
 _atom_site_label
 _atom_site_symmetry_multiplicity
 _atom_site_fract_x
 _atom_site_fract_y
 _atom_site_fract_z
 _atom_site_occupancy
  Lu  Lu0  1  0.250000  0.250000  0.250000  1
  U  U1  1  0.179930  0.750000  0.320070  1
  U  U2  1  0.250000  0.679335  0.820665  1
  U  U3  1  0.679335  0.820665  0.250000  1
  U  U4  1  0.750000  0.750000  0.750000  1
  U  U5  1  0.320070  0.179930  0.750000  1
  U  U6  1  0.750000  0.320070  0.179930  1
  U  U7  1  0.820665  0.250000  0.679335  1
  F  F8  1  0.956818  0.543182  0.250000  1
  F  F9  1  0.814029  0.350360  0.451099  1
  F  F10  1  0.490066  0.724714  0.714493  1
  F  F11  1  0.350360  0.451099  0.814029  1
  F  F12  1  0.009934  0.785507  0.775286  1
  F  F13  1  0.750000  0.036225  0.463775  1
  F  F14  1  0.946385  0.847510  0.318832  1
  F  F15  1  0.230922  0.222829  0.994216  1
  F  F16  1  0.775286  0.009934  0.785507  1
  F  F17  1  0.318832  0.946385  0.847510  1
  F  F18  1  0.277171  0.269078  0.505784  1
  F  F19  1  0.451099  0.814029  0.350360  1
  F  F20  1  0.543182  0.250000  0.956818  1
  F  F21  1  0.269078  0.505784  0.277171  1
  F  F22  1  0.149640  0.685971  0.048901  1
  F  F23  1  0.847510  0.318832  0.946385  1
  F  F24  1  0.714493  0.490066  0.724714  1
  F  F25  1  0.463775  0.750000  0.036225  1
  F  F26  1  0.553615  0.181168  0.652490  1
  F  F27  1  0.724714  0.714493  0.490066  1
  F  F28  1  0.685971  0.048901  0.149640  1
  F  F29  1  0.222829  0.994216  0.230922  1
  F  F30  1  0.785507  0.775286  0.009934  1
  F  F31  1  0.048901  0.149640  0.685971  1
  F  F32  1  0.250000  0.956818  0.543182  1
  F  F33  1  0.994216  0.230922  0.222829  1
  F  F34  1  0.652490  0.553615  0.181168  1
  F  F35  1  0.505784  0.277171  0.269078  1
  F  F36  1  0.181168  0.652490  0.553615  1
  F  F37  1  0.036225  0.463775  0.750000  1
