# generated using pymatgen
data_Dy3Si2B4Rh9
_symmetry_space_group_name_H-M   'P 1'
_cell_length_a   5.49417000
_cell_length_b   5.49416981
_cell_length_c   9.84564700
_cell_angle_alpha   90.00000000
_cell_angle_beta   90.00000000
_cell_angle_gamma   120.00001316
_symmetry_Int_Tables_number   1
_chemical_formula_structural   Dy3Si2B4Rh9
_chemical_formula_sum   'Dy3 Si2 B4 Rh9'
_cell_volume   257.38249499
_cell_formula_units_Z   1
loop_
 _symmetry_equiv_pos_site_id
 _symmetry_equiv_pos_as_xyz
  1  'x, y, z'
loop_
 _atom_site_type_symbol
 _atom_site_label
 _atom_site_symmetry_multiplicity
 _atom_site_fract_x
 _atom_site_fract_y
 _atom_site_fract_z
 _atom_site_occupancy
  Dy  Dy0  1  0.000000  0.000000  0.661780  1
  Dy  Dy1  1  0.000000  0.000000  0.338220  1
  Dy  Dy2  1  0.000000  0.000000  0.000000  1
  Si  Si3  1  0.333333  0.666667  0.000000  1
  Si  Si4  1  0.666667  0.333333  0.000000  1
  B  B5  1  0.333333  0.666667  0.655062  1
  B  B6  1  0.666667  0.333333  0.655062  1
  B  B7  1  0.666667  0.333333  0.344938  1
  B  B8  1  0.333333  0.666667  0.344938  1
  Rh  Rh9  1  0.500000  0.500000  0.500000  1
  Rh  Rh10  1  0.000000  0.500000  0.500000  1
  Rh  Rh11  1  0.500000  0.000000  0.194867  1
  Rh  Rh12  1  0.500000  0.500000  0.194867  1
  Rh  Rh13  1  0.000000  0.500000  0.194867  1
  Rh  Rh14  1  0.500000  0.000000  0.805133  1
  Rh  Rh15  1  0.500000  0.500000  0.805133  1
  Rh  Rh16  1  0.000000  0.500000  0.805133  1
  Rh  Rh17  1  0.500000  0.000000  0.500000  1
