# generated using pymatgen
data_Gd2TmLu(B6Os)2
_symmetry_space_group_name_H-M   'P 1'
_cell_length_a   3.63764300
_cell_length_b   9.12026117
_cell_length_c   11.52078921
_cell_angle_alpha   89.97803768
_cell_angle_beta   90.00000000
_cell_angle_gamma   90.00000000
_symmetry_Int_Tables_number   1
_chemical_formula_structural   Gd2TmLu(B6Os)2
_chemical_formula_sum   'Gd4 Tm2 Lu2 B24 Os4'
_cell_volume   382.21660332
_cell_formula_units_Z   2
loop_
 _symmetry_equiv_pos_site_id
 _symmetry_equiv_pos_as_xyz
  1  'x, y, z'
loop_
 _atom_site_type_symbol
 _atom_site_label
 _atom_site_symmetry_multiplicity
 _atom_site_fract_x
 _atom_site_fract_y
 _atom_site_fract_z
 _atom_site_occupancy
  Gd  Gd0  1  0.000000  0.321744  0.414143  1
  Gd  Gd1  1  0.000000  0.678256  0.585857  1
  Gd  Gd2  1  0.000000  0.822211  0.086031  1
  Gd  Gd3  1  0.000000  0.177789  0.913969  1
  Tm  Tm4  1  0.000000  0.444269  0.127111  1
  Tm  Tm5  1  0.000000  0.555731  0.872888  1
  Lu  Lu6  1  0.000000  0.944370  0.373318  1
  Lu  Lu7  1  0.000000  0.055630  0.626683  1
  B  B8  1  0.500000  0.554866  0.432422  1
  B  B9  1  0.500000  0.445134  0.567578  1
  B  B10  1  0.500000  0.054522  0.067788  1
  B  B11  1  0.500000  0.945478  0.932212  1
  B  B12  1  0.500000  0.750001  0.419177  1
  B  B13  1  0.500000  0.249999  0.580823  1
  B  B14  1  0.500000  0.249084  0.080980  1
  B  B15  1  0.500000  0.750916  0.919020  1
  B  B16  1  0.500000  0.792295  0.266413  1
  B  B17  1  0.500000  0.207705  0.733587  1
  B  B18  1  0.500000  0.291385  0.233994  1
  B  B19  1  0.500000  0.708614  0.766006  1
  B  B20  1  0.500000  0.631437  0.184885  1
  B  B21  1  0.500000  0.368563  0.815115  1
  B  B22  1  0.500000  0.130592  0.315638  1
  B  B23  1  0.500000  0.869408  0.684362  1
  B  B24  1  0.500000  0.982978  0.214115  1
  B  B25  1  0.500000  0.017022  0.785885  1
  B  B26  1  0.500000  0.483517  0.286479  1
  B  B27  1  0.500000  0.516483  0.713521  1
  B  B28  1  0.500000  0.604640  0.028716  1
  B  B29  1  0.500000  0.395360  0.971284  1
  B  B30  1  0.500000  0.103209  0.471625  1
  B  B31  1  0.500000  0.896791  0.528375  1
  Os  Os32  1  0.000000  0.639152  0.320286  1
  Os  Os33  1  0.000000  0.360848  0.679714  1
  Os  Os34  1  0.000000  0.138043  0.180254  1
  Os  Os35  1  0.000000  0.861957  0.819746  1
