# generated using pymatgen
data_TbTh3(B10Ir)2
_symmetry_space_group_name_H-M   'P 1'
_cell_length_a   4.20209400
_cell_length_b   5.72291002
_cell_length_c   11.44632804
_cell_angle_alpha   89.99042407
_cell_angle_beta   90.00000000
_cell_angle_gamma   90.00000000
_symmetry_Int_Tables_number   1
_chemical_formula_structural   TbTh3(B10Ir)2
_chemical_formula_sum   'Tb1 Th3 B20 Ir2'
_cell_volume   275.26364917
_cell_formula_units_Z   1
loop_
 _symmetry_equiv_pos_site_id
 _symmetry_equiv_pos_as_xyz
  1  'x, y, z'
loop_
 _atom_site_type_symbol
 _atom_site_label
 _atom_site_symmetry_multiplicity
 _atom_site_fract_x
 _atom_site_fract_y
 _atom_site_fract_z
 _atom_site_occupancy
  Tb  Tb0  1  0.500000  0.701408  0.136534  1
  Th  Th1  1  0.500000  0.203942  0.364172  1
  Th  Th2  1  0.500000  0.795547  0.636341  1
  Th  Th3  1  0.500000  0.293490  0.865351  1
  B  B4  1  0.000000  0.382413  0.043402  1
  B  B5  1  0.000000  0.618119  0.957538  1
  B  B6  1  0.000000  0.116944  0.542989  1
  B  B7  1  0.000000  0.881890  0.456357  1
  B  B8  1  0.000000  0.363344  0.197297  1
  B  B9  1  0.000000  0.635203  0.803584  1
  B  B10  1  0.000000  0.135333  0.697381  1
  B  B11  1  0.000000  0.864594  0.302142  1
  B  B12  1  0.000000  0.055263  0.192443  1
  B  B13  1  0.000000  0.944715  0.807241  1
  B  B14  1  0.000000  0.444930  0.693703  1
  B  B15  1  0.000000  0.555323  0.306126  1
  B  B16  1  0.301919  0.221395  0.118678  1
  B  B17  1  0.698497  0.782218  0.881615  1
  B  B18  1  0.301503  0.782218  0.881615  1
  B  B19  1  0.698026  0.282230  0.619298  1
  B  B20  1  0.698081  0.221395  0.118678  1
  B  B21  1  0.302234  0.718257  0.378951  1
  B  B22  1  0.697766  0.718257  0.378951  1
  B  B23  1  0.301974  0.282230  0.619298  1
  Ir  Ir24  1  0.000000  0.999433  0.001123  1
  Ir  Ir25  1  0.000000  0.499910  0.499190  1
