# generated using pymatgen
data_Ta10Ga2Si3Sn
_symmetry_space_group_name_H-M   'P 1'
_cell_length_a   7.67332377
_cell_length_b   7.67332313
_cell_length_c   7.67905279
_cell_angle_alpha   128.38745728
_cell_angle_beta   128.38745491
_cell_angle_gamma   76.04122922
_symmetry_Int_Tables_number   1
_chemical_formula_structural   Ta10Ga2Si3Sn
_chemical_formula_sum   'Ta10 Ga2 Si3 Sn1'
_cell_volume   270.01062081
_cell_formula_units_Z   1
loop_
 _symmetry_equiv_pos_site_id
 _symmetry_equiv_pos_as_xyz
  1  'x, y, z'
loop_
 _atom_site_type_symbol
 _atom_site_label
 _atom_site_symmetry_multiplicity
 _atom_site_fract_x
 _atom_site_fract_y
 _atom_site_fract_z
 _atom_site_occupancy
  Ta  Ta0  1  0.015694  0.197509  0.512271  1
  Ta  Ta1  1  0.684971  0.509660  0.488444  1
  Ta  Ta2  1  0.510175  0.018331  0.825800  1
  Ta  Ta3  1  0.196309  0.680194  0.173665  1
  Ta  Ta4  1  0.990340  0.815029  0.511556  1
  Ta  Ta5  1  0.302491  0.484306  0.487729  1
  Ta  Ta6  1  0.481669  0.989825  0.174200  1
  Ta  Ta7  1  0.819806  0.303691  0.826335  1
  Ta  Ta8  1  0.998112  0.999886  0.995069  1
  Ta  Ta9  1  0.500114  0.501888  0.004931  1
  Ga  Ga10  1  0.251551  0.248449  0.000000  1
  Ga  Ga11  1  0.366194  0.133806  0.500000  1
  Si  Si12  1  0.630024  0.869976  0.500000  1
  Si  Si13  1  0.868577  0.367568  0.236314  1
  Si  Si14  1  0.132432  0.631423  0.763686  1
  Sn  Sn15  1  0.751540  0.748460  0.000000  1
