# generated using pymatgen
data_Yb3LuRe3TcB16
_symmetry_space_group_name_H-M   'P 1'
_cell_length_a   3.56462000
_cell_length_b   5.96976481
_cell_length_c   11.54551987
_cell_angle_alpha   90.07681874
_cell_angle_beta   90.00000000
_cell_angle_gamma   90.00000000
_symmetry_Int_Tables_number   1
_chemical_formula_structural   Yb3LuRe3TcB16
_chemical_formula_sum   'Yb3 Lu1 Re3 Tc1 B16'
_cell_volume   245.68778451
_cell_formula_units_Z   1
loop_
 _symmetry_equiv_pos_site_id
 _symmetry_equiv_pos_as_xyz
  1  'x, y, z'
loop_
 _atom_site_type_symbol
 _atom_site_label
 _atom_site_symmetry_multiplicity
 _atom_site_fract_x
 _atom_site_fract_y
 _atom_site_fract_z
 _atom_site_occupancy
  Yb  Yb0  1  0.500000  0.628520  0.848812  1
  Yb  Yb1  1  0.500000  0.128425  0.649355  1
  Yb  Yb2  1  0.500000  0.873153  0.351281  1
  Lu  Lu3  1  0.500000  0.371234  0.150996  1
  Re  Re4  1  0.500000  0.630764  0.583112  1
  Re  Re5  1  0.500000  0.132042  0.917084  1
  Re  Re6  1  0.500000  0.869447  0.085560  1
  Tc  Tc7  1  0.500000  0.370453  0.415007  1
  B  B8  1  0.000000  0.114494  0.048538  1
  B  B9  1  0.000000  0.885077  0.952707  1
  B  B10  1  0.000000  0.384791  0.546476  1
  B  B11  1  0.000000  0.613647  0.451592  1
  B  B12  1  0.000000  0.134700  0.467094  1
  B  B13  1  0.000000  0.865316  0.531725  1
  B  B14  1  0.000000  0.365236  0.968784  1
  B  B15  1  0.000000  0.634602  0.032232  1
  B  B16  1  0.000000  0.025031  0.193375  1
  B  B17  1  0.000000  0.976157  0.807785  1
  B  B18  1  0.000000  0.475857  0.692139  1
  B  B19  1  0.000000  0.523234  0.306412  1
  B  B20  1  0.000000  0.215032  0.314576  1
  B  B21  1  0.000000  0.784575  0.684833  1
  B  B22  1  0.000000  0.283934  0.814879  1
  B  B23  1  0.000000  0.714279  0.185649  1
