# generated using pymatgen
data_DyHo5CrB14W
_symmetry_space_group_name_H-M   'P 1'
_cell_length_a   8.11323008
_cell_length_b   8.11322929
_cell_length_c   9.41337600
_cell_angle_alpha   90.00000000
_cell_angle_beta   90.00000000
_cell_angle_gamma   155.51490383
_symmetry_Int_Tables_number   1
_chemical_formula_structural   DyHo5CrB14W
_chemical_formula_sum   'Dy1 Ho5 Cr1 B14 W1'
_cell_volume   256.81000141
_cell_formula_units_Z   1
loop_
 _symmetry_equiv_pos_site_id
 _symmetry_equiv_pos_as_xyz
  1  'x, y, z'
loop_
 _atom_site_type_symbol
 _atom_site_label
 _atom_site_symmetry_multiplicity
 _atom_site_fract_x
 _atom_site_fract_y
 _atom_site_fract_z
 _atom_site_occupancy
  Dy  Dy0  1  0.754197  0.245803  0.750000  1
  Ho  Ho1  1  0.894450  0.105550  0.435823  1
  Ho  Ho2  1  0.106617  0.893383  0.555785  1
  Ho  Ho3  1  0.894450  0.105550  0.064177  1
  Ho  Ho4  1  0.106617  0.893383  0.944215  1
  Ho  Ho5  1  0.240983  0.759017  0.250000  1
  Cr  Cr6  1  0.053249  0.946751  0.250000  1
  B  B7  1  0.727181  0.272819  0.465422  1
  B  B8  1  0.272315  0.727685  0.530418  1
  B  B9  1  0.727181  0.272819  0.034578  1
  B  B10  1  0.272315  0.727685  0.969582  1
  B  B11  1  0.631131  0.368869  0.151983  1
  B  B12  1  0.365016  0.634984  0.854735  1
  B  B13  1  0.631131  0.368869  0.348017  1
  B  B14  1  0.365016  0.634984  0.645265  1
  B  B15  1  0.521853  0.478147  0.097209  1
  B  B16  1  0.480763  0.519237  0.909728  1
  B  B17  1  0.521853  0.478147  0.402791  1
  B  B18  1  0.480763  0.519237  0.590272  1
  B  B19  1  0.460247  0.539753  0.250000  1
  B  B20  1  0.545621  0.454379  0.750000  1
  W  W21  1  0.947049  0.052951  0.750000  1
