# generated using pymatgen
data_Er4MnNiC8
_symmetry_space_group_name_H-M   'P 1'
_cell_length_a   6.54768264
_cell_length_b   6.54768374
_cell_length_c   6.54768275
_cell_angle_alpha   134.81130460
_cell_angle_beta   110.14185325
_cell_angle_gamma   87.18451413
_symmetry_Int_Tables_number   1
_chemical_formula_structural   Er4MnNiC8
_chemical_formula_sum   'Er4 Mn1 Ni1 C8'
_cell_volume   178.89784897
_cell_formula_units_Z   1
loop_
 _symmetry_equiv_pos_site_id
 _symmetry_equiv_pos_as_xyz
  1  'x, y, z'
loop_
 _atom_site_type_symbol
 _atom_site_label
 _atom_site_symmetry_multiplicity
 _atom_site_fract_x
 _atom_site_fract_y
 _atom_site_fract_z
 _atom_site_occupancy
  Er  Er0  1  0.512809  0.356308  0.157842  1
  Er  Er1  1  0.487191  0.645033  0.843499  1
  Er  Er2  1  0.198466  0.854967  0.342158  1
  Er  Er3  1  0.801534  0.143692  0.656501  1
  Mn  Mn4  1  0.000000  0.750000  0.750000  1
  Ni  Ni5  1  0.000000  0.250000  0.250000  1
  C  C6  1  0.253233  0.052016  0.143460  1
  C  C7  1  0.746767  0.890226  0.798782  1
  C  C8  1  0.908556  0.609774  0.356540  1
  C  C9  1  0.091444  0.447984  0.701218  1
  C  C10  1  0.471047  0.134206  0.347239  1
  C  C11  1  0.528953  0.876193  0.663160  1
  C  C12  1  0.786967  0.623807  0.152761  1
  C  C13  1  0.213033  0.365794  0.836840  1
