# generated using pymatgen
data_SrDy2Ho(Pt2O7)2
_symmetry_space_group_name_H-M   'P 1'
_cell_length_a   7.32956807
_cell_length_b   7.32982705
_cell_length_c   7.32982718
_cell_angle_alpha   59.85819834
_cell_angle_beta   59.83228422
_cell_angle_gamma   59.83228188
_symmetry_Int_Tables_number   1
_chemical_formula_structural   SrDy2Ho(Pt2O7)2
_chemical_formula_sum   'Sr1 Dy2 Ho1 Pt4 O14'
_cell_volume   277.44698979
_cell_formula_units_Z   1
loop_
 _symmetry_equiv_pos_site_id
 _symmetry_equiv_pos_as_xyz
  1  'x, y, z'
loop_
 _atom_site_type_symbol
 _atom_site_label
 _atom_site_symmetry_multiplicity
 _atom_site_fract_x
 _atom_site_fract_y
 _atom_site_fract_z
 _atom_site_occupancy
  Sr  Sr0  1  0.625000  0.625000  0.625000  1
  Dy  Dy1  1  0.625000  0.625000  0.125000  1
  Dy  Dy2  1  0.625000  0.125000  0.625000  1
  Ho  Ho3  1  0.125000  0.625000  0.625000  1
  Pt  Pt4  1  0.125000  0.125000  0.125000  1
  Pt  Pt5  1  0.625000  0.125000  0.125000  1
  Pt  Pt6  1  0.125000  0.625000  0.125000  1
  Pt  Pt7  1  0.125000  0.125000  0.625000  1
  O  O8  1  0.055825  0.458741  0.458741  1
  O  O9  1  0.791418  0.791524  0.194397  1
  O  O10  1  0.787771  0.213111  0.213111  1
  O  O11  1  0.458582  0.055603  0.458476  1
  O  O12  1  0.758690  0.756735  0.756735  1
  O  O13  1  0.037163  0.036327  0.462327  1
  O  O14  1  0.037163  0.462327  0.036327  1
  O  O15  1  0.791418  0.194397  0.791524  1
  O  O16  1  0.212837  0.787673  0.213673  1
  O  O17  1  0.212837  0.213673  0.787673  1
  O  O18  1  0.491310  0.493265  0.493265  1
  O  O19  1  0.462229  0.036889  0.036889  1
  O  O20  1  0.458582  0.458476  0.055603  1
  O  O21  1  0.194175  0.791259  0.791259  1
