# generated using pymatgen
data_Zr2Nb3Co9As7
_symmetry_space_group_name_H-M   'P 1'
_cell_length_a   3.78546300
_cell_length_b   9.45243849
_cell_length_c   9.45243900
_cell_angle_alpha   119.99999829
_cell_angle_beta   90.00000000
_cell_angle_gamma   90.00000000
_symmetry_Int_Tables_number   1
_chemical_formula_structural   Zr2Nb3Co9As7
_chemical_formula_sum   'Zr2 Nb3 Co9 As7'
_cell_volume   292.91215102
_cell_formula_units_Z   1
loop_
 _symmetry_equiv_pos_site_id
 _symmetry_equiv_pos_as_xyz
  1  'x, y, z'
loop_
 _atom_site_type_symbol
 _atom_site_label
 _atom_site_symmetry_multiplicity
 _atom_site_fract_x
 _atom_site_fract_y
 _atom_site_fract_z
 _atom_site_occupancy
  Zr  Zr0  1  0.000000  0.666667  0.333333  1
  Zr  Zr1  1  0.500000  0.333333  0.666667  1
  Nb  Nb2  1  0.500000  0.774439  0.898816  1
  Nb  Nb3  1  0.500000  0.124377  0.225561  1
  Nb  Nb4  1  0.500000  0.101184  0.875623  1
  Co  Co5  1  0.000000  0.566860  0.933639  1
  Co  Co6  1  0.000000  0.366779  0.433140  1
  Co  Co7  1  0.000000  0.066361  0.633221  1
  Co  Co8  1  0.000000  0.874496  0.162459  1
  Co  Co9  1  0.000000  0.287964  0.125504  1
  Co  Co10  1  0.000000  0.837541  0.712036  1
  Co  Co11  1  0.500000  0.947323  0.386759  1
  Co  Co12  1  0.500000  0.439435  0.052677  1
  Co  Co13  1  0.500000  0.613241  0.560565  1
  As  As14  1  0.000000  0.000000  0.000000  1
  As  As15  1  0.500000  0.708987  0.127743  1
  As  As16  1  0.500000  0.418757  0.291013  1
  As  As17  1  0.500000  0.872257  0.581243  1
  As  As18  1  0.000000  0.578008  0.692607  1
  As  As19  1  0.000000  0.114599  0.421992  1
  As  As20  1  0.000000  0.307393  0.885401  1
