# generated using pymatgen
data_Tb4Ga10Ni5Rh
_symmetry_space_group_name_H-M   'P 1'
_cell_length_a   8.39418156
_cell_length_b   8.40757631
_cell_length_c   5.55051708
_cell_angle_alpha   70.76130484
_cell_angle_beta   70.75222517
_cell_angle_gamma   95.39902921
_symmetry_Int_Tables_number   1
_chemical_formula_structural   Tb4Ga10Ni5Rh
_chemical_formula_sum   'Tb4 Ga10 Ni5 Rh1'
_cell_volume   340.02670124
_cell_formula_units_Z   1
loop_
 _symmetry_equiv_pos_site_id
 _symmetry_equiv_pos_as_xyz
  1  'x, y, z'
loop_
 _atom_site_type_symbol
 _atom_site_label
 _atom_site_symmetry_multiplicity
 _atom_site_fract_x
 _atom_site_fract_y
 _atom_site_fract_z
 _atom_site_occupancy
  Tb  Tb0  1  0.870197  0.578721  0.775633  1
  Tb  Tb1  1  0.421939  0.138299  0.719834  1
  Tb  Tb2  1  0.134463  0.420038  0.223070  1
  Tb  Tb3  1  0.577329  0.867693  0.277425  1
  Ga  Ga4  1  0.081050  0.255741  0.831815  1
  Ga  Ga5  1  0.735616  0.912902  0.675483  1
  Ga  Ga6  1  0.909361  0.738860  0.175952  1
  Ga  Ga7  1  0.261689  0.087526  0.325427  1
  Ga  Ga8  1  0.506841  0.499030  0.751802  1
  Ga  Ga9  1  0.506243  0.499765  0.242088  1
  Ga  Ga10  1  0.790761  0.206239  0.749813  1
  Ga  Ga11  1  0.791409  0.205881  0.253240  1
  Ga  Ga12  1  0.206167  0.799059  0.752884  1
  Ga  Ga13  1  0.206638  0.798556  0.241739  1
  Ni  Ni14  1  0.998011  0.998089  0.253877  1
  Ni  Ni15  1  0.443426  0.735468  0.909535  1
  Ni  Ni16  1  0.740684  0.444902  0.406189  1
  Ni  Ni17  1  0.556274  0.259997  0.093117  1
  Ni  Ni18  1  0.998091  0.997988  0.749975  1
  Rh  Rh19  1  0.263810  0.555247  0.591101  1
