# generated using pymatgen
data_AcPr7(WO6)4
_symmetry_space_group_name_H-M   'P 1'
_cell_length_a   5.48067840
_cell_length_b   9.47585500
_cell_length_c   10.34969700
_cell_angle_alpha   90.02409531
_cell_angle_beta   89.97811948
_cell_angle_gamma   90.01074779
_symmetry_Int_Tables_number   1
_chemical_formula_structural   AcPr7(WO6)4
_chemical_formula_sum   'Ac1 Pr7 W4 O24'
_cell_volume   537.50224605
_cell_formula_units_Z   1
loop_
 _symmetry_equiv_pos_site_id
 _symmetry_equiv_pos_as_xyz
  1  'x, y, z'
loop_
 _atom_site_type_symbol
 _atom_site_label
 _atom_site_symmetry_multiplicity
 _atom_site_fract_x
 _atom_site_fract_y
 _atom_site_fract_z
 _atom_site_occupancy
  Ac  Ac0  1  0.526389  0.218946  0.362170  1
  Pr  Pr1  1  0.475165  0.605905  0.539388  1
  Pr  Pr2  1  0.976883  0.896914  0.462187  1
  Pr  Pr3  1  0.521849  0.103248  0.960530  1
  Pr  Pr4  1  0.024761  0.395840  0.037850  1
  Pr  Pr5  1  0.966770  0.779328  0.865895  1
  Pr  Pr6  1  0.466568  0.717616  0.132072  1
  Pr  Pr7  1  0.030864  0.282203  0.634667  1
  W  W8  1  0.458471  0.995528  0.649182  1
  W  W9  1  0.959734  0.507450  0.353810  1
  W  W10  1  0.541249  0.496246  0.853083  1
  W  W11  1  0.039929  0.999809  0.143689  1
  O  O12  1  0.245463  0.087330  0.513392  1
  O  O13  1  0.752088  0.416358  0.491508  1
  O  O14  1  0.750027  0.587892  0.990580  1
  O  O15  1  0.247963  0.908327  0.006987  1
  O  O16  1  0.722150  0.110499  0.570183  1
  O  O17  1  0.216783  0.393266  0.440027  1
  O  O18  1  0.278676  0.610644  0.934966  1
  O  O19  1  0.777631  0.886324  0.063626  1
  O  O20  1  0.572053  0.850953  0.526154  1
  O  O21  1  0.075244  0.655145  0.472071  1
  O  O22  1  0.428790  0.349550  0.973720  1
  O  O23  1  0.921236  0.149988  0.027333  1
  O  O24  1  0.188594  0.863749  0.257889  1
  O  O25  1  0.682962  0.636829  0.741039  1
  O  O26  1  0.826332  0.365643  0.240474  1
  O  O27  1  0.316429  0.137347  0.759830  1
  O  O28  1  0.837141  0.046035  0.286346  1
  O  O29  1  0.331080  0.450253  0.713621  1
  O  O30  1  0.174285  0.550347  0.214172  1
  O  O31  1  0.665498  0.946864  0.789056  1
  O  O32  1  0.305965  0.132542  0.168569  1
  O  O33  1  0.808896  0.365663  0.822200  1
  O  O34  1  0.692393  0.636622  0.321870  1
  O  O35  1  0.193687  0.862798  0.679865  1
