# generated using pymatgen
data_Tb4Er4Ti5Ge16Mo7
_symmetry_space_group_name_H-M   'P 1'
_cell_length_a   6.89414165
_cell_length_b   7.06540010
_cell_length_c   13.32664003
_cell_angle_alpha   89.98991967
_cell_angle_beta   89.97602052
_cell_angle_gamma   90.02527056
_symmetry_Int_Tables_number   1
_chemical_formula_structural   Tb4Er4Ti5Ge16Mo7
_chemical_formula_sum   'Tb4 Er4 Ti5 Ge16 Mo7'
_cell_volume   649.13876108
_cell_formula_units_Z   1
loop_
 _symmetry_equiv_pos_site_id
 _symmetry_equiv_pos_as_xyz
  1  'x, y, z'
loop_
 _atom_site_type_symbol
 _atom_site_label
 _atom_site_symmetry_multiplicity
 _atom_site_fract_x
 _atom_site_fract_y
 _atom_site_fract_z
 _atom_site_occupancy
  Tb  Tb0  1  0.993873  0.828954  0.594115  1
  Tb  Tb1  1  0.495657  0.672755  0.905583  1
  Tb  Tb2  1  0.506354  0.329720  0.406162  1
  Tb  Tb3  1  0.006199  0.169615  0.095591  1
  Er  Er4  1  0.004783  0.174225  0.405149  1
  Er  Er5  1  0.504473  0.326118  0.094628  1
  Er  Er6  1  0.495245  0.675028  0.595248  1
  Er  Er7  1  0.995172  0.828082  0.905029  1
  Ti  Ti8  1  0.161983  0.331833  0.872810  1
  Ti  Ti9  1  0.158138  0.332213  0.626690  1
  Ti  Ti10  1  0.662449  0.166438  0.872169  1
  Ti  Ti11  1  0.840451  0.667338  0.127669  1
  Ti  Ti12  1  0.340566  0.833147  0.372494  1
  Ge  Ge13  1  0.328542  0.044108  0.544489  1
  Ge  Ge14  1  0.826302  0.456366  0.956239  1
  Ge  Ge15  1  0.670948  0.955556  0.044648  1
  Ge  Ge16  1  0.171094  0.544293  0.455827  1
  Ge  Ge17  1  0.172873  0.542986  0.043893  1
  Ge  Ge18  1  0.672605  0.955278  0.455916  1
  Ge  Ge19  1  0.826246  0.456574  0.544105  1
  Ge  Ge20  1  0.327201  0.044690  0.956910  1
  Ge  Ge21  1  0.808848  0.365330  0.248888  1
  Ge  Ge22  1  0.309658  0.135593  0.251127  1
  Ge  Ge23  1  0.690834  0.864664  0.750392  1
  Ge  Ge24  1  0.192963  0.635799  0.749956  1
  Ge  Ge25  1  0.036351  0.871054  0.251796  1
  Ge  Ge26  1  0.536701  0.628562  0.248728  1
  Ge  Ge27  1  0.463660  0.370087  0.748902  1
  Ge  Ge28  1  0.962072  0.127733  0.750503  1
  Mo  Mo29  1  0.335196  0.833929  0.126871  1
  Mo  Mo30  1  0.835455  0.664686  0.374282  1
  Mo  Mo31  1  0.665512  0.165698  0.624725  1
  Mo  Mo32  1  0.332743  0.011137  0.749115  1
  Mo  Mo33  1  0.666934  0.987933  0.250088  1
  Mo  Mo34  1  0.167204  0.513202  0.250338  1
  Mo  Mo35  1  0.834716  0.489276  0.748925  1
