# generated using pymatgen
data_TbPr3Ga18Ir5Pt
_symmetry_space_group_name_H-M   'P 1'
_cell_length_a   7.66553579
_cell_length_b   7.67526470
_cell_length_c   9.59905905
_cell_angle_alpha   89.99308984
_cell_angle_beta   89.97516661
_cell_angle_gamma   119.67781513
_symmetry_Int_Tables_number   1
_chemical_formula_structural   TbPr3Ga18Ir5Pt
_chemical_formula_sum   'Tb1 Pr3 Ga18 Ir5 Pt1'
_cell_volume   490.67724983
_cell_formula_units_Z   1
loop_
 _symmetry_equiv_pos_site_id
 _symmetry_equiv_pos_as_xyz
  1  'x, y, z'
loop_
 _atom_site_type_symbol
 _atom_site_label
 _atom_site_symmetry_multiplicity
 _atom_site_fract_x
 _atom_site_fract_y
 _atom_site_fract_z
 _atom_site_occupancy
  Tb  Tb0  1  0.331318  0.003427  0.749234  1
  Pr  Pr1  1  0.995949  0.667928  0.250348  1
  Pr  Pr2  1  0.001410  0.330356  0.749685  1
  Pr  Pr3  1  0.669373  0.998031  0.250389  1
  Ga  Ga4  1  0.129700  0.127717  0.250321  1
  Ga  Ga5  1  0.874339  0.871551  0.749720  1
  Ga  Ga6  1  0.006530  0.334581  0.079585  1
  Ga  Ga7  1  0.004914  0.671895  0.917845  1
  Ga  Ga8  1  0.001397  0.668041  0.580073  1
  Ga  Ga9  1  0.334440  0.001030  0.424748  1
  Ga  Ga10  1  0.002413  0.334732  0.422252  1
  Ga  Ga11  1  0.662365  0.998003  0.580481  1
  Ga  Ga12  1  0.662533  0.994026  0.917709  1
  Ga  Ga13  1  0.331046  0.998037  0.077170  1
  Ga  Ga14  1  0.332772  0.330786  0.561803  1
  Ga  Ga15  1  0.667058  0.667335  0.442035  1
  Ga  Ga16  1  0.666505  0.669965  0.061064  1
  Ga  Ga17  1  0.330419  0.331326  0.935113  1
  Ga  Ga18  1  0.340454  0.545982  0.250494  1
  Ga  Ga19  1  0.657741  0.455113  0.747634  1
  Ga  Ga20  1  0.541593  0.338997  0.252593  1
  Ga  Ga21  1  0.454017  0.661226  0.749540  1
  Ir  Ir22  1  0.329635  0.670227  0.999226  1
  Ir  Ir23  1  0.329158  0.670842  0.500769  1
  Ir  Ir24  1  0.670830  0.328888  0.500802  1
  Ir  Ir25  1  0.000795  0.000209  0.998904  1
  Ir  Ir26  1  0.000427  0.000601  0.501130  1
  Pt  Pt27  1  0.670869  0.329148  0.999334  1
