# generated using pymatgen
data_Tb3Fe8Co3B4
_symmetry_space_group_name_H-M   'P 1'
_cell_length_a   5.06012306
_cell_length_b   5.05885278
_cell_length_c   9.97797700
_cell_angle_alpha   89.99984585
_cell_angle_beta   90.00013813
_cell_angle_gamma   119.99023986
_symmetry_Int_Tables_number   1
_chemical_formula_structural   Tb3Fe8Co3B4
_chemical_formula_sum   'Tb3 Fe8 Co3 B4'
_cell_volume   221.22232611
_cell_formula_units_Z   1
loop_
 _symmetry_equiv_pos_site_id
 _symmetry_equiv_pos_as_xyz
  1  'x, y, z'
loop_
 _atom_site_type_symbol
 _atom_site_label
 _atom_site_symmetry_multiplicity
 _atom_site_fract_x
 _atom_site_fract_y
 _atom_site_fract_z
 _atom_site_occupancy
  Tb  Tb0  1  0.999986  0.000000  0.000055  1
  Tb  Tb1  1  0.999994  0.000000  0.348496  1
  Tb  Tb2  1  0.000001  0.000000  0.651432  1
  Fe  Fe3  1  0.333326  0.666647  0.000060  1
  Fe  Fe4  1  0.666647  0.333353  0.000059  1
  Fe  Fe5  1  0.499988  0.999995  0.202716  1
  Fe  Fe6  1  0.499988  0.500002  0.202703  1
  Fe  Fe7  1  0.999996  0.500003  0.202705  1
  Fe  Fe8  1  0.499996  0.999994  0.797336  1
  Fe  Fe9  1  0.499995  0.500003  0.797310  1
  Fe  Fe10  1  0.000004  0.500003  0.797307  1
  Co  Co11  1  0.499998  0.999999  0.499946  1
  Co  Co12  1  0.499998  0.500000  0.499981  1
  Co  Co13  1  0.999999  0.500000  0.499981  1
  B  B14  1  0.333330  0.666632  0.353024  1
  B  B15  1  0.666657  0.333368  0.353025  1
  B  B16  1  0.666603  0.333260  0.646932  1
  B  B17  1  0.333396  0.666740  0.646933  1
