# generated using pymatgen
data_LaYb10Gd9Si16
_symmetry_space_group_name_H-M   'P 1'
_cell_length_a   7.43850201
_cell_length_b   7.83165312
_cell_length_c   15.11953500
_cell_angle_alpha   90.01011792
_cell_angle_beta   89.87045762
_cell_angle_gamma   90.07093596
_symmetry_Int_Tables_number   1
_chemical_formula_structural   LaYb10Gd9Si16
_chemical_formula_sum   'La1 Yb10 Gd9 Si16'
_cell_volume   880.79717600
_cell_formula_units_Z   1
loop_
 _symmetry_equiv_pos_site_id
 _symmetry_equiv_pos_as_xyz
  1  'x, y, z'
loop_
 _atom_site_type_symbol
 _atom_site_label
 _atom_site_symmetry_multiplicity
 _atom_site_fract_x
 _atom_site_fract_y
 _atom_site_fract_z
 _atom_site_occupancy
  La  La0  1  0.475997  0.679270  0.097133  1
  Yb  Yb1  1  0.528998  0.315831  0.595437  1
  Yb  Yb2  1  0.024700  0.184279  0.904713  1
  Yb  Yb3  1  0.028896  0.185477  0.594518  1
  Yb  Yb4  1  0.526154  0.317189  0.904313  1
  Yb  Yb5  1  0.473798  0.681557  0.402402  1
  Yb  Yb6  1  0.973958  0.819338  0.097871  1
  Yb  Yb7  1  0.354484  0.020870  0.749375  1
  Yb  Yb8  1  0.852432  0.480571  0.749493  1
  Yb  Yb9  1  0.144619  0.513515  0.250831  1
  Yb  Yb10  1  0.644417  0.984242  0.250668  1
  Gd  Gd11  1  0.314667  0.178403  0.123402  1
  Gd  Gd12  1  0.816289  0.319358  0.377758  1
  Gd  Gd13  1  0.183735  0.678001  0.878525  1
  Gd  Gd14  1  0.685880  0.823600  0.621156  1
  Gd  Gd15  1  0.315406  0.178759  0.378885  1
  Gd  Gd16  1  0.815850  0.318201  0.122664  1
  Gd  Gd17  1  0.185745  0.676600  0.621539  1
  Gd  Gd18  1  0.685512  0.824529  0.877822  1
  Gd  Gd19  1  0.970537  0.814381  0.400689  1
  Si  Si20  1  0.857133  0.538502  0.534797  1
  Si  Si21  1  0.355962  0.967365  0.963877  1
  Si  Si22  1  0.645640  0.026578  0.459730  1
  Si  Si23  1  0.141442  0.469483  0.039098  1
  Si  Si24  1  0.140227  0.474939  0.459159  1
  Si  Si25  1  0.640095  0.030782  0.038822  1
  Si  Si26  1  0.357565  0.965407  0.536677  1
  Si  Si27  1  0.854715  0.535118  0.964071  1
  Si  Si28  1  0.978258  0.891074  0.749432  1
  Si  Si29  1  0.477631  0.610597  0.750025  1
  Si  Si30  1  0.524425  0.392294  0.250901  1
  Si  Si31  1  0.022179  0.105033  0.252260  1
  Si  Si32  1  0.248326  0.391605  0.749923  1
  Si  Si33  1  0.749163  0.109660  0.749032  1
  Si  Si34  1  0.250430  0.885359  0.251437  1
  Si  Si35  1  0.754731  0.612228  0.251566  1
