# generated using pymatgen
data_Sr2MnCrF10
_symmetry_space_group_name_H-M   'P 1'
_cell_length_a   5.77575491
_cell_length_b   5.81348697
_cell_length_c   8.09925392
_cell_angle_alpha   69.28118584
_cell_angle_beta   70.36145820
_cell_angle_gamma   70.92171900
_symmetry_Int_Tables_number   1
_chemical_formula_structural   Sr2MnCrF10
_chemical_formula_sum   'Sr2 Mn1 Cr1 F10'
_cell_volume   232.79624787
_cell_formula_units_Z   1
loop_
 _symmetry_equiv_pos_site_id
 _symmetry_equiv_pos_as_xyz
  1  'x, y, z'
loop_
 _atom_site_type_symbol
 _atom_site_label
 _atom_site_symmetry_multiplicity
 _atom_site_fract_x
 _atom_site_fract_y
 _atom_site_fract_z
 _atom_site_occupancy
  Sr  Sr0  1  0.544669  0.452829  0.253831  1
  Sr  Sr1  1  0.455331  0.547171  0.746169  1
  Mn  Mn2  1  0.000000  0.000000  0.000000  1
  Cr  Cr3  1  0.000000  0.000000  0.500000  1
  F  F4  1  0.074388  0.925054  0.738625  1
  F  F5  1  0.925612  0.074946  0.261375  1
  F  F6  1  0.202976  0.230065  0.893097  1
  F  F7  1  0.761865  0.790406  0.611561  1
  F  F8  1  0.720333  0.295808  0.531531  1
  F  F9  1  0.707652  0.275540  0.972233  1
  F  F10  1  0.279667  0.704192  0.468469  1
  F  F11  1  0.292348  0.724460  0.027767  1
  F  F12  1  0.238135  0.209594  0.388439  1
  F  F13  1  0.797024  0.769935  0.106903  1
