# generated using pymatgen
data_Nd4MnCo19As12
_symmetry_space_group_name_H-M   'P 1'
_cell_length_a   3.85857200
_cell_length_b   10.81138331
_cell_length_c   12.32206438
_cell_angle_alpha   89.83079939
_cell_angle_beta   90.00000000
_cell_angle_gamma   90.00000000
_symmetry_Int_Tables_number   1
_chemical_formula_structural   Nd4MnCo19As12
_chemical_formula_sum   'Nd4 Mn1 Co19 As12'
_cell_volume   514.03116854
_cell_formula_units_Z   1
loop_
 _symmetry_equiv_pos_site_id
 _symmetry_equiv_pos_as_xyz
  1  'x, y, z'
loop_
 _atom_site_type_symbol
 _atom_site_label
 _atom_site_symmetry_multiplicity
 _atom_site_fract_x
 _atom_site_fract_y
 _atom_site_fract_z
 _atom_site_occupancy
  Nd  Nd0  1  0.250000  0.581697  0.699312  1
  Nd  Nd1  1  0.250000  0.919369  0.201863  1
  Nd  Nd2  1  0.750000  0.418241  0.299679  1
  Nd  Nd3  1  0.750000  0.082988  0.797277  1
  Mn  Mn4  1  0.250000  0.701530  0.990052  1
  Co  Co5  1  0.250000  0.790283  0.491142  1
  Co  Co6  1  0.750000  0.295483  0.009797  1
  Co  Co7  1  0.750000  0.209126  0.508937  1
  Co  Co8  1  0.250000  0.405040  0.489831  1
  Co  Co9  1  0.250000  0.096075  0.989229  1
  Co  Co10  1  0.750000  0.593987  0.511492  1
  Co  Co11  1  0.750000  0.906254  0.011230  1
  Co  Co12  1  0.250000  0.216505  0.176038  1
  Co  Co13  1  0.250000  0.283518  0.675735  1
  Co  Co14  1  0.750000  0.783104  0.823158  1
  Co  Co15  1  0.750000  0.715913  0.326387  1
  Co  Co16  1  0.250000  0.884157  0.695543  1
  Co  Co17  1  0.250000  0.617032  0.197258  1
  Co  Co18  1  0.750000  0.116762  0.303742  1
  Co  Co19  1  0.750000  0.382513  0.803569  1
  Co  Co20  1  0.250000  0.467917  0.933538  1
  Co  Co21  1  0.250000  0.029413  0.432621  1
  Co  Co22  1  0.750000  0.530460  0.065987  1
  Co  Co23  1  0.750000  0.970644  0.566541  1
  As  As24  1  0.250000  0.416638  0.113748  1
  As  As25  1  0.250000  0.084134  0.611416  1
  As  As26  1  0.750000  0.581697  0.884542  1
  As  As27  1  0.750000  0.915997  0.387995  1
  As  As28  1  0.250000  0.271980  0.868271  1
  As  As29  1  0.250000  0.226679  0.369725  1
  As  As30  1  0.750000  0.727511  0.134940  1
  As  As31  1  0.750000  0.773672  0.630134  1
  As  As32  1  0.250000  0.602834  0.394074  1
  As  As33  1  0.250000  0.900332  0.890822  1
  As  As34  1  0.750000  0.395614  0.607279  1
  As  As35  1  0.750000  0.104900  0.107095  1
