# generated using pymatgen
data_Sr4Tb7DySe16
_symmetry_space_group_name_H-M   'P 1'
_cell_length_a   4.16598300
_cell_length_b   12.67317304
_cell_length_c   15.06721005
_cell_angle_alpha   89.99048508
_cell_angle_beta   90.00000000
_cell_angle_gamma   90.00000000
_symmetry_Int_Tables_number   1
_chemical_formula_structural   Sr4Tb7DySe16
_chemical_formula_sum   'Sr4 Tb7 Dy1 Se16'
_cell_volume   795.49177779
_cell_formula_units_Z   1
loop_
 _symmetry_equiv_pos_site_id
 _symmetry_equiv_pos_as_xyz
  1  'x, y, z'
loop_
 _atom_site_type_symbol
 _atom_site_label
 _atom_site_symmetry_multiplicity
 _atom_site_fract_x
 _atom_site_fract_y
 _atom_site_fract_z
 _atom_site_occupancy
  Sr  Sr0  1  0.250000  0.758563  0.664512  1
  Sr  Sr1  1  0.750000  0.741391  0.164427  1
  Sr  Sr2  1  0.250000  0.258644  0.835551  1
  Sr  Sr3  1  0.750000  0.241406  0.335526  1
  Tb  Tb4  1  0.250000  0.433681  0.609788  1
  Tb  Tb5  1  0.750000  0.066363  0.109723  1
  Tb  Tb6  1  0.250000  0.933559  0.890289  1
  Tb  Tb7  1  0.750000  0.566366  0.390274  1
  Tb  Tb8  1  0.250000  0.419777  0.098900  1
  Tb  Tb9  1  0.750000  0.080287  0.598977  1
  Tb  Tb10  1  0.250000  0.919708  0.401025  1
  Dy  Dy11  1  0.750000  0.580158  0.900983  1
  Se  Se12  1  0.250000  0.411967  0.421100  1
  Se  Se13  1  0.750000  0.088024  0.921091  1
  Se  Se14  1  0.250000  0.912000  0.078921  1
  Se  Se15  1  0.750000  0.588007  0.578932  1
  Se  Se16  1  0.250000  0.024143  0.716257  1
  Se  Se17  1  0.750000  0.475849  0.216254  1
  Se  Se18  1  0.250000  0.524458  0.784352  1
  Se  Se19  1  0.750000  0.975833  0.283755  1
  Se  Se20  1  0.250000  0.131704  0.472096  1
  Se  Se21  1  0.750000  0.368795  0.971846  1
  Se  Se22  1  0.250000  0.631502  0.027334  1
  Se  Se23  1  0.750000  0.868299  0.527906  1
  Se  Se24  1  0.250000  0.207527  0.174390  1
  Se  Se25  1  0.750000  0.292481  0.674391  1
  Se  Se26  1  0.250000  0.707535  0.325603  1
  Se  Se27  1  0.750000  0.791971  0.825798  1
