# generated using pymatgen
data_Sm3Y(SnRh2)8
_symmetry_space_group_name_H-M   'P 1'
_cell_length_a   4.41861700
_cell_length_b   9.77956419
_cell_length_c   11.90144739
_cell_angle_alpha   90.44374060
_cell_angle_beta   90.00000000
_cell_angle_gamma   90.00000000
_symmetry_Int_Tables_number   1
_chemical_formula_structural   Sm3Y(SnRh2)8
_chemical_formula_sum   'Sm3 Y1 Sn8 Rh16'
_cell_volume   514.27168954
_cell_formula_units_Z   1
loop_
 _symmetry_equiv_pos_site_id
 _symmetry_equiv_pos_as_xyz
  1  'x, y, z'
loop_
 _atom_site_type_symbol
 _atom_site_label
 _atom_site_symmetry_multiplicity
 _atom_site_fract_x
 _atom_site_fract_y
 _atom_site_fract_z
 _atom_site_occupancy
  Sm  Sm0  1  0.250000  0.151471  0.826453  1
  Sm  Sm1  1  0.250000  0.348559  0.327429  1
  Sm  Sm2  1  0.750000  0.847673  0.173252  1
  Y  Y3  1  0.750000  0.651213  0.672777  1
  Sn  Sn4  1  0.250000  0.415671  0.637785  1
  Sn  Sn5  1  0.250000  0.085832  0.136890  1
  Sn  Sn6  1  0.750000  0.586343  0.363681  1
  Sn  Sn7  1  0.750000  0.912384  0.861175  1
  Sn  Sn8  1  0.250000  0.616733  0.063582  1
  Sn  Sn9  1  0.250000  0.884979  0.563961  1
  Sn  Sn10  1  0.750000  0.383338  0.936756  1
  Sn  Sn11  1  0.750000  0.116658  0.436391  1
  Rh  Rh12  1  0.250000  0.620864  0.498861  1
  Rh  Rh13  1  0.250000  0.881071  0.994053  1
  Rh  Rh14  1  0.750000  0.382707  0.504656  1
  Rh  Rh15  1  0.750000  0.117756  0.003479  1
  Rh  Rh16  1  0.250000  0.707236  0.276767  1
  Rh  Rh17  1  0.250000  0.787158  0.773144  1
  Rh  Rh18  1  0.750000  0.292248  0.724248  1
  Rh  Rh19  1  0.750000  0.209000  0.224245  1
  Rh  Rh20  1  0.250000  0.168203  0.563730  1
  Rh  Rh21  1  0.250000  0.332515  0.063671  1
  Rh  Rh22  1  0.750000  0.833415  0.437088  1
  Rh  Rh23  1  0.750000  0.666270  0.935746  1
  Rh  Rh24  1  0.250000  0.994507  0.344389  1
  Rh  Rh25  1  0.250000  0.504791  0.845088  1
  Rh  Rh26  1  0.750000  0.006211  0.655294  1
  Rh  Rh27  1  0.750000  0.495193  0.155409  1
