# generated using pymatgen
data_ErTmFe10Ni2P7
_symmetry_space_group_name_H-M   'P 1'
_cell_length_a   8.99278328
_cell_length_b   8.98556651
_cell_length_c   3.60789800
_cell_angle_alpha   90.00000000
_cell_angle_beta   90.00000000
_cell_angle_gamma   120.30681546
_symmetry_Int_Tables_number   1
_chemical_formula_structural   ErTmFe10Ni2P7
_chemical_formula_sum   'Er1 Tm1 Fe10 Ni2 P7'
_cell_volume   251.69434367
_cell_formula_units_Z   1
loop_
 _symmetry_equiv_pos_site_id
 _symmetry_equiv_pos_as_xyz
  1  'x, y, z'
loop_
 _atom_site_type_symbol
 _atom_site_label
 _atom_site_symmetry_multiplicity
 _atom_site_fract_x
 _atom_site_fract_y
 _atom_site_fract_z
 _atom_site_occupancy
  Er  Er0  1  0.999132  0.999402  0.000000  1
  Tm  Tm1  1  0.336235  0.669749  0.500000  1
  Fe  Fe2  1  0.605819  0.903403  0.000000  1
  Fe  Fe3  1  0.819696  0.213369  0.000000  1
  Fe  Fe4  1  0.784238  0.605484  0.000000  1
  Fe  Fe5  1  0.392402  0.178266  0.000000  1
  Fe  Fe6  1  0.053896  0.285020  0.500000  1
  Fe  Fe7  1  0.715788  0.769176  0.500000  1
  Fe  Fe8  1  0.230704  0.943806  0.500000  1
  Fe  Fe9  1  0.889686  0.457413  0.500000  1
  Fe  Fe10  1  0.540033  0.432786  0.500000  1
  Fe  Fe11  1  0.568504  0.112763  0.500000  1
  Ni  Ni12  1  0.099393  0.701768  0.000000  1
  Ni  Ni13  1  0.298262  0.396220  0.000000  1
  P  P14  1  0.074112  0.441388  0.000000  1
  P  P15  1  0.560024  0.636182  0.000000  1
  P  P16  1  0.373571  0.928324  0.000000  1
  P  P17  1  0.780211  0.045340  0.500000  1
  P  P18  1  0.950295  0.736361  0.500000  1
  P  P19  1  0.262250  0.211625  0.500000  1
  P  P20  1  0.665748  0.332154  0.000000  1
