# generated using pymatgen
data_DyU(Re2Si)4
_symmetry_space_group_name_H-M   'P 1'
_cell_length_a   7.44714566
_cell_length_b   7.44714596
_cell_length_c   4.10250800
_cell_angle_alpha   90.00000000
_cell_angle_beta   90.00000000
_cell_angle_gamma   89.50148041
_symmetry_Int_Tables_number   1
_chemical_formula_structural   DyU(Re2Si)4
_chemical_formula_sum   'Dy1 U1 Re8 Si4'
_cell_volume   227.51640242
_cell_formula_units_Z   1
loop_
 _symmetry_equiv_pos_site_id
 _symmetry_equiv_pos_as_xyz
  1  'x, y, z'
loop_
 _atom_site_type_symbol
 _atom_site_label
 _atom_site_symmetry_multiplicity
 _atom_site_fract_x
 _atom_site_fract_y
 _atom_site_fract_z
 _atom_site_occupancy
  Dy  Dy0  1  0.500000  0.500000  0.000000  1
  U  U1  1  0.000000  0.000000  0.500000  1
  Re  Re2  1  0.594516  0.153247  0.500000  1
  Re  Re3  1  0.405484  0.846753  0.500000  1
  Re  Re4  1  0.090788  0.337954  0.000000  1
  Re  Re5  1  0.909212  0.662046  0.000000  1
  Re  Re6  1  0.153247  0.594516  0.500000  1
  Re  Re7  1  0.846753  0.405484  0.500000  1
  Re  Re8  1  0.337954  0.090788  0.000000  1
  Re  Re9  1  0.662046  0.909212  0.000000  1
  Si  Si10  1  0.707506  0.707506  0.500000  1
  Si  Si11  1  0.292494  0.292494  0.500000  1
  Si  Si12  1  0.211679  0.788321  0.000000  1
  Si  Si13  1  0.788321  0.211679  0.000000  1
