# generated using pymatgen
data_Dy15MgPaCd3Co4
_symmetry_space_group_name_H-M   'P 1'
_cell_length_a   9.45693119
_cell_length_b   9.58848068
_cell_length_c   9.45693200
_cell_angle_alpha   60.45281429
_cell_angle_beta   60.00000417
_cell_angle_gamma   60.45281293
_symmetry_Int_Tables_number   1
_chemical_formula_structural   Dy15MgPaCd3Co4
_chemical_formula_sum   'Dy15 Mg1 Pa1 Cd3 Co4'
_cell_volume   610.48370697
_cell_formula_units_Z   1
loop_
 _symmetry_equiv_pos_site_id
 _symmetry_equiv_pos_as_xyz
  1  'x, y, z'
loop_
 _atom_site_type_symbol
 _atom_site_label
 _atom_site_symmetry_multiplicity
 _atom_site_fract_x
 _atom_site_fract_y
 _atom_site_fract_z
 _atom_site_occupancy
  Dy  Dy0  1  0.685863  0.316520  0.685863  1
  Dy  Dy1  1  0.685863  0.316520  0.311754  1
  Dy  Dy2  1  0.938059  0.564096  0.559786  1
  Dy  Dy3  1  0.539250  0.149876  0.155437  1
  Dy  Dy4  1  0.155437  0.149876  0.539250  1
  Dy  Dy5  1  0.936647  0.934237  0.564559  1
  Dy  Dy6  1  0.310567  0.691357  0.310567  1
  Dy  Dy7  1  0.564559  0.934237  0.936647  1
  Dy  Dy8  1  0.564559  0.934237  0.564559  1
  Dy  Dy9  1  0.687509  0.691357  0.310567  1
  Dy  Dy10  1  0.559786  0.564096  0.938059  1
  Dy  Dy11  1  0.938059  0.564096  0.938059  1
  Dy  Dy12  1  0.310567  0.691357  0.687509  1
  Dy  Dy13  1  0.155437  0.149876  0.155437  1
  Dy  Dy14  1  0.311754  0.316520  0.685863  1
  Mg  Mg15  1  0.924364  0.226909  0.924364  1
  Pa  Pa16  1  0.164378  0.506864  0.164378  1
  Cd  Cd17  1  0.920484  0.915712  0.920484  1
  Cd  Cd18  1  0.920484  0.915712  0.243319  1
  Cd  Cd19  1  0.243319  0.915712  0.920484  1
  Co  Co20  1  0.343944  0.376722  0.935393  1
  Co  Co21  1  0.359777  0.920669  0.359777  1
  Co  Co22  1  0.935393  0.376722  0.343944  1
  Co  Co23  1  0.343944  0.376722  0.343944  1
