# generated using pymatgen
data_YEr3(MoO6)2
_symmetry_space_group_name_H-M   'P 1'
_cell_length_a   5.35190400
_cell_length_b   7.65953612
_cell_length_c   11.40413317
_cell_angle_alpha   75.41550332
_cell_angle_beta   90.00000000
_cell_angle_gamma   90.00000000
_symmetry_Int_Tables_number   1
_chemical_formula_structural   YEr3(MoO6)2
_chemical_formula_sum   'Y2 Er6 Mo4 O24'
_cell_volume   452.42699778
_cell_formula_units_Z   2
loop_
 _symmetry_equiv_pos_site_id
 _symmetry_equiv_pos_as_xyz
  1  'x, y, z'
loop_
 _atom_site_type_symbol
 _atom_site_label
 _atom_site_symmetry_multiplicity
 _atom_site_fract_x
 _atom_site_fract_y
 _atom_site_fract_z
 _atom_site_occupancy
  Y  Y0  1  0.682280  0.500000  0.750000  1
  Y  Y1  1  0.317720  0.500000  0.250000  1
  Er  Er2  1  0.738359  0.000000  0.750000  1
  Er  Er3  1  0.261641  0.000000  0.250000  1
  Er  Er4  1  0.185313  0.798724  0.578470  1
  Er  Er5  1  0.814687  0.798724  0.078470  1
  Er  Er6  1  0.185313  0.201276  0.921530  1
  Er  Er7  1  0.814687  0.201276  0.421530  1
  Mo  Mo8  1  0.254190  0.722007  0.886720  1
  Mo  Mo9  1  0.745810  0.722007  0.386720  1
  Mo  Mo10  1  0.254190  0.277993  0.613280  1
  Mo  Mo11  1  0.745810  0.277993  0.113280  1
  O  O12  1  0.035588  0.940009  0.896479  1
  O  O13  1  0.528504  0.849609  0.930280  1
  O  O14  1  0.964412  0.940009  0.396479  1
  O  O15  1  0.464258  0.789069  0.725524  1
  O  O16  1  0.471496  0.849609  0.430280  1
  O  O17  1  0.984727  0.712469  0.769609  1
  O  O18  1  0.535742  0.789069  0.225524  1
  O  O19  1  0.850343  0.634946  0.548436  1
  O  O20  1  0.356890  0.489733  0.887616  1
  O  O21  1  0.015273  0.712469  0.269609  1
  O  O22  1  0.356890  0.510267  0.612384  1
  O  O23  1  0.850343  0.365054  0.951564  1
  O  O24  1  0.149657  0.634946  0.048436  1
  O  O25  1  0.643110  0.489733  0.387616  1
  O  O26  1  0.984727  0.287531  0.730391  1
  O  O27  1  0.643110  0.510267  0.112384  1
  O  O28  1  0.149657  0.365054  0.451564  1
  O  O29  1  0.464258  0.210931  0.774476  1
  O  O30  1  0.015273  0.287531  0.230391  1
  O  O31  1  0.528504  0.150391  0.569720  1
  O  O32  1  0.535742  0.210931  0.274476  1
  O  O33  1  0.035588  0.059991  0.603521  1
  O  O34  1  0.471496  0.150391  0.069720  1
  O  O35  1  0.964412  0.059991  0.103521  1
