# generated using pymatgen
data_TbGaCo2NiB
_symmetry_space_group_name_H-M   'P 1'
_cell_length_a   5.20775700
_cell_length_b   5.15160636
_cell_length_c   6.68277400
_cell_angle_alpha   90.00000000
_cell_angle_beta   90.00000000
_cell_angle_gamma   120.36124913
_symmetry_Int_Tables_number   1
_chemical_formula_structural   TbGaCo2NiB
_chemical_formula_sum   'Tb2 Ga2 Co4 Ni2 B2'
_cell_volume   154.69929599
_cell_formula_units_Z   2
loop_
 _symmetry_equiv_pos_site_id
 _symmetry_equiv_pos_as_xyz
  1  'x, y, z'
loop_
 _atom_site_type_symbol
 _atom_site_label
 _atom_site_symmetry_multiplicity
 _atom_site_fract_x
 _atom_site_fract_y
 _atom_site_fract_z
 _atom_site_occupancy
  Tb  Tb0  1  0.999983  0.000000  0.000000  1
  Tb  Tb1  1  0.000046  0.000000  0.500000  1
  Ga  Ga2  1  0.330710  0.661462  0.000000  1
  Ga  Ga3  1  0.669248  0.338538  0.000000  1
  Co  Co4  1  0.499987  0.500003  0.295992  1
  Co  Co5  1  0.999983  0.499997  0.295992  1
  Co  Co6  1  0.499987  0.500003  0.704008  1
  Co  Co7  1  0.999983  0.499997  0.704008  1
  Ni  Ni8  1  0.499979  0.000000  0.295185  1
  Ni  Ni9  1  0.499979  0.000000  0.704815  1
  B  B10  1  0.326543  0.653175  0.500000  1
  B  B11  1  0.673369  0.346825  0.500000  1
