# generated using pymatgen
data_YTm(FeOs)2
_symmetry_space_group_name_H-M   'P 1'
_cell_length_a   5.21725828
_cell_length_b   5.26787349
_cell_length_c   5.26787431
_cell_angle_alpha   59.62551797
_cell_angle_beta   60.31735035
_cell_angle_gamma   60.31733642
_symmetry_Int_Tables_number   1
_chemical_formula_structural   YTm(FeOs)2
_chemical_formula_sum   'Y1 Tm1 Fe2 Os2'
_cell_volume   102.56729520
_cell_formula_units_Z   1
loop_
 _symmetry_equiv_pos_site_id
 _symmetry_equiv_pos_as_xyz
  1  'x, y, z'
loop_
 _atom_site_type_symbol
 _atom_site_label
 _atom_site_symmetry_multiplicity
 _atom_site_fract_x
 _atom_site_fract_y
 _atom_site_fract_z
 _atom_site_occupancy
  Y  Y0  1  0.997938  0.002062  0.002062  1
  Tm  Tm1  1  0.252421  0.247579  0.247579  1
  Fe  Fe2  1  0.125235  0.625019  0.625019  1
  Fe  Fe3  1  0.624727  0.625019  0.625019  1
  Os  Os4  1  0.624839  0.624955  0.125367  1
  Os  Os5  1  0.624839  0.125367  0.624955  1
