# generated using pymatgen
data_CeDy15(AlRu)4
_symmetry_space_group_name_H-M   'P 1'
_cell_length_a   9.58429367
_cell_length_b   9.58414001
_cell_length_c   9.58409745
_cell_angle_alpha   59.50944207
_cell_angle_beta   59.51470399
_cell_angle_gamma   59.51563039
_symmetry_Int_Tables_number   1
_chemical_formula_structural   CeDy15(AlRu)4
_chemical_formula_sum   'Ce1 Dy15 Al4 Ru4'
_cell_volume   615.62395803
_cell_formula_units_Z   1
loop_
 _symmetry_equiv_pos_site_id
 _symmetry_equiv_pos_as_xyz
  1  'x, y, z'
loop_
 _atom_site_type_symbol
 _atom_site_label
 _atom_site_symmetry_multiplicity
 _atom_site_fract_x
 _atom_site_fract_y
 _atom_site_fract_z
 _atom_site_occupancy
  Ce  Ce0  1  0.344361  0.344374  0.344371  1
  Dy  Dy1  1  0.561530  0.561518  0.937532  1
  Dy  Dy2  1  0.939722  0.560033  0.939721  1
  Dy  Dy3  1  0.560037  0.939725  0.939724  1
  Dy  Dy4  1  0.939720  0.939719  0.560037  1
  Dy  Dy5  1  0.561532  0.937533  0.561517  1
  Dy  Dy6  1  0.937529  0.561530  0.561529  1
  Dy  Dy7  1  0.194904  0.194905  0.806499  1
  Dy  Dy8  1  0.805420  0.193167  0.805431  1
  Dy  Dy9  1  0.193170  0.805421  0.805428  1
  Dy  Dy10  1  0.805420  0.805429  0.193169  1
  Dy  Dy11  1  0.194910  0.806494  0.194909  1
  Dy  Dy12  1  0.806496  0.194903  0.194900  1
  Dy  Dy13  1  0.351149  0.351142  0.946845  1
  Dy  Dy14  1  0.351147  0.946851  0.351140  1
  Dy  Dy15  1  0.946850  0.351144  0.351144  1
  Al  Al16  1  0.576093  0.576094  0.269075  1
  Al  Al17  1  0.576096  0.269071  0.576093  1
  Al  Al18  1  0.269073  0.576094  0.576092  1
  Al  Al19  1  0.576504  0.576508  0.576496  1
  Ru  Ru20  1  0.146249  0.146245  0.576921  1
  Ru  Ru21  1  0.146256  0.576926  0.146249  1
  Ru  Ru22  1  0.576915  0.146250  0.146251  1
  Ru  Ru23  1  0.138916  0.138925  0.138924  1
