# generated using pymatgen
data_ZrSc3(CdCu2)2
_symmetry_space_group_name_H-M   'P 1'
_cell_length_a   7.24735961
_cell_length_b   7.24736061
_cell_length_c   3.47748500
_cell_angle_alpha   90.00000000
_cell_angle_beta   90.00000000
_cell_angle_gamma   89.85276952
_symmetry_Int_Tables_number   1
_chemical_formula_structural   ZrSc3(CdCu2)2
_chemical_formula_sum   'Zr1 Sc3 Cd2 Cu4'
_cell_volume   182.65161415
_cell_formula_units_Z   1
loop_
 _symmetry_equiv_pos_site_id
 _symmetry_equiv_pos_as_xyz
  1  'x, y, z'
loop_
 _atom_site_type_symbol
 _atom_site_label
 _atom_site_symmetry_multiplicity
 _atom_site_fract_x
 _atom_site_fract_y
 _atom_site_fract_z
 _atom_site_occupancy
  Zr  Zr0  1  0.168392  0.331608  0.000000  1
  Sc  Sc1  1  0.831893  0.668107  0.000000  1
  Sc  Sc2  1  0.668201  0.168409  0.000000  1
  Sc  Sc3  1  0.331591  0.831799  0.000000  1
  Cd  Cd4  1  0.999861  0.999081  0.500000  1
  Cd  Cd5  1  0.500919  0.500139  0.500000  1
  Cu  Cu6  1  0.376184  0.123816  0.500000  1
  Cu  Cu7  1  0.623797  0.876203  0.500000  1
  Cu  Cu8  1  0.875383  0.376222  0.500000  1
  Cu  Cu9  1  0.123778  0.624617  0.500000  1
