# generated using pymatgen
data_AcNd(AgHg)2
_symmetry_space_group_name_H-M   'P 1'
_cell_length_a   4.96996900
_cell_length_b   4.96996939
_cell_length_c   7.45238100
_cell_angle_alpha   90.00000000
_cell_angle_beta   90.00000000
_cell_angle_gamma   120.00001734
_symmetry_Int_Tables_number   1
_chemical_formula_structural   AcNd(AgHg)2
_chemical_formula_sum   'Ac1 Nd1 Ag2 Hg2'
_cell_volume   159.41640089
_cell_formula_units_Z   1
loop_
 _symmetry_equiv_pos_site_id
 _symmetry_equiv_pos_as_xyz
  1  'x, y, z'
loop_
 _atom_site_type_symbol
 _atom_site_label
 _atom_site_symmetry_multiplicity
 _atom_site_fract_x
 _atom_site_fract_y
 _atom_site_fract_z
 _atom_site_occupancy
  Ac  Ac0  1  0.000000  0.000000  0.021552  1
  Nd  Nd1  1  0.000000  0.000000  0.521983  1
  Ag  Ag2  1  0.666667  0.333333  0.292920  1
  Ag  Ag3  1  0.333333  0.666667  0.744822  1
  Hg  Hg4  1  0.333333  0.666667  0.300664  1
  Hg  Hg5  1  0.666667  0.333333  0.745059  1
