# generated using pymatgen
data_Yb8Si13Ni3
_symmetry_space_group_name_H-M   'P 1'
_cell_length_a   8.02905600
_cell_length_b   8.02905546
_cell_length_c   8.38815600
_cell_angle_alpha   90.00000000
_cell_angle_beta   90.00000000
_cell_angle_gamma   119.99998573
_symmetry_Int_Tables_number   1
_chemical_formula_structural   Yb8Si13Ni3
_chemical_formula_sum   'Yb8 Si13 Ni3'
_cell_volume   468.30213511
_cell_formula_units_Z   1
loop_
 _symmetry_equiv_pos_site_id
 _symmetry_equiv_pos_as_xyz
  1  'x, y, z'
loop_
 _atom_site_type_symbol
 _atom_site_label
 _atom_site_symmetry_multiplicity
 _atom_site_fract_x
 _atom_site_fract_y
 _atom_site_fract_z
 _atom_site_occupancy
  Yb  Yb0  1  0.501160  0.002323  0.244437  1
  Yb  Yb1  1  0.501202  0.002401  0.755583  1
  Yb  Yb2  1  0.997677  0.498840  0.244437  1
  Yb  Yb3  1  0.997599  0.498798  0.755583  1
  Yb  Yb4  1  0.501160  0.498840  0.244437  1
  Yb  Yb5  1  0.501202  0.498798  0.755583  1
  Yb  Yb6  1  0.000000  0.000000  0.244927  1
  Yb  Yb7  1  0.000000  0.000000  0.754962  1
  Si  Si8  1  0.170229  0.340458  0.000018  1
  Si  Si9  1  0.829832  0.659665  0.000026  1
  Si  Si10  1  0.659542  0.829771  0.000018  1
  Si  Si11  1  0.826257  0.652514  0.500025  1
  Si  Si12  1  0.340335  0.170168  0.000026  1
  Si  Si13  1  0.161672  0.323343  0.499802  1
  Si  Si14  1  0.170229  0.829771  0.000018  1
  Si  Si15  1  0.347486  0.173743  0.500025  1
  Si  Si16  1  0.829832  0.170168  0.000026  1
  Si  Si17  1  0.676657  0.838328  0.499802  1
  Si  Si18  1  0.826257  0.173743  0.500025  1
  Si  Si19  1  0.161672  0.838328  0.499802  1
  Si  Si20  1  0.333333  0.666667  0.500513  1
  Ni  Ni21  1  0.333333  0.666667  0.999838  1
  Ni  Ni22  1  0.666667  0.333333  0.000033  1
  Ni  Ni23  1  0.666667  0.333333  0.500059  1
