# generated using pymatgen
data_Sc3B4Mo(Ru5W)2
_symmetry_space_group_name_H-M   'P 1'
_cell_length_a   9.44868347
_cell_length_b   9.44868329
_cell_length_c   3.02718700
_cell_angle_alpha   90.00000000
_cell_angle_beta   90.00000000
_cell_angle_gamma   90.22617750
_symmetry_Int_Tables_number   1
_chemical_formula_structural   Sc3B4Mo(Ru5W)2
_chemical_formula_sum   'Sc3 B4 Mo1 Ru10 W2'
_cell_volume   270.25793778
_cell_formula_units_Z   1
loop_
 _symmetry_equiv_pos_site_id
 _symmetry_equiv_pos_as_xyz
  1  'x, y, z'
loop_
 _atom_site_type_symbol
 _atom_site_label
 _atom_site_symmetry_multiplicity
 _atom_site_fract_x
 _atom_site_fract_y
 _atom_site_fract_z
 _atom_site_occupancy
  Sc  Sc0  1  0.175933  0.824067  0.000000  1
  Sc  Sc1  1  0.324383  0.326288  0.000000  1
  Sc  Sc2  1  0.673712  0.675617  0.000000  1
  B  B3  1  0.620792  0.379208  0.000000  1
  B  B4  1  0.380823  0.619177  0.000000  1
  B  B5  1  0.122064  0.121803  0.000000  1
  B  B6  1  0.878197  0.877936  0.000000  1
  Mo  Mo7  1  0.823974  0.176026  0.000000  1
  Ru  Ru8  1  0.502419  0.497581  0.500000  1
  Ru  Ru9  1  0.994307  0.005693  0.500000  1
  Ru  Ru10  1  0.580243  0.212612  0.500000  1
  Ru  Ru11  1  0.431291  0.783239  0.500000  1
  Ru  Ru12  1  0.061074  0.281907  0.500000  1
  Ru  Ru13  1  0.927626  0.717095  0.500000  1
  Ru  Ru14  1  0.282905  0.072374  0.500000  1
  Ru  Ru15  1  0.718093  0.938926  0.500000  1
  Ru  Ru16  1  0.216761  0.568709  0.500000  1
  Ru  Ru17  1  0.787388  0.419757  0.500000  1
  W  W18  1  0.495552  0.997536  0.000000  1
  W  W19  1  0.002464  0.504448  0.000000  1
