# generated using pymatgen
data_Mn3Fe(SnO4)2
_symmetry_space_group_name_H-M   'P 1'
_cell_length_a   6.25573767
_cell_length_b   6.39431563
_cell_length_c   6.36382267
_cell_angle_alpha   89.28770403
_cell_angle_beta   119.13615339
_cell_angle_gamma   60.31631168
_symmetry_Int_Tables_number   1
_chemical_formula_structural   Mn3Fe(SnO4)2
_chemical_formula_sum   'Mn3 Fe1 Sn2 O8'
_cell_volume   182.06984028
_cell_formula_units_Z   1
loop_
 _symmetry_equiv_pos_site_id
 _symmetry_equiv_pos_as_xyz
  1  'x, y, z'
loop_
 _atom_site_type_symbol
 _atom_site_label
 _atom_site_symmetry_multiplicity
 _atom_site_fract_x
 _atom_site_fract_y
 _atom_site_fract_z
 _atom_site_occupancy
  Mn  Mn0  1  0.999883  0.014878  0.014883  1
  Mn  Mn1  1  0.500072  0.235136  0.235168  1
  Mn  Mn2  1  0.250011  0.624989  0.625011  1
  Fe  Fe3  1  0.749984  0.625012  0.624995  1
  Sn  Sn4  1  0.749941  0.625031  0.124958  1
  Sn  Sn5  1  0.250019  0.124962  0.625029  1
  O  O6  1  0.772256  0.376485  0.376096  1
  O  O7  1  0.227528  0.376508  0.377375  1
  O  O8  1  0.272459  0.873542  0.872620  1
  O  O9  1  0.727737  0.873512  0.873874  1
  O  O10  1  0.761656  0.835895  0.368800  1
  O  O11  1  0.227135  0.369827  0.835480  1
  O  O12  1  0.272927  0.880144  0.414560  1
  O  O13  1  0.738393  0.414081  0.881152  1
