# generated using pymatgen
data_OsSe29
_symmetry_space_group_name_H-M   'P 1'
_cell_length_a   7.56699270
_cell_length_b   9.81949742
_cell_length_c   11.71445998
_cell_angle_alpha   74.43192813
_cell_angle_beta   80.56290142
_cell_angle_gamma   67.45478891
_symmetry_Int_Tables_number   1
_chemical_formula_structural   OsSe29
_chemical_formula_sum   'Os1 Se29'
_cell_volume   772.59138248
_cell_formula_units_Z   1
loop_
 _symmetry_equiv_pos_site_id
 _symmetry_equiv_pos_as_xyz
  1  'x, y, z'
loop_
 _atom_site_type_symbol
 _atom_site_label
 _atom_site_symmetry_multiplicity
 _atom_site_fract_x
 _atom_site_fract_y
 _atom_site_fract_z
 _atom_site_occupancy
  Os  Os0  1  0.000000  0.000000  0.000000  1
  Se  Se1  1  0.500000  0.000000  0.000000  1
  Se  Se2  1  0.101049  0.199569  0.201291  1
  Se  Se3  1  0.699943  0.403152  0.398258  1
  Se  Se4  1  0.300057  0.596848  0.601742  1
  Se  Se5  1  0.598920  0.200083  0.202020  1
  Se  Se6  1  0.898951  0.800431  0.798709  1
  Se  Se7  1  0.200901  0.397506  0.400077  1
  Se  Se8  1  0.799099  0.602494  0.599923  1
  Se  Se9  1  0.401080  0.799917  0.797980  1
  Se  Se10  1  0.236640  0.073590  0.846142  1
  Se  Se11  1  0.647911  0.717686  0.966697  1
  Se  Se12  1  0.861869  0.261207  0.034411  1
  Se  Se13  1  0.232208  0.925953  0.153747  1
  Se  Se14  1  0.451867  0.484808  0.232897  1
  Se  Se15  1  0.767792  0.074047  0.846253  1
  Se  Se16  1  0.850905  0.115292  0.365587  1
  Se  Se17  1  0.138131  0.738793  0.965589  1
  Se  Se18  1  0.051968  0.680209  0.433403  1
  Se  Se19  1  0.352089  0.282314  0.033303  1
  Se  Se20  1  0.763360  0.926410  0.153858  1
  Se  Se21  1  0.448270  0.319056  0.566804  1
  Se  Se22  1  0.648150  0.887768  0.629869  1
  Se  Se23  1  0.950281  0.483870  0.232719  1
  Se  Se24  1  0.049719  0.516130  0.767281  1
  Se  Se25  1  0.351850  0.112232  0.370131  1
  Se  Se26  1  0.551730  0.680944  0.433196  1
  Se  Se27  1  0.948032  0.319791  0.566597  1
  Se  Se28  1  0.149095  0.884708  0.634413  1
  Se  Se29  1  0.548133  0.515192  0.767103  1
