# generated using pymatgen
data_Lu4Tc5Ru3
_symmetry_space_group_name_H-M   'P 1'
_cell_length_a   5.27809687
_cell_length_b   5.27809746
_cell_length_c   8.99554100
_cell_angle_alpha   90.00000000
_cell_angle_beta   90.00000000
_cell_angle_gamma   121.60832779
_symmetry_Int_Tables_number   1
_chemical_formula_structural   Lu4Tc5Ru3
_chemical_formula_sum   'Lu4 Tc5 Ru3'
_cell_volume   213.42416460
_cell_formula_units_Z   1
loop_
 _symmetry_equiv_pos_site_id
 _symmetry_equiv_pos_as_xyz
  1  'x, y, z'
loop_
 _atom_site_type_symbol
 _atom_site_label
 _atom_site_symmetry_multiplicity
 _atom_site_fract_x
 _atom_site_fract_y
 _atom_site_fract_z
 _atom_site_occupancy
  Lu  Lu0  1  0.335415  0.664585  0.435137  1
  Lu  Lu1  1  0.665144  0.334856  0.563189  1
  Lu  Lu2  1  0.665144  0.334856  0.936811  1
  Lu  Lu3  1  0.335415  0.664585  0.064863  1
  Tc  Tc4  1  0.170724  0.343366  0.750000  1
  Tc  Tc5  1  0.172219  0.827781  0.750000  1
  Tc  Tc6  1  0.340753  0.174778  0.250000  1
  Tc  Tc7  1  0.825222  0.659247  0.250000  1
  Tc  Tc8  1  0.656634  0.829276  0.750000  1
  Ru  Ru9  1  0.004288  0.995712  0.001329  1
  Ru  Ru10  1  0.824756  0.175244  0.250000  1
  Ru  Ru11  1  0.004288  0.995712  0.498671  1
