# generated using pymatgen
data_Yb3Ni(GeO4)2
_symmetry_space_group_name_H-M   'P 1'
_cell_length_a   5.13144000
_cell_length_b   6.52772129
_cell_length_c   11.26386031
_cell_angle_alpha   87.93979874
_cell_angle_beta   90.00000000
_cell_angle_gamma   90.00000000
_symmetry_Int_Tables_number   1
_chemical_formula_structural   Yb3Ni(GeO4)2
_chemical_formula_sum   'Yb6 Ni2 Ge4 O16'
_cell_volume   377.05725222
_cell_formula_units_Z   2
loop_
 _symmetry_equiv_pos_site_id
 _symmetry_equiv_pos_as_xyz
  1  'x, y, z'
loop_
 _atom_site_type_symbol
 _atom_site_label
 _atom_site_symmetry_multiplicity
 _atom_site_fract_x
 _atom_site_fract_y
 _atom_site_fract_z
 _atom_site_occupancy
  Yb  Yb0  1  0.490409  0.754271  0.775815  1
  Yb  Yb1  1  0.990409  0.245729  0.724185  1
  Yb  Yb2  1  0.509591  0.245729  0.224185  1
  Yb  Yb3  1  0.009591  0.754271  0.275815  1
  Yb  Yb4  1  0.500000  0.500000  0.500000  1
  Yb  Yb5  1  0.000000  0.500000  0.000000  1
  Ni  Ni6  1  0.500000  0.000000  0.500000  1
  Ni  Ni7  1  0.000000  0.000000  0.000000  1
  Ge  Ge8  1  0.925445  0.766554  0.589280  1
  Ge  Ge9  1  0.425445  0.233446  0.910720  1
  Ge  Ge10  1  0.074555  0.233446  0.410720  1
  Ge  Ge11  1  0.574555  0.766554  0.089280  1
  O  O12  1  0.214878  0.455207  0.338202  1
  O  O13  1  0.714878  0.544793  0.161798  1
  O  O14  1  0.755378  0.975327  0.653754  1
  O  O15  1  0.255378  0.024673  0.846246  1
  O  O16  1  0.785122  0.544793  0.661798  1
  O  O17  1  0.285122  0.455207  0.838202  1
  O  O18  1  0.244622  0.024673  0.346246  1
  O  O19  1  0.744622  0.975327  0.153754  1
  O  O20  1  0.766175  0.773229  0.446232  1
  O  O21  1  0.266175  0.226771  0.053768  1
  O  O22  1  0.233825  0.226771  0.553768  1
  O  O23  1  0.733825  0.773229  0.946232  1
  O  O24  1  0.230942  0.762276  0.087972  1
  O  O25  1  0.730942  0.237724  0.412028  1
  O  O26  1  0.769058  0.237724  0.912028  1
  O  O27  1  0.269058  0.762276  0.587972  1
