# generated using pymatgen
data_Dy4Tm6(InSb)3
_symmetry_space_group_name_H-M   'P 1'
_cell_length_a   6.45887800
_cell_length_b   8.91271735
_cell_length_c   8.91271795
_cell_angle_alpha   59.92449704
_cell_angle_beta   90.00063306
_cell_angle_gamma   89.99936969
_symmetry_Int_Tables_number   1
_chemical_formula_structural   Dy4Tm6(InSb)3
_chemical_formula_sum   'Dy4 Tm6 In3 Sb3'
_cell_volume   443.99398644
_cell_formula_units_Z   1
loop_
 _symmetry_equiv_pos_site_id
 _symmetry_equiv_pos_as_xyz
  1  'x, y, z'
loop_
 _atom_site_type_symbol
 _atom_site_label
 _atom_site_symmetry_multiplicity
 _atom_site_fract_x
 _atom_site_fract_y
 _atom_site_fract_z
 _atom_site_occupancy
  Dy  Dy0  1  0.749986  0.238507  0.761493  1
  Dy  Dy1  1  0.250043  0.761834  0.238166  1
  Dy  Dy2  1  0.250000  0.238514  0.000179  1
  Dy  Dy3  1  0.250000  0.999821  0.761486  1
  Tm  Tm4  1  0.503187  0.333325  0.333133  1
  Tm  Tm5  1  0.503187  0.666867  0.666675  1
  Tm  Tm6  1  0.996794  0.666802  0.666643  1
  Tm  Tm7  1  0.996794  0.333357  0.333198  1
  Tm  Tm8  1  0.750028  0.761172  0.000179  1
  Tm  Tm9  1  0.750028  0.999821  0.238828  1
  In  In10  1  0.749875  0.606438  0.393562  1
  In  In11  1  0.750037  0.394105  0.000477  1
  In  In12  1  0.750037  0.999523  0.605895  1
  Sb  Sb13  1  0.250048  0.396022  0.603978  1
  Sb  Sb14  1  0.249978  0.603949  0.000057  1
  Sb  Sb15  1  0.249978  0.999943  0.396051  1
