# generated using pymatgen
data_Te3As4SI4
_symmetry_space_group_name_H-M   'P 1'
_cell_length_a   3.96456602
_cell_length_b   9.68127059
_cell_length_c   13.84123000
_cell_angle_alpha   51.21206607
_cell_angle_beta   89.26295823
_cell_angle_gamma   89.09900295
_symmetry_Int_Tables_number   1
_chemical_formula_structural   Te3As4SI4
_chemical_formula_sum   'Te3 As4 S1 I4'
_cell_volume   414.04267506
_cell_formula_units_Z   1
loop_
 _symmetry_equiv_pos_site_id
 _symmetry_equiv_pos_as_xyz
  1  'x, y, z'
loop_
 _atom_site_type_symbol
 _atom_site_label
 _atom_site_symmetry_multiplicity
 _atom_site_fract_x
 _atom_site_fract_y
 _atom_site_fract_z
 _atom_site_occupancy
  Te  Te0  1  0.782828  0.291692  0.803527  1
  Te  Te1  1  0.727481  0.275107  0.304831  1
  Te  Te2  1  0.270749  0.723030  0.694799  1
  As  As3  1  0.766276  0.505859  0.867917  1
  As  As4  1  0.228653  0.502062  0.137902  1
  As  As5  1  0.770029  0.500822  0.357701  1
  As  As6  1  0.276310  0.509960  0.630503  1
  S  S7  1  0.201196  0.668337  0.211789  1
  I  I8  1  0.716425  0.767363  0.934659  1
  I  I9  1  0.789269  0.765783  0.424839  1
  I  I10  1  0.197730  0.247817  0.561036  1
  I  I11  1  0.273055  0.242166  0.070498  1
