# generated using pymatgen
data_Pr3Y8In9Ru4
_symmetry_space_group_name_H-M   'P 1'
_cell_length_a   12.85066344
_cell_length_b   12.85535361
_cell_length_c   3.96323200
_cell_angle_alpha   90.00000000
_cell_angle_beta   90.00000000
_cell_angle_gamma   112.93119051
_symmetry_Int_Tables_number   1
_chemical_formula_structural   Pr3Y8In9Ru4
_chemical_formula_sum   'Pr3 Y8 In9 Ru4'
_cell_volume   602.98454077
_cell_formula_units_Z   1
loop_
 _symmetry_equiv_pos_site_id
 _symmetry_equiv_pos_as_xyz
  1  'x, y, z'
loop_
 _atom_site_type_symbol
 _atom_site_label
 _atom_site_symmetry_multiplicity
 _atom_site_fract_x
 _atom_site_fract_y
 _atom_site_fract_z
 _atom_site_occupancy
  Pr  Pr0  1  0.500000  0.500000  0.500000  1
  Pr  Pr1  1  0.337626  0.662280  0.500000  1
  Pr  Pr2  1  0.662374  0.337720  0.500000  1
  Y  Y3  1  0.805048  0.805128  0.500000  1
  Y  Y4  1  0.194952  0.194872  0.500000  1
  Y  Y5  1  0.589860  0.921816  0.500000  1
  Y  Y6  1  0.410140  0.078184  0.500000  1
  Y  Y7  1  0.921579  0.589967  0.500000  1
  Y  Y8  1  0.078421  0.410033  0.500000  1
  Y  Y9  1  0.133877  0.866361  0.500000  1
  Y  Y10  1  0.866123  0.133639  0.500000  1
  In  In11  1  0.349086  0.871033  0.000000  1
  In  In12  1  0.650914  0.128967  0.000000  1
  In  In13  1  0.870933  0.348848  0.000000  1
  In  In14  1  0.129067  0.651152  0.000000  1
  In  In15  1  0.577719  0.725922  0.000000  1
  In  In16  1  0.422281  0.274078  0.000000  1
  In  In17  1  0.725542  0.577888  0.000000  1
  In  In18  1  0.274458  0.422112  0.000000  1
  In  In19  1  0.000000  0.000000  0.000000  1
  Ru  Ru20  1  0.768776  0.956890  0.000000  1
  Ru  Ru21  1  0.231224  0.043110  0.000000  1
  Ru  Ru22  1  0.956848  0.768606  0.000000  1
  Ru  Ru23  1  0.043152  0.231394  0.000000  1
