# generated using pymatgen
data_TbTh3(PdPt2)4
_symmetry_space_group_name_H-M   'P 1'
_cell_length_a   5.94749184
_cell_length_b   5.94257666
_cell_length_c   9.78400403
_cell_angle_alpha   89.99153155
_cell_angle_beta   90.00766708
_cell_angle_gamma   120.15746338
_symmetry_Int_Tables_number   1
_chemical_formula_structural   TbTh3(PdPt2)4
_chemical_formula_sum   'Tb1 Th3 Pd4 Pt8'
_cell_volume   298.99547101
_cell_formula_units_Z   1
loop_
 _symmetry_equiv_pos_site_id
 _symmetry_equiv_pos_as_xyz
  1  'x, y, z'
loop_
 _atom_site_type_symbol
 _atom_site_label
 _atom_site_symmetry_multiplicity
 _atom_site_fract_x
 _atom_site_fract_y
 _atom_site_fract_z
 _atom_site_occupancy
  Tb  Tb0  1  0.999605  0.000277  0.499583  1
  Th  Th1  1  0.999854  0.000132  0.000078  1
  Th  Th2  1  0.332952  0.666751  0.253535  1
  Th  Th3  1  0.667654  0.332989  0.746410  1
  Pd  Pd4  1  0.499938  0.500002  0.500778  1
  Pd  Pd5  1  0.500152  0.000078  0.500360  1
  Pd  Pd6  1  0.499953  0.499992  0.999399  1
  Pd  Pd7  1  0.175323  0.825186  0.748869  1
  Pt  Pt8  1  0.999857  0.499729  0.500446  1
  Pt  Pt9  1  0.500060  0.000115  0.999509  1
  Pt  Pt10  1  0.999837  0.500031  0.999462  1
  Pt  Pt11  1  0.824450  0.650018  0.251981  1
  Pt  Pt12  1  0.348469  0.174587  0.251269  1
  Pt  Pt13  1  0.824934  0.174323  0.251543  1
  Pt  Pt14  1  0.175837  0.350509  0.747979  1
  Pt  Pt15  1  0.651125  0.825280  0.748800  1
