# generated using pymatgen
data_SrPa8O18
_symmetry_space_group_name_H-M   'P 1'
_cell_length_a   6.71589261
_cell_length_b   6.72227288
_cell_length_c   8.67291086
_cell_angle_alpha   82.55600249
_cell_angle_beta   75.14115449
_cell_angle_gamma   80.42808469
_symmetry_Int_Tables_number   1
_chemical_formula_structural   SrPa8O18
_chemical_formula_sum   'Sr1 Pa8 O18'
_cell_volume   371.63072452
_cell_formula_units_Z   1
loop_
 _symmetry_equiv_pos_site_id
 _symmetry_equiv_pos_as_xyz
  1  'x, y, z'
loop_
 _atom_site_type_symbol
 _atom_site_label
 _atom_site_symmetry_multiplicity
 _atom_site_fract_x
 _atom_site_fract_y
 _atom_site_fract_z
 _atom_site_occupancy
  Sr  Sr0  1  0.000000  0.000000  0.500000  1
  Pa  Pa1  1  0.333870  0.668554  0.167149  1
  Pa  Pa2  1  0.780682  0.555346  0.389063  1
  Pa  Pa3  1  0.110911  0.221719  0.057847  1
  Pa  Pa4  1  0.666130  0.331446  0.832851  1
  Pa  Pa5  1  0.219318  0.444654  0.610937  1
  Pa  Pa6  1  0.556926  0.111059  0.279510  1
  Pa  Pa7  1  0.889089  0.778281  0.942153  1
  Pa  Pa8  1  0.443074  0.888941  0.720490  1
  O  O9  1  0.580777  0.663461  0.916503  1
  O  O10  1  0.031210  0.557581  0.134837  1
  O  O11  1  0.419223  0.336539  0.083497  1
  O  O12  1  0.091101  0.648339  0.408887  1
  O  O13  1  0.806325  0.109709  0.028061  1
  O  O14  1  0.474772  0.448229  0.359993  1
  O  O15  1  0.854352  0.236032  0.294309  1
  O  O16  1  0.525228  0.551771  0.640007  1
  O  O17  1  0.268027  0.001209  0.235445  1
  O  O18  1  0.908899  0.351661  0.591113  1
  O  O19  1  0.193675  0.890291  0.971939  1
  O  O20  1  0.731973  0.998791  0.764555  1
  O  O21  1  0.677362  0.878048  0.469334  1
  O  O22  1  0.355674  0.225228  0.809802  1
  O  O23  1  0.644326  0.774772  0.190198  1
  O  O24  1  0.322638  0.121952  0.530666  1
  O  O25  1  0.968790  0.442419  0.865163  1
  O  O26  1  0.145648  0.763968  0.705691  1
