# generated using pymatgen
data_DyYV2F14
_symmetry_space_group_name_H-M   'P 1'
_cell_length_a   5.51399800
_cell_length_b   8.82528972
_cell_length_c   11.80775580
_cell_angle_alpha   63.37495884
_cell_angle_beta   90.00000000
_cell_angle_gamma   90.00000000
_symmetry_Int_Tables_number   1
_chemical_formula_structural   DyYV2F14
_chemical_formula_sum   'Dy2 Y2 V4 F28'
_cell_volume   513.66535677
_cell_formula_units_Z   2
loop_
 _symmetry_equiv_pos_site_id
 _symmetry_equiv_pos_as_xyz
  1  'x, y, z'
loop_
 _atom_site_type_symbol
 _atom_site_label
 _atom_site_symmetry_multiplicity
 _atom_site_fract_x
 _atom_site_fract_y
 _atom_site_fract_z
 _atom_site_occupancy
  Dy  Dy0  1  0.241720  0.192213  0.229682  1
  Dy  Dy1  1  0.741720  0.807787  0.270318  1
  Y  Y2  1  0.758244  0.807384  0.770441  1
  Y  Y3  1  0.258244  0.192616  0.729559  1
  V  V4  1  0.754275  0.273063  0.955181  1
  V  V5  1  0.254275  0.726937  0.544819  1
  V  V6  1  0.245420  0.726439  0.045713  1
  V  V7  1  0.745420  0.273561  0.454287  1
  F  F8  1  0.448566  0.705572  0.924178  1
  F  F9  1  0.948566  0.294428  0.575822  1
  F  F10  1  0.550621  0.293778  0.076508  1
  F  F11  1  0.050621  0.706222  0.423492  1
  F  F12  1  0.461410  0.284179  0.543937  1
  F  F13  1  0.961410  0.715821  0.956063  1
  F  F14  1  0.538638  0.716407  0.455112  1
  F  F15  1  0.038638  0.283593  0.044888  1
  F  F16  1  0.768097  0.505739  0.862871  1
  F  F17  1  0.268097  0.494261  0.637129  1
  F  F18  1  0.232464  0.493613  0.137635  1
  F  F19  1  0.732464  0.506387  0.362365  1
  F  F20  1  0.756997  0.042929  0.045721  1
  F  F21  1  0.256997  0.957071  0.454279  1
  F  F22  1  0.242868  0.956535  0.955373  1
  F  F23  1  0.742868  0.043465  0.544627  1
  F  F24  1  0.978928  0.731022  0.640046  1
  F  F25  1  0.478928  0.268978  0.859954  1
  F  F26  1  0.020937  0.268532  0.359257  1
  F  F27  1  0.520937  0.731468  0.140743  1
  F  F28  1  0.043247  0.747402  0.169815  1
  F  F29  1  0.543247  0.252598  0.330185  1
  F  F30  1  0.956115  0.252711  0.830646  1
  F  F31  1  0.456115  0.747289  0.669354  1
  F  F32  1  0.421548  0.973040  0.231346  1
  F  F33  1  0.921548  0.026960  0.268654  1
  F  F34  1  0.579903  0.027621  0.769034  1
  F  F35  1  0.079903  0.972379  0.730966  1
