# generated using pymatgen
data_Hf6Ta3TiGa6
_symmetry_space_group_name_H-M   'P 1'
_cell_length_a   7.91702400
_cell_length_b   7.91702408
_cell_length_c   5.44373200
_cell_angle_alpha   90.00000000
_cell_angle_beta   90.00000000
_cell_angle_gamma   119.99999966
_symmetry_Int_Tables_number   1
_chemical_formula_structural   Hf6Ta3TiGa6
_chemical_formula_sum   'Hf6 Ta3 Ti1 Ga6'
_cell_volume   295.49578943
_cell_formula_units_Z   1
loop_
 _symmetry_equiv_pos_site_id
 _symmetry_equiv_pos_as_xyz
  1  'x, y, z'
loop_
 _atom_site_type_symbol
 _atom_site_label
 _atom_site_symmetry_multiplicity
 _atom_site_fract_x
 _atom_site_fract_y
 _atom_site_fract_z
 _atom_site_occupancy
  Hf  Hf0  1  0.245791  0.001577  0.248544  1
  Hf  Hf1  1  0.755787  0.001577  0.751456  1
  Hf  Hf2  1  0.998423  0.244213  0.248544  1
  Hf  Hf3  1  0.998423  0.754209  0.751456  1
  Hf  Hf4  1  0.755787  0.754209  0.248544  1
  Hf  Hf5  1  0.245791  0.244213  0.751456  1
  Ta  Ta6  1  0.333333  0.666667  0.000000  1
  Ta  Ta7  1  0.666667  0.333333  0.000000  1
  Ta  Ta8  1  0.666667  0.333333  0.500000  1
  Ti  Ti9  1  0.333333  0.666667  0.500000  1
  Ga  Ga10  1  0.601651  0.997539  0.251813  1
  Ga  Ga11  1  0.395888  0.997539  0.748187  1
  Ga  Ga12  1  0.002461  0.604112  0.251813  1
  Ga  Ga13  1  0.002461  0.398349  0.748187  1
  Ga  Ga14  1  0.395888  0.398349  0.251813  1
  Ga  Ga15  1  0.601651  0.604112  0.748187  1
