# generated using pymatgen
data_Tm7LuZr11Si16Mo
_symmetry_space_group_name_H-M   'P 1'
_cell_length_a   7.03836468
_cell_length_b   7.22093932
_cell_length_c   13.82752218
_cell_angle_alpha   89.98125214
_cell_angle_beta   89.98011128
_cell_angle_gamma   89.94649237
_symmetry_Int_Tables_number   1
_chemical_formula_structural   Tm7LuZr11Si16Mo
_chemical_formula_sum   'Tm7 Lu1 Zr11 Si16 Mo1'
_cell_volume   702.76412890
_cell_formula_units_Z   1
loop_
 _symmetry_equiv_pos_site_id
 _symmetry_equiv_pos_as_xyz
  1  'x, y, z'
loop_
 _atom_site_type_symbol
 _atom_site_label
 _atom_site_symmetry_multiplicity
 _atom_site_fract_x
 _atom_site_fract_y
 _atom_site_fract_z
 _atom_site_occupancy
  Tm  Tm0  1  0.515566  0.325344  0.098427  1
  Tm  Tm1  1  0.011688  0.179252  0.400617  1
  Tm  Tm2  1  0.485774  0.677221  0.595715  1
  Tm  Tm3  1  0.986132  0.822188  0.905111  1
  Tm  Tm4  1  0.485543  0.677168  0.904472  1
  Tm  Tm5  1  0.986357  0.822268  0.595183  1
  Tm  Tm6  1  0.515593  0.325474  0.401225  1
  Lu  Lu7  1  0.011718  0.179530  0.099846  1
  Zr  Zr8  1  0.828359  0.322308  0.623360  1
  Zr  Zr9  1  0.328326  0.176816  0.875482  1
  Zr  Zr10  1  0.169809  0.675824  0.126035  1
  Zr  Zr11  1  0.674777  0.820521  0.373777  1
  Zr  Zr12  1  0.169842  0.675446  0.373689  1
  Zr  Zr13  1  0.675065  0.820726  0.125822  1
  Zr  Zr14  1  0.828597  0.321960  0.876985  1
  Zr  Zr15  1  0.328794  0.176800  0.624557  1
  Zr  Zr16  1  0.655751  0.000858  0.750088  1
  Zr  Zr17  1  0.154718  0.499595  0.750083  1
  Zr  Zr18  1  0.344388  0.999680  0.249884  1
  Si  Si19  1  0.656086  0.030184  0.539159  1
  Si  Si20  1  0.156898  0.466725  0.961927  1
  Si  Si21  1  0.342601  0.968834  0.040733  1
  Si  Si22  1  0.844599  0.529276  0.456025  1
  Si  Si23  1  0.343465  0.968242  0.459238  1
  Si  Si24  1  0.845069  0.528277  0.044376  1
  Si  Si25  1  0.655308  0.029984  0.960567  1
  Si  Si26  1  0.156912  0.467309  0.538457  1
  Si  Si27  1  0.531813  0.385844  0.750112  1
  Si  Si28  1  0.031453  0.115311  0.750055  1
  Si  Si29  1  0.473847  0.609756  0.249787  1
  Si  Si30  1  0.967569  0.886569  0.249804  1
  Si  Si31  1  0.782235  0.629864  0.750173  1
  Si  Si32  1  0.281558  0.869694  0.750077  1
  Si  Si33  1  0.208923  0.371675  0.249696  1
  Si  Si34  1  0.718860  0.136415  0.249705  1
  Mo  Mo35  1  0.846011  0.507064  0.249748  1
