# generated using pymatgen
data_Er6Mn2FeSi6Ru
_symmetry_space_group_name_H-M   'P 1'
_cell_length_a   5.68811490
_cell_length_b   5.68811521
_cell_length_c   13.65221790
_cell_angle_alpha   89.86481782
_cell_angle_beta   90.13518332
_cell_angle_gamma   137.60023900
_symmetry_Int_Tables_number   1
_chemical_formula_structural   Er6Mn2FeSi6Ru
_chemical_formula_sum   'Er6 Mn2 Fe1 Si6 Ru1'
_cell_volume   297.84566182
_cell_formula_units_Z   1
loop_
 _symmetry_equiv_pos_site_id
 _symmetry_equiv_pos_as_xyz
  1  'x, y, z'
loop_
 _atom_site_type_symbol
 _atom_site_label
 _atom_site_symmetry_multiplicity
 _atom_site_fract_x
 _atom_site_fract_y
 _atom_site_fract_z
 _atom_site_occupancy
  Er  Er0  1  0.640186  0.359814  0.249070  1
  Er  Er1  1  0.360988  0.639012  0.750394  1
  Er  Er2  1  0.923120  0.076880  0.112280  1
  Er  Er3  1  0.076732  0.923268  0.886766  1
  Er  Er4  1  0.078358  0.921642  0.615202  1
  Er  Er5  1  0.926650  0.073350  0.384798  1
  Mn  Mn6  1  0.215840  0.784160  0.417812  1
  Mn  Mn7  1  0.213360  0.786640  0.083221  1
  Fe  Fe8  1  0.782344  0.217656  0.920089  1
  Si  Si9  1  0.333358  0.666642  0.250340  1
  Si  Si10  1  0.672001  0.327999  0.752623  1
  Si  Si11  1  0.613878  0.386122  0.036612  1
  Si  Si12  1  0.378553  0.621447  0.959589  1
  Si  Si13  1  0.386703  0.613297  0.538099  1
  Si  Si14  1  0.612923  0.387077  0.461624  1
  Ru  Ru15  1  0.785005  0.214995  0.581480  1
