# generated using pymatgen
data_SmDy3B4I5
_symmetry_space_group_name_H-M   'P 1'
_cell_length_a   9.64859007
_cell_length_b   9.64859028
_cell_length_c   9.77273503
_cell_angle_alpha   75.61710321
_cell_angle_beta   75.61710257
_cell_angle_gamma   25.68964062
_symmetry_Int_Tables_number   1
_chemical_formula_structural   SmDy3B4I5
_chemical_formula_sum   'Sm1 Dy3 B4 I5'
_cell_volume   381.37794534
_cell_formula_units_Z   1
loop_
 _symmetry_equiv_pos_site_id
 _symmetry_equiv_pos_as_xyz
  1  'x, y, z'
loop_
 _atom_site_type_symbol
 _atom_site_label
 _atom_site_symmetry_multiplicity
 _atom_site_fract_x
 _atom_site_fract_y
 _atom_site_fract_z
 _atom_site_occupancy
  Sm  Sm0  1  0.869866  0.869866  0.064093  1
  Dy  Dy1  1  0.503364  0.503364  0.755542  1
  Dy  Dy2  1  0.498441  0.498441  0.243178  1
  Dy  Dy3  1  0.130023  0.130023  0.934900  1
  B  B4  1  0.315682  0.687754  0.998955  1
  B  B5  1  0.687754  0.315682  0.998955  1
  B  B6  1  0.001630  0.001630  0.098224  1
  B  B7  1  0.001734  0.001734  0.899634  1
  I  I8  1  0.674145  0.674145  0.688799  1
  I  I9  1  0.327854  0.327854  0.319501  1
  I  I10  1  0.328502  0.328502  0.846192  1
  I  I11  1  0.672877  0.672877  0.143565  1
  I  I12  1  0.002427  0.002427  0.498666  1
