# generated using pymatgen
data_Lu7ScSe12
_symmetry_space_group_name_H-M   'P 1'
_cell_length_a   6.93803543
_cell_length_b   6.91384046
_cell_length_c   12.59945761
_cell_angle_alpha   100.64283254
_cell_angle_beta   100.71683043
_cell_angle_gamma   109.00846748
_symmetry_Int_Tables_number   1
_chemical_formula_structural   Lu7ScSe12
_chemical_formula_sum   'Lu7 Sc1 Se12'
_cell_volume   541.53443158
_cell_formula_units_Z   1
loop_
 _symmetry_equiv_pos_site_id
 _symmetry_equiv_pos_as_xyz
  1  'x, y, z'
loop_
 _atom_site_type_symbol
 _atom_site_label
 _atom_site_symmetry_multiplicity
 _atom_site_fract_x
 _atom_site_fract_y
 _atom_site_fract_z
 _atom_site_occupancy
  Lu  Lu0  1  0.622563  0.872588  0.245149  1
  Lu  Lu1  1  0.126689  0.376673  0.253363  1
  Lu  Lu2  1  0.208390  0.958397  0.416796  1
  Lu  Lu3  1  0.791527  0.041527  0.583038  1
  Lu  Lu4  1  0.873671  0.623686  0.747359  1
  Lu  Lu5  1  0.377728  0.127728  0.755444  1
  Lu  Lu6  1  0.958860  0.208850  0.917747  1
  Sc  Sc7  1  0.042092  0.792108  0.084165  1
  Se  Se8  1  0.806224  0.040816  0.086460  1
  Se  Se9  1  0.280318  0.545655  0.086465  1
  Se  Se10  1  0.364067  0.114218  0.246191  1
  Se  Se11  1  0.882132  0.631928  0.246190  1
  Se  Se12  1  0.952661  0.199219  0.413099  1
  Se  Se13  1  0.460348  0.713901  0.413089  1
  Se  Se14  1  0.539474  0.285645  0.586765  1
  Se  Se15  1  0.047337  0.801127  0.586750  1
  Se  Se16  1  0.120672  0.370318  0.750074  1
  Se  Se17  1  0.629388  0.879745  0.750065  1
  Se  Se18  1  0.718549  0.464627  0.915892  1
  Se  Se19  1  0.197306  0.951242  0.915898  1
