# generated using pymatgen
data_YbSm6RuI12
_symmetry_space_group_name_H-M   'P 1'
_cell_length_a   9.95934620
_cell_length_b   9.95934578
_cell_length_c   9.95934530
_cell_angle_alpha   107.05534707
_cell_angle_beta   107.05533147
_cell_angle_gamma   107.05532595
_symmetry_Int_Tables_number   1
_chemical_formula_structural   YbSm6RuI12
_chemical_formula_sum   'Yb1 Sm6 Ru1 I12'
_cell_volume   821.44864095
_cell_formula_units_Z   1
loop_
 _symmetry_equiv_pos_site_id
 _symmetry_equiv_pos_as_xyz
  1  'x, y, z'
loop_
 _atom_site_type_symbol
 _atom_site_label
 _atom_site_symmetry_multiplicity
 _atom_site_fract_x
 _atom_site_fract_y
 _atom_site_fract_z
 _atom_site_occupancy
  Yb  Yb0  1  0.500000  0.500000  0.500000  1
  Sm  Sm1  1  0.902240  0.699107  0.974975  1
  Sm  Sm2  1  0.974975  0.902240  0.699107  1
  Sm  Sm3  1  0.699107  0.974975  0.902240  1
  Sm  Sm4  1  0.097760  0.300893  0.025025  1
  Sm  Sm5  1  0.025025  0.097760  0.300893  1
  Sm  Sm6  1  0.300893  0.025025  0.097760  1
  Ru  Ru7  1  0.000000  0.000000  0.000000  1
  I  I8  1  0.618065  0.842890  0.540417  1
  I  I9  1  0.540417  0.618065  0.842890  1
  I  I10  1  0.842890  0.540417  0.618065  1
  I  I11  1  0.381935  0.157110  0.459583  1
  I  I12  1  0.459583  0.381935  0.157110  1
  I  I13  1  0.157110  0.459583  0.381935  1
  I  I14  1  0.682050  0.073868  0.225932  1
  I  I15  1  0.225932  0.682050  0.073868  1
  I  I16  1  0.073868  0.225932  0.682050  1
  I  I17  1  0.317950  0.926132  0.774068  1
  I  I18  1  0.774068  0.317950  0.926132  1
  I  I19  1  0.926132  0.774068  0.317950  1
