# generated using pymatgen
data_Y3Tm3Al17Si7Os8
_symmetry_space_group_name_H-M   'P 1'
_cell_length_a   8.69439802
_cell_length_b   8.68413160
_cell_length_c   9.47817000
_cell_angle_alpha   90.00000000
_cell_angle_beta   90.00000000
_cell_angle_gamma   120.08662327
_symmetry_Int_Tables_number   1
_chemical_formula_structural   Y3Tm3Al17Si7Os8
_chemical_formula_sum   'Y3 Tm3 Al17 Si7 Os8'
_cell_volume   619.21475033
_cell_formula_units_Z   1
loop_
 _symmetry_equiv_pos_site_id
 _symmetry_equiv_pos_as_xyz
  1  'x, y, z'
loop_
 _atom_site_type_symbol
 _atom_site_label
 _atom_site_symmetry_multiplicity
 _atom_site_fract_x
 _atom_site_fract_y
 _atom_site_fract_z
 _atom_site_occupancy
  Y  Y0  1  0.807542  0.615059  0.750000  1
  Y  Y1  1  0.387144  0.190886  0.750000  1
  Y  Y2  1  0.803214  0.191403  0.750000  1
  Tm  Tm3  1  0.193851  0.390275  0.250000  1
  Tm  Tm4  1  0.608746  0.806073  0.250000  1
  Tm  Tm5  1  0.196842  0.804136  0.250000  1
  Al  Al6  1  0.164605  0.330039  0.577426  1
  Al  Al7  1  0.834308  0.671350  0.420277  1
  Al  Al8  1  0.670851  0.834721  0.576948  1
  Al  Al9  1  0.834308  0.671350  0.079723  1
  Al  Al10  1  0.329542  0.165874  0.421489  1
  Al  Al11  1  0.164605  0.330039  0.922574  1
  Al  Al12  1  0.163850  0.834093  0.575989  1
  Al  Al13  1  0.329542  0.165874  0.078511  1
  Al  Al14  1  0.835575  0.164103  0.420710  1
  Al  Al15  1  0.670851  0.834721  0.923052  1
  Al  Al16  1  0.835575  0.164103  0.079290  1
  Al  Al17  1  0.163850  0.834093  0.924011  1
  Al  Al18  1  0.125992  0.565677  0.750000  1
  Al  Al19  1  0.564374  0.435207  0.250000  1
  Al  Al20  1  0.438624  0.566441  0.750000  1
  Al  Al21  1  0.999422  0.999125  0.250000  1
  Al  Al22  1  0.000070  0.001022  0.750000  1
  Si  Si23  1  0.333389  0.664702  0.040643  1
  Si  Si24  1  0.666499  0.335791  0.961135  1
  Si  Si25  1  0.666499  0.335791  0.538865  1
  Si  Si26  1  0.333389  0.664702  0.459357  1
  Si  Si27  1  0.564427  0.123801  0.250000  1
  Si  Si28  1  0.436211  0.872743  0.750000  1
  Si  Si29  1  0.875147  0.434993  0.250000  1
  Os  Os30  1  0.500483  0.000131  0.002202  1
  Os  Os31  1  0.999314  0.499824  0.007782  1
  Os  Os32  1  0.500483  0.000131  0.497798  1
  Os  Os33  1  0.500239  0.500556  0.001498  1
  Os  Os34  1  0.999314  0.499824  0.492218  1
  Os  Os35  1  0.500239  0.500556  0.498502  1
  Os  Os36  1  0.000543  0.000393  0.000095  1
  Os  Os37  1  0.000543  0.000393  0.499905  1
