# generated using pymatgen
data_Tb10Ga3Bi2Os
_symmetry_space_group_name_H-M   'P 1'
_cell_length_a   8.75010578
_cell_length_b   8.75010566
_cell_length_c   8.86928020
_cell_angle_alpha   125.32924873
_cell_angle_beta   125.32924297
_cell_angle_gamma   80.07841006
_symmetry_Int_Tables_number   1
_chemical_formula_structural   Tb10Ga3Bi2Os
_chemical_formula_sum   'Tb10 Ga3 Bi2 Os1'
_cell_volume   438.37966371
_cell_formula_units_Z   1
loop_
 _symmetry_equiv_pos_site_id
 _symmetry_equiv_pos_as_xyz
  1  'x, y, z'
loop_
 _atom_site_type_symbol
 _atom_site_label
 _atom_site_symmetry_multiplicity
 _atom_site_fract_x
 _atom_site_fract_y
 _atom_site_fract_z
 _atom_site_occupancy
  Tb  Tb0  1  0.005285  0.003448  0.008735  1
  Tb  Tb1  1  0.496552  0.494715  0.991265  1
  Tb  Tb2  1  0.783251  0.299271  0.799685  1
  Tb  Tb3  1  0.200729  0.716749  0.200315  1
  Tb  Tb4  1  0.483566  0.999586  0.200315  1
  Tb  Tb5  1  0.308259  0.458307  0.500000  1
  Tb  Tb6  1  0.041693  0.191741  0.500000  1
  Tb  Tb7  1  0.500414  0.016434  0.799685  1
  Tb  Tb8  1  0.706703  0.519022  0.500000  1
  Tb  Tb9  1  0.980978  0.793297  0.500000  1
  Ga  Ga10  1  0.141609  0.644961  0.786569  1
  Ga  Ga11  1  0.855039  0.358391  0.213431  1
  Ga  Ga12  1  0.632692  0.867308  0.500000  1
  Bi  Bi13  1  0.244114  0.255886  0.000000  1
  Bi  Bi14  1  0.744114  0.755886  0.000000  1
  Os  Os15  1  0.374998  0.125002  0.500000  1
