# generated using pymatgen
data_Tb2Er2AlCo4
_symmetry_space_group_name_H-M   'P 1'
_cell_length_a   5.46661584
_cell_length_b   5.46661537
_cell_length_c   8.88658920
_cell_angle_alpha   71.21312524
_cell_angle_beta   71.21312586
_cell_angle_gamma   43.19575442
_symmetry_Int_Tables_number   1
_chemical_formula_structural   Tb2Er2AlCo4
_chemical_formula_sum   'Tb2 Er2 Al1 Co4'
_cell_volume   170.52573120
_cell_formula_units_Z   1
loop_
 _symmetry_equiv_pos_site_id
 _symmetry_equiv_pos_as_xyz
  1  'x, y, z'
loop_
 _atom_site_type_symbol
 _atom_site_label
 _atom_site_symmetry_multiplicity
 _atom_site_fract_x
 _atom_site_fract_y
 _atom_site_fract_z
 _atom_site_occupancy
  Tb  Tb0  1  0.745627  0.745627  0.663636  1
  Tb  Tb1  1  0.254373  0.254373  0.336364  1
  Er  Er2  1  0.391569  0.391569  0.886436  1
  Er  Er3  1  0.608431  0.608431  0.113564  1
  Al  Al4  1  0.500000  0.500000  0.500000  1
  Co  Co5  1  0.035562  0.035562  0.646007  1
  Co  Co6  1  0.964438  0.964438  0.353993  1
  Co  Co7  1  0.092001  0.092001  0.881377  1
  Co  Co8  1  0.907999  0.907999  0.118623  1
