# generated using pymatgen
data_Tb16CdHg3Ru3Pt
_symmetry_space_group_name_H-M   'P 1'
_cell_length_a   9.62340914
_cell_length_b   9.66166973
_cell_length_c   9.66167000
_cell_angle_alpha   59.99999909
_cell_angle_beta   59.86839385
_cell_angle_gamma   59.86839049
_symmetry_Int_Tables_number   1
_chemical_formula_structural   Tb16CdHg3Ru3Pt
_chemical_formula_sum   'Tb16 Cd1 Hg3 Ru3 Pt1'
_cell_volume   633.94494892
_cell_formula_units_Z   1
loop_
 _symmetry_equiv_pos_site_id
 _symmetry_equiv_pos_as_xyz
  1  'x, y, z'
loop_
 _atom_site_type_symbol
 _atom_site_label
 _atom_site_symmetry_multiplicity
 _atom_site_fract_x
 _atom_site_fract_y
 _atom_site_fract_z
 _atom_site_occupancy
  Tb  Tb0  1  0.346520  0.351957  0.351957  1
  Tb  Tb1  1  0.346520  0.351957  0.949568  1
  Tb  Tb2  1  0.346520  0.949568  0.351957  1
  Tb  Tb3  1  0.955262  0.348246  0.348246  1
  Tb  Tb4  1  0.814837  0.189710  0.189710  1
  Tb  Tb5  1  0.189613  0.810859  0.810859  1
  Tb  Tb6  1  0.189613  0.810859  0.188668  1
  Tb  Tb7  1  0.814837  0.189710  0.805744  1
  Tb  Tb8  1  0.189613  0.188668  0.810859  1
  Tb  Tb9  1  0.814837  0.805744  0.189710  1
  Tb  Tb10  1  0.934866  0.562759  0.562759  1
  Tb  Tb11  1  0.557832  0.938137  0.938137  1
  Tb  Tb12  1  0.557832  0.938137  0.565894  1
  Tb  Tb13  1  0.934866  0.562759  0.939617  1
  Tb  Tb14  1  0.557832  0.565894  0.938137  1
  Tb  Tb15  1  0.934866  0.939617  0.562759  1
  Cd  Cd16  1  0.259392  0.580202  0.580202  1
  Hg  Hg17  1  0.582936  0.583759  0.583759  1
  Hg  Hg18  1  0.582936  0.583759  0.249544  1
  Hg  Hg19  1  0.582936  0.249544  0.583759  1
  Ru  Ru20  1  0.144282  0.139069  0.139069  1
  Ru  Ru21  1  0.144282  0.139069  0.577581  1
  Ru  Ru22  1  0.144282  0.577581  0.139069  1
  Pt  Pt23  1  0.572688  0.142438  0.142438  1
