# generated using pymatgen
data_Tb3Nb3(Si2Ru5)2
_symmetry_space_group_name_H-M   'P 1'
_cell_length_a   9.98527778
_cell_length_b   9.98527795
_cell_length_c   3.25574700
_cell_angle_alpha   90.00000000
_cell_angle_beta   90.00000000
_cell_angle_gamma   89.88820560
_symmetry_Int_Tables_number   1
_chemical_formula_structural   Tb3Nb3(Si2Ru5)2
_chemical_formula_sum   'Tb3 Nb3 Si4 Ru10'
_cell_volume   324.61615693
_cell_formula_units_Z   1
loop_
 _symmetry_equiv_pos_site_id
 _symmetry_equiv_pos_as_xyz
  1  'x, y, z'
loop_
 _atom_site_type_symbol
 _atom_site_label
 _atom_site_symmetry_multiplicity
 _atom_site_fract_x
 _atom_site_fract_y
 _atom_site_fract_z
 _atom_site_occupancy
  Tb  Tb0  1  0.172288  0.827712  0.000000  1
  Tb  Tb1  1  0.326782  0.325837  0.000000  1
  Tb  Tb2  1  0.674163  0.673218  0.000000  1
  Nb  Nb3  1  0.499150  0.999165  0.000000  1
  Nb  Nb4  1  0.000835  0.500850  0.000000  1
  Nb  Nb5  1  0.826344  0.173656  0.000000  1
  Si  Si6  1  0.629087  0.370913  0.000000  1
  Si  Si7  1  0.375508  0.624492  0.000000  1
  Si  Si8  1  0.121974  0.126623  0.000000  1
  Si  Si9  1  0.873377  0.878026  0.000000  1
  Ru  Ru10  1  0.503009  0.496991  0.500000  1
  Ru  Ru11  1  0.989734  0.010266  0.500000  1
  Ru  Ru12  1  0.581302  0.204360  0.500000  1
  Ru  Ru13  1  0.434763  0.791217  0.500000  1
  Ru  Ru14  1  0.056857  0.289008  0.500000  1
  Ru  Ru15  1  0.930383  0.710973  0.500000  1
  Ru  Ru16  1  0.289027  0.069617  0.500000  1
  Ru  Ru17  1  0.710992  0.943143  0.500000  1
  Ru  Ru18  1  0.208783  0.565237  0.500000  1
  Ru  Ru19  1  0.795640  0.418698  0.500000  1
