# generated using pymatgen
data_Li2Dy5P12Ir16W
_symmetry_space_group_name_H-M   'P 1'
_cell_length_a   12.79077500
_cell_length_b   12.67370429
_cell_length_c   3.97676500
_cell_angle_alpha   90.00000000
_cell_angle_beta   90.00000000
_cell_angle_gamma   120.30603790
_symmetry_Int_Tables_number   1
_chemical_formula_structural   Li2Dy5P12Ir16W
_chemical_formula_sum   'Li2 Dy5 P12 Ir16 W1'
_cell_volume   556.56182726
_cell_formula_units_Z   1
loop_
 _symmetry_equiv_pos_site_id
 _symmetry_equiv_pos_as_xyz
  1  'x, y, z'
loop_
 _atom_site_type_symbol
 _atom_site_label
 _atom_site_symmetry_multiplicity
 _atom_site_fract_x
 _atom_site_fract_y
 _atom_site_fract_z
 _atom_site_occupancy
  Li  Li0  1  0.001019  0.443850  0.500000  1
  Li  Li1  1  0.557168  0.556150  0.500000  1
  Dy  Dy2  1  0.333931  0.667676  0.500000  1
  Dy  Dy3  1  0.666257  0.332324  0.500000  1
  Dy  Dy4  1  0.004049  0.811509  0.000000  1
  Dy  Dy5  1  0.192539  0.188491  0.000000  1
  Dy  Dy6  1  0.810958  0.000000  0.000000  1
  P  P7  1  0.998796  0.632641  0.500000  1
  P  P8  1  0.366156  0.367359  0.500000  1
  P  P9  1  0.634541  0.000000  0.500000  1
  P  P10  1  0.514802  0.685168  0.000000  1
  P  P11  1  0.314554  0.832307  0.000000  1
  P  P12  1  0.171827  0.482754  0.000000  1
  P  P13  1  0.482247  0.167693  0.000000  1
  P  P14  1  0.689073  0.517246  0.000000  1
  P  P15  1  0.829634  0.314832  0.000000  1
  P  P16  1  0.997758  0.179639  0.500000  1
  P  P17  1  0.818119  0.820361  0.500000  1
  P  P18  1  0.174163  0.000000  0.500000  1
  Ir  Ir19  1  0.507310  0.868670  0.000000  1
  Ir  Ir20  1  0.137362  0.642815  0.000000  1
  Ir  Ir21  1  0.358003  0.484980  0.000000  1
  Ir  Ir22  1  0.494549  0.357185  0.000000  1
  Ir  Ir23  1  0.873024  0.515020  0.000000  1
  Ir  Ir24  1  0.638641  0.131330  0.000000  1
  Ir  Ir25  1  0.998123  0.279149  0.000000  1
  Ir  Ir26  1  0.718976  0.720851  0.000000  1
  Ir  Ir27  1  0.285509  0.000000  0.000000  1
  Ir  Ir28  1  0.623632  0.805589  0.500000  1
  Ir  Ir29  1  0.192049  0.821660  0.500000  1
  Ir  Ir30  1  0.178191  0.374431  0.500000  1
  Ir  Ir31  1  0.370390  0.178340  0.500000  1
  Ir  Ir32  1  0.803760  0.625569  0.500000  1
  Ir  Ir33  1  0.818044  0.194411  0.500000  1
  Ir  Ir34  1  0.994998  0.000000  0.500000  1
  W  W35  1  0.449846  0.000000  0.500000  1
