# generated using pymatgen
data_Nd3Mg2PaNi4
_symmetry_space_group_name_H-M   'P 1'
_cell_length_a   7.64447827
_cell_length_b   7.64447912
_cell_length_c   3.66642800
_cell_angle_alpha   90.00000000
_cell_angle_beta   90.00000000
_cell_angle_gamma   92.00419807
_symmetry_Int_Tables_number   1
_chemical_formula_structural   Nd3Mg2PaNi4
_chemical_formula_sum   'Nd3 Mg2 Pa1 Ni4'
_cell_volume   214.12785004
_cell_formula_units_Z   1
loop_
 _symmetry_equiv_pos_site_id
 _symmetry_equiv_pos_as_xyz
  1  'x, y, z'
loop_
 _atom_site_type_symbol
 _atom_site_label
 _atom_site_symmetry_multiplicity
 _atom_site_fract_x
 _atom_site_fract_y
 _atom_site_fract_z
 _atom_site_occupancy
  Nd  Nd0  1  0.326648  0.826648  0.500000  1
  Nd  Nd1  1  0.170144  0.330398  0.500000  1
  Nd  Nd2  1  0.830398  0.670144  0.500000  1
  Mg  Mg3  1  0.997255  0.000224  0.000000  1
  Mg  Mg4  1  0.500224  0.497255  0.000000  1
  Pa  Pa5  1  0.668941  0.168941  0.500000  1
  Ni  Ni6  1  0.115793  0.615793  0.000000  1
  Ni  Ni7  1  0.852350  0.352350  0.000000  1
  Ni  Ni8  1  0.635631  0.902616  0.000000  1
  Ni  Ni9  1  0.402616  0.135631  0.000000  1
