# generated using pymatgen
data_Na12Fe3MoS8(O4F)8
_symmetry_space_group_name_H-M   'P 1'
_cell_length_a   6.73968800
_cell_length_b   8.94933400
_cell_length_c   14.24180400
_cell_angle_alpha   90.00000000
_cell_angle_beta   90.00000000
_cell_angle_gamma   90.00000000
_symmetry_Int_Tables_number   1
_chemical_formula_structural   Na12Fe3MoS8(O4F)8
_chemical_formula_sum   'Na12 Fe3 Mo1 S8 O32 F8'
_cell_volume   859.00464766
_cell_formula_units_Z   1
loop_
 _symmetry_equiv_pos_site_id
 _symmetry_equiv_pos_as_xyz
  1  'x, y, z'
loop_
 _atom_site_type_symbol
 _atom_site_label
 _atom_site_symmetry_multiplicity
 _atom_site_fract_x
 _atom_site_fract_y
 _atom_site_fract_z
 _atom_site_occupancy
  Na  Na0  1  0.520446  0.664169  0.909180  1
  Na  Na1  1  0.018049  0.830647  0.592859  1
  Na  Na2  1  0.481951  0.169353  0.592859  1
  Na  Na3  1  0.979554  0.335831  0.909180  1
  Na  Na4  1  0.479719  0.334890  0.095537  1
  Na  Na5  1  0.980107  0.166587  0.402991  1
  Na  Na6  1  0.519893  0.833413  0.402991  1
  Na  Na7  1  0.020281  0.665110  0.095537  1
  Na  Na8  1  0.750000  0.000000  0.052415  1
  Na  Na9  1  0.250000  0.500000  0.452138  1
  Na  Na10  1  0.250000  0.000000  0.954891  1
  Na  Na11  1  0.750000  0.500000  0.547788  1
  Fe  Fe12  1  0.250000  0.500000  0.694495  1
  Fe  Fe13  1  0.250000  0.000000  0.195084  1
  Fe  Fe14  1  0.750000  0.500000  0.305852  1
  Mo  Mo15  1  0.750000  0.000000  0.804428  1
  S  S16  1  0.006329  0.686933  0.857914  1
  S  S17  1  0.496930  0.805815  0.638742  1
  S  S18  1  0.003070  0.194185  0.638742  1
  S  S19  1  0.493671  0.313067  0.857914  1
  S  S20  1  0.996563  0.307430  0.143866  1
  S  S21  1  0.497130  0.193448  0.356681  1
  S  S22  1  0.002870  0.806552  0.356681  1
  S  S23  1  0.503437  0.692570  0.143866  1
  O  O24  1  0.444350  0.450929  0.801157  1
  O  O25  1  0.960419  0.053052  0.694225  1
  O  O26  1  0.539581  0.946948  0.694225  1
  O  O27  1  0.055650  0.549071  0.801157  1
  O  O28  1  0.550879  0.556086  0.202599  1
  O  O29  1  0.051352  0.943357  0.298335  1
  O  O30  1  0.448648  0.056643  0.298335  1
  O  O31  1  0.949121  0.443914  0.202599  1
  O  O32  1  0.187112  0.763488  0.888690  1
  O  O33  1  0.683085  0.734953  0.609884  1
  O  O34  1  0.816915  0.265047  0.609884  1
  O  O35  1  0.312888  0.236512  0.888690  1
  O  O36  1  0.813303  0.235781  0.111768  1
  O  O37  1  0.314623  0.267164  0.387601  1
  O  O38  1  0.185377  0.732836  0.387601  1
  O  O39  1  0.686697  0.764219  0.111768  1
  O  O40  1  0.882422  0.637890  0.937725  1
  O  O41  1  0.372862  0.850296  0.558214  1
  O  O42  1  0.127138  0.149704  0.558214  1
  O  O43  1  0.617578  0.362110  0.937725  1
  O  O44  1  0.121359  0.358889  0.065055  1
  O  O45  1  0.620316  0.141871  0.436052  1
  O  O46  1  0.879684  0.858129  0.436052  1
  O  O47  1  0.378641  0.641111  0.065055  1
  O  O48  1  0.379926  0.705219  0.703315  1
  O  O49  1  0.885815  0.784335  0.792932  1
  O  O50  1  0.614185  0.215665  0.792932  1
  O  O51  1  0.120074  0.294781  0.703315  1
  O  O52  1  0.617907  0.295316  0.294426  1
  O  O53  1  0.114551  0.203729  0.206035  1
  O  O54  1  0.385449  0.796271  0.206035  1
  O  O55  1  0.882093  0.704684  0.294426  1
  F  F56  1  0.569040  0.924416  0.913331  1
  F  F57  1  0.074398  0.571152  0.595807  1
  F  F58  1  0.425602  0.428848  0.595807  1
  F  F59  1  0.930960  0.075584  0.913331  1
  F  F60  1  0.422917  0.074202  0.096708  1
  F  F61  1  0.923493  0.427881  0.404825  1
  F  F62  1  0.576507  0.572119  0.404825  1
  F  F63  1  0.077083  0.925798  0.096708  1
