# generated using pymatgen
data_K4Hf4ZrO12
_symmetry_space_group_name_H-M   'P 1'
_cell_length_a   5.84486400
_cell_length_b   5.84486425
_cell_length_c   10.43599800
_cell_angle_alpha   90.00000000
_cell_angle_beta   90.00000000
_cell_angle_gamma   119.99999856
_symmetry_Int_Tables_number   1
_chemical_formula_structural   K4Hf4ZrO12
_chemical_formula_sum   'K4 Hf4 Zr1 O12'
_cell_volume   308.75461999
_cell_formula_units_Z   1
loop_
 _symmetry_equiv_pos_site_id
 _symmetry_equiv_pos_as_xyz
  1  'x, y, z'
loop_
 _atom_site_type_symbol
 _atom_site_label
 _atom_site_symmetry_multiplicity
 _atom_site_fract_x
 _atom_site_fract_y
 _atom_site_fract_z
 _atom_site_occupancy
  K  K0  1  0.666667  0.333333  0.613240  1
  K  K1  1  0.333333  0.666667  0.387510  1
  K  K2  1  0.000000  0.000000  0.821570  1
  K  K3  1  0.000000  0.000000  0.178504  1
  Hf  Hf4  1  0.666667  0.333333  0.284849  1
  Hf  Hf5  1  0.333333  0.666667  0.715743  1
  Hf  Hf6  1  0.666667  0.333333  0.976102  1
  Hf  Hf7  1  0.000000  0.000000  0.500262  1
  Zr  Zr8  1  0.333333  0.666667  0.024478  1
  O  O9  1  0.976301  0.488151  0.123054  1
  O  O10  1  0.511849  0.488151  0.123054  1
  O  O11  1  0.511849  0.023699  0.123054  1
  O  O12  1  0.491449  0.508551  0.876252  1
  O  O13  1  0.017102  0.508551  0.876252  1
  O  O14  1  0.491449  0.982898  0.876252  1
  O  O15  1  0.330111  0.165055  0.379317  1
  O  O16  1  0.834945  0.165055  0.379317  1
  O  O17  1  0.834945  0.669889  0.379317  1
  O  O18  1  0.165407  0.330814  0.620625  1
  O  O19  1  0.669186  0.834593  0.620625  1
  O  O20  1  0.165407  0.834593  0.620625  1
