# generated using pymatgen
data_Te8OsBr2
_symmetry_space_group_name_H-M   'P 1'
_cell_length_a   9.04259677
_cell_length_b   9.04259726
_cell_length_c   10.78165170
_cell_angle_alpha   77.53371478
_cell_angle_beta   77.53370993
_cell_angle_gamma   115.58408763
_symmetry_Int_Tables_number   1
_chemical_formula_structural   Te8OsBr2
_chemical_formula_sum   'Te16 Os2 Br4'
_cell_volume   727.02762261
_cell_formula_units_Z   2
loop_
 _symmetry_equiv_pos_site_id
 _symmetry_equiv_pos_as_xyz
  1  'x, y, z'
loop_
 _atom_site_type_symbol
 _atom_site_label
 _atom_site_symmetry_multiplicity
 _atom_site_fract_x
 _atom_site_fract_y
 _atom_site_fract_z
 _atom_site_occupancy
  Te  Te0  1  0.791943  0.084515  0.146840  1
  Te  Te1  1  0.915485  0.208057  0.353160  1
  Te  Te2  1  0.208057  0.915485  0.853160  1
  Te  Te3  1  0.084515  0.791943  0.646840  1
  Te  Te4  1  0.981781  0.766226  0.210533  1
  Te  Te5  1  0.233774  0.018219  0.289467  1
  Te  Te6  1  0.018219  0.233774  0.789467  1
  Te  Te7  1  0.766226  0.981781  0.710533  1
  Te  Te8  1  0.754191  0.718827  0.473575  1
  Te  Te9  1  0.281173  0.245809  0.026425  1
  Te  Te10  1  0.245809  0.281173  0.526425  1
  Te  Te11  1  0.718827  0.754191  0.973575  1
  Te  Te12  1  0.525322  0.795741  0.370214  1
  Te  Te13  1  0.204259  0.474678  0.129786  1
  Te  Te14  1  0.474678  0.204259  0.629786  1
  Te  Te15  1  0.795741  0.525322  0.870214  1
  Os  Os16  1  0.000000  0.000000  0.000000  1
  Os  Os17  1  0.000000  0.000000  0.500000  1
  Br  Br18  1  0.589102  0.410898  0.250000  1
  Br  Br19  1  0.410898  0.589102  0.750000  1
  Br  Br20  1  0.000000  0.500000  0.500000  1
  Br  Br21  1  0.500000  0.000000  0.000000  1
