# generated using pymatgen
data_Li3Tm3InSi2
_symmetry_space_group_name_H-M   'P 1'
_cell_length_a   7.12678500
_cell_length_b   7.12678574
_cell_length_c   4.18253700
_cell_angle_alpha   90.00000000
_cell_angle_beta   90.00000000
_cell_angle_gamma   119.99999193
_symmetry_Int_Tables_number   1
_chemical_formula_structural   Li3Tm3InSi2
_chemical_formula_sum   'Li3 Tm3 In1 Si2'
_cell_volume   183.97457916
_cell_formula_units_Z   1
loop_
 _symmetry_equiv_pos_site_id
 _symmetry_equiv_pos_as_xyz
  1  'x, y, z'
loop_
 _atom_site_type_symbol
 _atom_site_label
 _atom_site_symmetry_multiplicity
 _atom_site_fract_x
 _atom_site_fract_y
 _atom_site_fract_z
 _atom_site_occupancy
  Li  Li0  1  0.252334  0.000000  0.500000  1
  Li  Li1  1  0.747666  0.747666  0.500000  1
  Li  Li2  1  0.000000  0.252334  0.500000  1
  Tm  Tm3  1  0.000000  0.556131  0.000000  1
  Tm  Tm4  1  0.556131  0.000000  0.000000  1
  Tm  Tm5  1  0.443869  0.443869  0.000000  1
  In  In6  1  0.000000  0.000000  0.000000  1
  Si  Si7  1  0.333333  0.666667  0.500000  1
  Si  Si8  1  0.666667  0.333333  0.500000  1
