# generated using pymatgen
data_Li2Hf2PtRh3
_symmetry_space_group_name_H-M   'P 1'
_cell_length_a   4.46874222
_cell_length_b   6.25019759
_cell_length_c   13.32230754
_cell_angle_alpha   90.03272799
_cell_angle_beta   90.00303465
_cell_angle_gamma   90.03647079
_symmetry_Int_Tables_number   1
_chemical_formula_structural   Li2Hf2PtRh3
_chemical_formula_sum   'Li6 Hf6 Pt3 Rh9'
_cell_volume   372.09886507
_cell_formula_units_Z   3
loop_
 _symmetry_equiv_pos_site_id
 _symmetry_equiv_pos_as_xyz
  1  'x, y, z'
loop_
 _atom_site_type_symbol
 _atom_site_label
 _atom_site_symmetry_multiplicity
 _atom_site_fract_x
 _atom_site_fract_y
 _atom_site_fract_z
 _atom_site_occupancy
  Li  Li0  1  0.000006  0.499935  0.999612  1
  Li  Li1  1  0.499862  0.000252  0.167096  1
  Li  Li2  1  0.999913  0.500110  0.334722  1
  Li  Li3  1  0.499981  0.999781  0.500402  1
  Li  Li4  1  0.000142  0.500059  0.665912  1
  Li  Li5  1  0.500127  0.999773  0.832175  1
  Hf  Hf6  1  0.000022  0.996799  0.996952  1
  Hf  Hf7  1  0.499905  0.507272  0.171163  1
  Hf  Hf8  1  0.999913  0.996451  0.336740  1
  Hf  Hf9  1  0.499971  0.499623  0.500068  1
  Hf  Hf10  1  0.000134  0.000225  0.666325  1
  Hf  Hf11  1  0.500107  0.499928  0.828762  1
  Pt  Pt12  1  0.500228  0.251466  0.999707  1
  Pt  Pt13  1  0.499788  0.748204  0.999681  1
  Pt  Pt14  1  0.999712  0.250230  0.167246  1
  Rh  Rh15  1  0.999986  0.752055  0.166783  1
  Rh  Rh16  1  0.499921  0.248313  0.333884  1
  Rh  Rh17  1  0.499839  0.752388  0.334147  1
  Rh  Rh18  1  0.999924  0.250591  0.500193  1
  Rh  Rh19  1  0.000014  0.748069  0.500819  1
  Rh  Rh20  1  0.500181  0.248167  0.665958  1
  Rh  Rh21  1  0.500104  0.751505  0.666077  1
  Rh  Rh22  1  0.000080  0.250704  0.833126  1
  Rh  Rh23  1  0.000146  0.748099  0.832450  1
