# generated using pymatgen
data_Cs2Si(WO4)3
_symmetry_space_group_name_H-M   'P 1'
_cell_length_a   7.06600673
_cell_length_b   7.06600686
_cell_length_c   7.06600691
_cell_angle_alpha   62.65240239
_cell_angle_beta   62.65240279
_cell_angle_gamma   62.65240285
_symmetry_Int_Tables_number   1
_chemical_formula_structural   Cs2Si(WO4)3
_chemical_formula_sum   'Cs2 Si1 W3 O12'
_cell_volume   264.19233416
_cell_formula_units_Z   1
loop_
 _symmetry_equiv_pos_site_id
 _symmetry_equiv_pos_as_xyz
  1  'x, y, z'
loop_
 _atom_site_type_symbol
 _atom_site_label
 _atom_site_symmetry_multiplicity
 _atom_site_fract_x
 _atom_site_fract_y
 _atom_site_fract_z
 _atom_site_occupancy
  Cs  Cs0  1  0.371457  0.371457  0.371457  1
  Cs  Cs1  1  0.628543  0.628543  0.628543  1
  Si  Si2  1  0.000000  0.000000  0.000000  1
  W  W3  1  0.500000  0.000000  0.000000  1
  W  W4  1  0.000000  0.000000  0.500000  1
  W  W5  1  0.000000  0.500000  0.000000  1
  O  O6  1  0.945944  0.318932  0.318932  1
  O  O7  1  0.290578  0.947239  0.947239  1
  O  O8  1  0.318932  0.318932  0.945944  1
  O  O9  1  0.947239  0.947239  0.290578  1
  O  O10  1  0.947239  0.290578  0.947239  1
  O  O11  1  0.318932  0.945944  0.318932  1
  O  O12  1  0.054056  0.681068  0.681068  1
  O  O13  1  0.709422  0.052761  0.052761  1
  O  O14  1  0.681068  0.681068  0.054056  1
  O  O15  1  0.052761  0.052761  0.709422  1
  O  O16  1  0.052761  0.709422  0.052761  1
  O  O17  1  0.681068  0.054056  0.681068  1
