# generated using pymatgen
data_Sc4Co9P12Ir11
_symmetry_space_group_name_H-M   'P 1'
_cell_length_a   3.78194600
_cell_length_b   10.51935949
_cell_length_c   12.11631545
_cell_angle_alpha   89.79213653
_cell_angle_beta   90.00000000
_cell_angle_gamma   90.00000000
_symmetry_Int_Tables_number   1
_chemical_formula_structural   Sc4Co9P12Ir11
_chemical_formula_sum   'Sc4 Co9 P12 Ir11'
_cell_volume   482.02807560
_cell_formula_units_Z   1
loop_
 _symmetry_equiv_pos_site_id
 _symmetry_equiv_pos_as_xyz
  1  'x, y, z'
loop_
 _atom_site_type_symbol
 _atom_site_label
 _atom_site_symmetry_multiplicity
 _atom_site_fract_x
 _atom_site_fract_y
 _atom_site_fract_z
 _atom_site_occupancy
  Sc  Sc0  1  0.250000  0.582190  0.710209  1
  Sc  Sc1  1  0.250000  0.912618  0.214884  1
  Sc  Sc2  1  0.750000  0.422259  0.290218  1
  Sc  Sc3  1  0.750000  0.081062  0.789164  1
  Co  Co4  1  0.750000  0.724814  0.322659  1
  Co  Co5  1  0.250000  0.883437  0.696025  1
  Co  Co6  1  0.250000  0.622405  0.197106  1
  Co  Co7  1  0.750000  0.110471  0.302678  1
  Co  Co8  1  0.750000  0.384862  0.801904  1
  Co  Co9  1  0.250000  0.461909  0.932794  1
  Co  Co10  1  0.250000  0.036128  0.431348  1
  Co  Co11  1  0.750000  0.539141  0.069588  1
  Co  Co12  1  0.750000  0.964243  0.566455  1
  P  P13  1  0.250000  0.434052  0.114045  1
  P  P14  1  0.250000  0.068655  0.611853  1
  P  P15  1  0.750000  0.567860  0.888550  1
  P  P16  1  0.750000  0.921536  0.386225  1
  P  P17  1  0.250000  0.270957  0.869476  1
  P  P18  1  0.250000  0.227964  0.369623  1
  P  P19  1  0.750000  0.728179  0.141137  1
  P  P20  1  0.750000  0.772441  0.629577  1
  P  P21  1  0.250000  0.603668  0.373474  1
  P  P22  1  0.250000  0.901943  0.875754  1
  P  P23  1  0.750000  0.405427  0.622739  1
  P  P24  1  0.750000  0.095379  0.124623  1
  Ir  Ir25  1  0.250000  0.719539  0.989526  1
  Ir  Ir26  1  0.250000  0.782944  0.484887  1
  Ir  Ir27  1  0.750000  0.277449  0.008862  1
  Ir  Ir28  1  0.750000  0.224024  0.506694  1
  Ir  Ir29  1  0.250000  0.413571  0.470708  1
  Ir  Ir30  1  0.250000  0.087321  0.973795  1
  Ir  Ir31  1  0.750000  0.592692  0.523351  1
  Ir  Ir32  1  0.750000  0.906875  0.030519  1
  Ir  Ir33  1  0.250000  0.229255  0.180423  1
  Ir  Ir34  1  0.250000  0.271770  0.679043  1
  Ir  Ir35  1  0.750000  0.770959  0.820086  1
