# generated using pymatgen
data_Ca10TaReN10
_symmetry_space_group_name_H-M   'P 1'
_cell_length_a   6.95022003
_cell_length_b   6.95021930
_cell_length_c   8.97264349
_cell_angle_alpha   79.98442205
_cell_angle_beta   79.98442144
_cell_angle_gamma   59.64097607
_symmetry_Int_Tables_number   1
_chemical_formula_structural   Ca10TaReN10
_chemical_formula_sum   'Ca10 Ta1 Re1 N10'
_cell_volume   366.40344863
_cell_formula_units_Z   1
loop_
 _symmetry_equiv_pos_site_id
 _symmetry_equiv_pos_as_xyz
  1  'x, y, z'
loop_
 _atom_site_type_symbol
 _atom_site_label
 _atom_site_symmetry_multiplicity
 _atom_site_fract_x
 _atom_site_fract_y
 _atom_site_fract_z
 _atom_site_occupancy
  Ca  Ca0  1  0.875433  0.349780  0.830026  1
  Ca  Ca1  1  0.874030  0.874030  0.823636  1
  Ca  Ca2  1  0.741878  0.741878  0.525140  1
  Ca  Ca3  1  0.755793  0.245004  0.507135  1
  Ca  Ca4  1  0.634791  0.134994  0.151813  1
  Ca  Ca5  1  0.349780  0.875433  0.830026  1
  Ca  Ca6  1  0.245004  0.755793  0.507135  1
  Ca  Ca7  1  0.243357  0.243357  0.497171  1
  Ca  Ca8  1  0.138906  0.138906  0.157978  1
  Ca  Ca9  1  0.134994  0.634791  0.151813  1
  Ta  Ta10  1  0.368988  0.368988  0.778033  1
  Re  Re11  1  0.631073  0.631073  0.225207  1
  N  N12  1  0.904373  0.474779  0.316230  1
  N  N13  1  0.996995  0.996995  0.012222  1
  N  N14  1  0.675845  0.675845  0.018641  1
  N  N15  1  0.534744  0.534744  0.693687  1
  N  N16  1  0.474779  0.904373  0.316230  1
  N  N17  1  0.536553  0.084755  0.681088  1
  N  N18  1  0.474736  0.474736  0.295845  1
  N  N19  1  0.322253  0.322253  0.999837  1
  N  N20  1  0.063225  0.063225  0.645825  1
  N  N21  1  0.084755  0.536553  0.681088  1
