# generated using pymatgen
data_Y4Ho2TcBi2
_symmetry_space_group_name_H-M   'P 1'
_cell_length_a   8.30989400
_cell_length_b   8.32005688
_cell_length_c   4.28852700
_cell_angle_alpha   90.00000000
_cell_angle_beta   90.00000000
_cell_angle_gamma   119.95960161
_symmetry_Int_Tables_number   1
_chemical_formula_structural   Y4Ho2TcBi2
_chemical_formula_sum   'Y4 Ho2 Tc1 Bi2'
_cell_volume   256.88409091
_cell_formula_units_Z   1
loop_
 _symmetry_equiv_pos_site_id
 _symmetry_equiv_pos_as_xyz
  1  'x, y, z'
loop_
 _atom_site_type_symbol
 _atom_site_label
 _atom_site_symmetry_multiplicity
 _atom_site_fract_x
 _atom_site_fract_y
 _atom_site_fract_z
 _atom_site_occupancy
  Y  Y0  1  0.233088  0.000000  0.000000  1
  Y  Y1  1  0.999097  0.605505  0.500000  1
  Y  Y2  1  0.393591  0.394495  0.500000  1
  Y  Y3  1  0.607640  0.000000  0.500000  1
  Ho  Ho4  1  0.768916  0.769057  0.000000  1
  Ho  Ho5  1  0.999859  0.230943  0.000000  1
  Tc  Tc6  1  0.997658  0.000000  0.500000  1
  Bi  Bi7  1  0.333187  0.666223  0.000000  1
  Bi  Bi8  1  0.666965  0.333777  0.000000  1
