# generated using pymatgen
data_Ho10Ga3B16Pd
_symmetry_space_group_name_H-M   'P 1'
_cell_length_a   7.18663402
_cell_length_b   7.18663402
_cell_length_c   8.30639500
_cell_angle_alpha   90.00000000
_cell_angle_beta   90.00000000
_cell_angle_gamma   90.19135717
_symmetry_Int_Tables_number   1
_chemical_formula_structural   Ho10Ga3B16Pd
_chemical_formula_sum   'Ho10 Ga3 B16 Pd1'
_cell_volume   429.00387535
_cell_formula_units_Z   1
loop_
 _symmetry_equiv_pos_site_id
 _symmetry_equiv_pos_as_xyz
  1  'x, y, z'
loop_
 _atom_site_type_symbol
 _atom_site_label
 _atom_site_symmetry_multiplicity
 _atom_site_fract_x
 _atom_site_fract_y
 _atom_site_fract_z
 _atom_site_occupancy
  Ho  Ho0  1  0.682130  0.182130  0.215284  1
  Ho  Ho1  1  0.317843  0.817843  0.786986  1
  Ho  Ho2  1  0.317843  0.817843  0.213014  1
  Ho  Ho3  1  0.816432  0.681148  0.216012  1
  Ho  Ho4  1  0.816432  0.681148  0.783988  1
  Ho  Ho5  1  0.682130  0.182130  0.784716  1
  Ho  Ho6  1  0.181148  0.316432  0.783988  1
  Ho  Ho7  1  0.181148  0.316432  0.216012  1
  Ho  Ho8  1  0.003615  0.991847  0.500000  1
  Ho  Ho9  1  0.491847  0.503615  0.500000  1
  Ga  Ga10  1  0.885902  0.385902  0.500000  1
  Ga  Ga11  1  0.380407  0.119358  0.500000  1
  Ga  Ga12  1  0.619358  0.880407  0.500000  1
  B  B13  1  0.171231  0.039738  0.000000  1
  B  B14  1  0.828049  0.959540  0.000000  1
  B  B15  1  0.959321  0.172198  0.000000  1
  B  B16  1  0.327375  0.539731  0.000000  1
  B  B17  1  0.039731  0.827375  0.000000  1
  B  B18  1  0.672198  0.459321  0.000000  1
  B  B19  1  0.539738  0.671231  0.000000  1
  B  B20  1  0.459540  0.328049  0.000000  1
  B  B21  1  0.090133  0.590133  0.000000  1
  B  B22  1  0.909357  0.409357  0.000000  1
  B  B23  1  0.409502  0.090103  0.000000  1
  B  B24  1  0.590103  0.909502  0.000000  1
  B  B25  1  0.999713  0.999458  0.159565  1
  B  B26  1  0.999713  0.999458  0.840435  1
  B  B27  1  0.499458  0.499713  0.840435  1
  B  B28  1  0.499458  0.499713  0.159565  1
  Pd  Pd29  1  0.129146  0.629146  0.500000  1
