# generated using pymatgen
data_NaAc10Nd9Sn16
_symmetry_space_group_name_H-M   'P 1'
_cell_length_a   8.53030301
_cell_length_b   8.67284267
_cell_length_c   16.53704600
_cell_angle_alpha   89.71070698
_cell_angle_beta   90.00306283
_cell_angle_gamma   89.99049572
_symmetry_Int_Tables_number   1
_chemical_formula_structural   NaAc10Nd9Sn16
_chemical_formula_sum   'Na1 Ac10 Nd9 Sn16'
_cell_volume   1223.42772597
_cell_formula_units_Z   1
loop_
 _symmetry_equiv_pos_site_id
 _symmetry_equiv_pos_as_xyz
  1  'x, y, z'
loop_
 _atom_site_type_symbol
 _atom_site_label
 _atom_site_symmetry_multiplicity
 _atom_site_fract_x
 _atom_site_fract_y
 _atom_site_fract_z
 _atom_site_occupancy
  Na  Na0  1  0.192862  0.998032  0.249299  1
  Ac  Ac1  1  0.490991  0.820542  0.904296  1
  Ac  Ac2  1  0.991311  0.680998  0.595022  1
  Ac  Ac3  1  0.503358  0.176492  0.401363  1
  Ac  Ac4  1  0.010521  0.314492  0.100296  1
  Ac  Ac5  1  0.502718  0.179891  0.098761  1
  Ac  Ac6  1  0.008021  0.309639  0.399839  1
  Ac  Ac7  1  0.487417  0.819102  0.596137  1
  Ac  Ac8  1  0.987955  0.681430  0.903672  1
  Ac  Ac9  1  0.644950  0.339415  0.884504  1
  Ac  Ac10  1  0.142165  0.164298  0.617958  1
  Nd  Nd11  1  0.356634  0.669174  0.374032  1
  Nd  Nd12  1  0.866597  0.837272  0.127032  1
  Nd  Nd13  1  0.355801  0.668042  0.122576  1
  Nd  Nd14  1  0.862484  0.838855  0.376995  1
  Nd  Nd15  1  0.648642  0.338461  0.621771  1
  Nd  Nd16  1  0.146435  0.165366  0.875982  1
  Nd  Nd17  1  0.309442  0.500460  0.752134  1
  Nd  Nd18  1  0.808720  0.001365  0.747980  1
  Nd  Nd19  1  0.689219  0.501082  0.251186  1
  Sn  Sn20  1  0.189393  0.955851  0.036289  1
  Sn  Sn21  1  0.691011  0.539198  0.455813  1
  Sn  Sn22  1  0.794445  0.039702  0.540123  1
  Sn  Sn23  1  0.293080  0.462146  0.959414  1
  Sn  Sn24  1  0.821245  0.034555  0.961227  1
  Sn  Sn25  1  0.319497  0.465788  0.538599  1
  Sn  Sn26  1  0.194132  0.948602  0.455778  1
  Sn  Sn27  1  0.695749  0.547110  0.051813  1
  Sn  Sn28  1  0.683587  0.642993  0.748469  1
  Sn  Sn29  1  0.185360  0.857670  0.751526  1
  Sn  Sn30  1  0.315805  0.372618  0.249178  1
  Sn  Sn31  1  0.801284  0.135465  0.250490  1
  Sn  Sn32  1  0.446099  0.120809  0.752082  1
  Sn  Sn33  1  0.945300  0.381268  0.748154  1
  Sn  Sn34  1  0.561247  0.877901  0.249010  1
  Sn  Sn35  1  0.056524  0.613910  0.251202  1
