# generated using pymatgen
data_La4Al18IrRuPt4
_symmetry_space_group_name_H-M   'P 1'
_cell_length_a   7.71524122
_cell_length_b   7.71524307
_cell_length_c   9.64876354
_cell_angle_alpha   89.91726366
_cell_angle_beta   89.91726176
_cell_angle_gamma   119.64851212
_symmetry_Int_Tables_number   1
_chemical_formula_structural   La4Al18IrRuPt4
_chemical_formula_sum   'La4 Al18 Ir1 Ru1 Pt4'
_cell_volume   499.14525760
_cell_formula_units_Z   1
loop_
 _symmetry_equiv_pos_site_id
 _symmetry_equiv_pos_as_xyz
  1  'x, y, z'
loop_
 _atom_site_type_symbol
 _atom_site_label
 _atom_site_symmetry_multiplicity
 _atom_site_fract_x
 _atom_site_fract_y
 _atom_site_fract_z
 _atom_site_occupancy
  La  La0  1  0.996456  0.669544  0.250281  1
  La  La1  1  0.004324  0.330483  0.749513  1
  La  La2  1  0.669517  0.995676  0.250487  1
  La  La3  1  0.330456  0.003544  0.749719  1
  Al  Al4  1  0.134948  0.134716  0.251246  1
  Al  Al5  1  0.865284  0.865052  0.748754  1
  Al  Al6  1  0.004655  0.334153  0.075629  1
  Al  Al7  1  0.995040  0.665233  0.924556  1
  Al  Al8  1  0.999357  0.661913  0.571167  1
  Al  Al9  1  0.338087  0.000643  0.428833  1
  Al  Al10  1  0.004129  0.340066  0.428789  1
  Al  Al11  1  0.659934  0.995871  0.571211  1
  Al  Al12  1  0.665847  0.995345  0.924371  1
  Al  Al13  1  0.334767  0.004960  0.075444  1
  Al  Al14  1  0.336850  0.339183  0.545858  1
  Al  Al15  1  0.660817  0.663150  0.454142  1
  Al  Al16  1  0.662951  0.662727  0.055939  1
  Al  Al17  1  0.337273  0.337049  0.944061  1
  Al  Al18  1  0.340293  0.545192  0.255651  1
  Al  Al19  1  0.659873  0.455652  0.746039  1
  Al  Al20  1  0.544348  0.340127  0.253961  1
  Al  Al21  1  0.454808  0.659707  0.744349  1
  Ir  Ir22  1  0.670441  0.329559  0.500000  1
  Ru  Ru23  1  0.329272  0.670728  0.500000  1
  Pt  Pt24  1  0.671205  0.328795  0.000000  1
  Pt  Pt25  1  0.329102  0.670898  0.000000  1
  Pt  Pt26  1  0.000153  0.999847  0.000000  1
  Pt  Pt27  1  0.999814  0.000186  0.500000  1
