# generated using pymatgen
data_NdY5Al14(Si5Os4)2
_symmetry_space_group_name_H-M   'P 1'
_cell_length_a   8.73779608
_cell_length_b   8.73802555
_cell_length_c   9.34496100
_cell_angle_alpha   90.00000000
_cell_angle_beta   90.00000000
_cell_angle_gamma   120.05622387
_symmetry_Int_Tables_number   1
_chemical_formula_structural   NdY5Al14(Si5Os4)2
_chemical_formula_sum   'Nd1 Y5 Al14 Si10 Os8'
_cell_volume   617.55694802
_cell_formula_units_Z   1
loop_
 _symmetry_equiv_pos_site_id
 _symmetry_equiv_pos_as_xyz
  1  'x, y, z'
loop_
 _atom_site_type_symbol
 _atom_site_label
 _atom_site_symmetry_multiplicity
 _atom_site_fract_x
 _atom_site_fract_y
 _atom_site_fract_z
 _atom_site_occupancy
  Nd  Nd0  1  0.187300  0.377195  0.250000  1
  Y  Y1  1  0.808800  0.614894  0.750000  1
  Y  Y2  1  0.614288  0.808846  0.250000  1
  Y  Y3  1  0.386204  0.192036  0.750000  1
  Y  Y4  1  0.194144  0.806245  0.250000  1
  Y  Y5  1  0.806299  0.194139  0.750000  1
  Al  Al6  1  0.165470  0.329000  0.579704  1
  Al  Al7  1  0.835157  0.669321  0.422186  1
  Al  Al8  1  0.671573  0.835110  0.578291  1
  Al  Al9  1  0.835157  0.669321  0.077814  1
  Al  Al10  1  0.333136  0.165437  0.422764  1
  Al  Al11  1  0.165470  0.329000  0.920296  1
  Al  Al12  1  0.164424  0.836207  0.578256  1
  Al  Al13  1  0.333136  0.165437  0.077236  1
  Al  Al14  1  0.832191  0.166248  0.424074  1
  Al  Al15  1  0.671573  0.835110  0.921709  1
  Al  Al16  1  0.832191  0.166248  0.075926  1
  Al  Al17  1  0.164424  0.836207  0.921744  1
  Al  Al18  1  0.436161  0.565581  0.750000  1
  Al  Al19  1  0.999759  0.000705  0.750000  1
  Si  Si20  1  0.335200  0.666350  0.038771  1
  Si  Si21  1  0.666347  0.334920  0.957720  1
  Si  Si22  1  0.666347  0.334920  0.542280  1
  Si  Si23  1  0.335200  0.666350  0.461229  1
  Si  Si24  1  0.560512  0.122575  0.250000  1
  Si  Si25  1  0.435990  0.875756  0.750000  1
  Si  Si26  1  0.873367  0.439856  0.250000  1
  Si  Si27  1  0.124754  0.565118  0.750000  1
  Si  Si28  1  0.566371  0.438657  0.250000  1
  Si  Si29  1  0.995760  0.987571  0.250000  1
  Os  Os30  1  0.499995  0.000776  0.000025  1
  Os  Os31  1  0.998685  0.500857  0.999305  1
  Os  Os32  1  0.499995  0.000776  0.499975  1
  Os  Os33  1  0.502638  0.500109  0.005624  1
  Os  Os34  1  0.998685  0.500857  0.500695  1
  Os  Os35  1  0.502638  0.500109  0.494376  1
  Os  Os36  1  0.000332  0.001080  0.007783  1
  Os  Os37  1  0.000332  0.001080  0.492217  1
