# generated using pymatgen
data_TmMg(NbSe2)8
_symmetry_space_group_name_H-M   'P 1'
_cell_length_a   7.02131000
_cell_length_b   7.02131015
_cell_length_c   13.89690200
_cell_angle_alpha   90.00000000
_cell_angle_beta   90.00000000
_cell_angle_gamma   119.99999930
_symmetry_Int_Tables_number   1
_chemical_formula_structural   TmMg(NbSe2)8
_chemical_formula_sum   'Tm1 Mg1 Nb8 Se16'
_cell_volume   593.31446308
_cell_formula_units_Z   1
loop_
 _symmetry_equiv_pos_site_id
 _symmetry_equiv_pos_as_xyz
  1  'x, y, z'
loop_
 _atom_site_type_symbol
 _atom_site_label
 _atom_site_symmetry_multiplicity
 _atom_site_fract_x
 _atom_site_fract_y
 _atom_site_fract_z
 _atom_site_occupancy
  Tm  Tm0  1  0.000000  0.000000  0.500000  1
  Mg  Mg1  1  0.000000  0.000000  0.000000  1
  Nb  Nb2  1  0.000000  0.000000  0.243541  1
  Nb  Nb3  1  0.000000  0.000000  0.756459  1
  Nb  Nb4  1  0.506953  0.013906  0.242079  1
  Nb  Nb5  1  0.986094  0.493047  0.242079  1
  Nb  Nb6  1  0.506953  0.493047  0.242079  1
  Nb  Nb7  1  0.493047  0.986094  0.757921  1
  Nb  Nb8  1  0.013906  0.506953  0.757921  1
  Nb  Nb9  1  0.493047  0.506953  0.757921  1
  Se  Se10  1  0.333333  0.666667  0.881402  1
  Se  Se11  1  0.666667  0.333333  0.118598  1
  Se  Se12  1  0.666667  0.333333  0.366323  1
  Se  Se13  1  0.333333  0.666667  0.633677  1
  Se  Se14  1  0.169324  0.830676  0.362463  1
  Se  Se15  1  0.169324  0.338647  0.362463  1
  Se  Se16  1  0.661353  0.830676  0.362463  1
  Se  Se17  1  0.830676  0.169324  0.637537  1
  Se  Se18  1  0.830676  0.661353  0.637537  1
  Se  Se19  1  0.338647  0.169324  0.637537  1
  Se  Se20  1  0.831154  0.168846  0.876238  1
  Se  Se21  1  0.831154  0.662308  0.876238  1
  Se  Se22  1  0.337692  0.168846  0.876238  1
  Se  Se23  1  0.168846  0.831154  0.123762  1
  Se  Se24  1  0.168846  0.337692  0.123762  1
  Se  Se25  1  0.662308  0.831154  0.123762  1
