# generated using pymatgen
data_DyY3Al17GaPtRh5
_symmetry_space_group_name_H-M   'P 1'
_cell_length_a   7.57493504
_cell_length_b   7.57519808
_cell_length_c   9.47936900
_cell_angle_alpha   89.99338185
_cell_angle_beta   89.99406237
_cell_angle_gamma   119.52542113
_symmetry_Int_Tables_number   1
_chemical_formula_structural   DyY3Al17GaPtRh5
_chemical_formula_sum   'Dy1 Y3 Al17 Ga1 Pt1 Rh5'
_cell_volume   473.30383845
_cell_formula_units_Z   1
loop_
 _symmetry_equiv_pos_site_id
 _symmetry_equiv_pos_as_xyz
  1  'x, y, z'
loop_
 _atom_site_type_symbol
 _atom_site_label
 _atom_site_symmetry_multiplicity
 _atom_site_fract_x
 _atom_site_fract_y
 _atom_site_fract_z
 _atom_site_occupancy
  Dy  Dy0  1  0.330517  0.006041  0.249919  1
  Y  Y1  1  0.993445  0.671285  0.750093  1
  Y  Y2  1  0.004135  0.329031  0.250156  1
  Y  Y3  1  0.673063  0.995490  0.749806  1
  Al  Al4  1  0.873105  0.872154  0.249657  1
  Al  Al5  1  0.005067  0.335498  0.576309  1
  Al  Al6  1  0.002612  0.668557  0.423732  1
  Al  Al7  1  0.000435  0.665073  0.074518  1
  Al  Al8  1  0.335348  0.999770  0.925769  1
  Al  Al9  1  0.001309  0.335261  0.925207  1
  Al  Al10  1  0.664949  0.998874  0.074823  1
  Al  Al11  1  0.664439  0.995071  0.423701  1
  Al  Al12  1  0.331680  0.997623  0.576072  1
  Al  Al13  1  0.332775  0.332635  0.051722  1
  Al  Al14  1  0.666806  0.666858  0.949974  1
  Al  Al15  1  0.665868  0.669140  0.552665  1
  Al  Al16  1  0.330366  0.333614  0.445590  1
  Al  Al17  1  0.339446  0.551213  0.750403  1
  Al  Al18  1  0.660233  0.453930  0.246797  1
  Al  Al19  1  0.546722  0.338802  0.753236  1
  Al  Al20  1  0.449847  0.660278  0.249635  1
  Ga  Ga21  1  0.129793  0.128717  0.750332  1
  Pt  Pt22  1  0.671464  0.327145  0.500295  1
  Rh  Rh23  1  0.327774  0.671143  0.500436  1
  Rh  Rh24  1  0.327994  0.670845  0.999598  1
  Rh  Rh25  1  0.671470  0.327291  0.999600  1
  Rh  Rh26  1  0.999559  0.999508  0.497372  1
  Rh  Rh27  1  0.999778  0.999153  0.002584  1
