# generated using pymatgen
data_Nd3Bi(OF)4
_symmetry_space_group_name_H-M   'P 1'
_cell_length_a   5.78118044
_cell_length_b   5.68864300
_cell_length_c   5.69009813
_cell_angle_alpha   90.00046285
_cell_angle_beta   90.11657157
_cell_angle_gamma   89.99986820
_symmetry_Int_Tables_number   1
_chemical_formula_structural   Nd3Bi(OF)4
_chemical_formula_sum   'Nd3 Bi1 O4 F4'
_cell_volume   187.13027770
_cell_formula_units_Z   1
loop_
 _symmetry_equiv_pos_site_id
 _symmetry_equiv_pos_as_xyz
  1  'x, y, z'
loop_
 _atom_site_type_symbol
 _atom_site_label
 _atom_site_symmetry_multiplicity
 _atom_site_fract_x
 _atom_site_fract_y
 _atom_site_fract_z
 _atom_site_occupancy
  Nd  Nd0  1  0.723461  0.000034  0.250405  1
  Nd  Nd1  1  0.276969  0.999972  0.749526  1
  Nd  Nd2  1  0.723508  0.499980  0.750476  1
  Bi  Bi3  1  0.314224  0.500027  0.249546  1
  O  O4  1  0.500926  0.251406  0.001296  1
  O  O5  1  0.500987  0.748604  0.001336  1
  O  O6  1  0.500943  0.251300  0.498648  1
  O  O7  1  0.500991  0.748704  0.498684  1
  F  F8  1  0.989416  0.238293  0.988907  1
  F  F9  1  0.989583  0.760814  0.511143  1
  F  F10  1  0.989498  0.239170  0.511281  1
  F  F11  1  0.989495  0.761698  0.988752  1
