# generated using pymatgen
data_PrPa(Al3Rh)3
_symmetry_space_group_name_H-M   'P 1'
_cell_length_a   7.64414584
_cell_length_b   7.63340851
_cell_length_c   9.46465000
_cell_angle_alpha   90.00000000
_cell_angle_beta   90.00000000
_cell_angle_gamma   119.54365836
_symmetry_Int_Tables_number   1
_chemical_formula_structural   PrPa(Al3Rh)3
_chemical_formula_sum   'Pr2 Pa2 Al18 Rh6'
_cell_volume   480.46461496
_cell_formula_units_Z   2
loop_
 _symmetry_equiv_pos_site_id
 _symmetry_equiv_pos_as_xyz
  1  'x, y, z'
loop_
 _atom_site_type_symbol
 _atom_site_label
 _atom_site_symmetry_multiplicity
 _atom_site_fract_x
 _atom_site_fract_y
 _atom_site_fract_z
 _atom_site_occupancy
  Pr  Pr0  1  0.669979  0.993933  0.750000  1
  Pr  Pr1  1  0.330021  0.006067  0.250000  1
  Pa  Pa2  1  0.996971  0.671280  0.750000  1
  Pa  Pa3  1  0.003029  0.328720  0.250000  1
  Al  Al4  1  0.131244  0.127709  0.750000  1
  Al  Al5  1  0.868756  0.872291  0.250000  1
  Al  Al6  1  0.002213  0.334884  0.574920  1
  Al  Al7  1  0.997787  0.665116  0.425080  1
  Al  Al8  1  0.997787  0.665116  0.074920  1
  Al  Al9  1  0.335259  0.002332  0.924713  1
  Al  Al10  1  0.002213  0.334884  0.925080  1
  Al  Al11  1  0.664741  0.997668  0.075287  1
  Al  Al12  1  0.664741  0.997668  0.424713  1
  Al  Al13  1  0.335259  0.002332  0.575287  1
  Al  Al14  1  0.334371  0.334776  0.049551  1
  Al  Al15  1  0.665629  0.665224  0.950449  1
  Al  Al16  1  0.665629  0.665224  0.549551  1
  Al  Al17  1  0.334371  0.334776  0.450449  1
  Al  Al18  1  0.337573  0.546426  0.750000  1
  Al  Al19  1  0.662427  0.453574  0.250000  1
  Al  Al20  1  0.550299  0.345061  0.750000  1
  Al  Al21  1  0.449701  0.654939  0.250000  1
  Rh  Rh22  1  0.675670  0.330869  0.499655  1
  Rh  Rh23  1  0.324330  0.669131  0.500345  1
  Rh  Rh24  1  0.324330  0.669131  0.999655  1
  Rh  Rh25  1  0.675670  0.330869  0.000345  1
  Rh  Rh26  1  0.000000  0.000000  0.500000  1
  Rh  Rh27  1  0.000000  0.000000  0.000000  1
