# generated using pymatgen
data_Nd5FeMoO12
_symmetry_space_group_name_H-M   'P 1'
_cell_length_a   7.06640127
_cell_length_b   7.06640090
_cell_length_c   7.62927140
_cell_angle_alpha   74.37788551
_cell_angle_beta   74.37788981
_cell_angle_gamma   51.02631941
_symmetry_Int_Tables_number   1
_chemical_formula_structural   Nd5FeMoO12
_chemical_formula_sum   'Nd5 Fe1 Mo1 O12'
_cell_volume   282.67954731
_cell_formula_units_Z   1
loop_
 _symmetry_equiv_pos_site_id
 _symmetry_equiv_pos_as_xyz
  1  'x, y, z'
loop_
 _atom_site_type_symbol
 _atom_site_label
 _atom_site_symmetry_multiplicity
 _atom_site_fract_x
 _atom_site_fract_y
 _atom_site_fract_z
 _atom_site_occupancy
  Nd  Nd0  1  0.315159  0.294414  0.358301  1
  Nd  Nd1  1  0.705586  0.684841  0.641699  1
  Nd  Nd2  1  0.307142  0.306218  0.833431  1
  Nd  Nd3  1  0.693782  0.692858  0.166569  1
  Nd  Nd4  1  0.007590  0.992410  0.500000  1
  Fe  Fe5  1  0.738167  0.261833  0.000000  1
  Mo  Mo6  1  0.227087  0.772913  0.000000  1
  O  O7  1  0.898699  0.423510  0.920508  1
  O  O8  1  0.418061  0.897142  0.920090  1
  O  O9  1  0.102858  0.581939  0.079910  1
  O  O10  1  0.576490  0.101301  0.079492  1
  O  O11  1  0.102323  0.592456  0.574231  1
  O  O12  1  0.601344  0.089113  0.578451  1
  O  O13  1  0.910887  0.398656  0.421549  1
  O  O14  1  0.407544  0.897677  0.425769  1
  O  O15  1  0.012711  0.987483  0.821602  1
  O  O16  1  0.012517  0.987289  0.178398  1
  O  O17  1  0.480129  0.518075  0.823679  1
  O  O18  1  0.481925  0.519871  0.176321  1
