# generated using pymatgen
data_Sm3Ni5Sb5Pd
_symmetry_space_group_name_H-M   'P 1'
_cell_length_a   4.30655000
_cell_length_b   9.88448800
_cell_length_c   12.99228100
_cell_angle_alpha   90.00000000
_cell_angle_beta   90.00000000
_cell_angle_gamma   90.00000000
_symmetry_Int_Tables_number   1
_chemical_formula_structural   Sm3Ni5Sb5Pd
_chemical_formula_sum   'Sm6 Ni10 Sb10 Pd2'
_cell_volume   553.05596064
_cell_formula_units_Z   2
loop_
 _symmetry_equiv_pos_site_id
 _symmetry_equiv_pos_as_xyz
  1  'x, y, z'
loop_
 _atom_site_type_symbol
 _atom_site_label
 _atom_site_symmetry_multiplicity
 _atom_site_fract_x
 _atom_site_fract_y
 _atom_site_fract_z
 _atom_site_occupancy
  Sm  Sm0  1  0.000000  0.242106  0.000000  1
  Sm  Sm1  1  0.500000  0.757894  0.500000  1
  Sm  Sm2  1  0.000000  0.244205  0.323811  1
  Sm  Sm3  1  0.500000  0.755795  0.176189  1
  Sm  Sm4  1  0.000000  0.244205  0.676189  1
  Sm  Sm5  1  0.500000  0.755795  0.823811  1
  Ni  Ni6  1  0.000000  0.992201  0.159106  1
  Ni  Ni7  1  0.500000  0.007799  0.340894  1
  Ni  Ni8  1  0.000000  0.992201  0.840894  1
  Ni  Ni9  1  0.500000  0.007799  0.659106  1
  Ni  Ni10  1  0.500000  0.984838  0.000000  1
  Ni  Ni11  1  0.000000  0.015162  0.500000  1
  Ni  Ni12  1  0.000000  0.618244  0.321125  1
  Ni  Ni13  1  0.500000  0.381756  0.178875  1
  Ni  Ni14  1  0.000000  0.618244  0.678875  1
  Ni  Ni15  1  0.500000  0.381756  0.821125  1
  Sb  Sb16  1  0.000000  0.512354  0.139072  1
  Sb  Sb17  1  0.500000  0.487646  0.360928  1
  Sb  Sb18  1  0.000000  0.512354  0.860928  1
  Sb  Sb19  1  0.500000  0.487646  0.639072  1
  Sb  Sb20  1  0.000000  0.871882  0.335778  1
  Sb  Sb21  1  0.500000  0.128118  0.164222  1
  Sb  Sb22  1  0.000000  0.871882  0.664222  1
  Sb  Sb23  1  0.500000  0.128118  0.835778  1
  Sb  Sb24  1  0.000000  0.840281  0.000000  1
  Sb  Sb25  1  0.500000  0.159719  0.500000  1
  Pd  Pd26  1  0.500000  0.514614  0.000000  1
  Pd  Pd27  1  0.000000  0.485386  0.500000  1
