# generated using pymatgen
data_Tb3(Fe2Os)2
_symmetry_space_group_name_H-M   'P 1'
_cell_length_a   5.26546731
_cell_length_b   5.24289970
_cell_length_c   12.82111749
_cell_angle_alpha   89.55251571
_cell_angle_beta   90.63815784
_cell_angle_gamma   120.30581686
_symmetry_Int_Tables_number   1
_chemical_formula_structural   Tb3(Fe2Os)2
_chemical_formula_sum   'Tb6 Fe8 Os4'
_cell_volume   305.55546281
_cell_formula_units_Z   2
loop_
 _symmetry_equiv_pos_site_id
 _symmetry_equiv_pos_as_xyz
  1  'x, y, z'
loop_
 _atom_site_type_symbol
 _atom_site_label
 _atom_site_symmetry_multiplicity
 _atom_site_fract_x
 _atom_site_fract_y
 _atom_site_fract_z
 _atom_site_occupancy
  Tb  Tb0  1  0.333016  0.666019  0.914209  1
  Tb  Tb1  1  0.002379  0.001228  0.251151  1
  Tb  Tb2  1  0.667321  0.332486  0.583840  1
  Tb  Tb3  1  0.332679  0.667514  0.666160  1
  Tb  Tb4  1  0.997621  0.998772  0.998849  1
  Tb  Tb5  1  0.666984  0.333981  0.335791  1
  Fe  Fe6  1  0.166806  0.333101  0.459498  1
  Fe  Fe7  1  0.833194  0.666899  0.790502  1
  Fe  Fe8  1  0.333368  0.664762  0.296663  1
  Fe  Fe9  1  0.000000  0.000000  0.625000  1
  Fe  Fe10  1  0.666632  0.335238  0.953337  1
  Fe  Fe11  1  0.000000  0.500000  0.125000  1
  Fe  Fe12  1  0.667730  0.833165  0.460100  1
  Fe  Fe13  1  0.332270  0.166835  0.789900  1
  Os  Os14  1  0.500000  0.500000  0.125000  1
  Os  Os15  1  0.166409  0.833480  0.460046  1
  Os  Os16  1  0.833591  0.166520  0.789954  1
  Os  Os17  1  0.500000  0.000000  0.125000  1
