# generated using pymatgen
data_ErTh3(ZnCo)4
_symmetry_space_group_name_H-M   'P 1'
_cell_length_a   3.83703100
_cell_length_b   6.89791012
_cell_length_c   8.27596223
_cell_angle_alpha   90.56454913
_cell_angle_beta   90.00000000
_cell_angle_gamma   90.00000000
_symmetry_Int_Tables_number   1
_chemical_formula_structural   ErTh3(ZnCo)4
_chemical_formula_sum   'Er1 Th3 Zn4 Co4'
_cell_volume   219.03335574
_cell_formula_units_Z   1
loop_
 _symmetry_equiv_pos_site_id
 _symmetry_equiv_pos_as_xyz
  1  'x, y, z'
loop_
 _atom_site_type_symbol
 _atom_site_label
 _atom_site_symmetry_multiplicity
 _atom_site_fract_x
 _atom_site_fract_y
 _atom_site_fract_z
 _atom_site_occupancy
  Er  Er0  1  0.250000  0.049899  0.313369  1
  Th  Th1  1  0.250000  0.548080  0.189859  1
  Th  Th2  1  0.750000  0.457667  0.816186  1
  Th  Th3  1  0.750000  0.956343  0.678512  1
  Zn  Zn4  1  0.250000  0.623472  0.552333  1
  Zn  Zn5  1  0.750000  0.359791  0.444463  1
  Zn  Zn6  1  0.750000  0.883115  0.059716  1
  Zn  Zn7  1  0.250000  0.125773  0.950311  1
  Co  Co8  1  0.250000  0.744067  0.859500  1
  Co  Co9  1  0.750000  0.266344  0.130946  1
  Co  Co10  1  0.750000  0.745636  0.362128  1
  Co  Co11  1  0.250000  0.239811  0.642679  1
