# generated using pymatgen
data_La2NdAgPd3PtO14
_symmetry_space_group_name_H-M   'P 1'
_cell_length_a   7.33697204
_cell_length_b   7.33697364
_cell_length_c   7.35305200
_cell_angle_alpha   61.41898391
_cell_angle_beta   61.41898597
_cell_angle_gamma   61.37204062
_symmetry_Int_Tables_number   1
_chemical_formula_structural   La2NdAgPd3PtO14
_chemical_formula_sum   'La2 Nd1 Ag1 Pd3 Pt1 O14'
_cell_volume   288.71212163
_cell_formula_units_Z   1
loop_
 _symmetry_equiv_pos_site_id
 _symmetry_equiv_pos_as_xyz
  1  'x, y, z'
loop_
 _atom_site_type_symbol
 _atom_site_label
 _atom_site_symmetry_multiplicity
 _atom_site_fract_x
 _atom_site_fract_y
 _atom_site_fract_z
 _atom_site_occupancy
  La  La0  1  0.625000  0.125000  0.625000  1
  La  La1  1  0.125000  0.625000  0.625000  1
  Nd  Nd2  1  0.625000  0.625000  0.125000  1
  Ag  Ag3  1  0.625000  0.625000  0.625000  1
  Pd  Pd4  1  0.125000  0.625000  0.125000  1
  Pd  Pd5  1  0.625000  0.125000  0.125000  1
  Pd  Pd6  1  0.125000  0.125000  0.125000  1
  Pt  Pt7  1  0.125000  0.125000  0.625000  1
  O  O8  1  0.510819  0.510819  0.507021  1
  O  O9  1  0.739181  0.739181  0.742979  1
  O  O10  1  0.448130  0.054548  0.453301  1
  O  O11  1  0.213929  0.790663  0.209024  1
  O  O12  1  0.452399  0.452399  0.055576  1
  O  O13  1  0.054548  0.448130  0.453301  1
  O  O14  1  0.459337  0.036071  0.040976  1
  O  O15  1  0.039701  0.039701  0.458611  1
  O  O16  1  0.036071  0.459337  0.040976  1
  O  O17  1  0.790663  0.213929  0.209024  1
  O  O18  1  0.195452  0.801870  0.796699  1
  O  O19  1  0.801870  0.195452  0.796699  1
  O  O20  1  0.210299  0.210299  0.791389  1
  O  O21  1  0.797601  0.797601  0.194424  1
