# generated using pymatgen
data_Ho8Ti12Si15As
_symmetry_space_group_name_H-M   'P 1'
_cell_length_a   7.04626649
_cell_length_b   7.03980531
_cell_length_c   12.94424874
_cell_angle_alpha   89.97723691
_cell_angle_beta   89.83470490
_cell_angle_gamma   89.93395917
_symmetry_Int_Tables_number   1
_chemical_formula_structural   Ho8Ti12Si15As
_chemical_formula_sum   'Ho8 Ti12 Si15 As1'
_cell_volume   642.08782180
_cell_formula_units_Z   1
loop_
 _symmetry_equiv_pos_site_id
 _symmetry_equiv_pos_as_xyz
  1  'x, y, z'
loop_
 _atom_site_type_symbol
 _atom_site_label
 _atom_site_symmetry_multiplicity
 _atom_site_fract_x
 _atom_site_fract_y
 _atom_site_fract_z
 _atom_site_occupancy
  Ho  Ho0  1  0.341870  0.002034  0.466063  1
  Ho  Ho1  1  0.497199  0.842081  0.717272  1
  Ho  Ho2  1  0.502457  0.158848  0.216472  1
  Ho  Ho3  1  0.840894  0.497154  0.283227  1
  Ho  Ho4  1  0.158657  0.502053  0.783437  1
  Ho  Ho5  1  0.659869  0.995539  0.967292  1
  Ho  Ho6  1  0.000286  0.343358  0.532089  1
  Ho  Ho7  1  0.997727  0.659079  0.033500  1
  Ti  Ti8  1  0.325825  0.326469  0.999665  1
  Ti  Ti9  1  0.173216  0.826970  0.250065  1
  Ti  Ti10  1  0.823737  0.173483  0.750229  1
  Ti  Ti11  1  0.673339  0.673072  0.500057  1
  Ti  Ti12  1  0.153412  0.008669  0.875616  1
  Ti  Ti13  1  0.492054  0.651617  0.125829  1
  Ti  Ti14  1  0.508903  0.348210  0.626812  1
  Ti  Ti15  1  0.653607  0.494132  0.874523  1
  Ti  Ti16  1  0.347818  0.507486  0.373998  1
  Ti  Ti17  1  0.847907  0.992394  0.375751  1
  Ti  Ti18  1  0.007776  0.151554  0.124122  1
  Ti  Ti19  1  0.990198  0.844562  0.623386  1
  Si  Si20  1  0.368382  0.703130  0.933769  1
  Si  Si21  1  0.630360  0.297684  0.434378  1
  Si  Si22  1  0.702811  0.369228  0.066100  1
  Si  Si23  1  0.297413  0.631085  0.566098  1
  Si  Si24  1  0.797124  0.869247  0.184353  1
  Si  Si25  1  0.131131  0.202676  0.316123  1
  Si  Si26  1  0.869625  0.797606  0.815630  1
  Si  Si27  1  0.290893  0.952723  0.064628  1
  Si  Si28  1  0.547200  0.790649  0.314629  1
  Si  Si29  1  0.460570  0.210892  0.819060  1
  Si  Si30  1  0.790988  0.547043  0.685149  1
  Si  Si31  1  0.208978  0.452683  0.185376  1
  Si  Si32  1  0.708827  0.046433  0.564343  1
  Si  Si33  1  0.953298  0.290812  0.935459  1
  Si  Si34  1  0.047203  0.709587  0.435034  1
  As  As35  1  0.198447  0.129758  0.680466  1
