# generated using pymatgen
data_Er7Tm13(Ir2Os)4
_symmetry_space_group_name_H-M   'P 1'
_cell_length_a   10.72589602
_cell_length_b   10.72484303
_cell_length_c   6.34681000
_cell_angle_alpha   90.00389990
_cell_angle_beta   90.00032822
_cell_angle_gamma   89.99237150
_symmetry_Int_Tables_number   1
_chemical_formula_structural   Er7Tm13(Ir2Os)4
_chemical_formula_sum   'Er7 Tm13 Ir8 Os4'
_cell_volume   730.09608541
_cell_formula_units_Z   1
loop_
 _symmetry_equiv_pos_site_id
 _symmetry_equiv_pos_as_xyz
  1  'x, y, z'
loop_
 _atom_site_type_symbol
 _atom_site_label
 _atom_site_symmetry_multiplicity
 _atom_site_fract_x
 _atom_site_fract_y
 _atom_site_fract_z
 _atom_site_occupancy
  Er  Er0  1  0.293207  0.086347  0.375970  1
  Er  Er1  1  0.293247  0.913818  0.875920  1
  Er  Er2  1  0.706680  0.086371  0.875939  1
  Er  Er3  1  0.706823  0.913743  0.375970  1
  Er  Er4  1  0.586260  0.793196  0.875969  1
  Er  Er5  1  0.586173  0.206839  0.375954  1
  Er  Er6  1  0.413755  0.793185  0.375968  1
  Tm  Tm7  1  0.413806  0.206574  0.876192  1
  Tm  Tm8  1  0.206250  0.413962  0.623880  1
  Tm  Tm9  1  0.206159  0.585963  0.123866  1
  Tm  Tm10  1  0.793830  0.414011  0.123846  1
  Tm  Tm11  1  0.793806  0.585939  0.623789  1
  Tm  Tm12  1  0.914033  0.706196  0.123815  1
  Tm  Tm13  1  0.914004  0.293799  0.623816  1
  Tm  Tm14  1  0.085993  0.706194  0.623827  1
  Tm  Tm15  1  0.086001  0.293798  0.123796  1
  Tm  Tm16  1  0.000014  0.000013  0.500012  1
  Tm  Tm17  1  0.000006  0.000028  0.000108  1
  Tm  Tm18  1  0.499943  0.499881  0.999977  1
  Tm  Tm19  1  0.499984  0.499972  0.500152  1
  Ir  Ir20  1  0.848039  0.152536  0.250231  1
  Ir  Ir21  1  0.848060  0.847463  0.750196  1
  Ir  Ir22  1  0.152170  0.152555  0.750328  1
  Ir  Ir23  1  0.151962  0.847454  0.250233  1
  Ir  Ir24  1  0.652415  0.347961  0.750255  1
  Ir  Ir25  1  0.652535  0.651898  0.250212  1
  Ir  Ir26  1  0.347552  0.347973  0.249793  1
  Ir  Ir27  1  0.347436  0.651937  0.750158  1
  Os  Os28  1  0.499908  0.000232  0.122791  1
  Os  Os29  1  0.499917  0.000166  0.623333  1
  Os  Os30  1  0.000027  0.499996  0.876794  1
  Os  Os31  1  0.000006  0.499999  0.376910  1
