# generated using pymatgen
data_Sm7SBr12
_symmetry_space_group_name_H-M   'P 1'
_cell_length_a   9.22567487
_cell_length_b   9.22567413
_cell_length_c   9.22567500
_cell_angle_alpha   107.91042296
_cell_angle_beta   107.91041494
_cell_angle_gamma   107.91041626
_symmetry_Int_Tables_number   1
_chemical_formula_structural   Sm7SBr12
_chemical_formula_sum   'Sm7 S1 Br12'
_cell_volume   637.00505159
_cell_formula_units_Z   1
loop_
 _symmetry_equiv_pos_site_id
 _symmetry_equiv_pos_as_xyz
  1  'x, y, z'
loop_
 _atom_site_type_symbol
 _atom_site_label
 _atom_site_symmetry_multiplicity
 _atom_site_fract_x
 _atom_site_fract_y
 _atom_site_fract_z
 _atom_site_occupancy
  Sm  Sm0  1  0.817431  0.535844  0.608515  1
  Sm  Sm1  1  0.535844  0.608515  0.817431  1
  Sm  Sm2  1  0.182569  0.464156  0.391485  1
  Sm  Sm3  1  0.464156  0.391485  0.182569  1
  Sm  Sm4  1  0.000000  0.000000  0.000000  1
  Sm  Sm5  1  0.608515  0.817431  0.535844  1
  Sm  Sm6  1  0.391485  0.182569  0.464156  1
  S  S7  1  0.500000  0.500000  0.500000  1
  Br  Br8  1  0.727136  0.186963  0.575880  1
  Br  Br9  1  0.971450  0.889958  0.653953  1
  Br  Br10  1  0.575880  0.727136  0.186963  1
  Br  Br11  1  0.110042  0.346047  0.028550  1
  Br  Br12  1  0.653953  0.971450  0.889958  1
  Br  Br13  1  0.889958  0.653953  0.971450  1
  Br  Br14  1  0.028550  0.110042  0.346047  1
  Br  Br15  1  0.813037  0.424120  0.272864  1
  Br  Br16  1  0.346047  0.028550  0.110042  1
  Br  Br17  1  0.272864  0.813037  0.424120  1
  Br  Br18  1  0.186963  0.575880  0.727136  1
  Br  Br19  1  0.424120  0.272864  0.813037  1
