# generated using pymatgen
data_LuSc4(Sn3Os)6
_symmetry_space_group_name_H-M   'P 1'
_cell_length_a   9.76642015
_cell_length_b   9.76641939
_cell_length_c   9.76642100
_cell_angle_alpha   59.99999792
_cell_angle_beta   60.00000052
_cell_angle_gamma   60.00000166
_symmetry_Int_Tables_number   1
_chemical_formula_structural   LuSc4(Sn3Os)6
_chemical_formula_sum   'Lu1 Sc4 Sn18 Os6'
_cell_volume   658.70539017
_cell_formula_units_Z   1
loop_
 _symmetry_equiv_pos_site_id
 _symmetry_equiv_pos_as_xyz
  1  'x, y, z'
loop_
 _atom_site_type_symbol
 _atom_site_label
 _atom_site_symmetry_multiplicity
 _atom_site_fract_x
 _atom_site_fract_y
 _atom_site_fract_z
 _atom_site_occupancy
  Lu  Lu0  1  0.000000  0.000000  0.000000  1
  Sc  Sc1  1  0.373671  0.373672  0.878987  1
  Sc  Sc2  1  0.373672  0.878986  0.373671  1
  Sc  Sc3  1  0.878986  0.373672  0.373671  1
  Sc  Sc4  1  0.373672  0.373671  0.373671  1
  Sn  Sn5  1  0.592210  0.592210  0.223373  1
  Sn  Sn6  1  0.592210  0.223373  0.592210  1
  Sn  Sn7  1  0.223373  0.592210  0.592210  1
  Sn  Sn8  1  0.592210  0.592210  0.592210  1
  Sn  Sn9  1  0.750000  0.750000  0.750000  1
  Sn  Sn10  1  0.999045  0.352025  0.649888  1
  Sn  Sn11  1  0.999045  0.999045  0.649888  1
  Sn  Sn12  1  0.352025  0.999045  0.649888  1
  Sn  Sn13  1  0.999045  0.649888  0.352025  1
  Sn  Sn14  1  0.352025  0.649888  0.999045  1
  Sn  Sn15  1  0.999045  0.649888  0.999045  1
  Sn  Sn16  1  0.649888  0.999045  0.999045  1
  Sn  Sn17  1  0.649888  0.352025  0.999045  1
  Sn  Sn18  1  0.649888  0.999045  0.352025  1
  Sn  Sn19  1  0.352025  0.999045  0.999045  1
  Sn  Sn20  1  0.999045  0.999045  0.352025  1
  Sn  Sn21  1  0.999045  0.352025  0.999045  1
  Sn  Sn22  1  0.250000  0.250000  0.250000  1
  Os  Os23  1  0.258021  0.258021  0.741979  1
  Os  Os24  1  0.741979  0.258021  0.741979  1
  Os  Os25  1  0.258021  0.741979  0.741979  1
  Os  Os26  1  0.741979  0.741979  0.258021  1
  Os  Os27  1  0.258021  0.741979  0.258021  1
  Os  Os28  1  0.741979  0.258021  0.258021  1
