# generated using pymatgen
data_Ba3CeNiO6
_symmetry_space_group_name_H-M   'P 1'
_cell_length_a   7.20291239
_cell_length_b   7.20291225
_cell_length_c   7.20291351
_cell_angle_alpha   93.48644894
_cell_angle_beta   93.48645466
_cell_angle_gamma   93.48643993
_symmetry_Int_Tables_number   1
_chemical_formula_structural   Ba3CeNiO6
_chemical_formula_sum   'Ba6 Ce2 Ni2 O12'
_cell_volume   371.53785769
_cell_formula_units_Z   2
loop_
 _symmetry_equiv_pos_site_id
 _symmetry_equiv_pos_as_xyz
  1  'x, y, z'
loop_
 _atom_site_type_symbol
 _atom_site_label
 _atom_site_symmetry_multiplicity
 _atom_site_fract_x
 _atom_site_fract_y
 _atom_site_fract_z
 _atom_site_occupancy
  Ba  Ba0  1  0.379974  0.120025  0.750000  1
  Ba  Ba1  1  0.750000  0.379975  0.120026  1
  Ba  Ba2  1  0.249999  0.620026  0.879975  1
  Ba  Ba3  1  0.620025  0.879974  0.250001  1
  Ba  Ba4  1  0.120026  0.750000  0.379975  1
  Ba  Ba5  1  0.879974  0.250000  0.620026  1
  Ce  Ce6  1  0.750000  0.750001  0.750000  1
  Ce  Ce7  1  0.250001  0.250000  0.250000  1
  Ni  Ni8  1  0.500000  0.500000  0.500000  1
  Ni  Ni9  1  0.000000  0.000000  0.000000  1
  O  O10  1  0.788498  0.596582  0.468668  1
  O  O11  1  0.596583  0.468667  0.788498  1
  O  O12  1  0.468667  0.788498  0.596583  1
  O  O13  1  0.031332  0.903418  0.711503  1
  O  O14  1  0.903417  0.711502  0.031332  1
  O  O15  1  0.711503  0.031332  0.903417  1
  O  O16  1  0.211503  0.403417  0.531333  1
  O  O17  1  0.403417  0.531332  0.211503  1
  O  O18  1  0.531332  0.211503  0.403416  1
  O  O19  1  0.968668  0.096583  0.288498  1
  O  O20  1  0.288498  0.968667  0.096582  1
  O  O21  1  0.096582  0.288497  0.968667  1
