# generated using pymatgen
data_AcErRh2F14
_symmetry_space_group_name_H-M   'P 1'
_cell_length_a   5.61156600
_cell_length_b   9.20664014
_cell_length_c   12.36180978
_cell_angle_alpha   62.38399427
_cell_angle_beta   90.00000000
_cell_angle_gamma   90.00000000
_symmetry_Int_Tables_number   1
_chemical_formula_structural   AcErRh2F14
_chemical_formula_sum   'Ac2 Er2 Rh4 F28'
_cell_volume   565.89694967
_cell_formula_units_Z   2
loop_
 _symmetry_equiv_pos_site_id
 _symmetry_equiv_pos_as_xyz
  1  'x, y, z'
loop_
 _atom_site_type_symbol
 _atom_site_label
 _atom_site_symmetry_multiplicity
 _atom_site_fract_x
 _atom_site_fract_y
 _atom_site_fract_z
 _atom_site_occupancy
  Ac  Ac0  1  0.759913  0.805320  0.764592  1
  Ac  Ac1  1  0.259913  0.194680  0.735408  1
  Er  Er2  1  0.238719  0.180245  0.237287  1
  Er  Er3  1  0.738719  0.819755  0.262713  1
  Rh  Rh4  1  0.752081  0.265066  0.975033  1
  Rh  Rh5  1  0.252081  0.734934  0.524967  1
  Rh  Rh6  1  0.239917  0.718163  0.058698  1
  Rh  Rh7  1  0.739917  0.281837  0.441302  1
  F  F8  1  0.440118  0.702695  0.935348  1
  F  F9  1  0.940118  0.297305  0.564652  1
  F  F10  1  0.553256  0.287705  0.095220  1
  F  F11  1  0.053256  0.712295  0.404780  1
  F  F12  1  0.459438  0.290798  0.529777  1
  F  F13  1  0.959438  0.709202  0.970223  1
  F  F14  1  0.547759  0.723929  0.441456  1
  F  F15  1  0.047759  0.276071  0.058544  1
  F  F16  1  0.764096  0.501114  0.878248  1
  F  F17  1  0.264096  0.498886  0.621752  1
  F  F18  1  0.235641  0.481587  0.150063  1
  F  F19  1  0.735641  0.518413  0.349937  1
  F  F20  1  0.754106  0.026411  0.061829  1
  F  F21  1  0.254106  0.973589  0.438171  1
  F  F22  1  0.237999  0.953513  0.963085  1
  F  F23  1  0.737999  0.046487  0.536915  1
  F  F24  1  0.965967  0.733585  0.614721  1
  F  F25  1  0.465967  0.266415  0.885279  1
  F  F26  1  0.018333  0.268081  0.350629  1
  F  F27  1  0.518333  0.731919  0.149371  1
  F  F28  1  0.034747  0.742279  0.178266  1
  F  F29  1  0.534747  0.257721  0.321734  1
  F  F30  1  0.940447  0.253505  0.847172  1
  F  F31  1  0.440447  0.746495  0.652828  1
  F  F32  1  0.427163  0.978464  0.233104  1
  F  F33  1  0.927163  0.021536  0.266896  1
  F  F34  1  0.630299  0.047915  0.771070  1
  F  F35  1  0.130299  0.952085  0.728930  1
