# generated using pymatgen
data_ErScGaB2Ru5
_symmetry_space_group_name_H-M   'P 1'
_cell_length_a   9.45912856
_cell_length_b   9.45912856
_cell_length_c   3.07436000
_cell_angle_alpha   90.00000000
_cell_angle_beta   90.00000000
_cell_angle_gamma   88.78973797
_symmetry_Int_Tables_number   1
_chemical_formula_structural   ErScGaB2Ru5
_chemical_formula_sum   'Er2 Sc2 Ga2 B4 Ru10'
_cell_volume   275.01734315
_cell_formula_units_Z   2
loop_
 _symmetry_equiv_pos_site_id
 _symmetry_equiv_pos_as_xyz
  1  'x, y, z'
loop_
 _atom_site_type_symbol
 _atom_site_label
 _atom_site_symmetry_multiplicity
 _atom_site_fract_x
 _atom_site_fract_y
 _atom_site_fract_z
 _atom_site_occupancy
  Er  Er0  1  0.676403  0.176403  0.000000  1
  Er  Er1  1  0.323597  0.823597  0.000000  1
  Sc  Sc2  1  0.173314  0.326686  0.000000  1
  Sc  Sc3  1  0.826686  0.673314  0.000000  1
  Ga  Ga4  1  0.000000  0.000000  0.000000  1
  Ga  Ga5  1  0.500000  0.500000  0.000000  1
  B  B6  1  0.121692  0.621692  0.000000  1
  B  B7  1  0.878308  0.378308  0.000000  1
  B  B8  1  0.625743  0.874257  0.000000  1
  B  B9  1  0.374257  0.125743  0.000000  1
  Ru  Ru10  1  0.213943  0.077486  0.500000  1
  Ru  Ru11  1  0.786057  0.922514  0.500000  1
  Ru  Ru12  1  0.063949  0.781969  0.500000  1
  Ru  Ru13  1  0.718031  0.436051  0.500000  1
  Ru  Ru14  1  0.936051  0.218031  0.500000  1
  Ru  Ru15  1  0.281969  0.563949  0.500000  1
  Ru  Ru16  1  0.577486  0.713943  0.500000  1
  Ru  Ru17  1  0.422514  0.286057  0.500000  1
  Ru  Ru18  1  0.500000  0.000000  0.500000  1
  Ru  Ru19  1  0.000000  0.500000  0.500000  1
