# generated using pymatgen
data_Ti16CuIr7O4
_symmetry_space_group_name_H-M   'P 1'
_cell_length_a   8.25191383
_cell_length_b   8.22643917
_cell_length_c   8.22643900
_cell_angle_alpha   59.99999666
_cell_angle_beta   60.10206539
_cell_angle_gamma   60.10206218
_symmetry_Int_Tables_number   1
_chemical_formula_structural   Ti16CuIr7O4
_chemical_formula_sum   'Ti16 Cu1 Ir7 O4'
_cell_volume   395.48654353
_cell_formula_units_Z   1
loop_
 _symmetry_equiv_pos_site_id
 _symmetry_equiv_pos_as_xyz
  1  'x, y, z'
loop_
 _atom_site_type_symbol
 _atom_site_label
 _atom_site_symmetry_multiplicity
 _atom_site_fract_x
 _atom_site_fract_y
 _atom_site_fract_z
 _atom_site_occupancy
  Ti  Ti0  1  0.818301  0.182111  0.817477  1
  Ti  Ti1  1  0.182159  0.817660  0.182521  1
  Ti  Ti2  1  0.433817  0.066291  0.433601  1
  Ti  Ti3  1  0.433817  0.066291  0.066291  1
  Ti  Ti4  1  0.067479  0.433356  0.433356  1
  Ti  Ti5  1  0.067479  0.433356  0.065808  1
  Ti  Ti6  1  0.182159  0.182521  0.817660  1
  Ti  Ti7  1  0.433817  0.433601  0.066291  1
  Ti  Ti8  1  0.128074  0.623975  0.623975  1
  Ti  Ti9  1  0.624015  0.624913  0.126160  1
  Ti  Ti10  1  0.624015  0.624913  0.624913  1
  Ti  Ti11  1  0.624015  0.126160  0.624913  1
  Ti  Ti12  1  0.182159  0.817660  0.817660  1
  Ti  Ti13  1  0.818301  0.182111  0.182111  1
  Ti  Ti14  1  0.067479  0.065808  0.433356  1
  Ti  Ti15  1  0.818301  0.817477  0.182111  1
  Cu  Cu16  1  0.763901  0.412033  0.412033  1
  Ir  Ir17  1  0.408090  0.776817  0.407546  1
  Ir  Ir18  1  0.842341  0.840886  0.475887  1
  Ir  Ir19  1  0.842341  0.840886  0.840886  1
  Ir  Ir20  1  0.481028  0.839657  0.839657  1
  Ir  Ir21  1  0.408090  0.407546  0.407546  1
  Ir  Ir22  1  0.408090  0.407546  0.776817  1
  Ir  Ir23  1  0.842341  0.475887  0.840886  1
  O  O24  1  0.124859  0.125733  0.623675  1
  O  O25  1  0.623817  0.125394  0.125394  1
  O  O26  1  0.124859  0.125733  0.125733  1
  O  O27  1  0.124859  0.623675  0.125733  1
