# generated using pymatgen
data_Dy7YSc12Si15Au
_symmetry_space_group_name_H-M   'P 1'
_cell_length_a   7.12252989
_cell_length_b   7.37894695
_cell_length_c   14.05914211
_cell_angle_alpha   89.93238698
_cell_angle_beta   89.68910914
_cell_angle_gamma   90.16727900
_symmetry_Int_Tables_number   1
_chemical_formula_structural   Dy7YSc12Si15Au
_chemical_formula_sum   'Dy7 Y1 Sc12 Si15 Au1'
_cell_volume   738.88854644
_cell_formula_units_Z   1
loop_
 _symmetry_equiv_pos_site_id
 _symmetry_equiv_pos_as_xyz
  1  'x, y, z'
loop_
 _atom_site_type_symbol
 _atom_site_label
 _atom_site_symmetry_multiplicity
 _atom_site_fract_x
 _atom_site_fract_y
 _atom_site_fract_z
 _atom_site_occupancy
  Dy  Dy0  1  0.987189  0.825124  0.903339  1
  Dy  Dy1  1  0.487076  0.676471  0.903198  1
  Dy  Dy2  1  0.987839  0.827962  0.597803  1
  Dy  Dy3  1  0.512276  0.324014  0.096781  1
  Dy  Dy4  1  0.010821  0.174035  0.399899  1
  Dy  Dy5  1  0.510613  0.324624  0.400813  1
  Dy  Dy6  1  0.490746  0.676070  0.599053  1
  Y  Y7  1  0.012421  0.175244  0.097517  1
  Sc  Sc8  1  0.162555  0.501394  0.750989  1
  Sc  Sc9  1  0.837862  0.498342  0.250763  1
  Sc  Sc10  1  0.338222  0.000793  0.249344  1
  Sc  Sc11  1  0.663700  0.996298  0.750828  1
  Sc  Sc12  1  0.337465  0.175937  0.625581  1
  Sc  Sc13  1  0.667269  0.823664  0.373894  1
  Sc  Sc14  1  0.169248  0.673605  0.373693  1
  Sc  Sc15  1  0.670282  0.824104  0.125042  1
  Sc  Sc16  1  0.827998  0.325502  0.625266  1
  Sc  Sc17  1  0.328684  0.175257  0.875940  1
  Sc  Sc18  1  0.829934  0.322589  0.875796  1
  Sc  Sc19  1  0.169599  0.676754  0.124986  1
  Si  Si20  1  0.034931  0.119249  0.750647  1
  Si  Si21  1  0.966560  0.883411  0.249427  1
  Si  Si22  1  0.466707  0.616312  0.248518  1
  Si  Si23  1  0.534824  0.384248  0.752219  1
  Si  Si24  1  0.284701  0.874419  0.750757  1
  Si  Si25  1  0.713296  0.127373  0.248992  1
  Si  Si26  1  0.214814  0.371765  0.248282  1
  Si  Si27  1  0.786797  0.626803  0.752426  1
  Si  Si28  1  0.835548  0.537310  0.459384  1
  Si  Si29  1  0.341433  0.963282  0.460078  1
  Si  Si30  1  0.843792  0.535660  0.038948  1
  Si  Si31  1  0.657405  0.036032  0.538039  1
  Si  Si32  1  0.155678  0.464405  0.961446  1
  Si  Si33  1  0.656693  0.034936  0.960880  1
  Si  Si34  1  0.343312  0.964228  0.039309  1
  Au  Au35  1  0.161711  0.462786  0.540123  1
