# generated using pymatgen
data_Tb5Er5(Bi2Ir)2
_symmetry_space_group_name_H-M   'P 1'
_cell_length_a   7.97485002
_cell_length_b   8.99306100
_cell_length_c   12.56357674
_cell_angle_alpha   90.00000000
_cell_angle_beta   89.90034341
_cell_angle_gamma   90.00000000
_symmetry_Int_Tables_number   1
_chemical_formula_structural   Tb5Er5(Bi2Ir)2
_chemical_formula_sum   'Tb10 Er10 Bi8 Ir4'
_cell_volume   901.03716258
_cell_formula_units_Z   2
loop_
 _symmetry_equiv_pos_site_id
 _symmetry_equiv_pos_as_xyz
  1  'x, y, z'
loop_
 _atom_site_type_symbol
 _atom_site_label
 _atom_site_symmetry_multiplicity
 _atom_site_fract_x
 _atom_site_fract_y
 _atom_site_fract_z
 _atom_site_occupancy
  Tb  Tb0  1  0.661427  0.750000  0.706551  1
  Tb  Tb1  1  0.338573  0.250000  0.293449  1
  Tb  Tb2  1  0.161136  0.250000  0.792642  1
  Tb  Tb3  1  0.838864  0.750000  0.207358  1
  Tb  Tb4  1  0.128785  0.750000  0.810276  1
  Tb  Tb5  1  0.871215  0.250000  0.189724  1
  Tb  Tb6  1  0.628528  0.250000  0.689398  1
  Tb  Tb7  1  0.371472  0.750000  0.310602  1
  Tb  Tb8  1  0.554026  0.750000  0.997974  1
  Tb  Tb9  1  0.445974  0.250000  0.002026  1
  Er  Er10  1  0.055567  0.250000  0.502217  1
  Er  Er11  1  0.944433  0.750000  0.497783  1
  Er  Er12  1  0.827323  0.459101  0.932505  1
  Er  Er13  1  0.172677  0.540899  0.067495  1
  Er  Er14  1  0.326643  0.540694  0.567311  1
  Er  Er15  1  0.172677  0.959101  0.067495  1
  Er  Er16  1  0.673357  0.459306  0.432689  1
  Er  Er17  1  0.827323  0.040899  0.932505  1
  Er  Er18  1  0.673357  0.040694  0.432689  1
  Er  Er19  1  0.326643  0.959306  0.567311  1
  Bi  Bi20  1  0.937107  0.007068  0.671782  1
  Bi  Bi21  1  0.062893  0.992932  0.328218  1
  Bi  Bi22  1  0.436645  0.992908  0.826975  1
  Bi  Bi23  1  0.062893  0.507068  0.328218  1
  Bi  Bi24  1  0.563355  0.007092  0.173025  1
  Bi  Bi25  1  0.937107  0.492932  0.671782  1
  Bi  Bi26  1  0.563355  0.492908  0.173025  1
  Bi  Bi27  1  0.436645  0.507092  0.826975  1
  Ir  Ir28  1  0.931102  0.750000  0.992313  1
  Ir  Ir29  1  0.068898  0.250000  0.007687  1
  Ir  Ir30  1  0.429901  0.250000  0.507760  1
  Ir  Ir31  1  0.570099  0.750000  0.492240  1
