# generated using pymatgen
data_Nd8GaSi12Ir2Rh
_symmetry_space_group_name_H-M   'P 1'
_cell_length_a   8.24092200
_cell_length_b   8.24088473
_cell_length_c   8.50354800
_cell_angle_alpha   89.99995803
_cell_angle_beta   90.00010952
_cell_angle_gamma   119.99988212
_symmetry_Int_Tables_number   1
_chemical_formula_structural   Nd8GaSi12Ir2Rh
_chemical_formula_sum   'Nd8 Ga1 Si12 Ir2 Rh1'
_cell_volume   500.12775635
_cell_formula_units_Z   1
loop_
 _symmetry_equiv_pos_site_id
 _symmetry_equiv_pos_as_xyz
  1  'x, y, z'
loop_
 _atom_site_type_symbol
 _atom_site_label
 _atom_site_symmetry_multiplicity
 _atom_site_fract_x
 _atom_site_fract_y
 _atom_site_fract_z
 _atom_site_occupancy
  Nd  Nd0  1  0.000000  0.000002  0.748495  1
  Nd  Nd1  1  0.000001  0.000000  0.251757  1
  Nd  Nd2  1  0.497806  0.502193  0.745961  1
  Nd  Nd3  1  0.497805  0.995611  0.745960  1
  Nd  Nd4  1  0.004387  0.502193  0.745961  1
  Nd  Nd5  1  0.499776  0.500222  0.253945  1
  Nd  Nd6  1  0.000445  0.500221  0.253944  1
  Nd  Nd7  1  0.499778  0.999555  0.253942  1
  Ga  Ga8  1  0.666667  0.333334  0.994863  1
  Si  Si9  1  0.838468  0.161533  0.000122  1
  Si  Si10  1  0.838469  0.676935  0.000123  1
  Si  Si11  1  0.323066  0.161532  0.000123  1
  Si  Si12  1  0.832546  0.167454  0.501339  1
  Si  Si13  1  0.832546  0.665092  0.501339  1
  Si  Si14  1  0.334908  0.167453  0.501339  1
  Si  Si15  1  0.167133  0.832867  0.498708  1
  Si  Si16  1  0.665732  0.832866  0.498708  1
  Si  Si17  1  0.167133  0.334267  0.498707  1
  Si  Si18  1  0.169343  0.830656  0.000708  1
  Si  Si19  1  0.661312  0.830657  0.000708  1
  Si  Si20  1  0.169344  0.338688  0.000708  1
  Ir  Ir21  1  0.666668  0.333334  0.502757  1
  Ir  Ir22  1  0.333333  0.666667  0.497451  1
  Rh  Rh23  1  0.333337  0.666665  0.002334  1
