# generated using pymatgen
data_LuMn2(SnRu2)3
_symmetry_space_group_name_H-M   'P 1'
_cell_length_a   4.47957300
_cell_length_b   6.34625300
_cell_length_c   13.42667800
_cell_angle_alpha   89.99969290
_cell_angle_beta   90.00089573
_cell_angle_gamma   90.00014897
_symmetry_Int_Tables_number   1
_chemical_formula_structural   LuMn2(SnRu2)3
_chemical_formula_sum   'Lu2 Mn4 Sn6 Ru12'
_cell_volume   381.70036370
_cell_formula_units_Z   2
loop_
 _symmetry_equiv_pos_site_id
 _symmetry_equiv_pos_as_xyz
  1  'x, y, z'
loop_
 _atom_site_type_symbol
 _atom_site_label
 _atom_site_symmetry_multiplicity
 _atom_site_fract_x
 _atom_site_fract_y
 _atom_site_fract_z
 _atom_site_occupancy
  Lu  Lu0  1  0.999997  0.000000  0.997199  1
  Lu  Lu1  1  0.500070  0.500000  0.169519  1
  Mn  Mn2  1  0.000092  0.000003  0.336995  1
  Mn  Mn3  1  0.500000  0.499986  0.500513  1
  Mn  Mn4  1  0.999918  0.000015  0.666124  1
  Mn  Mn5  1  0.499914  0.499993  0.829692  1
  Sn  Sn6  1  0.000006  0.499998  0.999710  1
  Sn  Sn7  1  0.500051  0.000004  0.167045  1
  Sn  Sn8  1  0.000068  0.500009  0.338356  1
  Sn  Sn9  1  0.499990  0.999956  0.505437  1
  Sn  Sn10  1  0.999926  0.500046  0.661227  1
  Sn  Sn11  1  0.499939  0.999969  0.828316  1
  Ru  Ru12  1  0.499998  0.261124  0.990969  1
  Ru  Ru13  1  0.499996  0.738879  0.990974  1
  Ru  Ru14  1  0.000074  0.238843  0.175680  1
  Ru  Ru15  1  0.000074  0.761156  0.175672  1
  Ru  Ru16  1  0.500090  0.238725  0.341696  1
  Ru  Ru17  1  0.500092  0.761275  0.341687  1
  Ru  Ru18  1  0.000004  0.246018  0.500490  1
  Ru  Ru19  1  0.000005  0.753983  0.500489  1
  Ru  Ru20  1  0.499923  0.254093  0.666114  1
  Ru  Ru21  1  0.499923  0.745908  0.666115  1
  Ru  Ru22  1  0.999923  0.261261  0.824986  1
  Ru  Ru23  1  0.999925  0.738752  0.824991  1
