# generated using pymatgen
data_DyTiFeB6
_symmetry_space_group_name_H-M   'P 1'
_cell_length_a   3.33460200
_cell_length_b   8.81901700
_cell_length_c   11.16608700
_cell_angle_alpha   90.00000000
_cell_angle_beta   90.00000000
_cell_angle_gamma   90.00000000
_symmetry_Int_Tables_number   1
_chemical_formula_structural   DyTiFeB6
_chemical_formula_sum   'Dy4 Ti4 Fe4 B24'
_cell_volume   328.37130082
_cell_formula_units_Z   4
loop_
 _symmetry_equiv_pos_site_id
 _symmetry_equiv_pos_as_xyz
  1  'x, y, z'
loop_
 _atom_site_type_symbol
 _atom_site_label
 _atom_site_symmetry_multiplicity
 _atom_site_fract_x
 _atom_site_fract_y
 _atom_site_fract_z
 _atom_site_occupancy
  Dy  Dy0  1  0.000000  0.821843  0.085298  1
  Dy  Dy1  1  0.000000  0.178157  0.914702  1
  Dy  Dy2  1  0.000000  0.321843  0.414702  1
  Dy  Dy3  1  0.000000  0.678157  0.585298  1
  Ti  Ti4  1  0.000000  0.445072  0.126753  1
  Ti  Ti5  1  0.000000  0.554928  0.873247  1
  Ti  Ti6  1  0.000000  0.945072  0.373247  1
  Ti  Ti7  1  0.000000  0.054928  0.626753  1
  Fe  Fe8  1  0.000000  0.144714  0.184172  1
  Fe  Fe9  1  0.000000  0.855286  0.815828  1
  Fe  Fe10  1  0.000000  0.644714  0.315828  1
  Fe  Fe11  1  0.000000  0.355286  0.684172  1
  B  B12  1  0.500000  0.056490  0.068572  1
  B  B13  1  0.500000  0.943510  0.931428  1
  B  B14  1  0.500000  0.556490  0.431428  1
  B  B15  1  0.500000  0.443510  0.568572  1
  B  B16  1  0.500000  0.255135  0.083939  1
  B  B17  1  0.500000  0.744865  0.916061  1
  B  B18  1  0.500000  0.755135  0.416061  1
  B  B19  1  0.500000  0.244865  0.583939  1
  B  B20  1  0.500000  0.296224  0.235494  1
  B  B21  1  0.500000  0.703776  0.764506  1
  B  B22  1  0.500000  0.796224  0.264506  1
  B  B23  1  0.500000  0.203776  0.735494  1
  B  B24  1  0.500000  0.128773  0.317814  1
  B  B25  1  0.500000  0.871227  0.682186  1
  B  B26  1  0.500000  0.628773  0.182186  1
  B  B27  1  0.500000  0.371227  0.817814  1
  B  B28  1  0.500000  0.484168  0.285569  1
  B  B29  1  0.500000  0.515832  0.714431  1
  B  B30  1  0.500000  0.984168  0.214431  1
  B  B31  1  0.500000  0.015832  0.785569  1
  B  B32  1  0.500000  0.096772  0.474567  1
  B  B33  1  0.500000  0.903228  0.525433  1
  B  B34  1  0.500000  0.596772  0.025433  1
  B  B35  1  0.500000  0.403228  0.974567  1
