# generated using pymatgen
data_Zr2Zn(Co3B2)3
_symmetry_space_group_name_H-M   'P 1'
_cell_length_a   5.68492596
_cell_length_b   5.68492634
_cell_length_c   5.68492570
_cell_angle_alpha   95.63759033
_cell_angle_beta   95.63759764
_cell_angle_gamma   95.63760716
_symmetry_Int_Tables_number   1
_chemical_formula_structural   Zr2Zn(Co3B2)3
_chemical_formula_sum   'Zr2 Zn1 Co9 B6'
_cell_volume   180.87170647
_cell_formula_units_Z   1
loop_
 _symmetry_equiv_pos_site_id
 _symmetry_equiv_pos_as_xyz
  1  'x, y, z'
loop_
 _atom_site_type_symbol
 _atom_site_label
 _atom_site_symmetry_multiplicity
 _atom_site_fract_x
 _atom_site_fract_y
 _atom_site_fract_z
 _atom_site_occupancy
  Zr  Zr0  1  0.679692  0.679692  0.679692  1
  Zr  Zr1  1  0.320308  0.320308  0.320308  1
  Zn  Zn2  1  0.000000  0.000000  0.000000  1
  Co  Co3  1  0.000000  0.000000  0.500000  1
  Co  Co4  1  0.500000  0.000000  0.000000  1
  Co  Co5  1  0.000000  0.500000  0.000000  1
  Co  Co6  1  0.703662  0.200530  0.703662  1
  Co  Co7  1  0.703662  0.703662  0.200530  1
  Co  Co8  1  0.200530  0.703662  0.703662  1
  Co  Co9  1  0.296338  0.799470  0.296338  1
  Co  Co10  1  0.296338  0.296338  0.799470  1
  Co  Co11  1  0.799470  0.296338  0.296338  1
  B  B12  1  0.614841  0.385159  0.000000  1
  B  B13  1  0.000000  0.614841  0.385159  1
  B  B14  1  0.385159  0.000000  0.614841  1
  B  B15  1  0.000000  0.385159  0.614841  1
  B  B16  1  0.614841  0.000000  0.385159  1
  B  B17  1  0.385159  0.614841  0.000000  1
