# generated using pymatgen
data_LaGdZnIr2
_symmetry_space_group_name_H-M   'P 1'
_cell_length_a   5.60123675
_cell_length_b   5.60123564
_cell_length_c   5.60123600
_cell_angle_alpha   135.94579685
_cell_angle_beta   117.27928462
_cell_angle_gamma   79.80431994
_symmetry_Int_Tables_number   1
_chemical_formula_structural   LaGdZnIr2
_chemical_formula_sum   'La1 Gd1 Zn1 Ir2'
_cell_volume   105.25032120
_cell_formula_units_Z   1
loop_
 _symmetry_equiv_pos_site_id
 _symmetry_equiv_pos_as_xyz
  1  'x, y, z'
loop_
 _atom_site_type_symbol
 _atom_site_label
 _atom_site_symmetry_multiplicity
 _atom_site_fract_x
 _atom_site_fract_y
 _atom_site_fract_z
 _atom_site_occupancy
  La  La0  1  0.298325  0.798325  0.499999  1
  Gd  Gd1  1  0.701363  0.201363  0.500000  1
  Zn  Zn2  1  0.995198  0.995198  0.000000  1
  Ir  Ir3  1  0.738690  0.502557  0.236133  1
  Ir  Ir4  1  0.266425  0.502556  0.763867  1
