# generated using pymatgen
data_Nd2MnFe4P7Ir5Ru2
_symmetry_space_group_name_H-M   'P 1'
_cell_length_a   9.35298100
_cell_length_b   9.30685425
_cell_length_c   3.87700700
_cell_angle_alpha   90.00000000
_cell_angle_beta   90.00000000
_cell_angle_gamma   119.77095807
_symmetry_Int_Tables_number   1
_chemical_formula_structural   Nd2MnFe4P7Ir5Ru2
_chemical_formula_sum   'Nd2 Mn1 Fe4 P7 Ir5 Ru2'
_cell_volume   292.93947854
_cell_formula_units_Z   1
loop_
 _symmetry_equiv_pos_site_id
 _symmetry_equiv_pos_as_xyz
  1  'x, y, z'
loop_
 _atom_site_type_symbol
 _atom_site_label
 _atom_site_symmetry_multiplicity
 _atom_site_fract_x
 _atom_site_fract_y
 _atom_site_fract_z
 _atom_site_occupancy
  Nd  Nd0  1  0.666183  0.335144  0.000000  1
  Nd  Nd1  1  0.332931  0.660776  0.500000  1
  Mn  Mn2  1  0.092994  0.876126  0.500000  1
  Fe  Fe3  1  0.366959  0.423071  0.000000  1
  Fe  Fe4  1  0.266639  0.113795  0.000000  1
  Fe  Fe5  1  0.840516  0.730673  0.000000  1
  Fe  Fe6  1  0.890943  0.158558  0.000000  1
  P  P7  1  0.294722  0.893205  0.000000  1
  P  P8  1  0.586490  0.692004  0.000000  1
  P  P9  1  0.118548  0.402020  0.000000  1
  P  P10  1  0.393459  0.285607  0.500000  1
  P  P11  1  0.887260  0.610570  0.500000  1
  P  P12  1  0.720940  0.117325  0.500000  1
  P  P13  1  0.000137  0.998383  0.000000  1
  Ir  Ir14  1  0.064061  0.635661  0.000000  1
  Ir  Ir15  1  0.572971  0.936416  0.000000  1
  Ir  Ir16  1  0.435491  0.052892  0.500000  1
  Ir  Ir17  1  0.612038  0.561763  0.500000  1
  Ir  Ir18  1  0.945599  0.385808  0.500000  1
  Ru  Ru19  1  0.786461  0.912007  0.500000  1
  Ru  Ru20  1  0.124658  0.218197  0.500000  1
