# generated using pymatgen
data_Ni8Bi8PCl2
_symmetry_space_group_name_H-M   'P 1'
_cell_length_a   4.18210000
_cell_length_b   9.99298400
_cell_length_c   20.53140000
_cell_angle_alpha   90.00000000
_cell_angle_beta   90.00000000
_cell_angle_gamma   90.00000000
_symmetry_Int_Tables_number   1
_chemical_formula_structural   Ni8Bi8PCl2
_chemical_formula_sum   'Ni16 Bi16 P2 Cl4'
_cell_volume   858.04125499
_cell_formula_units_Z   2
loop_
 _symmetry_equiv_pos_site_id
 _symmetry_equiv_pos_as_xyz
  1  'x, y, z'
loop_
 _atom_site_type_symbol
 _atom_site_label
 _atom_site_symmetry_multiplicity
 _atom_site_fract_x
 _atom_site_fract_y
 _atom_site_fract_z
 _atom_site_occupancy
  Ni  Ni0  1  0.749864  0.312767  0.970332  1
  Ni  Ni1  1  0.749864  0.687233  0.029668  1
  Ni  Ni2  1  0.250136  0.812767  0.529668  1
  Ni  Ni3  1  0.250136  0.187233  0.470332  1
  Ni  Ni4  1  0.250236  0.587970  0.087828  1
  Ni  Ni5  1  0.250236  0.412030  0.912172  1
  Ni  Ni6  1  0.749764  0.087970  0.412172  1
  Ni  Ni7  1  0.749764  0.912030  0.587828  1
  Ni  Ni8  1  0.248621  0.323770  0.042649  1
  Ni  Ni9  1  0.248621  0.676230  0.957351  1
  Ni  Ni10  1  0.751379  0.823770  0.457351  1
  Ni  Ni11  1  0.751379  0.176230  0.542649  1
  Ni  Ni12  1  0.749988  0.438416  0.090701  1
  Ni  Ni13  1  0.749988  0.561584  0.909299  1
  Ni  Ni14  1  0.250012  0.938416  0.409299  1
  Ni  Ni15  1  0.250012  0.061584  0.590701  1
  Bi  Bi16  1  0.249005  0.382105  0.173783  1
  Bi  Bi17  1  0.249005  0.617895  0.826217  1
  Bi  Bi18  1  0.750995  0.882105  0.326217  1
  Bi  Bi19  1  0.750995  0.117895  0.673783  1
  Bi  Bi20  1  0.748935  0.167200  0.084482  1
  Bi  Bi21  1  0.748935  0.832800  0.915518  1
  Bi  Bi22  1  0.251065  0.667200  0.415518  1
  Bi  Bi23  1  0.251065  0.332800  0.584482  1
  Bi  Bi24  1  0.249482  0.144646  0.942723  1
  Bi  Bi25  1  0.249482  0.855354  0.057277  1
  Bi  Bi26  1  0.750518  0.644646  0.557277  1
  Bi  Bi27  1  0.750518  0.355354  0.442723  1
  Bi  Bi28  1  0.751066  0.667593  0.163526  1
  Bi  Bi29  1  0.751066  0.332407  0.836474  1
  Bi  Bi30  1  0.248934  0.167593  0.336474  1
  Bi  Bi31  1  0.248934  0.832407  0.663526  1
  P  P32  1  0.494583  0.500000  0.000000  1
  P  P33  1  0.505417  0.000000  0.500000  1
  Cl  Cl34  1  0.249423  0.006286  0.795259  1
  Cl  Cl35  1  0.249423  0.993714  0.204741  1
  Cl  Cl36  1  0.750577  0.506286  0.704741  1
  Cl  Cl37  1  0.750577  0.493714  0.295259  1
