# generated using pymatgen
data_Tb7Sm8Er5Sn16
_symmetry_space_group_name_H-M   'P 1'
_cell_length_a   8.07808535
_cell_length_b   8.23943338
_cell_length_c   15.57476210
_cell_angle_alpha   89.98929774
_cell_angle_beta   90.00779159
_cell_angle_gamma   89.96696584
_symmetry_Int_Tables_number   1
_chemical_formula_structural   Tb7Sm8Er5Sn16
_chemical_formula_sum   'Tb7 Sm8 Er5 Sn16'
_cell_volume   1036.63799396
_cell_formula_units_Z   1
loop_
 _symmetry_equiv_pos_site_id
 _symmetry_equiv_pos_as_xyz
  1  'x, y, z'
loop_
 _atom_site_type_symbol
 _atom_site_label
 _atom_site_symmetry_multiplicity
 _atom_site_fract_x
 _atom_site_fract_y
 _atom_site_fract_z
 _atom_site_occupancy
  Tb  Tb0  1  0.365443  0.836080  0.877857  1
  Tb  Tb1  1  0.865323  0.664015  0.622325  1
  Tb  Tb2  1  0.634686  0.164033  0.377778  1
  Tb  Tb3  1  0.134768  0.335916  0.122258  1
  Tb  Tb4  1  0.634821  0.164058  0.121858  1
  Tb  Tb5  1  0.134662  0.336047  0.377796  1
  Tb  Tb6  1  0.365142  0.835963  0.622406  1
  Sm  Sm7  1  0.518241  0.321167  0.902434  1
  Sm  Sm8  1  0.018002  0.179005  0.597647  1
  Sm  Sm9  1  0.481957  0.679002  0.402488  1
  Sm  Sm10  1  0.981859  0.820873  0.097177  1
  Sm  Sm11  1  0.481779  0.679117  0.097504  1
  Sm  Sm12  1  0.981999  0.820949  0.402524  1
  Sm  Sm13  1  0.518119  0.321100  0.597578  1
  Sm  Sm14  1  0.018022  0.179142  0.902515  1
  Er  Er15  1  0.865085  0.663718  0.877506  1
  Er  Er16  1  0.197594  0.502818  0.750217  1
  Er  Er17  1  0.698057  0.997045  0.750315  1
  Er  Er18  1  0.802301  0.497348  0.249853  1
  Er  Er19  1  0.302290  0.002564  0.249958  1
  Sn  Sn20  1  0.296786  0.037631  0.042255  1
  Sn  Sn21  1  0.796827  0.462369  0.457736  1
  Sn  Sn22  1  0.703082  0.962341  0.542284  1
  Sn  Sn23  1  0.201258  0.538231  0.957574  1
  Sn  Sn24  1  0.704283  0.960738  0.957500  1
  Sn  Sn25  1  0.203209  0.537700  0.542313  1
  Sn  Sn26  1  0.296909  0.037614  0.457799  1
  Sn  Sn27  1  0.797181  0.463097  0.041328  1
  Sn  Sn28  1  0.564229  0.620450  0.750486  1
  Sn  Sn29  1  0.062859  0.878963  0.750436  1
  Sn  Sn30  1  0.436564  0.379625  0.249920  1
  Sn  Sn31  1  0.936511  0.120372  0.249948  1
  Sn  Sn32  1  0.327004  0.145840  0.750068  1
  Sn  Sn33  1  0.827130  0.354851  0.750382  1
  Sn  Sn34  1  0.672970  0.854284  0.249988  1
  Sn  Sn35  1  0.173046  0.645934  0.249988  1
