# generated using pymatgen
data_Nd2VPtF14
_symmetry_space_group_name_H-M   'P 1'
_cell_length_a   5.67176400
_cell_length_b   9.15569126
_cell_length_c   12.20210063
_cell_angle_alpha   62.22114868
_cell_angle_beta   90.00000000
_cell_angle_gamma   90.00000000
_symmetry_Int_Tables_number   1
_chemical_formula_structural   Nd2VPtF14
_chemical_formula_sum   'Nd4 V2 Pt2 F28'
_cell_volume   560.61662070
_cell_formula_units_Z   2
loop_
 _symmetry_equiv_pos_site_id
 _symmetry_equiv_pos_as_xyz
  1  'x, y, z'
loop_
 _atom_site_type_symbol
 _atom_site_label
 _atom_site_symmetry_multiplicity
 _atom_site_fract_x
 _atom_site_fract_y
 _atom_site_fract_z
 _atom_site_occupancy
  Nd  Nd0  1  0.759925  0.808089  0.270489  1
  Nd  Nd1  1  0.259925  0.191911  0.229511  1
  Nd  Nd2  1  0.241572  0.189943  0.736745  1
  Nd  Nd3  1  0.741572  0.810057  0.763255  1
  V  V4  1  0.245468  0.725082  0.544362  1
  V  V5  1  0.745468  0.274918  0.955638  1
  Pt  Pt6  1  0.755838  0.272793  0.457246  1
  Pt  Pt7  1  0.255838  0.727207  0.042754  1
  F  F8  1  0.969692  0.714910  0.457634  1
  F  F9  1  0.469692  0.285090  0.042366  1
  F  F10  1  0.045915  0.287660  0.540703  1
  F  F11  1  0.545915  0.712340  0.959297  1
  F  F12  1  0.061417  0.703222  0.918429  1
  F  F13  1  0.561417  0.296778  0.581571  1
  F  F14  1  0.944800  0.288959  0.075047  1
  F  F15  1  0.444800  0.711041  0.424953  1
  F  F16  1  0.736254  0.502322  0.865493  1
  F  F17  1  0.236254  0.497678  0.634507  1
  F  F18  1  0.261827  0.485569  0.140499  1
  F  F19  1  0.761827  0.514431  0.359501  1
  F  F20  1  0.739763  0.049552  0.046291  1
  F  F21  1  0.239763  0.950448  0.453709  1
  F  F22  1  0.259078  0.969696  0.951308  1
  F  F23  1  0.759078  0.030304  0.548692  1
  F  F24  1  0.048415  0.741565  0.665307  1
  F  F25  1  0.548415  0.258435  0.834693  1
  F  F26  1  0.947151  0.254573  0.329554  1
  F  F27  1  0.447151  0.745427  0.170446  1
  F  F28  1  0.012776  0.270352  0.863488  1
  F  F29  1  0.512776  0.729648  0.636512  1
  F  F30  1  0.969486  0.733678  0.131255  1
  F  F31  1  0.469486  0.266322  0.368745  1
  F  F32  1  0.089137  0.969037  0.228991  1
  F  F33  1  0.589137  0.030963  0.271009  1
  F  F34  1  0.911486  0.030814  0.768460  1
  F  F35  1  0.411486  0.969186  0.731540  1
