# generated using pymatgen
data_Nd5TmAl24(Os3Rh)2
_symmetry_space_group_name_H-M   'P 1'
_cell_length_a   8.84698800
_cell_length_b   8.86720144
_cell_length_c   9.67634600
_cell_angle_alpha   90.00000000
_cell_angle_beta   90.00000000
_cell_angle_gamma   119.29676376
_symmetry_Int_Tables_number   1
_chemical_formula_structural   Nd5TmAl24(Os3Rh)2
_chemical_formula_sum   'Nd5 Tm1 Al24 Os6 Rh2'
_cell_volume   662.00024633
_cell_formula_units_Z   1
loop_
 _symmetry_equiv_pos_site_id
 _symmetry_equiv_pos_as_xyz
  1  'x, y, z'
loop_
 _atom_site_type_symbol
 _atom_site_label
 _atom_site_symmetry_multiplicity
 _atom_site_fract_x
 _atom_site_fract_y
 _atom_site_fract_z
 _atom_site_occupancy
  Nd  Nd0  1  0.814130  0.616197  0.750000  1
  Nd  Nd1  1  0.619643  0.815638  0.250000  1
  Nd  Nd2  1  0.382163  0.183763  0.750000  1
  Nd  Nd3  1  0.190870  0.807595  0.250000  1
  Nd  Nd4  1  0.807314  0.191703  0.750000  1
  Tm  Tm5  1  0.186628  0.393107  0.250000  1
  Al  Al6  1  0.332910  0.666762  0.019931  1
  Al  Al7  1  0.667272  0.331930  0.983892  1
  Al  Al8  1  0.667272  0.331930  0.516108  1
  Al  Al9  1  0.332910  0.666762  0.480069  1
  Al  Al10  1  0.162265  0.325525  0.571515  1
  Al  Al11  1  0.837367  0.673268  0.424148  1
  Al  Al12  1  0.673595  0.837514  0.574704  1
  Al  Al13  1  0.837367  0.673268  0.075852  1
  Al  Al14  1  0.324897  0.163295  0.423122  1
  Al  Al15  1  0.162265  0.325525  0.928485  1
  Al  Al16  1  0.164878  0.834336  0.573324  1
  Al  Al17  1  0.324897  0.163295  0.076878  1
  Al  Al18  1  0.837425  0.165455  0.424604  1
  Al  Al19  1  0.673595  0.837514  0.925296  1
  Al  Al20  1  0.837425  0.165455  0.075396  1
  Al  Al21  1  0.164878  0.834336  0.926676  1
  Al  Al22  1  0.561127  0.126932  0.250000  1
  Al  Al23  1  0.437769  0.871607  0.750000  1
  Al  Al24  1  0.873274  0.437514  0.250000  1
  Al  Al25  1  0.127125  0.560561  0.750000  1
  Al  Al26  1  0.557079  0.438479  0.250000  1
  Al  Al27  1  0.437762  0.559634  0.750000  1
  Al  Al28  1  0.004804  0.012517  0.250000  1
  Al  Al29  1  0.000713  0.997362  0.750000  1
  Os  Os30  1  0.499737  0.999298  0.000291  1
  Os  Os31  1  0.001488  0.498519  0.002122  1
  Os  Os32  1  0.499737  0.999298  0.499709  1
  Os  Os33  1  0.001488  0.498519  0.497878  1
  Os  Os34  1  0.999664  0.998921  0.000602  1
  Os  Os35  1  0.999664  0.998921  0.499398  1
  Rh  Rh36  1  0.498304  0.498873  0.001197  1
  Rh  Rh37  1  0.498304  0.498873  0.498803  1
