# generated using pymatgen
data_Nb3Cu2GeN
_symmetry_space_group_name_H-M   'P 1'
_cell_length_a   8.19167841
_cell_length_b   8.19073901
_cell_length_c   8.19347336
_cell_angle_alpha   60.02279559
_cell_angle_beta   60.02099562
_cell_angle_gamma   60.03379073
_symmetry_Int_Tables_number   1
_chemical_formula_structural   Nb3Cu2GeN
_chemical_formula_sum   'Nb12 Cu8 Ge4 N4'
_cell_volume   388.95874441
_cell_formula_units_Z   4
loop_
 _symmetry_equiv_pos_site_id
 _symmetry_equiv_pos_as_xyz
  1  'x, y, z'
loop_
 _atom_site_type_symbol
 _atom_site_label
 _atom_site_symmetry_multiplicity
 _atom_site_fract_x
 _atom_site_fract_y
 _atom_site_fract_z
 _atom_site_occupancy
  Nb  Nb0  1  0.817164  0.817379  0.182721  1
  Nb  Nb1  1  0.182740  0.182745  0.817254  1
  Nb  Nb2  1  0.817210  0.182747  0.817321  1
  Nb  Nb3  1  0.182746  0.817328  0.182688  1
  Nb  Nb4  1  0.182750  0.817313  0.817204  1
  Nb  Nb5  1  0.817236  0.182741  0.182681  1
  Nb  Nb6  1  0.432836  0.432621  0.067279  1
  Nb  Nb7  1  0.067260  0.067255  0.432746  1
  Nb  Nb8  1  0.432790  0.067253  0.432679  1
  Nb  Nb9  1  0.067254  0.432672  0.067312  1
  Nb  Nb10  1  0.067250  0.432687  0.432796  1
  Nb  Nb11  1  0.432764  0.067259  0.067319  1
  Cu  Cu12  1  0.741395  0.419526  0.419526  1
  Cu  Cu13  1  0.419556  0.741364  0.419519  1
  Cu  Cu14  1  0.419577  0.419556  0.741260  1
  Cu  Cu15  1  0.419553  0.419515  0.419535  1
  Cu  Cu16  1  0.508605  0.830474  0.830474  1
  Cu  Cu17  1  0.830444  0.508636  0.830481  1
  Cu  Cu18  1  0.830423  0.830444  0.508740  1
  Cu  Cu19  1  0.830447  0.830485  0.830465  1
  Ge  Ge20  1  0.125000  0.625000  0.625000  1
  Ge  Ge21  1  0.625000  0.125000  0.625000  1
  Ge  Ge22  1  0.625000  0.625000  0.125000  1
  Ge  Ge23  1  0.625000  0.625000  0.625000  1
  N  N24  1  0.625000  0.125000  0.125000  1
  N  N25  1  0.125000  0.625000  0.125000  1
  N  N26  1  0.125000  0.125000  0.625000  1
  N  N27  1  0.125000  0.125000  0.125000  1
