# generated using pymatgen
data_Pr10Si16As
_symmetry_space_group_name_H-M   'P 1'
_cell_length_a   11.49563884
_cell_length_b   11.48755059
_cell_length_c   11.49563856
_cell_angle_alpha   145.07800674
_cell_angle_beta   135.54086796
_cell_angle_gamma   57.75904987
_symmetry_Int_Tables_number   1
_chemical_formula_structural   Pr10Si16As
_chemical_formula_sum   'Pr10 Si16 As1'
_cell_volume   603.58495037
_cell_formula_units_Z   1
loop_
 _symmetry_equiv_pos_site_id
 _symmetry_equiv_pos_as_xyz
  1  'x, y, z'
loop_
 _atom_site_type_symbol
 _atom_site_label
 _atom_site_symmetry_multiplicity
 _atom_site_fract_x
 _atom_site_fract_y
 _atom_site_fract_z
 _atom_site_occupancy
  Pr  Pr0  1  0.752034  0.761453  0.513304  1
  Pr  Pr1  1  0.448792  0.964674  0.013928  1
  Pr  Pr2  1  0.848833  0.367165  0.016141  1
  Pr  Pr3  1  0.950745  0.964674  0.515880  1
  Pr  Pr4  1  0.152085  0.165453  0.517565  1
  Pr  Pr5  1  0.351024  0.367165  0.518332  1
  Pr  Pr6  1  0.248148  0.761453  0.009419  1
  Pr  Pr7  1  0.549730  0.561802  0.510256  1
  Pr  Pr8  1  0.051546  0.561802  0.012073  1
  Pr  Pr9  1  0.647889  0.165453  0.013368  1
  Si  Si10  1  0.198665  0.597489  0.398824  1
  Si  Si11  1  0.000197  0.088214  0.088017  1
  Si  Si12  1  0.700961  0.288218  0.587257  1
  Si  Si13  1  0.802438  0.201087  0.398650  1
  Si  Si14  1  0.897687  0.502171  0.604484  1
  Si  Si15  1  0.410319  0.856212  0.445893  1
  Si  Si16  1  0.103024  0.708446  0.605421  1
  Si  Si17  1  0.299572  0.894932  0.595360  1
  Si  Si18  1  0.587812  0.039499  0.451687  1
  Si  Si19  1  0.000438  0.432886  0.432448  1
  Si  Si20  1  0.887988  0.839126  0.951138  1
  Si  Si21  1  0.400218  0.499273  0.099054  1
  Si  Si22  1  0.113121  0.066412  0.953291  1
  Si  Si23  1  0.291146  0.239457  0.948313  1
  Si  Si24  1  0.499748  0.404239  0.904491  1
  Si  Si25  1  0.596470  0.703000  0.106530  1
  As  As26  1  0.709372  0.659744  0.950372  1
