# generated using pymatgen
data_Ta3Fe2(B2Mo)3
_symmetry_space_group_name_H-M   'P 1'
_cell_length_a   3.18900500
_cell_length_b   4.58558847
_cell_length_c   10.98185026
_cell_angle_alpha   90.00134615
_cell_angle_beta   90.00000000
_cell_angle_gamma   110.34793907
_symmetry_Int_Tables_number   1
_chemical_formula_structural   Ta3Fe2(B2Mo)3
_chemical_formula_sum   'Ta3 Fe2 B6 Mo3'
_cell_volume   150.57144503
_cell_formula_units_Z   1
loop_
 _symmetry_equiv_pos_site_id
 _symmetry_equiv_pos_as_xyz
  1  'x, y, z'
loop_
 _atom_site_type_symbol
 _atom_site_label
 _atom_site_symmetry_multiplicity
 _atom_site_fract_x
 _atom_site_fract_y
 _atom_site_fract_z
 _atom_site_occupancy
  Ta  Ta0  1  0.206635  0.413269  0.393459  1
  Ta  Ta1  1  0.793999  0.587998  0.608084  1
  Ta  Ta2  1  0.207779  0.415558  0.103221  1
  Fe  Fe3  1  0.499905  0.999810  0.501088  1
  Fe  Fe4  1  0.498149  0.996297  0.997714  1
  B  B5  1  0.912426  0.824853  0.393120  1
  B  B6  1  0.088855  0.177710  0.607781  1
  B  B7  1  0.913868  0.827735  0.104304  1
  B  B8  1  0.087794  0.175589  0.894749  1
  B  B9  1  0.794463  0.588925  0.248535  1
  B  B10  1  0.206929  0.413856  0.752061  1
  Mo  Mo11  1  0.788713  0.577427  0.893193  1
  Mo  Mo12  1  0.498304  0.996606  0.249833  1
  Mo  Mo13  1  0.502182  0.004366  0.752857  1
