# generated using pymatgen
data_Na3Ga5O9
_symmetry_space_group_name_H-M   'P 1'
_cell_length_a   9.04523934
_cell_length_b   9.04523904
_cell_length_c   5.27326338
_cell_angle_alpha   89.26578148
_cell_angle_beta   89.26577522
_cell_angle_gamma   85.12712881
_symmetry_Int_Tables_number   1
_chemical_formula_structural   Na3Ga5O9
_chemical_formula_sum   'Na6 Ga10 O18'
_cell_volume   429.81472543
_cell_formula_units_Z   2
loop_
 _symmetry_equiv_pos_site_id
 _symmetry_equiv_pos_as_xyz
  1  'x, y, z'
loop_
 _atom_site_type_symbol
 _atom_site_label
 _atom_site_symmetry_multiplicity
 _atom_site_fract_x
 _atom_site_fract_y
 _atom_site_fract_z
 _atom_site_occupancy
  Na  Na0  1  0.682645  0.835523  0.264381  1
  Na  Na1  1  0.164477  0.317355  0.235619  1
  Na  Na2  1  0.317355  0.164477  0.735619  1
  Na  Na3  1  0.835523  0.682645  0.764381  1
  Na  Na4  1  0.409581  0.590419  0.250000  1
  Na  Na5  1  0.590419  0.409581  0.750000  1
  Ga  Ga6  1  0.567947  0.200345  0.281637  1
  Ga  Ga7  1  0.799655  0.432053  0.218363  1
  Ga  Ga8  1  0.432053  0.799655  0.718363  1
  Ga  Ga9  1  0.200345  0.567947  0.781637  1
  Ga  Ga10  1  0.302617  0.979626  0.223266  1
  Ga  Ga11  1  0.020374  0.697383  0.276734  1
  Ga  Ga12  1  0.697383  0.020374  0.776734  1
  Ga  Ga13  1  0.979626  0.302617  0.723266  1
  Ga  Ga14  1  0.935544  0.064456  0.250000  1
  Ga  Ga15  1  0.064456  0.935544  0.750000  1
  O  O16  1  0.725208  0.085477  0.113628  1
  O  O17  1  0.914523  0.274792  0.386372  1
  O  O18  1  0.274792  0.914523  0.886372  1
  O  O19  1  0.085477  0.725208  0.613628  1
  O  O20  1  0.431703  0.835925  0.369720  1
  O  O21  1  0.164075  0.568297  0.130280  1
  O  O22  1  0.568297  0.164075  0.630280  1
  O  O23  1  0.835925  0.431703  0.869720  1
  O  O24  1  0.380962  0.164342  0.172311  1
  O  O25  1  0.835658  0.619038  0.327689  1
  O  O26  1  0.619038  0.835658  0.827689  1
  O  O27  1  0.164342  0.380962  0.672311  1
  O  O28  1  0.134074  0.030589  0.424586  1
  O  O29  1  0.969411  0.865926  0.075414  1
  O  O30  1  0.865926  0.969411  0.575414  1
  O  O31  1  0.030589  0.134074  0.924586  1
  O  O32  1  0.598223  0.401777  0.250000  1
  O  O33  1  0.401777  0.598223  0.750000  1
