# generated using pymatgen
data_Nb12AlZn6GaN4
_symmetry_space_group_name_H-M   'P 1'
_cell_length_a   7.04363500
_cell_length_b   7.04527492
_cell_length_c   7.04578981
_cell_angle_alpha   89.93975472
_cell_angle_beta   90.03510837
_cell_angle_gamma   89.94067838
_symmetry_Int_Tables_number   1
_chemical_formula_structural   Nb12AlZn6GaN4
_chemical_formula_sum   'Nb12 Al1 Zn6 Ga1 N4'
_cell_volume   349.64225765
_cell_formula_units_Z   1
loop_
 _symmetry_equiv_pos_site_id
 _symmetry_equiv_pos_as_xyz
  1  'x, y, z'
loop_
 _atom_site_type_symbol
 _atom_site_label
 _atom_site_symmetry_multiplicity
 _atom_site_fract_x
 _atom_site_fract_y
 _atom_site_fract_z
 _atom_site_occupancy
  Nb  Nb0  1  0.792723  0.957490  0.373025  1
  Nb  Nb1  1  0.707969  0.043129  0.876211  1
  Nb  Nb2  1  0.207343  0.457191  0.126657  1
  Nb  Nb3  1  0.292453  0.543355  0.623787  1
  Nb  Nb4  1  0.957331  0.373747  0.792422  1
  Nb  Nb5  1  0.042657  0.874643  0.707810  1
  Nb  Nb6  1  0.456678  0.125284  0.207298  1
  Nb  Nb7  1  0.543284  0.624671  0.292976  1
  Nb  Nb8  1  0.373142  0.792950  0.957370  1
  Nb  Nb9  1  0.875961  0.708155  0.042891  1
  Nb  Nb10  1  0.124671  0.207990  0.456796  1
  Nb  Nb11  1  0.625955  0.293115  0.542875  1
  Al  Al12  1  0.073026  0.072826  0.072257  1
  Zn  Zn13  1  0.182198  0.821525  0.322411  1
  Zn  Zn14  1  0.323227  0.179543  0.819045  1
  Zn  Zn15  1  0.818117  0.320724  0.177100  1
  Zn  Zn16  1  0.676400  0.679659  0.681399  1
  Zn  Zn17  1  0.570600  0.429253  0.928562  1
  Zn  Zn18  1  0.429451  0.929186  0.571405  1
  Ga  Ga19  1  0.927439  0.572286  0.428323  1
  N  N20  1  0.874239  0.122804  0.624280  1
  N  N21  1  0.622666  0.873893  0.123986  1
  N  N22  1  0.125516  0.622307  0.874988  1
  N  N23  1  0.376952  0.374276  0.376125  1
