# generated using pymatgen
data_Nd4DyUS10
_symmetry_space_group_name_H-M   'P 1'
_cell_length_a   7.49744900
_cell_length_b   7.95110800
_cell_length_c   11.90055800
_cell_angle_alpha   90.00000000
_cell_angle_beta   90.00000000
_cell_angle_gamma   90.00000000
_symmetry_Int_Tables_number   1
_chemical_formula_structural   Nd4DyUS10
_chemical_formula_sum   'Nd8 Dy2 U2 S20'
_cell_volume   709.42828208
_cell_formula_units_Z   2
loop_
 _symmetry_equiv_pos_site_id
 _symmetry_equiv_pos_as_xyz
  1  'x, y, z'
loop_
 _atom_site_type_symbol
 _atom_site_label
 _atom_site_symmetry_multiplicity
 _atom_site_fract_x
 _atom_site_fract_y
 _atom_site_fract_z
 _atom_site_occupancy
  Nd  Nd0  1  0.527970  0.501924  0.323158  1
  Nd  Nd1  1  0.972030  0.998076  0.823158  1
  Nd  Nd2  1  0.476765  0.997764  0.676996  1
  Nd  Nd3  1  0.023235  0.502236  0.176996  1
  Nd  Nd4  1  0.476765  0.502236  0.676996  1
  Nd  Nd5  1  0.023235  0.997764  0.176996  1
  Nd  Nd6  1  0.527970  0.998076  0.323158  1
  Nd  Nd7  1  0.972030  0.501924  0.823158  1
  Dy  Dy8  1  0.074222  0.750000  0.493934  1
  Dy  Dy9  1  0.425778  0.750000  0.993934  1
  U  U10  1  0.941452  0.250000  0.506163  1
  U  U11  1  0.558548  0.250000  0.006163  1
  S  S12  1  0.836121  0.966865  0.595724  1
  S  S13  1  0.663879  0.533135  0.095724  1
  S  S14  1  0.163279  0.453354  0.404739  1
  S  S15  1  0.336721  0.046646  0.904739  1
  S  S16  1  0.163279  0.046646  0.404739  1
  S  S17  1  0.336721  0.453354  0.904739  1
  S  S18  1  0.836121  0.533135  0.595724  1
  S  S19  1  0.663879  0.966865  0.095724  1
  S  S20  1  0.829662  0.750000  0.313538  1
  S  S21  1  0.670338  0.750000  0.813538  1
  S  S22  1  0.168464  0.250000  0.683300  1
  S  S23  1  0.331536  0.250000  0.183300  1
  S  S24  1  0.455403  0.750000  0.497895  1
  S  S25  1  0.044597  0.750000  0.997895  1
  S  S26  1  0.550473  0.250000  0.499722  1
  S  S27  1  0.949527  0.250000  0.999722  1
  S  S28  1  0.193838  0.750000  0.714212  1
  S  S29  1  0.306162  0.750000  0.214212  1
  S  S30  1  0.808842  0.250000  0.290004  1
  S  S31  1  0.691158  0.250000  0.790004  1
