# generated using pymatgen
data_Sc4MnCo19As12
_symmetry_space_group_name_H-M   'P 1'
_cell_length_a   3.71548300
_cell_length_b   10.58699575
_cell_length_c   12.15355414
_cell_angle_alpha   89.94165778
_cell_angle_beta   90.00000000
_cell_angle_gamma   90.00000000
_symmetry_Int_Tables_number   1
_chemical_formula_structural   Sc4MnCo19As12
_chemical_formula_sum   'Sc4 Mn1 Co19 As12'
_cell_volume   478.06956008
_cell_formula_units_Z   1
loop_
 _symmetry_equiv_pos_site_id
 _symmetry_equiv_pos_as_xyz
  1  'x, y, z'
loop_
 _atom_site_type_symbol
 _atom_site_label
 _atom_site_symmetry_multiplicity
 _atom_site_fract_x
 _atom_site_fract_y
 _atom_site_fract_z
 _atom_site_occupancy
  Sc  Sc0  1  0.250000  0.577677  0.699486  1
  Sc  Sc1  1  0.250000  0.924149  0.203231  1
  Sc  Sc2  1  0.750000  0.422482  0.298536  1
  Sc  Sc3  1  0.750000  0.077753  0.796453  1
  Mn  Mn4  1  0.250000  0.704520  0.989610  1
  Co  Co5  1  0.250000  0.786362  0.492149  1
  Co  Co6  1  0.750000  0.292653  0.010310  1
  Co  Co7  1  0.750000  0.212845  0.507535  1
  Co  Co8  1  0.250000  0.407160  0.486535  1
  Co  Co9  1  0.250000  0.093662  0.986528  1
  Co  Co10  1  0.750000  0.591580  0.515477  1
  Co  Co11  1  0.750000  0.907632  0.015046  1
  Co  Co12  1  0.250000  0.218197  0.176786  1
  Co  Co13  1  0.250000  0.282394  0.676368  1
  Co  Co14  1  0.750000  0.782772  0.822613  1
  Co  Co15  1  0.750000  0.716181  0.326372  1
  Co  Co16  1  0.250000  0.884215  0.697729  1
  Co  Co17  1  0.250000  0.617932  0.199695  1
  Co  Co18  1  0.750000  0.116631  0.301125  1
  Co  Co19  1  0.750000  0.380972  0.801469  1
  Co  Co20  1  0.250000  0.463468  0.932242  1
  Co  Co21  1  0.250000  0.033792  0.431354  1
  Co  Co22  1  0.750000  0.535281  0.066318  1
  Co  Co23  1  0.750000  0.966946  0.567739  1
  As  As24  1  0.250000  0.418345  0.118256  1
  As  As25  1  0.250000  0.083402  0.615965  1
  As  As26  1  0.750000  0.580608  0.878917  1
  As  As27  1  0.750000  0.916748  0.383570  1
  As  As28  1  0.250000  0.261633  0.866502  1
  As  As29  1  0.250000  0.236624  0.367493  1
  As  As30  1  0.750000  0.738247  0.137015  1
  As  As31  1  0.750000  0.764358  0.632083  1
  As  As32  1  0.250000  0.596853  0.390976  1
  As  As33  1  0.250000  0.905743  0.887795  1
  As  As34  1  0.750000  0.400780  0.610526  1
  As  As35  1  0.750000  0.099402  0.110196  1
