# generated using pymatgen
data_DyHo3GaRu7
_symmetry_space_group_name_H-M   'P 1'
_cell_length_a   5.35768611
_cell_length_b   5.35768490
_cell_length_c   8.64039102
_cell_angle_alpha   89.98625795
_cell_angle_beta   90.01373920
_cell_angle_gamma   119.94807123
_symmetry_Int_Tables_number   1
_chemical_formula_structural   DyHo3GaRu7
_chemical_formula_sum   'Dy1 Ho3 Ga1 Ru7'
_cell_volume   214.90447583
_cell_formula_units_Z   1
loop_
 _symmetry_equiv_pos_site_id
 _symmetry_equiv_pos_as_xyz
  1  'x, y, z'
loop_
 _atom_site_type_symbol
 _atom_site_label
 _atom_site_symmetry_multiplicity
 _atom_site_fract_x
 _atom_site_fract_y
 _atom_site_fract_z
 _atom_site_occupancy
  Dy  Dy0  1  0.666705  0.333295  0.570649  1
  Ho  Ho1  1  0.333282  0.666718  0.429218  1
  Ho  Ho2  1  0.333285  0.666715  0.064522  1
  Ho  Ho3  1  0.666729  0.333271  0.935534  1
  Ga  Ga4  1  0.999994  0.000006  0.499942  1
  Ru  Ru5  1  0.000012  0.999988  0.999979  1
  Ru  Ru6  1  0.171439  0.342743  0.749360  1
  Ru  Ru7  1  0.171333  0.828667  0.749381  1
  Ru  Ru8  1  0.657257  0.828561  0.749360  1
  Ru  Ru9  1  0.828575  0.657351  0.250679  1
  Ru  Ru10  1  0.828740  0.171260  0.250696  1
  Ru  Ru11  1  0.342649  0.171425  0.250679  1
