# generated using pymatgen
data_TbYRh6C
_symmetry_space_group_name_H-M   'P 1'
_cell_length_a   5.81949518
_cell_length_b   5.81949417
_cell_length_c   5.81949500
_cell_angle_alpha   60.00000099
_cell_angle_beta   60.00000669
_cell_angle_gamma   60.00001713
_symmetry_Int_Tables_number   1
_chemical_formula_structural   TbYRh6C
_chemical_formula_sum   'Tb1 Y1 Rh6 C1'
_cell_volume   139.36089710
_cell_formula_units_Z   1
loop_
 _symmetry_equiv_pos_site_id
 _symmetry_equiv_pos_as_xyz
  1  'x, y, z'
loop_
 _atom_site_type_symbol
 _atom_site_label
 _atom_site_symmetry_multiplicity
 _atom_site_fract_x
 _atom_site_fract_y
 _atom_site_fract_z
 _atom_site_occupancy
  Tb  Tb0  1  0.750000  0.750000  0.750000  1
  Y  Y1  1  0.250000  0.250000  0.250000  1
  Rh  Rh2  1  0.746399  0.253602  0.253602  1
  Rh  Rh3  1  0.253602  0.746399  0.253602  1
  Rh  Rh4  1  0.746394  0.746394  0.253607  1
  Rh  Rh5  1  0.253606  0.253606  0.746395  1
  Rh  Rh6  1  0.746398  0.253603  0.746398  1
  Rh  Rh7  1  0.253603  0.746398  0.746398  1
  C  C8  1  0.000000  0.000000  0.000000  1
