# generated using pymatgen
data_Tb3TmGa4(RuPt)2
_symmetry_space_group_name_H-M   'P 1'
_cell_length_a   4.34236300
_cell_length_b   6.89503906
_cell_length_c   7.81473410
_cell_angle_alpha   89.83553498
_cell_angle_beta   90.00000000
_cell_angle_gamma   90.00000000
_symmetry_Int_Tables_number   1
_chemical_formula_structural   Tb3TmGa4(RuPt)2
_chemical_formula_sum   'Tb3 Tm1 Ga4 Ru2 Pt2'
_cell_volume   233.97813361
_cell_formula_units_Z   1
loop_
 _symmetry_equiv_pos_site_id
 _symmetry_equiv_pos_as_xyz
  1  'x, y, z'
loop_
 _atom_site_type_symbol
 _atom_site_label
 _atom_site_symmetry_multiplicity
 _atom_site_fract_x
 _atom_site_fract_y
 _atom_site_fract_z
 _atom_site_occupancy
  Tb  Tb0  1  0.250000  0.974086  0.314224  1
  Tb  Tb1  1  0.250000  0.474322  0.184722  1
  Tb  Tb2  1  0.750000  0.019689  0.695354  1
  Tm  Tm3  1  0.750000  0.520659  0.805619  1
  Ga  Ga4  1  0.250000  0.345927  0.573914  1
  Ga  Ga5  1  0.250000  0.843632  0.926949  1
  Ga  Ga6  1  0.750000  0.662246  0.436385  1
  Ga  Ga7  1  0.750000  0.163887  0.064191  1
  Ru  Ru8  1  0.250000  0.230781  0.891333  1
  Ru  Ru9  1  0.250000  0.726426  0.609339  1
  Pt  Pt10  1  0.750000  0.768438  0.106974  1
  Pt  Pt11  1  0.750000  0.269910  0.390996  1
