# generated using pymatgen
data_HoHf5Zr3(In2Co)7
_symmetry_space_group_name_H-M   'P 1'
_cell_length_a   9.46162935
_cell_length_b   9.43479444
_cell_length_c   9.43077700
_cell_angle_alpha   60.01408821
_cell_angle_beta   60.10781095
_cell_angle_gamma   60.24727970
_symmetry_Int_Tables_number   1
_chemical_formula_structural   HoHf5Zr3(In2Co)7
_chemical_formula_sum   'Ho1 Hf5 Zr3 In14 Co7'
_cell_volume   596.94772798
_cell_formula_units_Z   1
loop_
 _symmetry_equiv_pos_site_id
 _symmetry_equiv_pos_as_xyz
  1  'x, y, z'
loop_
 _atom_site_type_symbol
 _atom_site_label
 _atom_site_symmetry_multiplicity
 _atom_site_fract_x
 _atom_site_fract_y
 _atom_site_fract_z
 _atom_site_occupancy
  Ho  Ho0  1  0.499832  0.499714  0.500227  1
  Hf  Hf1  1  0.118880  0.643041  0.119040  1
  Hf  Hf2  1  0.356569  0.880380  0.881525  1
  Hf  Hf3  1  0.880839  0.880456  0.881382  1
  Hf  Hf4  1  0.643379  0.118153  0.119235  1
  Hf  Hf5  1  0.880839  0.880456  0.357321  1
  Zr  Zr6  1  0.121538  0.120414  0.122122  1
  Zr  Zr7  1  0.878309  0.363265  0.879212  1
  Zr  Zr8  1  0.121538  0.120414  0.635927  1
  In  In9  1  0.500940  0.843506  0.154886  1
  In  In10  1  0.500940  0.843506  0.500667  1
  In  In11  1  0.499899  0.155037  0.500078  1
  In  In12  1  0.499052  0.499263  0.845838  1
  In  In13  1  0.155995  0.498646  0.498831  1
  In  In14  1  0.843742  0.153315  0.501472  1
  In  In15  1  0.154720  0.843759  0.500760  1
  In  In16  1  0.499899  0.155037  0.844986  1
  In  In17  1  0.155995  0.498646  0.846529  1
  In  In18  1  0.499052  0.499263  0.155847  1
  In  In19  1  0.843649  0.500828  0.500478  1
  In  In20  1  0.843649  0.500828  0.155044  1
  In  In21  1  0.253358  0.253119  0.246761  1
  In  In22  1  0.748208  0.754839  0.748476  1
  Co  Co23  1  0.780716  0.780941  0.219172  1
  Co  Co24  1  0.999676  0.997795  0.001264  1
  Co  Co25  1  0.219721  0.779722  0.219648  1
  Co  Co26  1  0.219721  0.779722  0.780908  1
  Co  Co27  1  0.220059  0.218453  0.780744  1
  Co  Co28  1  0.779641  0.218741  0.781062  1
  Co  Co29  1  0.779641  0.218741  0.220556  1
