# generated using pymatgen
data_Hf8Al14GaRuRh6
_symmetry_space_group_name_H-M   'P 1'
_cell_length_a   8.85390361
_cell_length_b   8.87179563
_cell_length_c   8.86432455
_cell_angle_alpha   120.18051201
_cell_angle_beta   119.88779014
_cell_angle_gamma   89.88014165
_symmetry_Int_Tables_number   1
_chemical_formula_structural   Hf8Al14GaRuRh6
_chemical_formula_sum   'Hf8 Al14 Ga1 Ru1 Rh6'
_cell_volume   492.35562898
_cell_formula_units_Z   1
loop_
 _symmetry_equiv_pos_site_id
 _symmetry_equiv_pos_as_xyz
  1  'x, y, z'
loop_
 _atom_site_type_symbol
 _atom_site_label
 _atom_site_symmetry_multiplicity
 _atom_site_fract_x
 _atom_site_fract_y
 _atom_site_fract_z
 _atom_site_occupancy
  Hf  Hf0  1  0.801698  0.296258  0.082782  1
  Hf  Hf1  1  0.210819  0.295454  0.495150  1
  Hf  Hf2  1  0.194074  0.698257  0.499470  1
  Hf  Hf3  1  0.212611  0.718782  0.917054  1
  Hf  Hf4  1  0.804440  0.721737  0.505712  1
  Hf  Hf5  1  0.783322  0.276921  0.499804  1
  Hf  Hf6  1  0.377238  0.119444  0.739640  1
  Hf  Hf7  1  0.379416  0.638642  0.259432  1
  Al  Al8  1  0.159817  0.333471  0.174724  1
  Al  Al9  1  0.160878  0.988022  0.827783  1
  Al  Al10  1  0.152500  0.342598  0.810416  1
  Al  Al11  1  0.535670  0.343461  0.192992  1
  Al  Al12  1  0.839033  0.657101  0.816677  1
  Al  Al13  1  0.839331  0.018689  0.179597  1
  Al  Al14  1  0.837220  0.661963  0.174982  1
  Al  Al15  1  0.483444  0.660973  0.822341  1
  Al  Al16  1  0.379688  0.122228  0.258641  1
  Al  Al17  1  0.865027  0.121774  0.743229  1
  Al  Al18  1  0.623029  0.875405  0.253940  1
  Al  Al19  1  0.621273  0.367372  0.744931  1
  Al  Al20  1  0.622166  0.878606  0.743932  1
  Al  Al21  1  0.134007  0.878846  0.257347  1
  Ga  Ga22  1  0.985844  0.487232  0.499451  1
  Ru  Ru23  1  0.998640  0.000065  0.502161  1
  Rh  Rh24  1  0.498340  0.000250  0.001592  1
  Rh  Rh25  1  0.498473  0.498324  0.999994  1
  Rh  Rh26  1  0.497854  0.497336  0.498031  1
  Rh  Rh27  1  0.998805  0.497278  0.999046  1
  Rh  Rh28  1  0.999256  0.998103  0.999548  1
  Rh  Rh29  1  0.506081  0.005404  0.499598  1
