# generated using pymatgen
data_Pr5TmAl24(Ir3Ru)2
_symmetry_space_group_name_H-M   'P 1'
_cell_length_a   8.86459200
_cell_length_b   8.90747778
_cell_length_c   9.62599200
_cell_angle_alpha   90.00000000
_cell_angle_beta   90.00000000
_cell_angle_gamma   119.84085489
_symmetry_Int_Tables_number   1
_chemical_formula_structural   Pr5TmAl24(Ir3Ru)2
_chemical_formula_sum   'Pr5 Tm1 Al24 Ir6 Ru2'
_cell_volume   659.30118009
_cell_formula_units_Z   1
loop_
 _symmetry_equiv_pos_site_id
 _symmetry_equiv_pos_as_xyz
  1  'x, y, z'
loop_
 _atom_site_type_symbol
 _atom_site_label
 _atom_site_symmetry_multiplicity
 _atom_site_fract_x
 _atom_site_fract_y
 _atom_site_fract_z
 _atom_site_occupancy
  Pr  Pr0  1  0.808994  0.617988  0.750000  1
  Pr  Pr1  1  0.620188  0.809837  0.250000  1
  Pr  Pr2  1  0.379931  0.189354  0.750000  1
  Pr  Pr3  1  0.189649  0.809837  0.250000  1
  Pr  Pr4  1  0.809423  0.189354  0.750000  1
  Tm  Tm5  1  0.195685  0.391369  0.250000  1
  Al  Al6  1  0.332937  0.665876  0.025384  1
  Al  Al7  1  0.665969  0.331936  0.979070  1
  Al  Al8  1  0.665969  0.331936  0.520930  1
  Al  Al9  1  0.332937  0.665876  0.474616  1
  Al  Al10  1  0.163378  0.326754  0.571281  1
  Al  Al11  1  0.836186  0.672375  0.424234  1
  Al  Al12  1  0.672154  0.835523  0.575275  1
  Al  Al13  1  0.836186  0.672375  0.075766  1
  Al  Al14  1  0.325611  0.165258  0.422037  1
  Al  Al15  1  0.163378  0.326754  0.928719  1
  Al  Al16  1  0.163372  0.835523  0.575275  1
  Al  Al17  1  0.325611  0.165258  0.077963  1
  Al  Al18  1  0.839644  0.165258  0.422037  1
  Al  Al19  1  0.672154  0.835523  0.924725  1
  Al  Al20  1  0.839644  0.165258  0.077963  1
  Al  Al21  1  0.163372  0.835523  0.924725  1
  Al  Al22  1  0.563611  0.127221  0.250000  1
  Al  Al23  1  0.435963  0.871927  0.750000  1
  Al  Al24  1  0.875299  0.436404  0.250000  1
  Al  Al25  1  0.126719  0.561729  0.750000  1
  Al  Al26  1  0.561106  0.436404  0.250000  1
  Al  Al27  1  0.435011  0.561729  0.750000  1
  Al  Al28  1  0.005298  0.010595  0.250000  1
  Al  Al29  1  0.999257  0.998515  0.750000  1
  Ir  Ir30  1  0.499468  0.998936  0.000693  1
  Ir  Ir31  1  0.001118  0.498507  0.002019  1
  Ir  Ir32  1  0.499468  0.998936  0.499307  1
  Ir  Ir33  1  0.497389  0.498507  0.002019  1
  Ir  Ir34  1  0.001118  0.498507  0.497981  1
  Ir  Ir35  1  0.497389  0.498507  0.497981  1
  Ru  Ru36  1  0.999708  0.999416  0.000412  1
  Ru  Ru37  1  0.999708  0.999416  0.499588  1
