# generated using pymatgen
data_Ho10Er2Ga9Si9Ge2
_symmetry_space_group_name_H-M   'P 1'
_cell_length_a   5.94577515
_cell_length_b   5.94577803
_cell_length_c   18.65993100
_cell_angle_alpha   90.00000000
_cell_angle_beta   90.00000000
_cell_angle_gamma   102.87682530
_symmetry_Int_Tables_number   1
_chemical_formula_structural   Ho10Er2Ga9Si9Ge2
_chemical_formula_sum   'Ho10 Er2 Ga9 Si9 Ge2'
_cell_volume   643.08093206
_cell_formula_units_Z   1
loop_
 _symmetry_equiv_pos_site_id
 _symmetry_equiv_pos_as_xyz
  1  'x, y, z'
loop_
 _atom_site_type_symbol
 _atom_site_label
 _atom_site_symmetry_multiplicity
 _atom_site_fract_x
 _atom_site_fract_y
 _atom_site_fract_z
 _atom_site_occupancy
  Ho  Ho0  1  0.340098  0.340096  0.250442  1
  Ho  Ho1  1  0.340098  0.340096  0.749558  1
  Ho  Ho2  1  0.200589  0.801939  0.128376  1
  Ho  Ho3  1  0.199092  0.802024  0.624823  1
  Ho  Ho4  1  0.200589  0.801939  0.871624  1
  Ho  Ho5  1  0.199092  0.802024  0.375177  1
  Ho  Ho6  1  0.801943  0.200589  0.128376  1
  Ho  Ho7  1  0.802025  0.199092  0.624823  1
  Ho  Ho8  1  0.802025  0.199092  0.375177  1
  Ho  Ho9  1  0.801943  0.200589  0.871624  1
  Er  Er10  1  0.652051  0.652064  0.000000  1
  Er  Er11  1  0.662027  0.662034  0.500000  1
  Ga  Ga12  1  0.316883  0.316881  0.902461  1
  Ga  Ga13  1  0.324312  0.324314  0.402368  1
  Ga  Ga14  1  0.677523  0.677522  0.348546  1
  Ga  Ga15  1  0.677308  0.677305  0.847964  1
  Ga  Ga16  1  0.316883  0.316881  0.097539  1
  Ga  Ga17  1  0.324312  0.324314  0.597632  1
  Ga  Ga18  1  0.677308  0.677305  0.152036  1
  Ga  Ga19  1  0.677523  0.677522  0.651454  1
  Ga  Ga20  1  0.038620  0.038615  0.000000  1
  Si  Si21  1  0.484303  0.088557  0.500000  1
  Si  Si22  1  0.911855  0.517639  0.250809  1
  Si  Si23  1  0.911855  0.517639  0.749191  1
  Si  Si24  1  0.517641  0.911854  0.250809  1
  Si  Si25  1  0.517641  0.911854  0.749191  1
  Si  Si26  1  0.088552  0.484305  0.500000  1
  Si  Si27  1  0.053099  0.053100  0.500000  1
  Si  Si28  1  0.948619  0.948617  0.251000  1
  Si  Si29  1  0.948619  0.948617  0.749000  1
  Ge  Ge30  1  0.498967  0.086627  0.000000  1
  Ge  Ge31  1  0.086609  0.498957  0.000000  1
