# generated using pymatgen
data_Ho2Er8In8PdAu3
_symmetry_space_group_name_H-M   'P 1'
_cell_length_a   3.63302600
_cell_length_b   8.16614446
_cell_length_c   18.29483968
_cell_angle_alpha   89.93067541
_cell_angle_beta   90.00000000
_cell_angle_gamma   90.00000000
_symmetry_Int_Tables_number   1
_chemical_formula_structural   Ho2Er8In8PdAu3
_chemical_formula_sum   'Ho2 Er8 In8 Pd1 Au3'
_cell_volume   542.76752476
_cell_formula_units_Z   1
loop_
 _symmetry_equiv_pos_site_id
 _symmetry_equiv_pos_as_xyz
  1  'x, y, z'
loop_
 _atom_site_type_symbol
 _atom_site_label
 _atom_site_symmetry_multiplicity
 _atom_site_fract_x
 _atom_site_fract_y
 _atom_site_fract_z
 _atom_site_occupancy
  Ho  Ho0  1  0.000000  0.500190  0.499332  1
  Ho  Ho1  1  0.000000  0.000117  0.000515  1
  Er  Er2  1  0.000000  0.747120  0.282980  1
  Er  Er3  1  0.000000  0.263145  0.716879  1
  Er  Er4  1  0.000000  0.763349  0.782458  1
  Er  Er5  1  0.000000  0.231737  0.219652  1
  Er  Er6  1  0.000000  0.619002  0.080996  1
  Er  Er7  1  0.000000  0.380952  0.920587  1
  Er  Er8  1  0.000000  0.880110  0.579180  1
  Er  Er9  1  0.000000  0.115168  0.416702  1
  In  In10  1  0.500000  0.710449  0.934061  1
  In  In11  1  0.500000  0.289368  0.067370  1
  In  In12  1  0.500000  0.791305  0.432347  1
  In  In13  1  0.500000  0.209819  0.564746  1
  In  In14  1  0.500000  0.580819  0.646675  1
  In  In15  1  0.500000  0.416333  0.352305  1
  In  In16  1  0.500000  0.921502  0.148740  1
  In  In17  1  0.500000  0.081589  0.853061  1
  Pd  Pd18  1  0.500000  0.026289  0.303943  1
  Au  Au19  1  0.500000  0.526694  0.197904  1
  Au  Au20  1  0.500000  0.472466  0.803465  1
  Au  Au21  1  0.500000  0.972479  0.696103  1
