# generated using pymatgen
data_Ce4F15
_symmetry_space_group_name_H-M   'P 1'
_cell_length_a   8.70368201
_cell_length_b   8.70368281
_cell_length_c   8.70368296
_cell_angle_alpha   100.36937799
_cell_angle_beta   100.36938013
_cell_angle_gamma   100.36937946
_symmetry_Int_Tables_number   1
_chemical_formula_structural   Ce4F15
_chemical_formula_sum   'Ce8 F30'
_cell_volume   622.41945258
_cell_formula_units_Z   2
loop_
 _symmetry_equiv_pos_site_id
 _symmetry_equiv_pos_as_xyz
  1  'x, y, z'
loop_
 _atom_site_type_symbol
 _atom_site_label
 _atom_site_symmetry_multiplicity
 _atom_site_fract_x
 _atom_site_fract_y
 _atom_site_fract_z
 _atom_site_occupancy
  Ce  Ce0  1  0.250000  0.250000  0.250000  1
  Ce  Ce1  1  0.177732  0.750000  0.322268  1
  Ce  Ce2  1  0.250000  0.677732  0.822268  1
  Ce  Ce3  1  0.677732  0.822268  0.250000  1
  Ce  Ce4  1  0.750000  0.750000  0.750000  1
  Ce  Ce5  1  0.322268  0.177732  0.750000  1
  Ce  Ce6  1  0.750000  0.322268  0.177732  1
  Ce  Ce7  1  0.822268  0.250000  0.677732  1
  F  F8  1  0.964121  0.535879  0.250000  1
  F  F9  1  0.814235  0.345282  0.447733  1
  F  F10  1  0.491149  0.725012  0.723442  1
  F  F11  1  0.345282  0.447733  0.814235  1
  F  F12  1  0.008851  0.776558  0.774988  1
  F  F13  1  0.750000  0.035879  0.464121  1
  F  F14  1  0.947733  0.845282  0.314235  1
  F  F15  1  0.223442  0.225012  0.991149  1
  F  F16  1  0.774988  0.008851  0.776558  1
  F  F17  1  0.314235  0.947733  0.845282  1
  F  F18  1  0.274988  0.276558  0.508851  1
  F  F19  1  0.447733  0.814235  0.345282  1
  F  F20  1  0.535879  0.250000  0.964121  1
  F  F21  1  0.276558  0.508851  0.274988  1
  F  F22  1  0.154718  0.685765  0.052267  1
  F  F23  1  0.845282  0.314235  0.947733  1
  F  F24  1  0.723442  0.491149  0.725012  1
  F  F25  1  0.464121  0.750000  0.035879  1
  F  F26  1  0.552267  0.185765  0.654718  1
  F  F27  1  0.725012  0.723442  0.491149  1
  F  F28  1  0.685765  0.052267  0.154718  1
  F  F29  1  0.225012  0.991149  0.223442  1
  F  F30  1  0.776558  0.774988  0.008851  1
  F  F31  1  0.052267  0.154718  0.685765  1
  F  F32  1  0.250000  0.964121  0.535879  1
  F  F33  1  0.991149  0.223442  0.225012  1
  F  F34  1  0.654718  0.552267  0.185765  1
  F  F35  1  0.508851  0.274988  0.276558  1
  F  F36  1  0.185765  0.654718  0.552267  1
  F  F37  1  0.035879  0.464121  0.750000  1
