# generated using pymatgen
data_Tb14DyTh(CdCo)4
_symmetry_space_group_name_H-M   'P 1'
_cell_length_a   9.55598854
_cell_length_b   9.59565776
_cell_length_c   9.54798700
_cell_angle_alpha   60.16420633
_cell_angle_beta   60.02769832
_cell_angle_gamma   60.19273424
_symmetry_Int_Tables_number   1
_chemical_formula_structural   Tb14DyTh(CdCo)4
_chemical_formula_sum   'Tb14 Dy1 Th1 Cd4 Co4'
_cell_volume   620.87581637
_cell_formula_units_Z   1
loop_
 _symmetry_equiv_pos_site_id
 _symmetry_equiv_pos_as_xyz
  1  'x, y, z'
loop_
 _atom_site_type_symbol
 _atom_site_label
 _atom_site_symmetry_multiplicity
 _atom_site_fract_x
 _atom_site_fract_y
 _atom_site_fract_z
 _atom_site_occupancy
  Tb  Tb0  1  0.688703  0.313005  0.688014  1
  Tb  Tb1  1  0.688703  0.313005  0.310279  1
  Tb  Tb2  1  0.938192  0.562055  0.562126  1
  Tb  Tb3  1  0.542538  0.150418  0.153522  1
  Tb  Tb4  1  0.153409  0.151502  0.540811  1
  Tb  Tb5  1  0.937602  0.938967  0.561716  1
  Tb  Tb6  1  0.312650  0.689734  0.310613  1
  Tb  Tb7  1  0.560483  0.939714  0.937772  1
  Tb  Tb8  1  0.560483  0.939714  0.562032  1
  Tb  Tb9  1  0.687325  0.689443  0.311616  1
  Tb  Tb10  1  0.561513  0.562692  0.937898  1
  Tb  Tb11  1  0.938192  0.562055  0.937628  1
  Tb  Tb12  1  0.312650  0.689734  0.687003  1
  Tb  Tb13  1  0.153409  0.151502  0.154278  1
  Dy  Dy14  1  0.310786  0.311627  0.688794  1
  Th  Th15  1  0.156372  0.528326  0.157651  1
  Cd  Cd16  1  0.919663  0.242091  0.919123  1
  Cd  Cd17  1  0.919135  0.919581  0.918715  1
  Cd  Cd18  1  0.919135  0.919581  0.242569  1
  Cd  Cd19  1  0.243778  0.919510  0.918356  1
  Co  Co20  1  0.354660  0.360966  0.928360  1
  Co  Co21  1  0.358000  0.922747  0.359627  1
  Co  Co22  1  0.927965  0.361065  0.355486  1
  Co  Co23  1  0.354660  0.360966  0.356015  1
