# generated using pymatgen
data_Dy8Y4InCo4Pd
_symmetry_space_group_name_H-M   'P 1'
_cell_length_a   8.36602017
_cell_length_b   8.36602560
_cell_length_c   8.36602800
_cell_angle_alpha   107.10725231
_cell_angle_beta   110.38388342
_cell_angle_gamma   110.94879612
_symmetry_Int_Tables_number   1
_chemical_formula_structural   Dy8Y4InCo4Pd
_chemical_formula_sum   'Dy8 Y4 In1 Co4 Pd1'
_cell_volume   450.16471771
_cell_formula_units_Z   1
loop_
 _symmetry_equiv_pos_site_id
 _symmetry_equiv_pos_as_xyz
  1  'x, y, z'
loop_
 _atom_site_type_symbol
 _atom_site_label
 _atom_site_symmetry_multiplicity
 _atom_site_fract_x
 _atom_site_fract_y
 _atom_site_fract_z
 _atom_site_occupancy
  Dy  Dy0  1  0.699417  0.287164  0.986582  1
  Dy  Dy1  1  0.300583  0.712836  0.013418  1
  Dy  Dy2  1  0.699418  0.712836  0.412253  1
  Dy  Dy3  1  0.300582  0.287164  0.587747  1
  Dy  Dy4  1  0.805218  0.119813  0.314594  1
  Dy  Dy5  1  0.805218  0.490624  0.685405  1
  Dy  Dy6  1  0.194782  0.880187  0.685406  1
  Dy  Dy7  1  0.194782  0.509376  0.314595  1
  Y  Y8  1  0.606219  0.794393  0.811827  1
  Y  Y9  1  0.982568  0.794394  0.188174  1
  Y  Y10  1  0.017432  0.205606  0.811826  1
  Y  Y11  1  0.393781  0.205607  0.188173  1
  In  In12  1  0.500000  0.000000  0.500000  1
  Co  Co13  1  0.881618  0.500000  0.381618  1
  Co  Co14  1  0.118382  0.500000  0.618382  1
  Co  Co15  1  0.000000  0.111999  0.112000  1
  Co  Co16  1  0.000000  0.888001  0.888000  1
  Pd  Pd17  1  0.500000  0.500000  0.000000  1
