# generated using pymatgen
data_La8DyLu3(CuS5)4
_symmetry_space_group_name_H-M   'P 1'
_cell_length_a   11.48405473
_cell_length_b   3.88745100
_cell_length_c   16.88932600
_cell_angle_alpha   90.00000000
_cell_angle_beta   90.22523119
_cell_angle_gamma   90.00000000
_symmetry_Int_Tables_number   1
_chemical_formula_structural   La8DyLu3(CuS5)4
_chemical_formula_sum   'La8 Dy1 Lu3 Cu4 S20'
_cell_volume   753.99617820
_cell_formula_units_Z   1
loop_
 _symmetry_equiv_pos_site_id
 _symmetry_equiv_pos_as_xyz
  1  'x, y, z'
loop_
 _atom_site_type_symbol
 _atom_site_label
 _atom_site_symmetry_multiplicity
 _atom_site_fract_x
 _atom_site_fract_y
 _atom_site_fract_z
 _atom_site_occupancy
  La  La0  1  0.357410  0.250000  0.103255  1
  La  La1  1  0.009872  0.250000  0.176269  1
  La  La2  1  0.512217  0.250000  0.324866  1
  La  La3  1  0.859693  0.250000  0.398915  1
  La  La4  1  0.141854  0.749999  0.599871  1
  La  La5  1  0.491012  0.749999  0.674404  1
  La  La6  1  0.987437  0.749999  0.823162  1
  La  La7  1  0.641328  0.749999  0.899679  1
  Dy  Dy8  1  0.306676  0.250000  0.862999  1
  Lu  Lu9  1  0.692154  0.749999  0.137910  1
  Lu  Lu10  1  0.192977  0.749999  0.362385  1
  Lu  Lu11  1  0.808963  0.250000  0.636419  1
  Cu  Cu12  1  0.823244  0.250000  0.021485  1
  Cu  Cu13  1  0.325923  0.250000  0.477976  1
  Cu  Cu14  1  0.676368  0.749999  0.520195  1
  Cu  Cu15  1  0.171586  0.749999  0.980685  1
  S  S16  1  0.615423  0.250000  0.035443  1
  S  S17  1  0.898278  0.749999  0.074011  1
  S  S18  1  0.176950  0.749999  0.114820  1
  S  S19  1  0.481429  0.749999  0.198487  1
  S  S20  1  0.752396  0.250000  0.232554  1
  S  S21  1  0.252210  0.250000  0.268290  1
  S  S22  1  0.981145  0.749999  0.303016  1
  S  S23  1  0.679577  0.749999  0.386051  1
  S  S24  1  0.400254  0.749999  0.426138  1
  S  S25  1  0.116949  0.250000  0.464600  1
  S  S26  1  0.885257  0.749999  0.533978  1
  S  S27  1  0.601942  0.250000  0.572218  1
  S  S28  1  0.323050  0.250000  0.612414  1
  S  S29  1  0.019891  0.250000  0.696179  1
  S  S30  1  0.750204  0.749999  0.731217  1
  S  S31  1  0.244912  0.749999  0.765380  1
  S  S32  1  0.521891  0.250000  0.801391  1
  S  S33  1  0.820482  0.250000  0.886796  1
  S  S34  1  0.096383  0.250000  0.927873  1
  S  S35  1  0.382668  0.749999  0.968671  1
