# generated using pymatgen
data_TbDyYTaO7
_symmetry_space_group_name_H-M   'P 1'
_cell_length_a   6.51644425
_cell_length_b   6.51644447
_cell_length_c   7.49321712
_cell_angle_alpha   90.00695388
_cell_angle_beta   90.00696405
_cell_angle_gamma   108.60211522
_symmetry_Int_Tables_number   1
_chemical_formula_structural   TbDyYTaO7
_chemical_formula_sum   'Tb2 Dy2 Y2 Ta2 O14'
_cell_volume   301.56888021
_cell_formula_units_Z   2
loop_
 _symmetry_equiv_pos_site_id
 _symmetry_equiv_pos_as_xyz
  1  'x, y, z'
loop_
 _atom_site_type_symbol
 _atom_site_label
 _atom_site_symmetry_multiplicity
 _atom_site_fract_x
 _atom_site_fract_y
 _atom_site_fract_z
 _atom_site_occupancy
  Tb  Tb0  1  0.462141  0.462496  0.999541  1
  Tb  Tb1  1  0.537504  0.537859  0.500459  1
  Dy  Dy2  1  0.999903  0.464807  0.741345  1
  Dy  Dy3  1  0.535193  0.000097  0.758655  1
  Y  Y4  1  0.000016  0.534799  0.241581  1
  Y  Y5  1  0.465201  0.999984  0.258419  1
  Ta  Ta6  1  0.002463  0.002472  0.500376  1
  Ta  Ta7  1  0.997528  0.997537  0.999624  1
  O  O8  1  0.931818  0.068182  0.750000  1
  O  O9  1  0.640360  0.359640  0.750000  1
  O  O10  1  0.306588  0.047446  0.544789  1
  O  O11  1  0.952554  0.693412  0.955211  1
  O  O12  1  0.629394  0.370606  0.250000  1
  O  O13  1  0.918040  0.672389  0.524956  1
  O  O14  1  0.327611  0.081960  0.975044  1
  O  O15  1  0.082104  0.327677  0.023753  1
  O  O16  1  0.672323  0.917896  0.476247  1
  O  O17  1  0.370468  0.629532  0.750000  1
  O  O18  1  0.692670  0.950641  0.043078  1
  O  O19  1  0.049359  0.307330  0.456922  1
  O  O20  1  0.360140  0.639860  0.250000  1
  O  O21  1  0.066619  0.933381  0.250000  1
