# generated using pymatgen
data_Mg3Pa8VO24
_symmetry_space_group_name_H-M   'P 1'
_cell_length_a   5.28171400
_cell_length_b   5.26171416
_cell_length_c   15.98819800
_cell_angle_alpha   90.47936930
_cell_angle_beta   90.00000000
_cell_angle_gamma   90.00000000
_symmetry_Int_Tables_number   1
_chemical_formula_structural   Mg3Pa8VO24
_chemical_formula_sum   'Mg3 Pa8 V1 O24'
_cell_volume   444.31037024
_cell_formula_units_Z   1
loop_
 _symmetry_equiv_pos_site_id
 _symmetry_equiv_pos_as_xyz
  1  'x, y, z'
loop_
 _atom_site_type_symbol
 _atom_site_label
 _atom_site_symmetry_multiplicity
 _atom_site_fract_x
 _atom_site_fract_y
 _atom_site_fract_z
 _atom_site_occupancy
  Mg  Mg0  1  0.287571  0.500000  0.000000  1
  Mg  Mg1  1  0.201057  0.000000  0.500000  1
  Mg  Mg2  1  0.712675  0.000000  0.000000  1
  Pa  Pa3  1  0.252799  0.453106  0.659232  1
  Pa  Pa4  1  0.247312  0.962977  0.843006  1
  Pa  Pa5  1  0.247312  0.037023  0.156994  1
  Pa  Pa6  1  0.252799  0.546894  0.340768  1
  Pa  Pa7  1  0.742750  0.047727  0.341045  1
  Pa  Pa8  1  0.753451  0.538049  0.157087  1
  Pa  Pa9  1  0.753451  0.461951  0.842913  1
  Pa  Pa10  1  0.742750  0.952273  0.658955  1
  V  V11  1  0.816949  0.500000  0.500000  1
  O  O12  1  0.055118  0.657222  0.911358  1
  O  O13  1  0.436375  0.138631  0.591474  1
  O  O14  1  0.436375  0.861369  0.408526  1
  O  O15  1  0.055118  0.342778  0.088642  1
  O  O16  1  0.947330  0.842059  0.087654  1
  O  O17  1  0.557320  0.361631  0.409127  1
  O  O18  1  0.557320  0.638369  0.590873  1
  O  O19  1  0.947330  0.157941  0.912346  1
  O  O20  1  0.013124  0.786925  0.249221  1
  O  O21  1  0.485844  0.287625  0.248087  1
  O  O22  1  0.485844  0.712375  0.751913  1
  O  O23  1  0.013124  0.213075  0.750779  1
  O  O24  1  0.986893  0.712872  0.748872  1
  O  O25  1  0.513515  0.212585  0.752062  1
  O  O26  1  0.513515  0.787415  0.247938  1
  O  O27  1  0.986893  0.287128  0.251128  1
  O  O28  1  0.047304  0.732530  0.581927  1
  O  O29  1  0.455508  0.251253  0.916235  1
  O  O30  1  0.455508  0.748747  0.083765  1
  O  O31  1  0.047304  0.267470  0.418073  1
  O  O32  1  0.949426  0.769168  0.413490  1
  O  O33  1  0.546807  0.248541  0.084199  1
  O  O34  1  0.546807  0.751459  0.915801  1
  O  O35  1  0.949426  0.230832  0.586510  1
