# generated using pymatgen
data_La7Pr(HgRu)2
_symmetry_space_group_name_H-M   'P 1'
_cell_length_a   10.04795514
_cell_length_b   10.04795549
_cell_length_c   10.03586500
_cell_angle_alpha   60.03980603
_cell_angle_beta   60.03980487
_cell_angle_gamma   59.92040501
_symmetry_Int_Tables_number   1
_chemical_formula_structural   La7Pr(HgRu)2
_chemical_formula_sum   'La14 Pr2 Hg4 Ru4'
_cell_volume   716.46338169
_cell_formula_units_Z   2
loop_
 _symmetry_equiv_pos_site_id
 _symmetry_equiv_pos_as_xyz
  1  'x, y, z'
loop_
 _atom_site_type_symbol
 _atom_site_label
 _atom_site_symmetry_multiplicity
 _atom_site_fract_x
 _atom_site_fract_y
 _atom_site_fract_z
 _atom_site_occupancy
  La  La0  1  0.347123  0.347123  0.346822  1
  La  La1  1  0.347123  0.347123  0.958930  1
  La  La2  1  0.346822  0.958930  0.347123  1
  La  La3  1  0.958930  0.346822  0.347123  1
  La  La4  1  0.809972  0.190028  0.190028  1
  La  La5  1  0.190028  0.809972  0.809972  1
  La  La6  1  0.190028  0.809972  0.190028  1
  La  La7  1  0.809972  0.190028  0.809972  1
  La  La8  1  0.189745  0.189745  0.810255  1
  La  La9  1  0.810255  0.810255  0.189745  1
  La  La10  1  0.939670  0.560330  0.560330  1
  La  La11  1  0.560330  0.939670  0.939670  1
  La  La12  1  0.560330  0.939670  0.560330  1
  La  La13  1  0.939670  0.560330  0.939670  1
  Pr  Pr14  1  0.560640  0.560640  0.939360  1
  Pr  Pr15  1  0.939360  0.939360  0.560640  1
  Hg  Hg16  1  0.582558  0.582558  0.583080  1
  Hg  Hg17  1  0.582558  0.582558  0.251803  1
  Hg  Hg18  1  0.583080  0.251803  0.582558  1
  Hg  Hg19  1  0.251803  0.583080  0.582558  1
  Ru  Ru20  1  0.137324  0.137324  0.136740  1
  Ru  Ru21  1  0.137324  0.137324  0.588612  1
  Ru  Ru22  1  0.136740  0.588612  0.137324  1
  Ru  Ru23  1  0.588612  0.136740  0.137324  1
