# generated using pymatgen
data_HoFe2(PRu)3
_symmetry_space_group_name_H-M   'P 1'
_cell_length_a   3.79646800
_cell_length_b   10.57574700
_cell_length_c   12.16825500
_cell_angle_alpha   90.00000000
_cell_angle_beta   90.00000000
_cell_angle_gamma   90.00000000
_symmetry_Int_Tables_number   1
_chemical_formula_structural   HoFe2(PRu)3
_chemical_formula_sum   'Ho4 Fe8 P12 Ru12'
_cell_volume   488.56134060
_cell_formula_units_Z   4
loop_
 _symmetry_equiv_pos_site_id
 _symmetry_equiv_pos_as_xyz
  1  'x, y, z'
loop_
 _atom_site_type_symbol
 _atom_site_label
 _atom_site_symmetry_multiplicity
 _atom_site_fract_x
 _atom_site_fract_y
 _atom_site_fract_z
 _atom_site_occupancy
  Ho  Ho0  1  0.250000  0.582245  0.708191  1
  Ho  Ho1  1  0.250000  0.917755  0.208191  1
  Ho  Ho2  1  0.750000  0.417755  0.291809  1
  Ho  Ho3  1  0.750000  0.082245  0.791809  1
  Fe  Fe4  1  0.250000  0.882316  0.697981  1
  Fe  Fe5  1  0.250000  0.617684  0.197981  1
  Fe  Fe6  1  0.750000  0.117684  0.302019  1
  Fe  Fe7  1  0.750000  0.382316  0.802019  1
  Fe  Fe8  1  0.250000  0.463199  0.935249  1
  Fe  Fe9  1  0.250000  0.036801  0.435249  1
  Fe  Fe10  1  0.750000  0.536801  0.064751  1
  Fe  Fe11  1  0.750000  0.963199  0.564751  1
  P  P12  1  0.250000  0.430875  0.112282  1
  P  P13  1  0.250000  0.069125  0.612282  1
  P  P14  1  0.750000  0.569125  0.887718  1
  P  P15  1  0.750000  0.930875  0.387718  1
  P  P16  1  0.250000  0.272319  0.868829  1
  P  P17  1  0.250000  0.227681  0.368829  1
  P  P18  1  0.750000  0.727681  0.131171  1
  P  P19  1  0.750000  0.772319  0.631171  1
  P  P20  1  0.250000  0.603812  0.387943  1
  P  P21  1  0.250000  0.896188  0.887943  1
  P  P22  1  0.750000  0.396188  0.612057  1
  P  P23  1  0.750000  0.103812  0.112057  1
  Ru  Ru24  1  0.250000  0.703531  0.988774  1
  Ru  Ru25  1  0.250000  0.796469  0.488774  1
  Ru  Ru26  1  0.750000  0.296469  0.011226  1
  Ru  Ru27  1  0.750000  0.203531  0.511226  1
  Ru  Ru28  1  0.250000  0.404905  0.484541  1
  Ru  Ru29  1  0.250000  0.095095  0.984541  1
  Ru  Ru30  1  0.750000  0.595095  0.515459  1
  Ru  Ru31  1  0.750000  0.904905  0.015459  1
  Ru  Ru32  1  0.250000  0.226483  0.178144  1
  Ru  Ru33  1  0.250000  0.273517  0.678144  1
  Ru  Ru34  1  0.750000  0.773517  0.821856  1
  Ru  Ru35  1  0.750000  0.726483  0.321856  1
