# generated using pymatgen
data_Eu10Bi2IrRh3
_symmetry_space_group_name_H-M   'P 1'
_cell_length_a   9.27122249
_cell_length_b   9.27122212
_cell_length_c   9.28063800
_cell_angle_alpha   128.73880760
_cell_angle_beta   128.73879788
_cell_angle_gamma   75.35595556
_symmetry_Int_Tables_number   1
_chemical_formula_structural   Eu10Bi2IrRh3
_chemical_formula_sum   'Eu10 Bi2 Ir1 Rh3'
_cell_volume   472.54846924
_cell_formula_units_Z   1
loop_
 _symmetry_equiv_pos_site_id
 _symmetry_equiv_pos_as_xyz
  1  'x, y, z'
loop_
 _atom_site_type_symbol
 _atom_site_label
 _atom_site_symmetry_multiplicity
 _atom_site_fract_x
 _atom_site_fract_y
 _atom_site_fract_z
 _atom_site_occupancy
  Eu  Eu0  1  0.002595  0.000177  0.002773  1
  Eu  Eu1  1  0.499823  0.497405  0.997227  1
  Eu  Eu2  1  0.795331  0.296182  0.827950  1
  Eu  Eu3  1  0.203818  0.704669  0.172050  1
  Eu  Eu4  1  0.467380  0.968233  0.172050  1
  Eu  Eu5  1  0.295426  0.463559  0.500000  1
  Eu  Eu6  1  0.036441  0.204574  0.500000  1
  Eu  Eu7  1  0.531767  0.032620  0.827950  1
  Eu  Eu8  1  0.704655  0.534253  0.500000  1
  Eu  Eu9  1  0.965747  0.795345  0.500000  1
  Bi  Bi10  1  0.249985  0.250015  0.000000  1
  Bi  Bi11  1  0.749985  0.750015  0.000000  1
  Ir  Ir12  1  0.370165  0.129835  0.500000  1
  Rh  Rh13  1  0.131120  0.632580  0.763701  1
  Rh  Rh14  1  0.867420  0.368880  0.236299  1
  Rh  Rh15  1  0.628343  0.871657  0.500000  1
