# generated using pymatgen
data_Hf4CuGe2Rh9
_symmetry_space_group_name_H-M   'P 1'
_cell_length_a   4.08036500
_cell_length_b   5.54519535
_cell_length_c   10.91053253
_cell_angle_alpha   88.76867230
_cell_angle_beta   90.00000000
_cell_angle_gamma   90.00000000
_symmetry_Int_Tables_number   1
_chemical_formula_structural   Hf4CuGe2Rh9
_chemical_formula_sum   'Hf4 Cu1 Ge2 Rh9'
_cell_volume   246.80929682
_cell_formula_units_Z   1
loop_
 _symmetry_equiv_pos_site_id
 _symmetry_equiv_pos_as_xyz
  1  'x, y, z'
loop_
 _atom_site_type_symbol
 _atom_site_label
 _atom_site_symmetry_multiplicity
 _atom_site_fract_x
 _atom_site_fract_y
 _atom_site_fract_z
 _atom_site_occupancy
  Hf  Hf0  1  0.500000  0.164982  0.638168  1
  Hf  Hf1  1  0.500000  0.817972  0.357993  1
  Hf  Hf2  1  0.500000  0.690002  0.862917  1
  Hf  Hf3  1  0.500000  0.324600  0.141437  1
  Cu  Cu4  1  0.000000  0.430631  0.750642  1
  Ge  Ge5  1  0.000000  0.496317  0.495732  1
  Ge  Ge6  1  0.000000  0.009825  0.000721  1
  Rh  Rh7  1  0.500000  0.198895  0.888305  1
  Rh  Rh8  1  0.500000  0.816682  0.106496  1
  Rh  Rh9  1  0.500000  0.668602  0.612375  1
  Rh  Rh10  1  0.500000  0.307778  0.392955  1
  Rh  Rh11  1  0.000000  0.569687  0.254976  1
  Rh  Rh12  1  0.000000  0.993320  0.501119  1
  Rh  Rh13  1  0.000000  0.511205  0.996747  1
  Rh  Rh14  1  0.000000  0.070201  0.243530  1
  Rh  Rh15  1  0.000000  0.929299  0.755887  1
