# generated using pymatgen
data_DyTm7Sc11Si16Rh
_symmetry_space_group_name_H-M   'P 1'
_cell_length_a   6.94384308
_cell_length_b   7.36556201
_cell_length_c   13.82636650
_cell_angle_alpha   90.02780908
_cell_angle_beta   90.01297357
_cell_angle_gamma   89.92235625
_symmetry_Int_Tables_number   1
_chemical_formula_structural   DyTm7Sc11Si16Rh
_chemical_formula_sum   'Dy1 Tm7 Sc11 Si16 Rh1'
_cell_volume   707.15300512
_cell_formula_units_Z   1
loop_
 _symmetry_equiv_pos_site_id
 _symmetry_equiv_pos_as_xyz
  1  'x, y, z'
loop_
 _atom_site_type_symbol
 _atom_site_label
 _atom_site_symmetry_multiplicity
 _atom_site_fract_x
 _atom_site_fract_y
 _atom_site_fract_z
 _atom_site_occupancy
  Dy  Dy0  1  0.012112  0.178894  0.093110  1
  Tm  Tm1  1  0.990700  0.814155  0.902218  1
  Tm  Tm2  1  0.489321  0.674843  0.903046  1
  Tm  Tm3  1  0.990677  0.814181  0.597662  1
  Tm  Tm4  1  0.510052  0.322085  0.093929  1
  Tm  Tm5  1  0.012282  0.179414  0.406551  1
  Tm  Tm6  1  0.510093  0.321912  0.406130  1
  Tm  Tm7  1  0.489272  0.674772  0.596874  1
  Sc  Sc8  1  0.840628  0.496369  0.250152  1
  Sc  Sc9  1  0.342379  0.005160  0.250111  1
  Sc  Sc10  1  0.653388  0.996621  0.750002  1
  Sc  Sc11  1  0.321495  0.176788  0.628200  1
  Sc  Sc12  1  0.672322  0.825097  0.374409  1
  Sc  Sc13  1  0.173238  0.673680  0.376086  1
  Sc  Sc14  1  0.672327  0.824987  0.125677  1
  Sc  Sc15  1  0.831104  0.328594  0.629574  1
  Sc  Sc16  1  0.321633  0.176680  0.871717  1
  Sc  Sc17  1  0.830923  0.328769  0.870386  1
  Sc  Sc18  1  0.173279  0.673526  0.123989  1
  Si  Si19  1  0.023806  0.093858  0.749957  1
  Si  Si20  1  0.973291  0.889132  0.250220  1
  Si  Si21  1  0.469825  0.612420  0.250040  1
  Si  Si22  1  0.517016  0.396589  0.749978  1
  Si  Si23  1  0.282630  0.861498  0.750002  1
  Si  Si24  1  0.715783  0.132188  0.250355  1
  Si  Si25  1  0.215630  0.369943  0.250285  1
  Si  Si26  1  0.792060  0.630134  0.749975  1
  Si  Si27  1  0.161294  0.464258  0.542544  1
  Si  Si28  1  0.841807  0.534708  0.463642  1
  Si  Si29  1  0.343476  0.964982  0.463210  1
  Si  Si30  1  0.841607  0.535362  0.036199  1
  Si  Si31  1  0.659569  0.034506  0.540167  1
  Si  Si32  1  0.161434  0.464827  0.957271  1
  Si  Si33  1  0.659326  0.034354  0.959767  1
  Si  Si34  1  0.344350  0.964561  0.036594  1
  Rh  Rh35  1  0.159875  0.530151  0.749973  1
