# generated using pymatgen
data_Li2Mo(OF2)2
_symmetry_space_group_name_H-M   'P 1'
_cell_length_a   4.72522100
_cell_length_b   5.06318600
_cell_length_c   17.53162700
_cell_angle_alpha   90.00000000
_cell_angle_beta   90.00000000
_cell_angle_gamma   90.00000000
_symmetry_Int_Tables_number   1
_chemical_formula_structural   Li2Mo(OF2)2
_chemical_formula_sum   'Li8 Mo4 O8 F16'
_cell_volume   419.43843987
_cell_formula_units_Z   4
loop_
 _symmetry_equiv_pos_site_id
 _symmetry_equiv_pos_as_xyz
  1  'x, y, z'
loop_
 _atom_site_type_symbol
 _atom_site_label
 _atom_site_symmetry_multiplicity
 _atom_site_fract_x
 _atom_site_fract_y
 _atom_site_fract_z
 _atom_site_occupancy
  Li  Li0  1  0.000000  0.750000  0.234018  1
  Li  Li1  1  0.000000  0.250000  0.445994  1
  Li  Li2  1  0.000000  0.750000  0.554006  1
  Li  Li3  1  0.000000  0.250000  0.765982  1
  Li  Li4  1  0.500000  0.250000  0.265982  1
  Li  Li5  1  0.500000  0.250000  0.945994  1
  Li  Li6  1  0.500000  0.750000  0.054006  1
  Li  Li7  1  0.500000  0.750000  0.734018  1
  Mo  Mo8  1  0.000000  0.250000  0.108227  1
  Mo  Mo9  1  0.000000  0.750000  0.891773  1
  Mo  Mo10  1  0.500000  0.750000  0.391773  1
  Mo  Mo11  1  0.500000  0.250000  0.608227  1
  O  O12  1  0.244410  0.103420  0.046290  1
  O  O13  1  0.244410  0.603420  0.953710  1
  O  O14  1  0.255590  0.603420  0.453710  1
  O  O15  1  0.255590  0.103420  0.546290  1
  O  O16  1  0.744410  0.396580  0.546290  1
  O  O17  1  0.744410  0.896580  0.453710  1
  O  O18  1  0.755590  0.396580  0.046290  1
  O  O19  1  0.755590  0.896580  0.953710  1
  F  F20  1  0.209141  0.087039  0.201627  1
  F  F21  1  0.209141  0.587039  0.798373  1
  F  F22  1  0.233180  0.066475  0.874711  1
  F  F23  1  0.233180  0.566475  0.125289  1
  F  F24  1  0.266820  0.566475  0.625289  1
  F  F25  1  0.266820  0.066475  0.374711  1
  F  F26  1  0.290859  0.087039  0.701627  1
  F  F27  1  0.290859  0.587039  0.298373  1
  F  F28  1  0.709141  0.912961  0.298373  1
  F  F29  1  0.709141  0.412961  0.701627  1
  F  F30  1  0.733180  0.433525  0.374711  1
  F  F31  1  0.733180  0.933525  0.625289  1
  F  F32  1  0.766820  0.933525  0.125289  1
  F  F33  1  0.766820  0.433525  0.874711  1
  F  F34  1  0.790859  0.912961  0.798373  1
  F  F35  1  0.790859  0.412961  0.201627  1
