# generated using pymatgen
data_SrLi6CeUN6
_symmetry_space_group_name_H-M   'P 1'
_cell_length_a   6.25641600
_cell_length_b   6.25641733
_cell_length_c   5.46400000
_cell_angle_alpha   90.00000000
_cell_angle_beta   90.00000000
_cell_angle_gamma   120.00001552
_symmetry_Int_Tables_number   1
_chemical_formula_structural   SrLi6CeUN6
_chemical_formula_sum   'Sr1 Li6 Ce1 U1 N6'
_cell_volume   185.22200584
_cell_formula_units_Z   1
loop_
 _symmetry_equiv_pos_site_id
 _symmetry_equiv_pos_as_xyz
  1  'x, y, z'
loop_
 _atom_site_type_symbol
 _atom_site_label
 _atom_site_symmetry_multiplicity
 _atom_site_fract_x
 _atom_site_fract_y
 _atom_site_fract_z
 _atom_site_occupancy
  Sr  Sr0  1  0.000000  0.000000  0.988327  1
  Li  Li1  1  0.912126  0.598361  0.588672  1
  Li  Li2  1  0.401639  0.313766  0.588672  1
  Li  Li3  1  0.686234  0.087874  0.588672  1
  Li  Li4  1  0.067581  0.369688  0.403342  1
  Li  Li5  1  0.630312  0.697892  0.403342  1
  Li  Li6  1  0.302108  0.932419  0.403342  1
  Ce  Ce7  1  0.333333  0.666667  0.970509  1
  U  U8  1  0.666667  0.333333  0.027628  1
  N  N9  1  0.989880  0.623377  0.231559  1
  N  N10  1  0.376623  0.366502  0.231559  1
  N  N11  1  0.633498  0.010120  0.231559  1
  N  N12  1  0.967483  0.359811  0.780939  1
  N  N13  1  0.640189  0.607671  0.780939  1
  N  N14  1  0.392329  0.032517  0.780939  1
