# generated using pymatgen
data_Sr10CrFe4(MoO6)5
_symmetry_space_group_name_H-M   'P 1'
_cell_length_a   8.01309278
_cell_length_b   9.77013809
_cell_length_c   9.81043935
_cell_angle_alpha   80.63719535
_cell_angle_beta   114.09901606
_cell_angle_gamma   114.13273345
_symmetry_Int_Tables_number   1
_chemical_formula_structural   Sr10CrFe4(MoO6)5
_chemical_formula_sum   'Sr10 Cr1 Fe4 Mo5 O30'
_cell_volume   639.82280211
_cell_formula_units_Z   1
loop_
 _symmetry_equiv_pos_site_id
 _symmetry_equiv_pos_as_xyz
  1  'x, y, z'
loop_
 _atom_site_type_symbol
 _atom_site_label
 _atom_site_symmetry_multiplicity
 _atom_site_fract_x
 _atom_site_fract_y
 _atom_site_fract_z
 _atom_site_occupancy
  Sr  Sr0  1  0.046412  0.397920  0.196470  1
  Sr  Sr1  1  0.549662  0.400010  0.198975  1
  Sr  Sr2  1  0.249057  0.000970  0.999614  1
  Sr  Sr3  1  0.750943  0.999030  0.000386  1
  Sr  Sr4  1  0.450338  0.599990  0.801025  1
  Sr  Sr5  1  0.953588  0.602080  0.803530  1
  Sr  Sr6  1  0.646414  0.197297  0.596691  1
  Sr  Sr7  1  0.143527  0.195107  0.596283  1
  Sr  Sr8  1  0.856473  0.804893  0.403717  1
  Sr  Sr9  1  0.353586  0.802703  0.403309  1
  Cr  Cr10  1  0.500000  0.500000  0.500000  1
  Fe  Fe11  1  0.699881  0.099983  0.301072  1
  Fe  Fe12  1  0.897333  0.697997  0.099331  1
  Fe  Fe13  1  0.102667  0.302003  0.900669  1
  Fe  Fe14  1  0.300119  0.900017  0.698928  1
  Mo  Mo15  1  0.200321  0.101590  0.298548  1
  Mo  Mo16  1  0.402215  0.701039  0.103525  1
  Mo  Mo17  1  0.597785  0.298961  0.896475  1
  Mo  Mo18  1  0.799679  0.898410  0.701452  1
  Mo  Mo19  1  0.000000  0.500000  0.500000  1
  O  O20  1  0.928487  0.074502  0.282768  1
  O  O21  1  0.091069  0.907003  0.206425  1
  O  O22  1  0.509393  0.902412  0.199779  1
  O  O23  1  0.128297  0.668355  0.090895  1
  O  O24  1  0.450583  0.601938  0.298508  1
  O  O25  1  0.678950  0.732932  0.123200  1
  O  O26  1  0.290280  0.500407  0.998991  1
  O  O27  1  0.146870  0.198772  0.095745  1
  O  O28  1  0.709720  0.499593  0.001009  1
  O  O29  1  0.321050  0.267068  0.876800  1
  O  O30  1  0.646553  0.204085  0.089589  1
  O  O31  1  0.871703  0.331645  0.909105  1
  O  O32  1  0.490607  0.097588  0.800221  1
  O  O33  1  0.353447  0.795915  0.910411  1
  O  O34  1  0.908931  0.092997  0.793575  1
  O  O35  1  0.527560  0.867189  0.688486  1
  O  O36  1  0.853130  0.801228  0.904255  1
  O  O37  1  0.071513  0.925498  0.717232  1
  O  O38  1  0.685014  0.701980  0.603857  1
  O  O39  1  0.549417  0.398062  0.701492  1
  O  O40  1  0.113449  0.699109  0.604702  1
  O  O41  1  0.725889  0.470979  0.485383  1
  O  O42  1  0.045881  0.399821  0.691572  1
  O  O43  1  0.274111  0.529021  0.514617  1
  O  O44  1  0.886551  0.300891  0.395298  1
  O  O45  1  0.748655  0.997822  0.499139  1
  O  O46  1  0.314986  0.298020  0.396143  1
  O  O47  1  0.251345  0.002178  0.500861  1
  O  O48  1  0.472440  0.132811  0.311514  1
  O  O49  1  0.954119  0.600179  0.308428  1
