# generated using pymatgen
data_Ba3Ho2TeO9
_symmetry_space_group_name_H-M   'P 1'
_cell_length_a   6.08539100
_cell_length_b   6.08539058
_cell_length_c   14.84189200
_cell_angle_alpha   90.00000000
_cell_angle_beta   90.00000000
_cell_angle_gamma   119.99999685
_symmetry_Int_Tables_number   1
_chemical_formula_structural   Ba3Ho2TeO9
_chemical_formula_sum   'Ba6 Ho4 Te2 O18'
_cell_volume   475.98893615
_cell_formula_units_Z   2
loop_
 _symmetry_equiv_pos_site_id
 _symmetry_equiv_pos_as_xyz
  1  'x, y, z'
loop_
 _atom_site_type_symbol
 _atom_site_label
 _atom_site_symmetry_multiplicity
 _atom_site_fract_x
 _atom_site_fract_y
 _atom_site_fract_z
 _atom_site_occupancy
  Ba  Ba0  1  0.333333  0.666667  0.090967  1
  Ba  Ba1  1  0.666667  0.333333  0.909033  1
  Ba  Ba2  1  0.333333  0.666667  0.590967  1
  Ba  Ba3  1  0.666667  0.333333  0.409033  1
  Ba  Ba4  1  0.000000  0.000000  0.250000  1
  Ba  Ba5  1  0.000000  0.000000  0.750000  1
  Ho  Ho6  1  0.333333  0.666667  0.833342  1
  Ho  Ho7  1  0.666667  0.333333  0.166658  1
  Ho  Ho8  1  0.333333  0.666667  0.333342  1
  Ho  Ho9  1  0.666667  0.333333  0.666658  1
  Te  Te10  1  0.000000  0.000000  0.000000  1
  Te  Te11  1  0.000000  0.000000  0.500000  1
  O  O12  1  0.879338  0.695067  0.575554  1
  O  O13  1  0.000000  0.544664  0.250000  1
  O  O14  1  0.184270  0.304933  0.924446  1
  O  O15  1  0.879338  0.184270  0.075554  1
  O  O16  1  0.815730  0.120662  0.575554  1
  O  O17  1  0.815730  0.695067  0.075554  1
  O  O18  1  0.695067  0.815730  0.424446  1
  O  O19  1  0.455336  0.000000  0.750000  1
  O  O20  1  0.544664  0.544664  0.750000  1
  O  O21  1  0.304933  0.184270  0.575554  1
  O  O22  1  0.120662  0.304933  0.424446  1
  O  O23  1  0.184270  0.879338  0.424446  1
  O  O24  1  0.304933  0.120662  0.075554  1
  O  O25  1  0.544664  0.000000  0.250000  1
  O  O26  1  0.455336  0.455336  0.250000  1
  O  O27  1  0.000000  0.455336  0.750000  1
  O  O28  1  0.120662  0.815730  0.924446  1
  O  O29  1  0.695067  0.879338  0.924446  1
