# generated using pymatgen
data_Pr4P3Cl
_symmetry_space_group_name_H-M   'P 1'
_cell_length_a   8.41956600
_cell_length_b   4.18738600
_cell_length_c   5.89154302
_cell_angle_alpha   90.00000000
_cell_angle_beta   90.00484290
_cell_angle_gamma   90.00000000
_symmetry_Int_Tables_number   1
_chemical_formula_structural   Pr4P3Cl
_chemical_formula_sum   'Pr4 P3 Cl1'
_cell_volume   207.71207958
_cell_formula_units_Z   1
loop_
 _symmetry_equiv_pos_site_id
 _symmetry_equiv_pos_as_xyz
  1  'x, y, z'
loop_
 _atom_site_type_symbol
 _atom_site_label
 _atom_site_symmetry_multiplicity
 _atom_site_fract_x
 _atom_site_fract_y
 _atom_site_fract_z
 _atom_site_occupancy
  Pr  Pr0  1  0.396018  0.249999  0.249934  1
  Pr  Pr1  1  0.853863  0.249999  0.250120  1
  Pr  Pr2  1  0.125094  0.750001  0.749837  1
  Pr  Pr3  1  0.625047  0.750001  0.750115  1
  P  P4  1  0.624932  0.750001  0.250094  1
  P  P5  1  0.369503  0.249999  0.749939  1
  P  P6  1  0.880601  0.249999  0.750092  1
  Cl  Cl7  1  0.124948  0.750001  0.249873  1
