# generated using pymatgen
data_Tb4Co18Si5P7Os2
_symmetry_space_group_name_H-M   'P 1'
_cell_length_a   3.70291900
_cell_length_b   10.38593413
_cell_length_c   11.84156315
_cell_angle_alpha   90.01808165
_cell_angle_beta   90.00000000
_cell_angle_gamma   90.00000000
_symmetry_Int_Tables_number   1
_chemical_formula_structural   Tb4Co18Si5P7Os2
_chemical_formula_sum   'Tb4 Co18 Si5 P7 Os2'
_cell_volume   455.40604346
_cell_formula_units_Z   1
loop_
 _symmetry_equiv_pos_site_id
 _symmetry_equiv_pos_as_xyz
  1  'x, y, z'
loop_
 _atom_site_type_symbol
 _atom_site_label
 _atom_site_symmetry_multiplicity
 _atom_site_fract_x
 _atom_site_fract_y
 _atom_site_fract_z
 _atom_site_occupancy
  Tb  Tb0  1  0.250000  0.581707  0.702525  1
  Tb  Tb1  1  0.250000  0.920499  0.200846  1
  Tb  Tb2  1  0.750000  0.415626  0.296990  1
  Tb  Tb3  1  0.750000  0.084975  0.795709  1
  Co  Co4  1  0.750000  0.287846  0.012207  1
  Co  Co5  1  0.750000  0.208685  0.507110  1
  Co  Co6  1  0.250000  0.403651  0.485220  1
  Co  Co7  1  0.250000  0.095656  0.987618  1
  Co  Co8  1  0.750000  0.591852  0.508021  1
  Co  Co9  1  0.750000  0.911843  0.009709  1
  Co  Co10  1  0.250000  0.219805  0.175307  1
  Co  Co11  1  0.250000  0.278156  0.675187  1
  Co  Co12  1  0.750000  0.787267  0.825932  1
  Co  Co13  1  0.750000  0.714058  0.324932  1
  Co  Co14  1  0.250000  0.889130  0.701731  1
  Co  Co15  1  0.250000  0.611326  0.202084  1
  Co  Co16  1  0.750000  0.119948  0.299990  1
  Co  Co17  1  0.750000  0.378038  0.804711  1
  Co  Co18  1  0.250000  0.460677  0.935404  1
  Co  Co19  1  0.250000  0.038292  0.433311  1
  Co  Co20  1  0.750000  0.526211  0.070455  1
  Co  Co21  1  0.750000  0.973743  0.569591  1
  Si  Si22  1  0.750000  0.581991  0.888364  1
  Si  Si23  1  0.750000  0.917821  0.387373  1
  Si  Si24  1  0.750000  0.728061  0.132294  1
  Si  Si25  1  0.750000  0.772365  0.632320  1
  Si  Si26  1  0.750000  0.395721  0.607665  1
  P  P27  1  0.250000  0.417265  0.114187  1
  P  P28  1  0.250000  0.082665  0.612452  1
  P  P29  1  0.250000  0.270505  0.866077  1
  P  P30  1  0.250000  0.229063  0.366515  1
  P  P31  1  0.250000  0.596711  0.391635  1
  P  P32  1  0.250000  0.903782  0.891310  1
  P  P33  1  0.750000  0.103944  0.107811  1
  Os  Os34  1  0.250000  0.709417  0.988859  1
  Os  Os35  1  0.250000  0.791697  0.488546  1
