# generated using pymatgen
data_FeCo4P4Ru3
_symmetry_space_group_name_H-M   'P 1'
_cell_length_a   3.66981700
_cell_length_b   5.71800413
_cell_length_c   6.66710241
_cell_angle_alpha   90.11794640
_cell_angle_beta   90.00000000
_cell_angle_gamma   90.00000000
_symmetry_Int_Tables_number   1
_chemical_formula_structural   FeCo4P4Ru3
_chemical_formula_sum   'Fe1 Co4 P4 Ru3'
_cell_volume   139.90237242
_cell_formula_units_Z   1
loop_
 _symmetry_equiv_pos_site_id
 _symmetry_equiv_pos_as_xyz
  1  'x, y, z'
loop_
 _atom_site_type_symbol
 _atom_site_label
 _atom_site_symmetry_multiplicity
 _atom_site_fract_x
 _atom_site_fract_y
 _atom_site_fract_z
 _atom_site_occupancy
  Fe  Fe0  1  0.750000  0.469767  0.664628  1
  Co  Co1  1  0.250000  0.144069  0.568104  1
  Co  Co2  1  0.250000  0.636853  0.928415  1
  Co  Co3  1  0.750000  0.860782  0.435770  1
  Co  Co4  1  0.750000  0.363415  0.063232  1
  P  P5  1  0.250000  0.762900  0.620661  1
  P  P6  1  0.250000  0.259338  0.879826  1
  P  P7  1  0.750000  0.243542  0.382580  1
  P  P8  1  0.750000  0.739673  0.121342  1
  Ru  Ru9  1  0.250000  0.023346  0.167174  1
  Ru  Ru10  1  0.250000  0.528272  0.336249  1
  Ru  Ru11  1  0.750000  0.968043  0.832019  1
