# generated using pymatgen
data_CaNd7(Sc3Sn4)4
_symmetry_space_group_name_H-M   'P 1'
_cell_length_a   7.90523190
_cell_length_b   7.98093739
_cell_length_c   15.03693500
_cell_angle_alpha   90.05117966
_cell_angle_beta   90.03976160
_cell_angle_gamma   89.96850576
_symmetry_Int_Tables_number   1
_chemical_formula_structural   CaNd7(Sc3Sn4)4
_chemical_formula_sum   'Ca1 Nd7 Sc12 Sn16'
_cell_volume   948.69693488
_cell_formula_units_Z   1
loop_
 _symmetry_equiv_pos_site_id
 _symmetry_equiv_pos_as_xyz
  1  'x, y, z'
loop_
 _atom_site_type_symbol
 _atom_site_label
 _atom_site_symmetry_multiplicity
 _atom_site_fract_x
 _atom_site_fract_y
 _atom_site_fract_z
 _atom_site_occupancy
  Ca  Ca0  1  0.516006  0.325054  0.906110  1
  Nd  Nd1  1  0.011776  0.175086  0.595382  1
  Nd  Nd2  1  0.487872  0.674313  0.404292  1
  Nd  Nd3  1  0.987256  0.826001  0.095583  1
  Nd  Nd4  1  0.486321  0.674093  0.094745  1
  Nd  Nd5  1  0.987761  0.826208  0.404517  1
  Nd  Nd6  1  0.510425  0.325209  0.593549  1
  Nd  Nd7  1  0.011464  0.175208  0.904693  1
  Sc  Sc8  1  0.351202  0.839041  0.873231  1
  Sc  Sc9  1  0.849954  0.661306  0.626157  1
  Sc  Sc10  1  0.648963  0.162124  0.373541  1
  Sc  Sc11  1  0.149599  0.338463  0.126849  1
  Sc  Sc12  1  0.649714  0.162406  0.126545  1
  Sc  Sc13  1  0.149535  0.338954  0.373428  1
  Sc  Sc14  1  0.350952  0.839695  0.625978  1
  Sc  Sc15  1  0.849322  0.659527  0.873670  1
  Sc  Sc16  1  0.185316  0.504606  0.750210  1
  Sc  Sc17  1  0.683576  0.993685  0.749785  1
  Sc  Sc18  1  0.816870  0.493925  0.250546  1
  Sc  Sc19  1  0.316533  0.005127  0.250121  1
  Sn  Sn20  1  0.317627  0.043237  0.044952  1
  Sn  Sn21  1  0.816944  0.454890  0.456339  1
  Sn  Sn22  1  0.683847  0.954516  0.543165  1
  Sn  Sn23  1  0.182351  0.544457  0.957072  1
  Sn  Sn24  1  0.681237  0.953631  0.956889  1
  Sn  Sn25  1  0.182097  0.545750  0.543584  1
  Sn  Sn26  1  0.316485  0.045109  0.456212  1
  Sn  Sn27  1  0.819226  0.456185  0.044396  1
  Sn  Sn28  1  0.546320  0.631295  0.748547  1
  Sn  Sn29  1  0.045909  0.869122  0.750018  1
  Sn  Sn30  1  0.454090  0.368005  0.249474  1
  Sn  Sn31  1  0.953703  0.131443  0.250180  1
  Sn  Sn32  1  0.320648  0.143860  0.750683  1
  Sn  Sn33  1  0.819987  0.358319  0.749599  1
  Sn  Sn34  1  0.679558  0.857274  0.249918  1
  Sn  Sn35  1  0.179554  0.642872  0.250046  1
