# generated using pymatgen
data_La4PrSn3P
_symmetry_space_group_name_H-M   'P 1'
_cell_length_a   9.56812000
_cell_length_b   9.56811951
_cell_length_c   7.21747800
_cell_angle_alpha   90.00000000
_cell_angle_beta   90.00000000
_cell_angle_gamma   119.99999477
_symmetry_Int_Tables_number   1
_chemical_formula_structural   La4PrSn3P
_chemical_formula_sum   'La8 Pr2 Sn6 P2'
_cell_volume   572.22829431
_cell_formula_units_Z   2
loop_
 _symmetry_equiv_pos_site_id
 _symmetry_equiv_pos_as_xyz
  1  'x, y, z'
loop_
 _atom_site_type_symbol
 _atom_site_label
 _atom_site_symmetry_multiplicity
 _atom_site_fract_x
 _atom_site_fract_y
 _atom_site_fract_z
 _atom_site_occupancy
  La  La0  1  0.666667  0.333333  0.000000  1
  La  La1  1  0.333333  0.666667  0.000000  1
  La  La2  1  0.761049  0.761049  0.749675  1
  La  La3  1  0.238951  0.000000  0.749675  1
  La  La4  1  0.000000  0.238951  0.749675  1
  La  La5  1  0.238951  0.238951  0.250325  1
  La  La6  1  0.761049  0.000000  0.250325  1
  La  La7  1  0.000000  0.761049  0.250325  1
  Pr  Pr8  1  0.333333  0.666667  0.500000  1
  Pr  Pr9  1  0.666667  0.333333  0.500000  1
  Sn  Sn10  1  0.401151  0.401151  0.747995  1
  Sn  Sn11  1  0.598849  0.000000  0.747995  1
  Sn  Sn12  1  0.000000  0.598849  0.747995  1
  Sn  Sn13  1  0.598849  0.598849  0.252005  1
  Sn  Sn14  1  0.401151  0.000000  0.252005  1
  Sn  Sn15  1  0.000000  0.401151  0.252005  1
  P  P16  1  0.000000  0.000000  0.000000  1
  P  P17  1  0.000000  0.000000  0.500000  1
