# generated using pymatgen
data_Hf9ZrZnSn6Sb
_symmetry_space_group_name_H-M   'P 1'
_cell_length_a   8.73556012
_cell_length_b   8.73290640
_cell_length_c   5.88460000
_cell_angle_alpha   90.00480258
_cell_angle_beta   89.99039775
_cell_angle_gamma   120.01006021
_symmetry_Int_Tables_number   1
_chemical_formula_structural   Hf9ZrZnSn6Sb
_chemical_formula_sum   'Hf9 Zr1 Zn1 Sn6 Sb1'
_cell_volume   388.73451356
_cell_formula_units_Z   1
loop_
 _symmetry_equiv_pos_site_id
 _symmetry_equiv_pos_as_xyz
  1  'x, y, z'
loop_
 _atom_site_type_symbol
 _atom_site_label
 _atom_site_symmetry_multiplicity
 _atom_site_fract_x
 _atom_site_fract_y
 _atom_site_fract_z
 _atom_site_occupancy
  Hf  Hf0  1  0.332728  0.666290  0.000282  1
  Hf  Hf1  1  0.666366  0.333575  0.499791  1
  Hf  Hf2  1  0.666439  0.333710  0.000282  1
  Hf  Hf3  1  0.332790  0.666425  0.499791  1
  Hf  Hf4  1  0.275701  0.000000  0.264921  1
  Hf  Hf5  1  0.273563  0.274439  0.735506  1
  Hf  Hf6  1  0.999124  0.725561  0.735506  1
  Hf  Hf7  1  0.000700  0.275676  0.263667  1
  Hf  Hf8  1  0.725025  0.724324  0.263667  1
  Zr  Zr9  1  0.726810  0.000000  0.736686  1
  Zn  Zn10  1  0.000993  0.000000  0.498097  1
  Sn  Sn11  1  0.613242  0.000000  0.247299  1
  Sn  Sn12  1  0.611942  0.611814  0.752753  1
  Sn  Sn13  1  0.000129  0.388186  0.752753  1
  Sn  Sn14  1  0.999938  0.612917  0.247044  1
  Sn  Sn15  1  0.387022  0.387083  0.247044  1
  Sn  Sn16  1  0.386523  0.000000  0.753220  1
  Sb  Sb17  1  0.000966  0.000000  0.001689  1
