# generated using pymatgen
data_Zr7Cr(Co4As3)4
_symmetry_space_group_name_H-M   'P 1'
_cell_length_a   12.50029772
_cell_length_b   12.50029711
_cell_length_c   3.76855400
_cell_angle_alpha   90.00000000
_cell_angle_beta   90.00000000
_cell_angle_gamma   120.08839501
_symmetry_Int_Tables_number   1
_chemical_formula_structural   Zr7Cr(Co4As3)4
_chemical_formula_sum   'Zr7 Cr1 Co16 As12'
_cell_volume   509.51683632
_cell_formula_units_Z   1
loop_
 _symmetry_equiv_pos_site_id
 _symmetry_equiv_pos_as_xyz
  1  'x, y, z'
loop_
 _atom_site_type_symbol
 _atom_site_label
 _atom_site_symmetry_multiplicity
 _atom_site_fract_x
 _atom_site_fract_y
 _atom_site_fract_z
 _atom_site_occupancy
  Zr  Zr0  1  0.817930  0.817930  0.500000  1
  Zr  Zr1  1  0.999265  0.173881  0.500000  1
  Zr  Zr2  1  0.556173  0.999556  0.000000  1
  Zr  Zr3  1  0.332986  0.665103  0.000000  1
  Zr  Zr4  1  0.665103  0.332986  0.000000  1
  Zr  Zr5  1  0.999556  0.556173  0.000000  1
  Zr  Zr6  1  0.173881  0.999265  0.500000  1
  Cr  Cr7  1  0.443203  0.443203  0.000000  1
  Co  Co8  1  0.626698  0.819004  0.000000  1
  Co  Co9  1  0.377061  0.202001  0.000000  1
  Co  Co10  1  0.999964  0.719111  0.500000  1
  Co  Co11  1  0.284167  0.284167  0.500000  1
  Co  Co12  1  0.877508  0.355178  0.500000  1
  Co  Co13  1  0.719111  0.999964  0.500000  1
  Co  Co14  1  0.819004  0.626698  0.000000  1
  Co  Co15  1  0.177986  0.805562  0.000000  1
  Co  Co16  1  0.355178  0.877508  0.500000  1
  Co  Co17  1  0.127315  0.478419  0.500000  1
  Co  Co18  1  0.642924  0.519900  0.500000  1
  Co  Co19  1  0.001483  0.001483  0.000000  1
  Co  Co20  1  0.519900  0.642924  0.500000  1
  Co  Co21  1  0.478419  0.127315  0.500000  1
  Co  Co22  1  0.202001  0.377061  0.000000  1
  Co  Co23  1  0.805562  0.177986  0.000000  1
  As  As24  1  0.004334  0.346390  0.000000  1
  As  As25  1  0.823968  0.514345  0.500000  1
  As  As26  1  0.689121  0.175544  0.500000  1
  As  As27  1  0.178446  0.178446  0.000000  1
  As  As28  1  0.641517  0.641517  0.000000  1
  As  As29  1  0.823624  0.997960  0.000000  1
  As  As30  1  0.514345  0.823968  0.500000  1
  As  As31  1  0.175544  0.689121  0.500000  1
  As  As32  1  0.346390  0.004334  0.000000  1
  As  As33  1  0.483748  0.318627  0.500000  1
  As  As34  1  0.997960  0.823624  0.000000  1
  As  As35  1  0.318627  0.483748  0.500000  1
