# generated using pymatgen
data_Tb7Ho(TmRu)4
_symmetry_space_group_name_H-M   'P 1'
_cell_length_a   6.31270148
_cell_length_b   7.29681930
_cell_length_c   9.16091088
_cell_angle_alpha   89.94028315
_cell_angle_beta   89.83452929
_cell_angle_gamma   89.87191154
_symmetry_Int_Tables_number   1
_chemical_formula_structural   Tb7Ho(TmRu)4
_chemical_formula_sum   'Tb7 Ho1 Tm4 Ru4'
_cell_volume   421.97271754
_cell_formula_units_Z   1
loop_
 _symmetry_equiv_pos_site_id
 _symmetry_equiv_pos_as_xyz
  1  'x, y, z'
loop_
 _atom_site_type_symbol
 _atom_site_label
 _atom_site_symmetry_multiplicity
 _atom_site_fract_x
 _atom_site_fract_y
 _atom_site_fract_z
 _atom_site_occupancy
  Tb  Tb0  1  0.632756  0.040351  0.252612  1
  Tb  Tb1  1  0.365578  0.959319  0.747721  1
  Tb  Tb2  1  0.134283  0.459418  0.747669  1
  Tb  Tb3  1  0.867332  0.541210  0.251997  1
  Tb  Tb4  1  0.170913  0.177454  0.066418  1
  Tb  Tb5  1  0.829772  0.822604  0.934704  1
  Tb  Tb6  1  0.669101  0.323338  0.934549  1
  Ho  Ho7  1  0.830199  0.823204  0.563292  1
  Tm  Tm8  1  0.330745  0.676488  0.066827  1
  Tm  Tm9  1  0.169419  0.175948  0.436164  1
  Tm  Tm10  1  0.331266  0.676282  0.434959  1
  Tm  Tm11  1  0.668359  0.324287  0.563804  1
  Ru  Ru12  1  0.458910  0.386211  0.252790  1
  Ru  Ru13  1  0.539538  0.614083  0.748390  1
  Ru  Ru14  1  0.958711  0.114590  0.745556  1
  Ru  Ru15  1  0.043119  0.885214  0.252549  1
