# generated using pymatgen
data_Li7NbAs4
_symmetry_space_group_name_H-M   'P 1'
_cell_length_a   7.43693402
_cell_length_b   7.43693384
_cell_length_c   12.15290100
_cell_angle_alpha   65.86159421
_cell_angle_beta   65.86159607
_cell_angle_gamma   48.72764109
_symmetry_Int_Tables_number   1
_chemical_formula_structural   Li7NbAs4
_chemical_formula_sum   'Li14 Nb2 As8'
_cell_volume   451.41259211
_cell_formula_units_Z   2
loop_
 _symmetry_equiv_pos_site_id
 _symmetry_equiv_pos_as_xyz
  1  'x, y, z'
loop_
 _atom_site_type_symbol
 _atom_site_label
 _atom_site_symmetry_multiplicity
 _atom_site_fract_x
 _atom_site_fract_y
 _atom_site_fract_z
 _atom_site_occupancy
  Li  Li0  1  0.516239  0.984319  0.876105  1
  Li  Li1  1  0.755607  0.244393  0.750000  1
  Li  Li2  1  0.007414  0.474961  0.877865  1
  Li  Li3  1  0.015681  0.483761  0.623895  1
  Li  Li4  1  0.250174  0.749182  0.492802  1
  Li  Li5  1  0.525039  0.992586  0.622135  1
  Li  Li6  1  0.474961  0.007414  0.377865  1
  Li  Li7  1  0.749826  0.250818  0.507198  1
  Li  Li8  1  0.984319  0.516239  0.376105  1
  Li  Li9  1  0.250818  0.749826  0.007198  1
  Li  Li10  1  0.992586  0.525039  0.122135  1
  Li  Li11  1  0.483761  0.015681  0.123895  1
  Li  Li12  1  0.244393  0.755607  0.250000  1
  Li  Li13  1  0.749182  0.250174  0.992802  1
  Nb  Nb14  1  0.256224  0.743776  0.750000  1
  Nb  Nb15  1  0.743776  0.256224  0.250000  1
  As  As16  1  0.367185  0.391676  0.928849  1
  As  As17  1  0.904874  0.853754  0.691695  1
  As  As18  1  0.146246  0.095126  0.808305  1
  As  As19  1  0.391676  0.367185  0.428849  1
  As  As20  1  0.608324  0.632815  0.571151  1
  As  As21  1  0.853754  0.904874  0.191695  1
  As  As22  1  0.095126  0.146246  0.308305  1
  As  As23  1  0.632815  0.608324  0.071151  1
