# generated using pymatgen
data_YbYPa2(Pd2Pb)2
_symmetry_space_group_name_H-M   'P 1'
_cell_length_a   7.95035242
_cell_length_b   7.92932319
_cell_length_c   3.62877100
_cell_angle_alpha   90.00000000
_cell_angle_beta   90.00000000
_cell_angle_gamma   89.69402438
_symmetry_Int_Tables_number   1
_chemical_formula_structural   YbYPa2(Pd2Pb)2
_chemical_formula_sum   'Yb1 Y1 Pa2 Pd4 Pb2'
_cell_volume   228.75777785
_cell_formula_units_Z   1
loop_
 _symmetry_equiv_pos_site_id
 _symmetry_equiv_pos_as_xyz
  1  'x, y, z'
loop_
 _atom_site_type_symbol
 _atom_site_label
 _atom_site_symmetry_multiplicity
 _atom_site_fract_x
 _atom_site_fract_y
 _atom_site_fract_z
 _atom_site_occupancy
  Yb  Yb0  1  0.827362  0.672203  0.500000  1
  Y  Y1  1  0.326379  0.827113  0.500000  1
  Pa  Pa2  1  0.671325  0.169519  0.500000  1
  Pa  Pa3  1  0.169570  0.330471  0.500000  1
  Pd  Pd4  1  0.871895  0.361346  0.000000  1
  Pd  Pd5  1  0.372204  0.139232  0.000000  1
  Pd  Pd6  1  0.627334  0.891938  0.000000  1
  Pd  Pd7  1  0.127322  0.610290  0.000000  1
  Pb  Pb8  1  0.001337  0.987918  0.000000  1
  Pb  Pb9  1  0.505270  0.509970  0.000000  1
