# generated using pymatgen
data_AcEu3(SiNi)4
_symmetry_space_group_name_H-M   'P 1'
_cell_length_a   6.20168773
_cell_length_b   6.19941032
_cell_length_c   6.20151971
_cell_angle_alpha   89.75261220
_cell_angle_beta   89.74379538
_cell_angle_gamma   90.20407729
_symmetry_Int_Tables_number   1
_chemical_formula_structural   AcEu3(SiNi)4
_chemical_formula_sum   'Ac1 Eu3 Si4 Ni4'
_cell_volume   238.42249548
_cell_formula_units_Z   1
loop_
 _symmetry_equiv_pos_site_id
 _symmetry_equiv_pos_as_xyz
  1  'x, y, z'
loop_
 _atom_site_type_symbol
 _atom_site_label
 _atom_site_symmetry_multiplicity
 _atom_site_fract_x
 _atom_site_fract_y
 _atom_site_fract_z
 _atom_site_occupancy
  Ac  Ac0  1  0.362947  0.862948  0.636963  1
  Eu  Eu1  1  0.866836  0.631677  0.364150  1
  Eu  Eu2  1  0.635818  0.366782  0.868435  1
  Eu  Eu3  1  0.131601  0.135812  0.133157  1
  Si  Si4  1  0.664132  0.164055  0.335914  1
  Si  Si5  1  0.157266  0.343094  0.659205  1
  Si  Si6  1  0.340798  0.657273  0.156872  1
  Si  Si7  1  0.843099  0.840872  0.842796  1
  Ni  Ni8  1  0.084104  0.584057  0.915974  1
  Ni  Ni9  1  0.587843  0.913377  0.087909  1
  Ni  Ni10  1  0.912177  0.087950  0.586574  1
  Ni  Ni11  1  0.413380  0.412102  0.412051  1
