# generated using pymatgen
data_Ho12Tc2OsRu
_symmetry_space_group_name_H-M   'P 1'
_cell_length_a   6.27241168
_cell_length_b   7.38872481
_cell_length_c   9.07372100
_cell_angle_alpha   90.00000000
_cell_angle_beta   90.00000000
_cell_angle_gamma   90.05345333
_symmetry_Int_Tables_number   1
_chemical_formula_structural   Ho12Tc2OsRu
_chemical_formula_sum   'Ho12 Tc2 Os1 Ru1'
_cell_volume   420.52253987
_cell_formula_units_Z   1
loop_
 _symmetry_equiv_pos_site_id
 _symmetry_equiv_pos_as_xyz
  1  'x, y, z'
loop_
 _atom_site_type_symbol
 _atom_site_label
 _atom_site_symmetry_multiplicity
 _atom_site_fract_x
 _atom_site_fract_y
 _atom_site_fract_z
 _atom_site_occupancy
  Ho  Ho0  1  0.336857  0.675301  0.062451  1
  Ho  Ho1  1  0.163789  0.175572  0.436646  1
  Ho  Ho2  1  0.664314  0.324727  0.562550  1
  Ho  Ho3  1  0.835190  0.824001  0.937075  1
  Ho  Ho4  1  0.664314  0.324727  0.937450  1
  Ho  Ho5  1  0.835190  0.824001  0.562925  1
  Ho  Ho6  1  0.336857  0.675301  0.437549  1
  Ho  Ho7  1  0.163789  0.175572  0.063354  1
  Ho  Ho8  1  0.875503  0.539529  0.250000  1
  Ho  Ho9  1  0.624585  0.039616  0.250000  1
  Ho  Ho10  1  0.130267  0.458520  0.750000  1
  Ho  Ho11  1  0.369051  0.959111  0.750000  1
  Tc  Tc12  1  0.038345  0.884969  0.250000  1
  Tc  Tc13  1  0.461115  0.384334  0.250000  1
  Os  Os14  1  0.540499  0.617344  0.750000  1
  Ru  Ru15  1  0.960335  0.117374  0.750000  1
