# generated using pymatgen
data_Eu3InHg2Pd3
_symmetry_space_group_name_H-M   'P 1'
_cell_length_a   7.80455969
_cell_length_b   7.80456059
_cell_length_c   4.13442200
_cell_angle_alpha   90.00000000
_cell_angle_beta   90.00000000
_cell_angle_gamma   120.85980860
_symmetry_Int_Tables_number   1
_chemical_formula_structural   Eu3InHg2Pd3
_chemical_formula_sum   'Eu3 In1 Hg2 Pd3'
_cell_volume   216.17924108
_cell_formula_units_Z   1
loop_
 _symmetry_equiv_pos_site_id
 _symmetry_equiv_pos_as_xyz
  1  'x, y, z'
loop_
 _atom_site_type_symbol
 _atom_site_label
 _atom_site_symmetry_multiplicity
 _atom_site_fract_x
 _atom_site_fract_y
 _atom_site_fract_z
 _atom_site_occupancy
  Eu  Eu0  1  0.404912  0.995126  0.500000  1
  Eu  Eu1  1  0.995126  0.404912  0.500000  1
  Eu  Eu2  1  0.601737  0.601737  0.500000  1
  In  In3  1  0.253925  0.253925  0.000000  1
  Hg  Hg4  1  0.741314  0.001561  0.000000  1
  Hg  Hg5  1  0.001561  0.741314  0.000000  1
  Pd  Pd6  1  0.331700  0.654201  0.000000  1
  Pd  Pd7  1  0.654201  0.331700  0.000000  1
  Pd  Pd8  1  0.015525  0.015525  0.500000  1
