# generated using pymatgen
data_Ho2Ga4PdAu
_symmetry_space_group_name_H-M   'P 1'
_cell_length_a   5.55166734
_cell_length_b   5.55166738
_cell_length_c   6.65962700
_cell_angle_alpha   90.00000000
_cell_angle_beta   90.00000000
_cell_angle_gamma   132.48001700
_symmetry_Int_Tables_number   1
_chemical_formula_structural   Ho2Ga4PdAu
_chemical_formula_sum   'Ho2 Ga4 Pd1 Au1'
_cell_volume   151.37927111
_cell_formula_units_Z   1
loop_
 _symmetry_equiv_pos_site_id
 _symmetry_equiv_pos_as_xyz
  1  'x, y, z'
loop_
 _atom_site_type_symbol
 _atom_site_label
 _atom_site_symmetry_multiplicity
 _atom_site_fract_x
 _atom_site_fract_y
 _atom_site_fract_z
 _atom_site_occupancy
  Ho  Ho0  1  0.090406  0.909594  0.250000  1
  Ho  Ho1  1  0.911900  0.088100  0.750000  1
  Ga  Ga2  1  0.374386  0.625614  0.046325  1
  Ga  Ga3  1  0.624686  0.375314  0.555533  1
  Ga  Ga4  1  0.624686  0.375314  0.944467  1
  Ga  Ga5  1  0.374386  0.625614  0.453675  1
  Pd  Pd6  1  0.200000  0.800000  0.750000  1
  Au  Au7  1  0.799552  0.200448  0.250000  1
