# generated using pymatgen
data_Lu8Ta11Si16Ru
_symmetry_space_group_name_H-M   'P 1'
_cell_length_a   6.78037406
_cell_length_b   6.97782532
_cell_length_c   13.19422559
_cell_angle_alpha   90.09657663
_cell_angle_beta   89.95245169
_cell_angle_gamma   89.99696229
_symmetry_Int_Tables_number   1
_chemical_formula_structural   Lu8Ta11Si16Ru
_chemical_formula_sum   'Lu8 Ta11 Si16 Ru1'
_cell_volume   624.24760589
_cell_formula_units_Z   1
loop_
 _symmetry_equiv_pos_site_id
 _symmetry_equiv_pos_as_xyz
  1  'x, y, z'
loop_
 _atom_site_type_symbol
 _atom_site_label
 _atom_site_symmetry_multiplicity
 _atom_site_fract_x
 _atom_site_fract_y
 _atom_site_fract_z
 _atom_site_occupancy
  Lu  Lu0  1  0.502081  0.328702  0.094904  1
  Lu  Lu1  1  0.999243  0.173009  0.404052  1
  Lu  Lu2  1  0.498259  0.673015  0.594698  1
  Lu  Lu3  1  0.999692  0.830247  0.905325  1
  Lu  Lu4  1  0.498513  0.671116  0.904528  1
  Lu  Lu5  1  0.997450  0.827320  0.595294  1
  Lu  Lu6  1  0.502792  0.328443  0.405138  1
  Lu  Lu7  1  0.002785  0.172939  0.095633  1
  Ta  Ta8  1  0.839141  0.328563  0.624247  1
  Ta  Ta9  1  0.337318  0.173375  0.872774  1
  Ta  Ta10  1  0.164196  0.673909  0.125411  1
  Ta  Ta11  1  0.660828  0.829843  0.376651  1
  Ta  Ta12  1  0.168122  0.672942  0.377774  1
  Ta  Ta13  1  0.663462  0.826398  0.125508  1
  Ta  Ta14  1  0.835757  0.324682  0.873193  1
  Ta  Ta15  1  0.664527  0.008752  0.749670  1
  Ta  Ta16  1  0.159159  0.493190  0.749663  1
  Ta  Ta17  1  0.337956  0.994449  0.251028  1
  Ta  Ta18  1  0.838993  0.507471  0.250307  1
  Si  Si19  1  0.660906  0.038498  0.543198  1
  Si  Si20  1  0.164916  0.464376  0.958459  1
  Si  Si21  1  0.333716  0.964596  0.040941  1
  Si  Si22  1  0.835089  0.537961  0.458663  1
  Si  Si23  1  0.333220  0.966916  0.461000  1
  Si  Si24  1  0.835358  0.534593  0.040669  1
  Si  Si25  1  0.664046  0.034219  0.959265  1
  Si  Si26  1  0.166418  0.455335  0.543816  1
  Si  Si27  1  0.533921  0.378005  0.746011  1
  Si  Si28  1  0.044314  0.120557  0.747720  1
  Si  Si29  1  0.461569  0.618534  0.250964  1
  Si  Si30  1  0.960383  0.880437  0.251217  1
  Si  Si31  1  0.794093  0.633019  0.750123  1
  Si  Si32  1  0.298151  0.868465  0.750030  1
  Si  Si33  1  0.205191  0.367623  0.250250  1
  Si  Si34  1  0.704362  0.133661  0.249492  1
  Ru  Ru35  1  0.334075  0.164839  0.622386  1
