# generated using pymatgen
data_Dy4Al18CuRh5
_symmetry_space_group_name_H-M   'P 1'
_cell_length_a   7.56245500
_cell_length_b   7.56245472
_cell_length_c   9.43272836
_cell_angle_alpha   90.09625834
_cell_angle_beta   90.09625594
_cell_angle_gamma   119.64712721
_symmetry_Int_Tables_number   1
_chemical_formula_structural   Dy4Al18CuRh5
_chemical_formula_sum   'Dy4 Al18 Cu1 Rh5'
_cell_volume   468.83974864
_cell_formula_units_Z   1
loop_
 _symmetry_equiv_pos_site_id
 _symmetry_equiv_pos_as_xyz
  1  'x, y, z'
loop_
 _atom_site_type_symbol
 _atom_site_label
 _atom_site_symmetry_multiplicity
 _atom_site_fract_x
 _atom_site_fract_y
 _atom_site_fract_z
 _atom_site_occupancy
  Dy  Dy0  1  0.994660  0.672160  0.749546  1
  Dy  Dy1  1  0.005340  0.327840  0.250454  1
  Dy  Dy2  1  0.672160  0.994660  0.749546  1
  Dy  Dy3  1  0.327840  0.005340  0.250454  1
  Al  Al4  1  0.129069  0.129069  0.751514  1
  Al  Al5  1  0.870931  0.870931  0.248486  1
  Al  Al6  1  0.000502  0.338544  0.577903  1
  Al  Al7  1  0.999498  0.661456  0.422097  1
  Al  Al8  1  0.000501  0.665428  0.074457  1
  Al  Al9  1  0.334572  0.999499  0.925543  1
  Al  Al10  1  0.999499  0.334572  0.925543  1
  Al  Al11  1  0.665428  0.000501  0.074457  1
  Al  Al12  1  0.661456  0.999498  0.422097  1
  Al  Al13  1  0.338544  0.000502  0.577903  1
  Al  Al14  1  0.332787  0.332787  0.050801  1
  Al  Al15  1  0.667213  0.667213  0.949199  1
  Al  Al16  1  0.663756  0.663756  0.553013  1
  Al  Al17  1  0.336244  0.336244  0.446987  1
  Al  Al18  1  0.339097  0.549578  0.750641  1
  Al  Al19  1  0.660903  0.450422  0.249359  1
  Al  Al20  1  0.549578  0.339097  0.750641  1
  Al  Al21  1  0.450422  0.660903  0.249359  1
  Cu  Cu22  1  0.000000  0.000000  0.500000  1
  Rh  Rh23  1  0.672057  0.327943  0.500000  1
  Rh  Rh24  1  0.327943  0.672057  0.500000  1
  Rh  Rh25  1  0.328070  0.671930  0.000000  1
  Rh  Rh26  1  0.671930  0.328070  0.000000  1
  Rh  Rh27  1  0.000000  0.000000  0.000000  1
