# generated using pymatgen
data_Tm3Mg2TiIr3
_symmetry_space_group_name_H-M   'P 1'
_cell_length_a   7.14831880
_cell_length_b   6.97069795
_cell_length_c   4.18952300
_cell_angle_alpha   90.00000000
_cell_angle_beta   90.00000000
_cell_angle_gamma   119.18140015
_symmetry_Int_Tables_number   1
_chemical_formula_structural   Tm3Mg2TiIr3
_chemical_formula_sum   'Tm3 Mg2 Ti1 Ir3'
_cell_volume   182.26320283
_cell_formula_units_Z   1
loop_
 _symmetry_equiv_pos_site_id
 _symmetry_equiv_pos_as_xyz
  1  'x, y, z'
loop_
 _atom_site_type_symbol
 _atom_site_label
 _atom_site_symmetry_multiplicity
 _atom_site_fract_x
 _atom_site_fract_y
 _atom_site_fract_z
 _atom_site_occupancy
  Tm  Tm0  1  0.000000  0.407674  0.500000  1
  Tm  Tm1  1  0.587915  0.585550  0.500000  1
  Tm  Tm2  1  0.412085  0.997635  0.500000  1
  Mg  Mg3  1  0.247724  0.246081  0.000000  1
  Mg  Mg4  1  0.752276  0.998357  0.000000  1
  Ti  Ti5  1  0.000000  0.756370  0.000000  1
  Ir  Ir6  1  0.313871  0.676284  0.000000  1
  Ir  Ir7  1  0.686129  0.362411  0.000000  1
  Ir  Ir8  1  0.000000  0.969639  0.500000  1
