# generated using pymatgen
data_DyAg3(Ir2O7)2
_symmetry_space_group_name_H-M   'P 1'
_cell_length_a   7.21186499
_cell_length_b   7.21186484
_cell_length_c   7.26251099
_cell_angle_alpha   60.23041250
_cell_angle_beta   60.23041654
_cell_angle_gamma   60.00000416
_symmetry_Int_Tables_number   1
_chemical_formula_structural   DyAg3(Ir2O7)2
_chemical_formula_sum   'Dy1 Ag3 Ir4 O14'
_cell_volume   268.02219645
_cell_formula_units_Z   1
loop_
 _symmetry_equiv_pos_site_id
 _symmetry_equiv_pos_as_xyz
  1  'x, y, z'
loop_
 _atom_site_type_symbol
 _atom_site_label
 _atom_site_symmetry_multiplicity
 _atom_site_fract_x
 _atom_site_fract_y
 _atom_site_fract_z
 _atom_site_occupancy
  Dy  Dy0  1  0.125000  0.125000  0.625000  1
  Ag  Ag1  1  0.625000  0.125000  0.125000  1
  Ag  Ag2  1  0.125000  0.625000  0.125000  1
  Ag  Ag3  1  0.125000  0.125000  0.125000  1
  Ir  Ir4  1  0.125000  0.625000  0.625000  1
  Ir  Ir5  1  0.625000  0.125000  0.625000  1
  Ir  Ir6  1  0.625000  0.625000  0.125000  1
  Ir  Ir7  1  0.625000  0.625000  0.625000  1
  O  O8  1  0.695248  0.695248  0.307186  1
  O  O9  1  0.294681  0.294681  0.695417  1
  O  O10  1  0.715220  0.294681  0.695417  1
  O  O11  1  0.302318  0.695248  0.307186  1
  O  O12  1  0.294681  0.715220  0.695417  1
  O  O13  1  0.695248  0.302318  0.307186  1
  O  O14  1  0.554752  0.554752  0.942814  1
  O  O15  1  0.955319  0.955319  0.554583  1
  O  O16  1  0.534780  0.955319  0.554583  1
  O  O17  1  0.947682  0.554752  0.942814  1
  O  O18  1  0.955319  0.534780  0.554583  1
  O  O19  1  0.554752  0.947682  0.942814  1
  O  O20  1  0.255063  0.255063  0.234810  1
  O  O21  1  0.994937  0.994937  0.015190  1
