# generated using pymatgen
data_HfZr9AlSn6Ge
_symmetry_space_group_name_H-M   'P 1'
_cell_length_a   8.73354700
_cell_length_b   8.73354712
_cell_length_c   5.90067000
_cell_angle_alpha   90.00000000
_cell_angle_beta   90.00000000
_cell_angle_gamma   119.99999574
_symmetry_Int_Tables_number   1
_chemical_formula_structural   HfZr9AlSn6Ge
_chemical_formula_sum   'Hf1 Zr9 Al1 Sn6 Ge1'
_cell_volume   389.77439590
_cell_formula_units_Z   1
loop_
 _symmetry_equiv_pos_site_id
 _symmetry_equiv_pos_as_xyz
  1  'x, y, z'
loop_
 _atom_site_type_symbol
 _atom_site_label
 _atom_site_symmetry_multiplicity
 _atom_site_fract_x
 _atom_site_fract_y
 _atom_site_fract_z
 _atom_site_occupancy
  Hf  Hf0  1  0.333333  0.666667  0.000000  1
  Zr  Zr1  1  0.666667  0.333333  0.500000  1
  Zr  Zr2  1  0.666667  0.333333  0.000000  1
  Zr  Zr3  1  0.333333  0.666667  0.500000  1
  Zr  Zr4  1  0.267013  0.999917  0.247346  1
  Zr  Zr5  1  0.267013  0.267096  0.752654  1
  Zr  Zr6  1  0.000083  0.732987  0.752654  1
  Zr  Zr7  1  0.000083  0.267096  0.247346  1
  Zr  Zr8  1  0.732904  0.732987  0.247346  1
  Zr  Zr9  1  0.732904  0.999917  0.752654  1
  Al  Al10  1  0.000000  0.000000  0.500000  1
  Sn  Sn11  1  0.611064  0.999886  0.252060  1
  Sn  Sn12  1  0.611064  0.611177  0.747940  1
  Sn  Sn13  1  0.000114  0.388936  0.747940  1
  Sn  Sn14  1  0.000114  0.611177  0.252060  1
  Sn  Sn15  1  0.388823  0.388936  0.252060  1
  Sn  Sn16  1  0.388823  0.999886  0.747940  1
  Ge  Ge17  1  0.000000  0.000000  0.000000  1
