# generated using pymatgen
data_CaYb3Sb6Rh7
_symmetry_space_group_name_H-M   'P 1'
_cell_length_a   7.56952254
_cell_length_b   7.60072521
_cell_length_c   7.60072500
_cell_angle_alpha   109.55423517
_cell_angle_beta   109.38808839
_cell_angle_gamma   109.38808010
_symmetry_Int_Tables_number   1
_chemical_formula_structural   CaYb3Sb6Rh7
_chemical_formula_sum   'Ca1 Yb3 Sb6 Rh7'
_cell_volume   336.97771267
_cell_formula_units_Z   1
loop_
 _symmetry_equiv_pos_site_id
 _symmetry_equiv_pos_as_xyz
  1  'x, y, z'
loop_
 _atom_site_type_symbol
 _atom_site_label
 _atom_site_symmetry_multiplicity
 _atom_site_fract_x
 _atom_site_fract_y
 _atom_site_fract_z
 _atom_site_occupancy
  Ca  Ca0  1  0.500000  0.000000  0.000000  1
  Yb  Yb1  1  0.000000  0.500000  0.000000  1
  Yb  Yb2  1  0.000000  0.000000  0.500000  1
  Yb  Yb3  1  0.500000  0.500000  0.500000  1
  Sb  Sb4  1  0.317954  0.000000  0.317864  1
  Sb  Sb5  1  0.000090  0.682136  0.682136  1
  Sb  Sb6  1  0.682046  0.682136  0.000000  1
  Sb  Sb7  1  0.682046  0.000000  0.682136  1
  Sb  Sb8  1  0.999910  0.317864  0.317864  1
  Sb  Sb9  1  0.317954  0.317864  0.000000  1
  Rh  Rh10  1  0.248696  0.497392  0.748696  1
  Rh  Rh11  1  0.500000  0.251304  0.748696  1
  Rh  Rh12  1  0.751304  0.251304  0.502608  1
  Rh  Rh13  1  0.500000  0.748696  0.251304  1
  Rh  Rh14  1  0.000000  0.000000  0.000000  1
  Rh  Rh15  1  0.248696  0.748696  0.497392  1
  Rh  Rh16  1  0.751304  0.502608  0.251304  1
