# generated using pymatgen
data_LaPrPa6(ZnRh)8
_symmetry_space_group_name_H-M   'P 1'
_cell_length_a   3.85706400
_cell_length_b   7.49642294
_cell_length_c   16.42990592
_cell_angle_alpha   90.13183887
_cell_angle_beta   90.00000000
_cell_angle_gamma   90.00000000
_symmetry_Int_Tables_number   1
_chemical_formula_structural   LaPrPa6(ZnRh)8
_chemical_formula_sum   'La1 Pr1 Pa6 Zn8 Rh8'
_cell_volume   475.05604966
_cell_formula_units_Z   1
loop_
 _symmetry_equiv_pos_site_id
 _symmetry_equiv_pos_as_xyz
  1  'x, y, z'
loop_
 _atom_site_type_symbol
 _atom_site_label
 _atom_site_symmetry_multiplicity
 _atom_site_fract_x
 _atom_site_fract_y
 _atom_site_fract_z
 _atom_site_occupancy
  La  La0  1  0.750000  0.943492  0.286484  1
  Pr  Pr1  1  0.750000  0.444314  0.212622  1
  Pa  Pa2  1  0.750000  0.324229  0.442822  1
  Pa  Pa3  1  0.250000  0.062440  0.715905  1
  Pa  Pa4  1  0.250000  0.562320  0.784205  1
  Pa  Pa5  1  0.250000  0.668583  0.563505  1
  Pa  Pa6  1  0.750000  0.825335  0.056736  1
  Pa  Pa7  1  0.250000  0.169211  0.936402  1
  Zn  Zn8  1  0.250000  0.114662  0.150544  1
  Zn  Zn9  1  0.250000  0.990139  0.446001  1
  Zn  Zn10  1  0.750000  0.889353  0.843208  1
  Zn  Zn11  1  0.750000  0.005078  0.564353  1
  Zn  Zn12  1  0.250000  0.490218  0.055669  1
  Zn  Zn13  1  0.750000  0.389807  0.657060  1
  Zn  Zn14  1  0.750000  0.505227  0.935754  1
  Zn  Zn15  1  0.250000  0.609346  0.348752  1
  Rh  Rh16  1  0.750000  0.258546  0.813076  1
  Rh  Rh17  1  0.250000  0.251119  0.331577  1
  Rh  Rh18  1  0.250000  0.763547  0.938728  1
  Rh  Rh19  1  0.250000  0.264321  0.562072  1
  Rh  Rh20  1  0.250000  0.758310  0.168309  1
  Rh  Rh21  1  0.750000  0.725258  0.449585  1
  Rh  Rh22  1  0.750000  0.225947  0.049502  1
  Rh  Rh23  1  0.750000  0.759199  0.687129  1
