# generated using pymatgen
data_Sr6YEr(BO3)6
_symmetry_space_group_name_H-M   'P 1'
_cell_length_a   7.88854424
_cell_length_b   7.88854530
_cell_length_c   7.88854582
_cell_angle_alpha   105.04563119
_cell_angle_beta   105.04563763
_cell_angle_gamma   105.04562955
_symmetry_Int_Tables_number   1
_chemical_formula_structural   Sr6YEr(BO3)6
_chemical_formula_sum   'Sr6 Y1 Er1 B6 O18'
_cell_volume   428.75793961
_cell_formula_units_Z   1
loop_
 _symmetry_equiv_pos_site_id
 _symmetry_equiv_pos_as_xyz
  1  'x, y, z'
loop_
 _atom_site_type_symbol
 _atom_site_label
 _atom_site_symmetry_multiplicity
 _atom_site_fract_x
 _atom_site_fract_y
 _atom_site_fract_z
 _atom_site_occupancy
  Sr  Sr0  1  0.642551  0.265083  0.147281  1
  Sr  Sr1  1  0.147281  0.642551  0.265082  1
  Sr  Sr2  1  0.734917  0.852719  0.357449  1
  Sr  Sr3  1  0.265083  0.147281  0.642551  1
  Sr  Sr4  1  0.852719  0.357449  0.734917  1
  Sr  Sr5  1  0.357449  0.734917  0.852719  1
  Y  Y6  1  0.000000  0.000000  0.000000  1
  Er  Er7  1  0.500000  0.500000  0.500000  1
  B  B8  1  0.291166  0.385025  0.037854  1
  B  B9  1  0.385025  0.037855  0.291166  1
  B  B10  1  0.037855  0.291166  0.385025  1
  B  B11  1  0.962145  0.708834  0.614975  1
  B  B12  1  0.614975  0.962145  0.708834  1
  B  B13  1  0.708834  0.614975  0.962145  1
  O  O14  1  0.740350  0.806760  0.026829  1
  O  O15  1  0.813657  0.534731  0.060811  1
  O  O16  1  0.973171  0.259650  0.193240  1
  O  O17  1  0.465268  0.939188  0.186343  1
  O  O18  1  0.436503  0.497228  0.208027  1
  O  O19  1  0.193240  0.973171  0.259650  1
  O  O20  1  0.497228  0.208027  0.436502  1
  O  O21  1  0.939188  0.186344  0.465268  1
  O  O22  1  0.208027  0.436503  0.497228  1
  O  O23  1  0.791973  0.563497  0.502772  1
  O  O24  1  0.060812  0.813656  0.534732  1
  O  O25  1  0.502772  0.791973  0.563498  1
  O  O26  1  0.806760  0.026829  0.740350  1
  O  O27  1  0.563497  0.502772  0.791973  1
  O  O28  1  0.534732  0.060812  0.813657  1
  O  O29  1  0.026829  0.740350  0.806760  1
  O  O30  1  0.186343  0.465269  0.939189  1
  O  O31  1  0.259650  0.193240  0.973171  1
