# generated using pymatgen
data_Ca2Ni9Mo3As7
_symmetry_space_group_name_H-M   'P 1'
_cell_length_a   3.87809900
_cell_length_b   9.53923885
_cell_length_c   9.53923700
_cell_angle_alpha   119.99999612
_cell_angle_beta   90.00000000
_cell_angle_gamma   90.00000000
_symmetry_Int_Tables_number   1
_chemical_formula_structural   Ca2Ni9Mo3As7
_chemical_formula_sum   'Ca2 Ni9 Mo3 As7'
_cell_volume   305.61657347
_cell_formula_units_Z   1
loop_
 _symmetry_equiv_pos_site_id
 _symmetry_equiv_pos_as_xyz
  1  'x, y, z'
loop_
 _atom_site_type_symbol
 _atom_site_label
 _atom_site_symmetry_multiplicity
 _atom_site_fract_x
 _atom_site_fract_y
 _atom_site_fract_z
 _atom_site_occupancy
  Ca  Ca0  1  0.000000  0.666667  0.333333  1
  Ca  Ca1  1  0.500000  0.333333  0.666667  1
  Ni  Ni2  1  0.000000  0.572859  0.939730  1
  Ni  Ni3  1  0.000000  0.366870  0.427141  1
  Ni  Ni4  1  0.000000  0.060270  0.633130  1
  Ni  Ni5  1  0.000000  0.872683  0.155455  1
  Ni  Ni6  1  0.000000  0.282773  0.127317  1
  Ni  Ni7  1  0.000000  0.844545  0.717227  1
  Ni  Ni8  1  0.500000  0.945637  0.381955  1
  Ni  Ni9  1  0.500000  0.436318  0.054363  1
  Ni  Ni10  1  0.500000  0.618045  0.563682  1
  Mo  Mo11  1  0.500000  0.786253  0.898580  1
  Mo  Mo12  1  0.500000  0.112328  0.213747  1
  Mo  Mo13  1  0.500000  0.101420  0.887672  1
  As  As14  1  0.500000  0.707899  0.115443  1
  As  As15  1  0.500000  0.407544  0.292101  1
  As  As16  1  0.500000  0.884557  0.592456  1
  As  As17  1  0.000000  0.000000  0.000000  1
  As  As18  1  0.000000  0.587883  0.699627  1
  As  As19  1  0.000000  0.111743  0.412117  1
  As  As20  1  0.000000  0.300373  0.888257  1
