# generated using pymatgen
data_Y6ZnSi11Pt8
_symmetry_space_group_name_H-M   'P 1'
_cell_length_a   4.27203500
_cell_length_b   8.64052123
_cell_length_c   12.87150974
_cell_angle_alpha   80.17620070
_cell_angle_beta   90.00000000
_cell_angle_gamma   90.00000000
_symmetry_Int_Tables_number   1
_chemical_formula_structural   Y6ZnSi11Pt8
_chemical_formula_sum   'Y6 Zn1 Si11 Pt8'
_cell_volume   468.15436212
_cell_formula_units_Z   1
loop_
 _symmetry_equiv_pos_site_id
 _symmetry_equiv_pos_as_xyz
  1  'x, y, z'
loop_
 _atom_site_type_symbol
 _atom_site_label
 _atom_site_symmetry_multiplicity
 _atom_site_fract_x
 _atom_site_fract_y
 _atom_site_fract_z
 _atom_site_occupancy
  Y  Y0  1  0.250000  0.761590  0.438958  1
  Y  Y1  1  0.250000  0.592823  0.182172  1
  Y  Y2  1  0.750000  0.235587  0.559287  1
  Y  Y3  1  0.750000  0.410649  0.816220  1
  Y  Y4  1  0.750000  0.931663  0.816410  1
  Y  Y5  1  0.250000  0.070239  0.184687  1
  Zn  Zn6  1  0.250000  0.398515  0.424338  1
  Si  Si7  1  0.750000  0.580148  0.564334  1
  Si  Si8  1  0.750000  0.131991  0.006218  1
  Si  Si9  1  0.750000  0.874044  0.570588  1
  Si  Si10  1  0.250000  0.696487  0.714714  1
  Si  Si11  1  0.750000  0.312383  0.291866  1
  Si  Si12  1  0.750000  0.813582  0.273679  1
  Si  Si13  1  0.250000  0.872598  0.992761  1
  Si  Si14  1  0.250000  0.192759  0.723252  1
  Si  Si15  1  0.250000  0.377398  0.003207  1
  Si  Si16  1  0.250000  0.112539  0.436012  1
  Si  Si17  1  0.750000  0.620383  0.999162  1
  Pt  Pt18  1  0.750000  0.352880  0.101579  1
  Pt  Pt19  1  0.250000  0.965843  0.626916  1
  Pt  Pt20  1  0.750000  0.853625  0.084294  1
  Pt  Pt21  1  0.750000  0.030180  0.375200  1
  Pt  Pt22  1  0.250000  0.645267  0.901663  1
  Pt  Pt23  1  0.250000  0.150413  0.913498  1
  Pt  Pt24  1  0.750000  0.547127  0.369331  1
  Pt  Pt25  1  0.250000  0.469281  0.629651  1
