# generated using pymatgen
data_PaCBr
_symmetry_space_group_name_H-M   'P 1'
_cell_length_a   4.07240212
_cell_length_b   4.07240239
_cell_length_c   10.65773587
_cell_angle_alpha   80.16616137
_cell_angle_beta   80.16616090
_cell_angle_gamma   53.91309536
_symmetry_Int_Tables_number   1
_chemical_formula_structural   PaCBr
_chemical_formula_sum   'Pa2 C2 Br2'
_cell_volume   140.19164721
_cell_formula_units_Z   2
loop_
 _symmetry_equiv_pos_site_id
 _symmetry_equiv_pos_as_xyz
  1  'x, y, z'
loop_
 _atom_site_type_symbol
 _atom_site_label
 _atom_site_symmetry_multiplicity
 _atom_site_fract_x
 _atom_site_fract_y
 _atom_site_fract_z
 _atom_site_occupancy
  Pa  Pa0  1  0.403486  0.403486  0.873961  1
  Pa  Pa1  1  0.596514  0.596514  0.126039  1
  C  C2  1  0.091649  0.091649  0.960953  1
  C  C3  1  0.908351  0.908351  0.039047  1
  Br  Br4  1  0.792609  0.792609  0.682157  1
  Br  Br5  1  0.207391  0.207391  0.317843  1
