# generated using pymatgen
data_Cs12Cr3FeS12
_symmetry_space_group_name_H-M   'P 1'
_cell_length_a   10.50283479
_cell_length_b   10.50283477
_cell_length_c   13.34287324
_cell_angle_alpha   89.82755359
_cell_angle_beta   89.82755499
_cell_angle_gamma   139.41471913
_symmetry_Int_Tables_number   1
_chemical_formula_structural   Cs12Cr3FeS12
_chemical_formula_sum   'Cs12 Cr3 Fe1 S12'
_cell_volume   957.51637088
_cell_formula_units_Z   1
loop_
 _symmetry_equiv_pos_site_id
 _symmetry_equiv_pos_as_xyz
  1  'x, y, z'
loop_
 _atom_site_type_symbol
 _atom_site_label
 _atom_site_symmetry_multiplicity
 _atom_site_fract_x
 _atom_site_fract_y
 _atom_site_fract_z
 _atom_site_occupancy
  Cs  Cs0  1  0.876379  0.872619  0.680134  1
  Cs  Cs1  1  0.127381  0.123621  0.319866  1
  Cs  Cs2  1  0.623966  0.623808  0.182147  1
  Cs  Cs3  1  0.376192  0.376034  0.817853  1
  Cs  Cs4  1  0.168346  0.526694  0.127722  1
  Cs  Cs5  1  0.473306  0.831654  0.872278  1
  Cs  Cs6  1  0.969970  0.329234  0.629759  1
  Cs  Cs7  1  0.670766  0.030030  0.370241  1
  Cs  Cs8  1  0.830124  0.473869  0.872985  1
  Cs  Cs9  1  0.526131  0.169876  0.127015  1
  Cs  Cs10  1  0.018667  0.662722  0.374087  1
  Cs  Cs11  1  0.337278  0.981333  0.625913  1
  Cr  Cr12  1  0.923014  0.076986  0.000000  1
  Cr  Cr13  1  0.427659  0.572341  0.500000  1
  Cr  Cr14  1  0.076151  0.923849  0.000000  1
  Fe  Fe15  1  0.577126  0.422874  0.500000  1
  S  S16  1  0.292296  0.297252  0.565349  1
  S  S17  1  0.702748  0.707704  0.434651  1
  S  S18  1  0.203768  0.204592  0.064874  1
  S  S19  1  0.795408  0.796232  0.935126  1
  S  S20  1  0.716992  0.008949  0.113972  1
  S  S21  1  0.991051  0.283008  0.886028  1
  S  S22  1  0.487192  0.768016  0.612802  1
  S  S23  1  0.231984  0.512808  0.387198  1
  S  S24  1  0.280090  0.990007  0.885423  1
  S  S25  1  0.009993  0.719910  0.114577  1
  S  S26  1  0.504428  0.218407  0.383071  1
  S  S27  1  0.781593  0.495572  0.616929  1
