# generated using pymatgen
data_Tm12Tl2Fe3
_symmetry_space_group_name_H-M   'P 1'
_cell_length_a   8.24775704
_cell_length_b   8.24775756
_cell_length_c   8.24775685
_cell_angle_alpha   108.51183131
_cell_angle_beta   108.51182777
_cell_angle_gamma   111.40752416
_symmetry_Int_Tables_number   1
_chemical_formula_structural   Tm12Tl2Fe3
_chemical_formula_sum   'Tm12 Tl2 Fe3'
_cell_volume   431.53115274
_cell_formula_units_Z   1
loop_
 _symmetry_equiv_pos_site_id
 _symmetry_equiv_pos_as_xyz
  1  'x, y, z'
loop_
 _atom_site_type_symbol
 _atom_site_label
 _atom_site_symmetry_multiplicity
 _atom_site_fract_x
 _atom_site_fract_y
 _atom_site_fract_z
 _atom_site_occupancy
  Tm  Tm0  1  0.189771  0.425675  0.235905  1
  Tm  Tm1  1  0.810229  0.574325  0.764095  1
  Tm  Tm2  1  0.189771  0.953867  0.764095  1
  Tm  Tm3  1  0.953867  0.189771  0.764095  1
  Tm  Tm4  1  0.810229  0.046133  0.235905  1
  Tm  Tm5  1  0.046133  0.810229  0.235905  1
  Tm  Tm6  1  0.425675  0.189771  0.235905  1
  Tm  Tm7  1  0.574325  0.810229  0.764095  1
  Tm  Tm8  1  0.308503  0.308503  0.617007  1
  Tm  Tm9  1  0.691497  0.691497  0.382993  1
  Tm  Tm10  1  0.691497  0.308503  0.000000  1
  Tm  Tm11  1  0.308503  0.691497  0.000000  1
  Tl  Tl12  1  0.000000  0.500000  0.500000  1
  Tl  Tl13  1  0.500000  0.000000  0.500000  1
  Fe  Fe14  1  0.384379  0.384379  0.000000  1
  Fe  Fe15  1  0.615621  0.615621  0.000000  1
  Fe  Fe16  1  0.000000  0.000000  0.000000  1
