# generated using pymatgen
data_Li4LuSb3Rh8
_symmetry_space_group_name_H-M   'P 1'
_cell_length_a   6.23695200
_cell_length_b   6.22668300
_cell_length_c   6.23688400
_cell_angle_alpha   89.99957705
_cell_angle_beta   90.00047770
_cell_angle_gamma   90.00083664
_symmetry_Int_Tables_number   1
_chemical_formula_structural   Li4LuSb3Rh8
_chemical_formula_sum   'Li4 Lu1 Sb3 Rh8'
_cell_volume   242.21265195
_cell_formula_units_Z   1
loop_
 _symmetry_equiv_pos_site_id
 _symmetry_equiv_pos_as_xyz
  1  'x, y, z'
loop_
 _atom_site_type_symbol
 _atom_site_label
 _atom_site_symmetry_multiplicity
 _atom_site_fract_x
 _atom_site_fract_y
 _atom_site_fract_z
 _atom_site_occupancy
  Li  Li0  1  0.500012  0.750060  0.249949  1
  Li  Li1  1  0.999991  0.249934  0.249956  1
  Li  Li2  1  0.999994  0.750096  0.750055  1
  Li  Li3  1  0.499994  0.249933  0.750065  1
  Lu  Lu4  1  0.499998  0.249975  0.250010  1
  Sb  Sb5  1  0.999987  0.750006  0.250018  1
  Sb  Sb6  1  0.000008  0.250020  0.749997  1
  Sb  Sb7  1  0.499993  0.750007  0.750006  1
  Rh  Rh8  1  0.244369  0.994399  0.994379  1
  Rh  Rh9  1  0.755607  0.994399  0.994393  1
  Rh  Rh10  1  0.755624  0.505612  0.994376  1
  Rh  Rh11  1  0.244363  0.505612  0.994367  1
  Rh  Rh12  1  0.244402  0.505591  0.505582  1
  Rh  Rh13  1  0.244408  0.994395  0.505591  1
  Rh  Rh14  1  0.755606  0.505582  0.505617  1
  Rh  Rh15  1  0.755641  0.994378  0.505642  1
