# generated using pymatgen
data_Lu2ThFe8Co
_symmetry_space_group_name_H-M   'P 1'
_cell_length_a   8.67059351
_cell_length_b   8.67059424
_cell_length_c   8.67059381
_cell_angle_alpha   34.05858682
_cell_angle_beta   34.05858142
_cell_angle_gamma   34.05858006
_symmetry_Int_Tables_number   1
_chemical_formula_structural   Lu2ThFe8Co
_chemical_formula_sum   'Lu2 Th1 Fe8 Co1'
_cell_volume   182.25876389
_cell_formula_units_Z   1
loop_
 _symmetry_equiv_pos_site_id
 _symmetry_equiv_pos_as_xyz
  1  'x, y, z'
loop_
 _atom_site_type_symbol
 _atom_site_label
 _atom_site_symmetry_multiplicity
 _atom_site_fract_x
 _atom_site_fract_y
 _atom_site_fract_z
 _atom_site_occupancy
  Lu  Lu0  1  0.857015  0.857015  0.857015  1
  Lu  Lu1  1  0.142985  0.142985  0.142985  1
  Th  Th2  1  0.000000  0.000000  0.000000  1
  Fe  Fe3  1  0.415502  0.917002  0.415502  1
  Fe  Fe4  1  0.415502  0.415502  0.917002  1
  Fe  Fe5  1  0.917002  0.415502  0.415502  1
  Fe  Fe6  1  0.584498  0.082998  0.584498  1
  Fe  Fe7  1  0.584498  0.584498  0.082998  1
  Fe  Fe8  1  0.082998  0.584498  0.584498  1
  Fe  Fe9  1  0.667450  0.667450  0.667450  1
  Fe  Fe10  1  0.332550  0.332550  0.332550  1
  Co  Co11  1  0.500000  0.500000  0.500000  1
