# generated using pymatgen
data_Tb7Pr(Si3Ir)4
_symmetry_space_group_name_H-M   'P 1'
_cell_length_a   8.18760000
_cell_length_b   8.18760035
_cell_length_c   8.16685000
_cell_angle_alpha   90.00000000
_cell_angle_beta   90.00000000
_cell_angle_gamma   119.99999859
_symmetry_Int_Tables_number   1
_chemical_formula_structural   Tb7Pr(Si3Ir)4
_chemical_formula_sum   'Tb7 Pr1 Si12 Ir4'
_cell_volume   474.13112934
_cell_formula_units_Z   1
loop_
 _symmetry_equiv_pos_site_id
 _symmetry_equiv_pos_as_xyz
  1  'x, y, z'
loop_
 _atom_site_type_symbol
 _atom_site_label
 _atom_site_symmetry_multiplicity
 _atom_site_fract_x
 _atom_site_fract_y
 _atom_site_fract_z
 _atom_site_occupancy
  Tb  Tb0  1  0.499469  0.500531  0.750000  1
  Tb  Tb1  1  0.500545  0.499455  0.250000  1
  Tb  Tb2  1  0.001061  0.500531  0.750000  1
  Tb  Tb3  1  0.998910  0.499455  0.250000  1
  Tb  Tb4  1  0.499469  0.998939  0.750000  1
  Tb  Tb5  1  0.500545  0.001090  0.250000  1
  Tb  Tb6  1  0.000000  0.000000  0.750000  1
  Pr  Pr7  1  0.000000  0.000000  0.250000  1
  Si  Si8  1  0.832963  0.167037  0.996657  1
  Si  Si9  1  0.167042  0.832958  0.996917  1
  Si  Si10  1  0.334075  0.167037  0.996657  1
  Si  Si11  1  0.167042  0.832958  0.503083  1
  Si  Si12  1  0.665916  0.832958  0.996917  1
  Si  Si13  1  0.832963  0.167037  0.503343  1
  Si  Si14  1  0.832963  0.665925  0.996657  1
  Si  Si15  1  0.665916  0.832958  0.503083  1
  Si  Si16  1  0.167042  0.334084  0.996917  1
  Si  Si17  1  0.334075  0.167037  0.503343  1
  Si  Si18  1  0.167042  0.334084  0.503083  1
  Si  Si19  1  0.832963  0.665925  0.503343  1
  Ir  Ir20  1  0.666667  0.333333  0.998504  1
  Ir  Ir21  1  0.333333  0.666667  0.001113  1
  Ir  Ir22  1  0.333333  0.666667  0.498887  1
  Ir  Ir23  1  0.666667  0.333333  0.501496  1
