# generated using pymatgen
data_Tb2TcB8Ru
_symmetry_space_group_name_H-M   'P 1'
_cell_length_a   3.59131600
_cell_length_b   5.97491238
_cell_length_c   11.56422116
_cell_angle_alpha   89.80825673
_cell_angle_beta   90.00000000
_cell_angle_gamma   90.00000000
_symmetry_Int_Tables_number   1
_chemical_formula_structural   Tb2TcB8Ru
_chemical_formula_sum   'Tb4 Tc2 B16 Ru2'
_cell_volume   248.14133709
_cell_formula_units_Z   2
loop_
 _symmetry_equiv_pos_site_id
 _symmetry_equiv_pos_as_xyz
  1  'x, y, z'
loop_
 _atom_site_type_symbol
 _atom_site_label
 _atom_site_symmetry_multiplicity
 _atom_site_fract_x
 _atom_site_fract_y
 _atom_site_fract_z
 _atom_site_occupancy
  Tb  Tb0  1  0.500000  0.127501  0.149020  1
  Tb  Tb1  1  0.500000  0.872499  0.850980  1
  Tb  Tb2  1  0.500000  0.627532  0.348800  1
  Tb  Tb3  1  0.500000  0.372468  0.651200  1
  Tc  Tc4  1  0.500000  0.132623  0.412083  1
  Tc  Tc5  1  0.500000  0.867377  0.587917  1
  B  B6  1  0.000000  0.475909  0.191394  1
  B  B7  1  0.000000  0.524091  0.808606  1
  B  B8  1  0.000000  0.977353  0.307723  1
  B  B9  1  0.000000  0.022647  0.692277  1
  B  B10  1  0.000000  0.287954  0.314857  1
  B  B11  1  0.000000  0.712046  0.685143  1
  B  B12  1  0.000000  0.788645  0.184756  1
  B  B13  1  0.000000  0.211355  0.815244  1
  B  B14  1  0.000000  0.363827  0.468686  1
  B  B15  1  0.000000  0.636173  0.531314  1
  B  B16  1  0.000000  0.863069  0.031006  1
  B  B17  1  0.000000  0.136931  0.968994  1
  B  B18  1  0.000000  0.387669  0.046452  1
  B  B19  1  0.000000  0.612331  0.953548  1
  B  B20  1  0.000000  0.887329  0.453199  1
  B  B21  1  0.000000  0.112671  0.546801  1
  Ru  Ru22  1  0.500000  0.639440  0.092001  1
  Ru  Ru23  1  0.500000  0.360560  0.907999  1
