# generated using pymatgen
data_Cs6BiTe4Br
_symmetry_space_group_name_H-M   'P 1'
_cell_length_a   12.53251600
_cell_length_b   12.53251494
_cell_length_c   9.08587000
_cell_angle_alpha   90.00000000
_cell_angle_beta   90.00000000
_cell_angle_gamma   120.00000281
_symmetry_Int_Tables_number   1
_chemical_formula_structural   Cs6BiTe4Br
_chemical_formula_sum   'Cs12 Bi2 Te8 Br2'
_cell_volume   1235.87240895
_cell_formula_units_Z   2
loop_
 _symmetry_equiv_pos_site_id
 _symmetry_equiv_pos_as_xyz
  1  'x, y, z'
loop_
 _atom_site_type_symbol
 _atom_site_label
 _atom_site_symmetry_multiplicity
 _atom_site_fract_x
 _atom_site_fract_y
 _atom_site_fract_z
 _atom_site_occupancy
  Cs  Cs0  1  0.129918  0.870082  0.512085  1
  Cs  Cs1  1  0.740162  0.870082  0.512085  1
  Cs  Cs2  1  0.948237  0.474119  0.321715  1
  Cs  Cs3  1  0.525881  0.474119  0.321715  1
  Cs  Cs4  1  0.870082  0.740162  0.012085  1
  Cs  Cs5  1  0.259838  0.129918  0.012085  1
  Cs  Cs6  1  0.525881  0.051763  0.321715  1
  Cs  Cs7  1  0.129918  0.259838  0.512085  1
  Cs  Cs8  1  0.870082  0.129918  0.012085  1
  Cs  Cs9  1  0.051763  0.525881  0.821715  1
  Cs  Cs10  1  0.474119  0.948237  0.821715  1
  Cs  Cs11  1  0.474119  0.525881  0.821715  1
  Bi  Bi12  1  0.666667  0.333333  0.711873  1
  Bi  Bi13  1  0.333333  0.666667  0.211873  1
  Te  Te14  1  0.401958  0.200979  0.601546  1
  Te  Te15  1  0.598042  0.799021  0.101546  1
  Te  Te16  1  0.666667  0.333333  0.050084  1
  Te  Te17  1  0.799021  0.598042  0.601546  1
  Te  Te18  1  0.200979  0.401958  0.101546  1
  Te  Te19  1  0.333333  0.666667  0.550084  1
  Te  Te20  1  0.200979  0.799021  0.101546  1
  Te  Te21  1  0.799021  0.200979  0.601546  1
  Br  Br22  1  0.000000  0.000000  0.272608  1
  Br  Br23  1  0.000000  0.000000  0.772608  1
