# generated using pymatgen
data_Nd8EuSc11Sn16
_symmetry_space_group_name_H-M   'P 1'
_cell_length_a   7.88676343
_cell_length_b   8.06680343
_cell_length_c   15.18662100
_cell_angle_alpha   90.20307974
_cell_angle_beta   90.06070470
_cell_angle_gamma   90.18633648
_symmetry_Int_Tables_number   1
_chemical_formula_structural   Nd8EuSc11Sn16
_chemical_formula_sum   'Nd8 Eu1 Sc11 Sn16'
_cell_volume   966.17583031
_cell_formula_units_Z   1
loop_
 _symmetry_equiv_pos_site_id
 _symmetry_equiv_pos_as_xyz
  1  'x, y, z'
loop_
 _atom_site_type_symbol
 _atom_site_label
 _atom_site_symmetry_multiplicity
 _atom_site_fract_x
 _atom_site_fract_y
 _atom_site_fract_z
 _atom_site_occupancy
  Nd  Nd0  1  0.848001  0.664741  0.878618  1
  Nd  Nd1  1  0.511383  0.326098  0.902453  1
  Nd  Nd2  1  0.010557  0.174841  0.591228  1
  Nd  Nd3  1  0.489671  0.673986  0.404970  1
  Nd  Nd4  1  0.990425  0.823144  0.099212  1
  Nd  Nd5  1  0.489422  0.672496  0.098727  1
  Nd  Nd6  1  0.989751  0.825570  0.404066  1
  Nd  Nd7  1  0.509065  0.323343  0.593135  1
  Eu  Eu8  1  0.010566  0.175525  0.906036  1
  Sc  Sc9  1  0.346753  0.834841  0.870702  1
  Sc  Sc10  1  0.847056  0.662706  0.624028  1
  Sc  Sc11  1  0.651902  0.162204  0.373371  1
  Sc  Sc12  1  0.152160  0.338379  0.126543  1
  Sc  Sc13  1  0.650078  0.162934  0.132579  1
  Sc  Sc14  1  0.152037  0.336620  0.373857  1
  Sc  Sc15  1  0.348571  0.839341  0.622227  1
  Sc  Sc16  1  0.181502  0.504402  0.747950  1
  Sc  Sc17  1  0.680387  0.997714  0.746509  1
  Sc  Sc18  1  0.818903  0.494436  0.252208  1
  Sc  Sc19  1  0.319338  0.005180  0.251285  1
  Sn  Sn20  1  0.322591  0.042722  0.044385  1
  Sn  Sn21  1  0.819361  0.455439  0.456442  1
  Sn  Sn22  1  0.683336  0.954717  0.541186  1
  Sn  Sn23  1  0.198808  0.545286  0.960115  1
  Sn  Sn24  1  0.665073  0.964851  0.962386  1
  Sn  Sn25  1  0.180224  0.544777  0.541919  1
  Sn  Sn26  1  0.318545  0.044686  0.455245  1
  Sn  Sn27  1  0.814359  0.449524  0.051961  1
  Sn  Sn28  1  0.539376  0.631367  0.743171  1
  Sn  Sn29  1  0.047468  0.874989  0.744341  1
  Sn  Sn30  1  0.454270  0.368955  0.252800  1
  Sn  Sn31  1  0.958559  0.131205  0.249933  1
  Sn  Sn32  1  0.319320  0.141987  0.747321  1
  Sn  Sn33  1  0.817539  0.353150  0.745419  1
  Sn  Sn34  1  0.681912  0.857105  0.252323  1
  Sn  Sn35  1  0.181732  0.640738  0.251347  1
