# generated using pymatgen
data_Zr4SiGeH2
_symmetry_space_group_name_H-M   'P 1'
_cell_length_a   5.47088568
_cell_length_b   5.47088561
_cell_length_c   5.47088533
_cell_angle_alpha   104.98513013
_cell_angle_beta   104.98513292
_cell_angle_gamma   118.87257634
_symmetry_Int_Tables_number   1
_chemical_formula_structural   Zr4SiGeH2
_chemical_formula_sum   'Zr4 Si1 Ge1 H2'
_cell_volume   123.47006308
_cell_formula_units_Z   1
loop_
 _symmetry_equiv_pos_site_id
 _symmetry_equiv_pos_as_xyz
  1  'x, y, z'
loop_
 _atom_site_type_symbol
 _atom_site_label
 _atom_site_symmetry_multiplicity
 _atom_site_fract_x
 _atom_site_fract_y
 _atom_site_fract_z
 _atom_site_occupancy
  Zr  Zr0  1  0.163055  0.663055  0.826110  1
  Zr  Zr1  1  0.836945  0.336945  0.173890  1
  Zr  Zr2  1  0.336945  0.163055  0.500000  1
  Zr  Zr3  1  0.663055  0.836945  0.500000  1
  Si  Si4  1  0.750000  0.750000  0.000000  1
  Ge  Ge5  1  0.250000  0.250000  0.000000  1
  H  H6  1  0.750000  0.250000  0.500000  1
  H  H7  1  0.250000  0.750000  0.500000  1
