# generated using pymatgen
data_Pr9Sm(In3Cl)2
_symmetry_space_group_name_H-M   'P 1'
_cell_length_a   9.58933700
_cell_length_b   9.58933600
_cell_length_c   6.81259400
_cell_angle_alpha   90.00000000
_cell_angle_beta   90.00000000
_cell_angle_gamma   120.00000691
_symmetry_Int_Tables_number   1
_chemical_formula_structural   Pr9Sm(In3Cl)2
_chemical_formula_sum   'Pr9 Sm1 In6 Cl2'
_cell_volume   542.52558822
_cell_formula_units_Z   1
loop_
 _symmetry_equiv_pos_site_id
 _symmetry_equiv_pos_as_xyz
  1  'x, y, z'
loop_
 _atom_site_type_symbol
 _atom_site_label
 _atom_site_symmetry_multiplicity
 _atom_site_fract_x
 _atom_site_fract_y
 _atom_site_fract_z
 _atom_site_occupancy
  Pr  Pr0  1  0.742443  0.742959  0.250362  1
  Pr  Pr1  1  0.000517  0.742959  0.749638  1
  Pr  Pr2  1  0.742443  0.999483  0.749638  1
  Pr  Pr3  1  0.257041  0.257557  0.749638  1
  Pr  Pr4  1  0.000517  0.257557  0.250362  1
  Pr  Pr5  1  0.666667  0.333333  0.500000  1
  Pr  Pr6  1  0.257041  0.999483  0.250362  1
  Pr  Pr7  1  0.333333  0.666667  0.000000  1
  Pr  Pr8  1  0.666667  0.333333  0.000000  1
  Sm  Sm9  1  0.333333  0.666667  0.500000  1
  In  In10  1  0.393636  0.998863  0.749577  1
  In  In11  1  0.001137  0.606364  0.250423  1
  In  In12  1  0.605227  0.998863  0.250423  1
  In  In13  1  0.001137  0.394773  0.749577  1
  In  In14  1  0.393636  0.394773  0.250423  1
  In  In15  1  0.605227  0.606364  0.749577  1
  Cl  Cl16  1  0.000000  0.000000  0.500000  1
  Cl  Cl17  1  0.000000  0.000000  0.000000  1
