# generated using pymatgen
data_Er3Tm5(CdIr)2
_symmetry_space_group_name_H-M   'P 1'
_cell_length_a   9.51896208
_cell_length_b   9.51896188
_cell_length_c   9.51896300
_cell_angle_alpha   59.99999957
_cell_angle_beta   60.00000027
_cell_angle_gamma   60.00000349
_symmetry_Int_Tables_number   1
_chemical_formula_structural   Er3Tm5(CdIr)2
_chemical_formula_sum   'Er6 Tm10 Cd4 Ir4'
_cell_volume   609.89326281
_cell_formula_units_Z   2
loop_
 _symmetry_equiv_pos_site_id
 _symmetry_equiv_pos_as_xyz
  1  'x, y, z'
loop_
 _atom_site_type_symbol
 _atom_site_label
 _atom_site_symmetry_multiplicity
 _atom_site_fract_x
 _atom_site_fract_y
 _atom_site_fract_z
 _atom_site_occupancy
  Er  Er0  1  0.187581  0.812419  0.812419  1
  Er  Er1  1  0.812419  0.187581  0.187581  1
  Er  Er2  1  0.812419  0.187581  0.812419  1
  Er  Er3  1  0.187581  0.812419  0.187581  1
  Er  Er4  1  0.812419  0.812419  0.187581  1
  Er  Er5  1  0.187581  0.187581  0.812419  1
  Tm  Tm6  1  0.599026  0.599026  0.599026  1
  Tm  Tm7  1  0.599026  0.599026  0.202922  1
  Tm  Tm8  1  0.599026  0.202922  0.599026  1
  Tm  Tm9  1  0.202922  0.599026  0.599026  1
  Tm  Tm10  1  0.060673  0.439327  0.439327  1
  Tm  Tm11  1  0.439327  0.060673  0.060673  1
  Tm  Tm12  1  0.439327  0.060673  0.439327  1
  Tm  Tm13  1  0.060673  0.439327  0.060673  1
  Tm  Tm14  1  0.439327  0.439327  0.060673  1
  Tm  Tm15  1  0.060673  0.060673  0.439327  1
  Cd  Cd16  1  0.831273  0.831273  0.831273  1
  Cd  Cd17  1  0.831273  0.831273  0.506179  1
  Cd  Cd18  1  0.831273  0.506179  0.831273  1
  Cd  Cd19  1  0.506179  0.831273  0.831273  1
  Ir  Ir20  1  0.391830  0.391830  0.391830  1
  Ir  Ir21  1  0.391830  0.391830  0.824509  1
  Ir  Ir22  1  0.391830  0.824509  0.391830  1
  Ir  Ir23  1  0.824509  0.391830  0.391830  1
