# generated using pymatgen
data_Li2TePtO6
_symmetry_space_group_name_H-M   'P 1'
_cell_length_a   4.89142400
_cell_length_b   5.24840700
_cell_length_c   8.49242200
_cell_angle_alpha   90.00000000
_cell_angle_beta   90.00000000
_cell_angle_gamma   90.00000000
_symmetry_Int_Tables_number   1
_chemical_formula_structural   Li2TePtO6
_chemical_formula_sum   'Li4 Te2 Pt2 O12'
_cell_volume   218.01901986
_cell_formula_units_Z   2
loop_
 _symmetry_equiv_pos_site_id
 _symmetry_equiv_pos_as_xyz
  1  'x, y, z'
loop_
 _atom_site_type_symbol
 _atom_site_label
 _atom_site_symmetry_multiplicity
 _atom_site_fract_x
 _atom_site_fract_y
 _atom_site_fract_z
 _atom_site_occupancy
  Li  Li0  1  0.000000  0.000000  0.301741  1
  Li  Li1  1  0.500000  0.000000  0.190347  1
  Li  Li2  1  0.000000  0.500000  0.690347  1
  Li  Li3  1  0.500000  0.500000  0.801741  1
  Te  Te4  1  0.500000  0.000000  0.587270  1
  Te  Te5  1  0.000000  0.500000  0.087270  1
  Pt  Pt6  1  0.000000  0.000000  0.900923  1
  Pt  Pt7  1  0.500000  0.500000  0.400923  1
  O  O8  1  0.253605  0.170096  0.738421  1
  O  O9  1  0.295524  0.165998  0.411871  1
  O  O10  1  0.210425  0.179088  0.074298  1
  O  O11  1  0.710425  0.320912  0.574298  1
  O  O12  1  0.795524  0.334002  0.911871  1
  O  O13  1  0.753605  0.329904  0.238421  1
  O  O14  1  0.246395  0.670096  0.238421  1
  O  O15  1  0.204476  0.665998  0.911871  1
  O  O16  1  0.289575  0.679088  0.574298  1
  O  O17  1  0.789575  0.820912  0.074298  1
  O  O18  1  0.704476  0.834002  0.411871  1
  O  O19  1  0.746395  0.829904  0.738421  1
