# generated using pymatgen
data_Pr2YHoLu4(WO6)4
_symmetry_space_group_name_H-M   'P 1'
_cell_length_a   5.42646600
_cell_length_b   7.72509727
_cell_length_c   11.42576668
_cell_angle_alpha   75.77869730
_cell_angle_beta   90.00000000
_cell_angle_gamma   90.00000000
_symmetry_Int_Tables_number   1
_chemical_formula_structural   Pr2YHoLu4(WO6)4
_chemical_formula_sum   'Pr2 Y1 Ho1 Lu4 W4 O24'
_cell_volume   464.28947182
_cell_formula_units_Z   1
loop_
 _symmetry_equiv_pos_site_id
 _symmetry_equiv_pos_as_xyz
  1  'x, y, z'
loop_
 _atom_site_type_symbol
 _atom_site_label
 _atom_site_symmetry_multiplicity
 _atom_site_fract_x
 _atom_site_fract_y
 _atom_site_fract_z
 _atom_site_occupancy
  Pr  Pr0  1  0.314243  0.500000  0.750000  1
  Pr  Pr1  1  0.686004  0.500000  0.250000  1
  Y  Y2  1  0.254994  0.000000  0.750000  1
  Ho  Ho3  1  0.744777  0.000000  0.250000  1
  Lu  Lu4  1  0.184067  0.796620  0.078024  1
  Lu  Lu5  1  0.184067  0.203380  0.421976  1
  Lu  Lu6  1  0.815739  0.203494  0.922361  1
  Lu  Lu7  1  0.815739  0.796506  0.577639  1
  W  W8  1  0.745512  0.728798  0.884825  1
  W  W9  1  0.254583  0.729462  0.384488  1
  W  W10  1  0.745512  0.271202  0.615175  1
  W  W11  1  0.254583  0.270538  0.115512  1
  O  O12  1  0.541386  0.158465  0.067812  1
  O  O13  1  0.046205  0.055929  0.102641  1
  O  O14  1  0.013332  0.722656  0.767811  1
  O  O15  1  0.459052  0.159253  0.567148  1
  O  O16  1  0.343236  0.492239  0.387539  1
  O  O17  1  0.952437  0.056184  0.601831  1
  O  O18  1  0.548452  0.796939  0.724596  1
  O  O19  1  0.452709  0.798072  0.224558  1
  O  O20  1  0.140394  0.643503  0.546289  1
  O  O21  1  0.046205  0.944071  0.397359  1
  O  O22  1  0.459052  0.840747  0.932852  1
  O  O23  1  0.452709  0.201928  0.275442  1
  O  O24  1  0.859948  0.356996  0.453477  1
  O  O25  1  0.656586  0.491778  0.887817  1
  O  O26  1  0.343236  0.507761  0.112461  1
  O  O27  1  0.952437  0.943816  0.898169  1
  O  O28  1  0.541386  0.841535  0.432188  1
  O  O29  1  0.986353  0.276592  0.232376  1
  O  O30  1  0.548452  0.203061  0.775404  1
  O  O31  1  0.859948  0.643004  0.046523  1
  O  O32  1  0.013332  0.277344  0.732189  1
  O  O33  1  0.140394  0.356497  0.953711  1
  O  O34  1  0.986353  0.723408  0.267624  1
  O  O35  1  0.656586  0.508222  0.612183  1
