# generated using pymatgen
data_Nd8ZnCu2Si12Pt
_symmetry_space_group_name_H-M   'P 1'
_cell_length_a   8.16130300
_cell_length_b   8.16130299
_cell_length_c   8.54689300
_cell_angle_alpha   90.00000000
_cell_angle_beta   90.00000000
_cell_angle_gamma   119.99999600
_symmetry_Int_Tables_number   1
_chemical_formula_structural   Nd8ZnCu2Si12Pt
_chemical_formula_sum   'Nd8 Zn1 Cu2 Si12 Pt1'
_cell_volume   493.01248725
_cell_formula_units_Z   1
loop_
 _symmetry_equiv_pos_site_id
 _symmetry_equiv_pos_as_xyz
  1  'x, y, z'
loop_
 _atom_site_type_symbol
 _atom_site_label
 _atom_site_symmetry_multiplicity
 _atom_site_fract_x
 _atom_site_fract_y
 _atom_site_fract_z
 _atom_site_occupancy
  Nd  Nd0  1  0.499118  0.500882  0.749938  1
  Nd  Nd1  1  0.499185  0.500815  0.250066  1
  Nd  Nd2  1  0.001766  0.500882  0.749938  1
  Nd  Nd3  1  0.001631  0.500815  0.250066  1
  Nd  Nd4  1  0.499118  0.998234  0.749938  1
  Nd  Nd5  1  0.499185  0.998369  0.250066  1
  Nd  Nd6  1  0.000000  0.000000  0.749831  1
  Nd  Nd7  1  0.000000  0.000000  0.250189  1
  Zn  Zn8  1  0.666667  0.333333  0.999817  1
  Cu  Cu9  1  0.333333  0.666667  0.000637  1
  Cu  Cu10  1  0.333333  0.666667  0.499658  1
  Si  Si11  1  0.834717  0.165283  0.000068  1
  Si  Si12  1  0.170321  0.829679  0.999906  1
  Si  Si13  1  0.330565  0.165283  0.000068  1
  Si  Si14  1  0.168450  0.831550  0.499886  1
  Si  Si15  1  0.659358  0.829679  0.999906  1
  Si  Si16  1  0.833513  0.166487  0.500115  1
  Si  Si17  1  0.834717  0.669435  0.000068  1
  Si  Si18  1  0.663097  0.831550  0.499886  1
  Si  Si19  1  0.170321  0.340642  0.999906  1
  Si  Si20  1  0.332974  0.166487  0.500115  1
  Si  Si21  1  0.168450  0.336903  0.499886  1
  Si  Si22  1  0.833513  0.667026  0.500115  1
  Pt  Pt23  1  0.666667  0.333333  0.499927  1
