# generated using pymatgen
data_Dy4Ta(ReN4)3
_symmetry_space_group_name_H-M   'P 1'
_cell_length_a   7.39897788
_cell_length_b   7.45321761
_cell_length_c   6.32834793
_cell_angle_alpha   72.45158385
_cell_angle_beta   73.21111242
_cell_angle_gamma   81.58317518
_symmetry_Int_Tables_number   1
_chemical_formula_structural   Dy4Ta(ReN4)3
_chemical_formula_sum   'Dy4 Ta1 Re3 N12'
_cell_volume   317.88789985
_cell_formula_units_Z   1
loop_
 _symmetry_equiv_pos_site_id
 _symmetry_equiv_pos_as_xyz
  1  'x, y, z'
loop_
 _atom_site_type_symbol
 _atom_site_label
 _atom_site_symmetry_multiplicity
 _atom_site_fract_x
 _atom_site_fract_y
 _atom_site_fract_z
 _atom_site_occupancy
  Dy  Dy0  1  0.908262  0.091926  0.751521  1
  Dy  Dy1  1  0.098211  0.907988  0.247097  1
  Dy  Dy2  1  0.705106  0.275710  0.254204  1
  Dy  Dy3  1  0.286431  0.711174  0.750984  1
  Ta  Ta4  1  0.624554  0.795372  0.280731  1
  Re  Re5  1  0.200760  0.378493  0.218216  1
  Re  Re6  1  0.377295  0.205884  0.719461  1
  Re  Re7  1  0.795495  0.619051  0.785733  1
  N  N8  1  0.664191  0.617743  0.081538  1
  N  N9  1  0.370340  0.877232  0.352132  1
  N  N10  1  0.357796  0.331882  0.420210  1
  N  N11  1  0.127939  0.627549  0.157231  1
  N  N12  1  0.003333  0.224171  0.334091  1
  N  N13  1  0.791152  0.001627  0.147028  1
  N  N14  1  0.226336  0.005211  0.837399  1
  N  N15  1  0.629826  0.138064  0.655695  1
  N  N16  1  0.331218  0.361837  0.919126  1
  N  N17  1  0.886692  0.381843  0.823998  1
  N  N18  1  0.628057  0.663929  0.601268  1
  N  N19  1  0.987005  0.783312  0.662336  1
