# generated using pymatgen
data_DyY5Al24GaOs7
_symmetry_space_group_name_H-M   'P 1'
_cell_length_a   8.86465254
_cell_length_b   8.86465317
_cell_length_c   9.55323204
_cell_angle_alpha   90.12895061
_cell_angle_beta   89.87105302
_cell_angle_gamma   119.86714509
_symmetry_Int_Tables_number   1
_chemical_formula_structural   DyY5Al24GaOs7
_chemical_formula_sum   'Dy1 Y5 Al24 Ga1 Os7'
_cell_volume   651.00272350
_cell_formula_units_Z   1
loop_
 _symmetry_equiv_pos_site_id
 _symmetry_equiv_pos_as_xyz
  1  'x, y, z'
loop_
 _atom_site_type_symbol
 _atom_site_label
 _atom_site_symmetry_multiplicity
 _atom_site_fract_x
 _atom_site_fract_y
 _atom_site_fract_z
 _atom_site_occupancy
  Dy  Dy0  1  0.805688  0.194312  0.743948  1
  Y  Y1  1  0.191821  0.384966  0.245496  1
  Y  Y2  1  0.808191  0.614984  0.754504  1
  Y  Y3  1  0.615034  0.808179  0.245496  1
  Y  Y4  1  0.385016  0.191809  0.754504  1
  Y  Y5  1  0.194330  0.805670  0.255965  1
  Al  Al6  1  0.327201  0.672799  0.022028  1
  Al  Al7  1  0.672813  0.327187  0.977920  1
  Al  Al8  1  0.665942  0.334058  0.518593  1
  Al  Al9  1  0.334085  0.665915  0.481454  1
  Al  Al10  1  0.162554  0.325726  0.571582  1
  Al  Al11  1  0.837389  0.674253  0.428458  1
  Al  Al12  1  0.674274  0.837446  0.571582  1
  Al  Al13  1  0.852978  0.678816  0.082000  1
  Al  Al14  1  0.325747  0.162611  0.428458  1
  Al  Al15  1  0.146952  0.321157  0.917953  1
  Al  Al16  1  0.163033  0.836967  0.576230  1
  Al  Al17  1  0.321184  0.147022  0.082000  1
  Al  Al18  1  0.836964  0.163036  0.423850  1
  Al  Al19  1  0.678843  0.853048  0.917953  1
  Al  Al20  1  0.836785  0.163215  0.076939  1
  Al  Al21  1  0.163212  0.836788  0.922993  1
  Al  Al22  1  0.561972  0.121052  0.249626  1
  Al  Al23  1  0.438059  0.878964  0.750377  1
  Al  Al24  1  0.878948  0.438028  0.249626  1
  Al  Al25  1  0.121036  0.561941  0.750377  1
  Al  Al26  1  0.565713  0.434287  0.258157  1
  Al  Al27  1  0.434283  0.565717  0.741834  1
  Al  Al28  1  0.998782  0.001218  0.250804  1
  Al  Al29  1  0.001138  0.998862  0.749199  1
  Ga  Ga30  1  0.499997  0.500003  0.999994  1
  Os  Os31  1  0.500059  0.000054  0.999960  1
  Os  Os32  1  0.999946  0.499941  0.999960  1
  Os  Os33  1  0.500103  0.000083  0.500081  1
  Os  Os34  1  0.999917  0.499897  0.500081  1
  Os  Os35  1  0.500003  0.499997  0.500014  1
  Os  Os36  1  0.999997  0.000003  0.000043  1
  Os  Os37  1  0.000007  0.999993  0.499961  1
