# generated using pymatgen
data_LaNdSi3Ni
_symmetry_space_group_name_H-M   'P 1'
_cell_length_a   8.11051016
_cell_length_b   8.11050923
_cell_length_c   4.31121000
_cell_angle_alpha   90.00000000
_cell_angle_beta   90.00000000
_cell_angle_gamma   120.30287363
_symmetry_Int_Tables_number   1
_chemical_formula_structural   LaNdSi3Ni
_chemical_formula_sum   'La2 Nd2 Si6 Ni2'
_cell_volume   244.84573913
_cell_formula_units_Z   2
loop_
 _symmetry_equiv_pos_site_id
 _symmetry_equiv_pos_as_xyz
  1  'x, y, z'
loop_
 _atom_site_type_symbol
 _atom_site_label
 _atom_site_symmetry_multiplicity
 _atom_site_fract_x
 _atom_site_fract_y
 _atom_site_fract_z
 _atom_site_occupancy
  La  La0  1  0.000000  0.500000  0.500000  1
  La  La1  1  0.500000  0.000000  0.500000  1
  Nd  Nd2  1  0.000000  0.000000  0.500000  1
  Nd  Nd3  1  0.500000  0.500000  0.500000  1
  Si  Si4  1  0.171963  0.340945  0.000000  1
  Si  Si5  1  0.659055  0.828037  0.000000  1
  Si  Si6  1  0.340945  0.171963  0.000000  1
  Si  Si7  1  0.169426  0.830574  0.000000  1
  Si  Si8  1  0.828037  0.659055  0.000000  1
  Si  Si9  1  0.830574  0.169426  0.000000  1
  Ni  Ni10  1  0.333082  0.666918  0.000000  1
  Ni  Ni11  1  0.666918  0.333082  0.000000  1
