# generated using pymatgen
data_Lu12Co4SnRu
_symmetry_space_group_name_H-M   'P 1'
_cell_length_a   8.10576023
_cell_length_b   8.10575965
_cell_length_c   8.10575983
_cell_angle_alpha   111.50961005
_cell_angle_beta   110.95468121
_cell_angle_gamma   106.00452700
_symmetry_Int_Tables_number   1
_chemical_formula_structural   Lu12Co4SnRu
_chemical_formula_sum   'Lu12 Co4 Sn1 Ru1'
_cell_volume   408.84969163
_cell_formula_units_Z   1
loop_
 _symmetry_equiv_pos_site_id
 _symmetry_equiv_pos_as_xyz
  1  'x, y, z'
loop_
 _atom_site_type_symbol
 _atom_site_label
 _atom_site_symmetry_multiplicity
 _atom_site_fract_x
 _atom_site_fract_y
 _atom_site_fract_z
 _atom_site_occupancy
  Lu  Lu0  1  0.415118  0.220295  0.194821  1
  Lu  Lu1  1  0.584882  0.779705  0.805179  1
  Lu  Lu2  1  0.025474  0.220295  0.805179  1
  Lu  Lu3  1  0.974526  0.779705  0.194821  1
  Lu  Lu4  1  0.183477  0.280857  0.464334  1
  Lu  Lu5  1  0.816523  0.719143  0.535666  1
  Lu  Lu6  1  0.183477  0.719143  0.902620  1
  Lu  Lu7  1  0.816523  0.280857  0.097380  1
  Lu  Lu8  1  0.313507  0.620412  0.306904  1
  Lu  Lu9  1  0.686493  0.379588  0.693096  1
  Lu  Lu10  1  0.313507  0.006603  0.693096  1
  Lu  Lu11  1  0.686493  0.993397  0.306904  1
  Co  Co12  1  0.373419  0.000000  0.373419  1
  Co  Co13  1  0.626581  0.000000  0.626581  1
  Co  Co14  1  0.112669  0.612669  0.500000  1
  Co  Co15  1  0.887331  0.387331  0.500000  1
  Sn  Sn16  1  0.500000  0.500000  0.000000  1
  Ru  Ru17  1  0.000000  0.000000  0.000000  1
