# generated using pymatgen
data_Y(NbCl3)6
_symmetry_space_group_name_H-M   'P 1'
_cell_length_a   10.19301568
_cell_length_b   10.19296700
_cell_length_c   10.19297202
_cell_angle_alpha   55.94325887
_cell_angle_beta   55.94273239
_cell_angle_gamma   55.94304227
_symmetry_Int_Tables_number   1
_chemical_formula_structural   Y(NbCl3)6
_chemical_formula_sum   'Y1 Nb6 Cl18'
_cell_volume   678.43973824
_cell_formula_units_Z   1
loop_
 _symmetry_equiv_pos_site_id
 _symmetry_equiv_pos_as_xyz
  1  'x, y, z'
loop_
 _atom_site_type_symbol
 _atom_site_label
 _atom_site_symmetry_multiplicity
 _atom_site_fract_x
 _atom_site_fract_y
 _atom_site_fract_z
 _atom_site_occupancy
  Y  Y0  1  0.000000  0.000000  0.000000  1
  Nb  Nb1  1  0.407986  0.299292  0.650592  1
  Nb  Nb2  1  0.349407  0.592014  0.700709  1
  Nb  Nb3  1  0.700708  0.349408  0.592014  1
  Nb  Nb4  1  0.299292  0.650592  0.407986  1
  Nb  Nb5  1  0.650593  0.407986  0.299291  1
  Nb  Nb6  1  0.592014  0.700708  0.349408  1
  Cl  Cl7  1  0.568721  0.161617  0.441790  1
  Cl  Cl8  1  0.224356  0.370186  0.908531  1
  Cl  Cl9  1  0.908531  0.224356  0.370187  1
  Cl  Cl10  1  0.370186  0.908531  0.224356  1
  Cl  Cl11  1  0.775644  0.629814  0.091469  1
  Cl  Cl12  1  0.091469  0.775644  0.629813  1
  Cl  Cl13  1  0.703216  0.958053  0.159941  1
  Cl  Cl14  1  0.958053  0.159942  0.703216  1
  Cl  Cl15  1  0.159941  0.703217  0.958054  1
  Cl  Cl16  1  0.296784  0.041947  0.840059  1
  Cl  Cl17  1  0.041947  0.840058  0.296784  1
  Cl  Cl18  1  0.840059  0.296783  0.041946  1
  Cl  Cl19  1  0.558210  0.431279  0.838382  1
  Cl  Cl20  1  0.161617  0.441791  0.568720  1
  Cl  Cl21  1  0.441790  0.568721  0.161618  1
  Cl  Cl22  1  0.431279  0.838383  0.558210  1
  Cl  Cl23  1  0.838383  0.558209  0.431280  1
  Cl  Cl24  1  0.629814  0.091469  0.775644  1
