# generated using pymatgen
data_LiTi5(AsRu)6
_symmetry_space_group_name_H-M   'P 1'
_cell_length_a   7.45844926
_cell_length_b   7.50756164
_cell_length_c   7.45844991
_cell_angle_alpha   127.92915215
_cell_angle_beta   120.99088205
_cell_angle_gamma   82.37079420
_symmetry_Int_Tables_number   1
_chemical_formula_structural   LiTi5(AsRu)6
_chemical_formula_sum   'Li1 Ti5 As6 Ru6'
_cell_volume   271.76721834
_cell_formula_units_Z   1
loop_
 _symmetry_equiv_pos_site_id
 _symmetry_equiv_pos_as_xyz
  1  'x, y, z'
loop_
 _atom_site_type_symbol
 _atom_site_label
 _atom_site_symmetry_multiplicity
 _atom_site_fract_x
 _atom_site_fract_y
 _atom_site_fract_z
 _atom_site_occupancy
  Li  Li0  1  0.476780  0.238950  0.262169  1
  Ti  Ti1  1  0.531751  0.804131  0.772380  1
  Ti  Ti2  1  0.749973  0.672074  0.422100  1
  Ti  Ti3  1  0.251945  0.668432  0.916487  1
  Ti  Ti4  1  0.052921  0.846943  0.294022  1
  Ti  Ti5  1  0.942557  0.234395  0.791838  1
  As  As6  1  0.831797  0.574915  0.744240  1
  As  As7  1  0.166338  0.914463  0.746293  1
  As  As8  1  0.668170  0.914463  0.248126  1
  As  As9  1  0.330676  0.574915  0.243118  1
  As  As10  1  0.290627  0.298046  0.507420  1
  As  As11  1  0.713984  0.218811  0.004828  1
  Ru  Ru12  1  0.663880  0.496185  0.914791  1
  Ru  Ru13  1  0.331732  0.246688  0.826875  1
  Ru  Ru14  1  0.919814  0.246688  0.414956  1
  Ru  Ru15  1  0.081394  0.496185  0.332306  1
  Ru  Ru16  1  0.006965  0.997056  0.008360  1
  Ru  Ru17  1  0.488695  0.997056  0.490090  1
