# generated using pymatgen
data_Zr3Np(AsI12)2
_symmetry_space_group_name_H-M   'P 1'
_cell_length_a   9.06344348
_cell_length_b   9.07512259
_cell_length_c   18.60562298
_cell_angle_alpha   77.09595887
_cell_angle_beta   92.47688947
_cell_angle_gamma   89.52899086
_symmetry_Int_Tables_number   1
_chemical_formula_structural   Zr3Np(AsI12)2
_chemical_formula_sum   'Zr3 Np1 As2 I24'
_cell_volume   1490.05425226
_cell_formula_units_Z   1
loop_
 _symmetry_equiv_pos_site_id
 _symmetry_equiv_pos_as_xyz
  1  'x, y, z'
loop_
 _atom_site_type_symbol
 _atom_site_label
 _atom_site_symmetry_multiplicity
 _atom_site_fract_x
 _atom_site_fract_y
 _atom_site_fract_z
 _atom_site_occupancy
  Zr  Zr0  1  0.885651  0.197455  0.913337  1
  Zr  Zr1  1  0.118756  0.815155  0.082962  1
  Zr  Zr2  1  0.390475  0.992383  0.255164  1
  Np  Np3  1  0.881046  0.829220  0.582556  1
  As  As4  1  0.129264  0.211388  0.403244  1
  As  As5  1  0.593153  0.997152  0.762121  1
  I  I6  1  0.108820  0.396205  0.916269  1
  I  I7  1  0.588505  0.763440  0.255750  1
  I  I8  1  0.110681  0.049307  0.585009  1
  I  I9  1  0.346688  0.384523  0.423408  1
  I  I10  1  0.129299  0.785981  0.241763  1
  I  I11  1  0.133005  0.229886  0.255563  1
  I  I12  1  0.109197  0.937962  0.924401  1
  I  I13  1  0.406493  0.223471  0.744693  1
  I  I14  1  0.898472  0.609422  0.090683  1
  I  I15  1  0.877235  0.223948  0.760044  1
  I  I16  1  0.409987  0.775888  0.761350  1
  I  I17  1  0.905975  0.397427  0.402146  1
  I  I18  1  0.581388  0.226957  0.243468  1
  I  I19  1  0.660041  0.063255  0.581529  1
  I  I20  1  0.351477  0.918563  0.407940  1
  I  I21  1  0.886238  0.758234  0.741044  1
  I  I22  1  0.101677  0.600897  0.586631  1
  I  I23  1  0.650595  0.379020  0.926074  1
  I  I24  1  0.326007  0.073492  0.095194  1
  I  I25  1  0.883053  0.062669  0.072532  1
  I  I26  1  0.652081  0.616958  0.577354  1
  I  I27  1  0.656463  0.938643  0.909663  1
  I  I28  1  0.353088  0.630215  0.073753  1
  I  I29  1  0.875189  0.910883  0.424357  1
