# generated using pymatgen
data_TbNd3(CuPt)2
_symmetry_space_group_name_H-M   'P 1'
_cell_length_a   4.52245600
_cell_length_b   5.70788609
_cell_length_c   7.37465675
_cell_angle_alpha   89.38443639
_cell_angle_beta   90.00000000
_cell_angle_gamma   90.00000000
_symmetry_Int_Tables_number   1
_chemical_formula_structural   TbNd3(CuPt)2
_chemical_formula_sum   'Tb1 Nd3 Cu2 Pt2'
_cell_volume   190.35592260
_cell_formula_units_Z   1
loop_
 _symmetry_equiv_pos_site_id
 _symmetry_equiv_pos_as_xyz
  1  'x, y, z'
loop_
 _atom_site_type_symbol
 _atom_site_label
 _atom_site_symmetry_multiplicity
 _atom_site_fract_x
 _atom_site_fract_y
 _atom_site_fract_z
 _atom_site_occupancy
  Tb  Tb0  1  0.500000  0.605546  0.814891  1
  Nd  Nd1  1  0.000000  0.115453  0.684292  1
  Nd  Nd2  1  0.000000  0.882640  0.181804  1
  Nd  Nd3  1  0.500000  0.392521  0.315252  1
  Cu  Cu4  1  0.500000  0.882184  0.468173  1
  Cu  Cu5  1  0.500000  0.114694  0.960339  1
  Pt  Pt6  1  0.000000  0.618656  0.545896  1
  Pt  Pt7  1  0.000000  0.388305  0.029356  1
