# generated using pymatgen
data_Dy5Ho11(AgIr)4
_symmetry_space_group_name_H-M   'P 1'
_cell_length_a   9.52176889
_cell_length_b   9.52052616
_cell_length_c   9.52052610
_cell_angle_alpha   60.01077773
_cell_angle_beta   59.99568232
_cell_angle_gamma   59.99568136
_symmetry_Int_Tables_number   1
_chemical_formula_structural   Dy5Ho11(AgIr)4
_chemical_formula_sum   'Dy5 Ho11 Ag4 Ir4'
_cell_volume   610.28338348
_cell_formula_units_Z   1
loop_
 _symmetry_equiv_pos_site_id
 _symmetry_equiv_pos_as_xyz
  1  'x, y, z'
loop_
 _atom_site_type_symbol
 _atom_site_label
 _atom_site_symmetry_multiplicity
 _atom_site_fract_x
 _atom_site_fract_y
 _atom_site_fract_z
 _atom_site_occupancy
  Dy  Dy0  1  0.813356  0.186644  0.186644  1
  Dy  Dy1  1  0.813317  0.186668  0.813339  1
  Dy  Dy2  1  0.186675  0.813339  0.186668  1
  Dy  Dy3  1  0.813317  0.813339  0.186668  1
  Dy  Dy4  1  0.186675  0.186668  0.813339  1
  Ho  Ho5  1  0.601814  0.601991  0.601991  1
  Ho  Ho6  1  0.601895  0.601887  0.194323  1
  Ho  Ho7  1  0.601895  0.194323  0.601887  1
  Ho  Ho8  1  0.194205  0.601991  0.601991  1
  Ho  Ho9  1  0.061614  0.438386  0.438386  1
  Ho  Ho10  1  0.438448  0.061552  0.061552  1
  Ho  Ho11  1  0.438370  0.061597  0.438452  1
  Ho  Ho12  1  0.061581  0.438452  0.061597  1
  Ho  Ho13  1  0.438370  0.438452  0.061597  1
  Ho  Ho14  1  0.061581  0.061597  0.438452  1
  Ho  Ho15  1  0.186878  0.813122  0.813122  1
  Ag  Ag16  1  0.832201  0.832088  0.832088  1
  Ag  Ag17  1  0.832109  0.832093  0.503691  1
  Ag  Ag18  1  0.832109  0.503691  0.832093  1
  Ag  Ag19  1  0.503623  0.832088  0.832088  1
  Ir  Ir20  1  0.392715  0.392709  0.392709  1
  Ir  Ir21  1  0.392693  0.392807  0.821810  1
  Ir  Ir22  1  0.392693  0.821810  0.392807  1
  Ir  Ir23  1  0.821868  0.392709  0.392709  1
