# generated using pymatgen
data_Ba6Ho(LuS4)3
_symmetry_space_group_name_H-M   'P 1'
_cell_length_a   8.48137927
_cell_length_b   8.48137749
_cell_length_c   8.48137800
_cell_angle_alpha   92.75661031
_cell_angle_beta   92.75660973
_cell_angle_gamma   92.75662072
_symmetry_Int_Tables_number   1
_chemical_formula_structural   Ba6Ho(LuS4)3
_chemical_formula_sum   'Ba6 Ho1 Lu3 S12'
_cell_volume   607.90906765
_cell_formula_units_Z   1
loop_
 _symmetry_equiv_pos_site_id
 _symmetry_equiv_pos_as_xyz
  1  'x, y, z'
loop_
 _atom_site_type_symbol
 _atom_site_label
 _atom_site_symmetry_multiplicity
 _atom_site_fract_x
 _atom_site_fract_y
 _atom_site_fract_z
 _atom_site_occupancy
  Ba  Ba0  1  0.372266  0.750000  0.127734  1
  Ba  Ba1  1  0.127734  0.372266  0.750000  1
  Ba  Ba2  1  0.750000  0.127734  0.372266  1
  Ba  Ba3  1  0.627842  0.250000  0.872158  1
  Ba  Ba4  1  0.872158  0.627842  0.250000  1
  Ba  Ba5  1  0.250000  0.872158  0.627842  1
  Ho  Ho6  1  0.250000  0.250000  0.250000  1
  Lu  Lu7  1  0.500929  0.500929  0.500929  1
  Lu  Lu8  1  0.999071  0.999071  0.999071  1
  Lu  Lu9  1  0.750000  0.750000  0.750000  1
  S  S10  1  0.537283  0.407071  0.201089  1
  S  S11  1  0.201089  0.537283  0.407071  1
  S  S12  1  0.407071  0.201089  0.537283  1
  S  S13  1  0.962717  0.298911  0.092929  1
  S  S14  1  0.092929  0.962717  0.298911  1
  S  S15  1  0.298911  0.092929  0.962717  1
  S  S16  1  0.465961  0.595163  0.800330  1
  S  S17  1  0.800330  0.465961  0.595163  1
  S  S18  1  0.595163  0.800330  0.465961  1
  S  S19  1  0.034039  0.699670  0.904837  1
  S  S20  1  0.699670  0.904837  0.034039  1
  S  S21  1  0.904837  0.034039  0.699670  1
