# generated using pymatgen
data_Dy4Ho3Lu3(In2Pt)4
_symmetry_space_group_name_H-M   'P 1'
_cell_length_a   3.60881700
_cell_length_b   8.13092127
_cell_length_c   18.13322241
_cell_angle_alpha   89.84899399
_cell_angle_beta   90.00000000
_cell_angle_gamma   90.00000000
_symmetry_Int_Tables_number   1
_chemical_formula_structural   Dy4Ho3Lu3(In2Pt)4
_chemical_formula_sum   'Dy4 Ho3 Lu3 In8 Pt4'
_cell_volume   532.08142253
_cell_formula_units_Z   1
loop_
 _symmetry_equiv_pos_site_id
 _symmetry_equiv_pos_as_xyz
  1  'x, y, z'
loop_
 _atom_site_type_symbol
 _atom_site_label
 _atom_site_symmetry_multiplicity
 _atom_site_fract_x
 _atom_site_fract_y
 _atom_site_fract_z
 _atom_site_occupancy
  Dy  Dy0  1  0.000000  0.257564  0.718982  1
  Dy  Dy1  1  0.000000  0.741992  0.281265  1
  Dy  Dy2  1  0.000000  0.999528  0.999556  1
  Dy  Dy3  1  0.000000  0.500212  0.500179  1
  Ho  Ho4  1  0.000000  0.617157  0.084829  1
  Ho  Ho5  1  0.000000  0.243213  0.220007  1
  Ho  Ho6  1  0.000000  0.757669  0.780256  1
  Lu  Lu7  1  0.000000  0.116939  0.414217  1
  Lu  Lu8  1  0.000000  0.883104  0.586007  1
  Lu  Lu9  1  0.000000  0.383241  0.913668  1
  In  In10  1  0.500000  0.419824  0.351675  1
  In  In11  1  0.500000  0.579928  0.648967  1
  In  In12  1  0.500000  0.078945  0.850770  1
  In  In13  1  0.500000  0.923565  0.149660  1
  In  In14  1  0.500000  0.293562  0.065001  1
  In  In15  1  0.500000  0.704409  0.933459  1
  In  In16  1  0.500000  0.203022  0.564583  1
  In  In17  1  0.500000  0.797194  0.435675  1
  Pt  Pt18  1  0.500000  0.027066  0.305299  1
  Pt  Pt19  1  0.500000  0.973089  0.694934  1
  Pt  Pt20  1  0.500000  0.473869  0.804668  1
  Pt  Pt21  1  0.500000  0.524910  0.196343  1
