# generated using pymatgen
data_La7Nd(B2Rh5)4
_symmetry_space_group_name_H-M   'P 1'
_cell_length_a   5.55955805
_cell_length_b   5.56058337
_cell_length_c   21.25645016
_cell_angle_alpha   89.99385142
_cell_angle_beta   90.01388377
_cell_angle_gamma   119.98322113
_symmetry_Int_Tables_number   1
_chemical_formula_structural   La7Nd(B2Rh5)4
_chemical_formula_sum   'La7 Nd1 B8 Rh20'
_cell_volume   569.18754384
_cell_formula_units_Z   1
loop_
 _symmetry_equiv_pos_site_id
 _symmetry_equiv_pos_as_xyz
  1  'x, y, z'
loop_
 _atom_site_type_symbol
 _atom_site_label
 _atom_site_symmetry_multiplicity
 _atom_site_fract_x
 _atom_site_fract_y
 _atom_site_fract_z
 _atom_site_occupancy
  La  La0  1  0.666617  0.333321  0.521587  1
  La  La1  1  0.333429  0.666656  0.478750  1
  La  La2  1  0.333278  0.666649  0.020815  1
  La  La3  1  0.666653  0.333292  0.978308  1
  La  La4  1  0.666654  0.333375  0.673823  1
  La  La5  1  0.333405  0.666598  0.326011  1
  La  La6  1  0.333379  0.666637  0.173691  1
  Nd  Nd7  1  0.666659  0.333381  0.825418  1
  B  B8  1  0.999955  0.000021  0.677997  1
  B  B9  1  0.000015  0.999967  0.322433  1
  B  B10  1  0.000012  0.999960  0.177539  1
  B  B11  1  0.999969  0.000023  0.822439  1
  B  B12  1  0.666682  0.333301  0.325413  1
  B  B13  1  0.333299  0.666686  0.675039  1
  B  B14  1  0.333296  0.666670  0.825483  1
  B  B15  1  0.666664  0.333296  0.174589  1
  Rh  Rh16  1  0.000005  0.000012  0.500118  1
  Rh  Rh17  1  0.000016  0.999935  0.999838  1
  Rh  Rh18  1  0.167622  0.334930  0.750340  1
  Rh  Rh19  1  0.167378  0.832673  0.750330  1
  Rh  Rh20  1  0.664981  0.832681  0.750363  1
  Rh  Rh21  1  0.832734  0.665102  0.250016  1
  Rh  Rh22  1  0.832419  0.167247  0.250019  1
  Rh  Rh23  1  0.334810  0.167202  0.250025  1
  Rh  Rh24  1  0.163005  0.326195  0.609931  1
  Rh  Rh25  1  0.162939  0.836863  0.609928  1
  Rh  Rh26  1  0.673806  0.837059  0.609932  1
  Rh  Rh27  1  0.836969  0.673463  0.390261  1
  Rh  Rh28  1  0.836929  0.163342  0.390259  1
  Rh  Rh29  1  0.326521  0.163168  0.390266  1
  Rh  Rh30  1  0.836683  0.673616  0.109777  1
  Rh  Rh31  1  0.836823  0.163152  0.109781  1
  Rh  Rh32  1  0.326314  0.163183  0.109778  1
  Rh  Rh33  1  0.163024  0.326204  0.889903  1
  Rh  Rh34  1  0.163154  0.837045  0.889891  1
  Rh  Rh35  1  0.673901  0.837096  0.889907  1
