# generated using pymatgen
data_PrSi4PdRh5
_symmetry_space_group_name_H-M   'P 1'
_cell_length_a   7.03653300
_cell_length_b   7.09494924
_cell_length_c   3.84049000
_cell_angle_alpha   90.00000000
_cell_angle_beta   90.00000000
_cell_angle_gamma   119.72801449
_symmetry_Int_Tables_number   1
_chemical_formula_structural   PrSi4PdRh5
_chemical_formula_sum   'Pr1 Si4 Pd1 Rh5'
_cell_volume   166.49801220
_cell_formula_units_Z   1
loop_
 _symmetry_equiv_pos_site_id
 _symmetry_equiv_pos_as_xyz
  1  'x, y, z'
loop_
 _atom_site_type_symbol
 _atom_site_label
 _atom_site_symmetry_multiplicity
 _atom_site_fract_x
 _atom_site_fract_y
 _atom_site_fract_z
 _atom_site_occupancy
  Pr  Pr0  1  0.997278  0.994556  0.000000  1
  Si  Si1  1  0.337788  0.675577  0.000000  1
  Si  Si2  1  0.407492  0.199393  0.499999  1
  Si  Si3  1  0.791901  0.199393  0.499999  1
  Si  Si4  1  0.798436  0.596870  0.499999  1
  Pd  Pd5  1  0.198998  0.397997  0.499999  1
  Rh  Rh6  1  0.533442  0.066884  0.000000  1
  Rh  Rh7  1  0.935459  0.467371  0.000000  1
  Rh  Rh8  1  0.531912  0.467371  0.000000  1
  Rh  Rh9  1  0.200110  0.800628  0.499999  1
  Rh  Rh10  1  0.600518  0.800628  0.499999  1
