# generated using pymatgen
data_Ta6GaPbS12
_symmetry_space_group_name_H-M   'P 1'
_cell_length_a   5.81147400
_cell_length_b   5.81147476
_cell_length_c   15.08807600
_cell_angle_alpha   90.00000000
_cell_angle_beta   90.00000000
_cell_angle_gamma   119.99999565
_symmetry_Int_Tables_number   1
_chemical_formula_structural   Ta6GaPbS12
_chemical_formula_sum   'Ta6 Ga1 Pb1 S12'
_cell_volume   441.30329399
_cell_formula_units_Z   1
loop_
 _symmetry_equiv_pos_site_id
 _symmetry_equiv_pos_as_xyz
  1  'x, y, z'
loop_
 _atom_site_type_symbol
 _atom_site_label
 _atom_site_symmetry_multiplicity
 _atom_site_fract_x
 _atom_site_fract_y
 _atom_site_fract_z
 _atom_site_occupancy
  Ta  Ta0  1  0.000000  0.000000  0.249782  1
  Ta  Ta1  1  0.000000  0.000000  0.750218  1
  Ta  Ta2  1  0.333333  0.666667  0.250755  1
  Ta  Ta3  1  0.666667  0.333333  0.749245  1
  Ta  Ta4  1  0.666667  0.333333  0.250755  1
  Ta  Ta5  1  0.333333  0.666667  0.749245  1
  Ga  Ga6  1  0.000000  0.000000  0.500000  1
  Pb  Pb7  1  0.000000  0.000000  0.000000  1
  S  S8  1  0.337342  0.000000  0.146677  1
  S  S9  1  0.000000  0.337342  0.146677  1
  S  S10  1  0.662658  0.662658  0.146677  1
  S  S11  1  0.332321  0.332321  0.646744  1
  S  S12  1  0.667679  0.667679  0.353256  1
  S  S13  1  0.667679  0.000000  0.646744  1
  S  S14  1  0.000000  0.667679  0.646744  1
  S  S15  1  0.000000  0.662658  0.853323  1
  S  S16  1  0.337342  0.337342  0.853323  1
  S  S17  1  0.000000  0.332321  0.353256  1
  S  S18  1  0.332321  0.000000  0.353256  1
  S  S19  1  0.662658  0.000000  0.853323  1
