# generated using pymatgen
data_Th4Mg2Ga3Si
_symmetry_space_group_name_H-M   'P 1'
_cell_length_a   7.49277549
_cell_length_b   7.49277549
_cell_length_c   4.41855900
_cell_angle_alpha   90.00000000
_cell_angle_beta   90.00000000
_cell_angle_gamma   90.55060254
_symmetry_Int_Tables_number   1
_chemical_formula_structural   Th4Mg2Ga3Si
_chemical_formula_sum   'Th4 Mg2 Ga3 Si1'
_cell_volume   248.05389156
_cell_formula_units_Z   1
loop_
 _symmetry_equiv_pos_site_id
 _symmetry_equiv_pos_as_xyz
  1  'x, y, z'
loop_
 _atom_site_type_symbol
 _atom_site_label
 _atom_site_symmetry_multiplicity
 _atom_site_fract_x
 _atom_site_fract_y
 _atom_site_fract_z
 _atom_site_occupancy
  Th  Th0  1  0.678810  0.178810  0.500000  1
  Th  Th1  1  0.173436  0.323927  0.500000  1
  Th  Th2  1  0.823927  0.673436  0.500000  1
  Th  Th3  1  0.323568  0.823568  0.500000  1
  Mg  Mg4  1  0.999390  0.000190  0.000000  1
  Mg  Mg5  1  0.500190  0.499390  0.000000  1
  Ga  Ga6  1  0.377535  0.122880  0.000000  1
  Ga  Ga7  1  0.622880  0.877535  0.000000  1
  Ga  Ga8  1  0.120491  0.620491  0.000000  1
  Si  Si9  1  0.879772  0.379772  0.000000  1
