# generated using pymatgen
data_CeNiPt3Au
_symmetry_space_group_name_H-M   'P 1'
_cell_length_a   5.20644536
_cell_length_b   5.20644562
_cell_length_c   5.20644578
_cell_angle_alpha   62.16313727
_cell_angle_beta   62.16313000
_cell_angle_gamma   62.16314377
_symmetry_Int_Tables_number   1
_chemical_formula_structural   CeNiPt3Au
_chemical_formula_sum   'Ce1 Ni1 Pt3 Au1'
_cell_volume   104.61780702
_cell_formula_units_Z   1
loop_
 _symmetry_equiv_pos_site_id
 _symmetry_equiv_pos_as_xyz
  1  'x, y, z'
loop_
 _atom_site_type_symbol
 _atom_site_label
 _atom_site_symmetry_multiplicity
 _atom_site_fract_x
 _atom_site_fract_y
 _atom_site_fract_z
 _atom_site_occupancy
  Ce  Ce0  1  0.000551  0.000551  0.000551  1
  Ni  Ni1  1  0.623544  0.623544  0.623544  1
  Pt  Pt2  1  0.624121  0.624121  0.125843  1
  Pt  Pt3  1  0.624121  0.125843  0.624121  1
  Pt  Pt4  1  0.125843  0.624121  0.624121  1
  Au  Au5  1  0.251818  0.251818  0.251818  1
