# generated using pymatgen
data_Zr8V9Tc7
_symmetry_space_group_name_H-M   'P 1'
_cell_length_a   5.25610694
_cell_length_b   5.25234028
_cell_length_c   16.99548148
_cell_angle_alpha   89.99999941
_cell_angle_beta   90.13785870
_cell_angle_gamma   119.97629839
_symmetry_Int_Tables_number   1
_chemical_formula_structural   Zr8V9Tc7
_chemical_formula_sum   'Zr8 V9 Tc7'
_cell_volume   406.42756030
_cell_formula_units_Z   1
loop_
 _symmetry_equiv_pos_site_id
 _symmetry_equiv_pos_as_xyz
  1  'x, y, z'
loop_
 _atom_site_type_symbol
 _atom_site_label
 _atom_site_symmetry_multiplicity
 _atom_site_fract_x
 _atom_site_fract_y
 _atom_site_fract_z
 _atom_site_occupancy
  Zr  Zr0  1  0.999392  0.999853  0.094029  1
  Zr  Zr1  1  0.001235  0.000641  0.594748  1
  Zr  Zr2  1  0.000608  0.000462  0.905971  1
  Zr  Zr3  1  0.998765  0.999406  0.405252  1
  Zr  Zr4  1  0.333601  0.666491  0.844893  1
  Zr  Zr5  1  0.666999  0.332367  0.343147  1
  Zr  Zr6  1  0.666399  0.332890  0.155107  1
  Zr  Zr7  1  0.333001  0.665369  0.656853  1
  V  V8  1  0.499639  0.001529  0.999609  1
  V  V9  1  0.499836  0.500934  0.500042  1
  V  V10  1  0.000000  0.502200  0.000000  1
  V  V11  1  0.500361  0.501891  0.000391  1
  V  V12  1  0.500164  0.001098  0.499958  1
  V  V13  1  0.327228  0.164160  0.751425  1
  V  V14  1  0.672772  0.836933  0.248575  1
  V  V15  1  0.165678  0.836297  0.248190  1
  V  V16  1  0.834322  0.670618  0.751810  1
  Tc  Tc17  1  0.333761  0.667526  0.120504  1
  Tc  Tc18  1  0.661497  0.331450  0.625460  1
  Tc  Tc19  1  0.666239  0.333763  0.879496  1
  Tc  Tc20  1  0.338503  0.669954  0.374540  1
  Tc  Tc21  1  0.000000  0.501051  0.500000  1
  Tc  Tc22  1  0.161843  0.322481  0.248170  1
  Tc  Tc23  1  0.838157  0.160636  0.751830  1
