# generated using pymatgen
data_Ce2Er10CuTc3
_symmetry_space_group_name_H-M   'P 1'
_cell_length_a   6.31398200
_cell_length_b   7.24904826
_cell_length_c   9.24958200
_cell_angle_alpha   90.00000000
_cell_angle_beta   90.00000000
_cell_angle_gamma   90.01520711
_symmetry_Int_Tables_number   1
_chemical_formula_structural   Ce2Er10CuTc3
_chemical_formula_sum   'Ce2 Er10 Cu1 Tc3'
_cell_volume   423.35668494
_cell_formula_units_Z   1
loop_
 _symmetry_equiv_pos_site_id
 _symmetry_equiv_pos_as_xyz
  1  'x, y, z'
loop_
 _atom_site_type_symbol
 _atom_site_label
 _atom_site_symmetry_multiplicity
 _atom_site_fract_x
 _atom_site_fract_y
 _atom_site_fract_z
 _atom_site_occupancy
  Ce  Ce0  1  0.861616  0.555755  0.250000  1
  Ce  Ce1  1  0.629225  0.056429  0.250000  1
  Er  Er2  1  0.327663  0.678630  0.064704  1
  Er  Er3  1  0.161358  0.180669  0.441235  1
  Er  Er4  1  0.671929  0.320004  0.564187  1
  Er  Er5  1  0.837679  0.825417  0.935237  1
  Er  Er6  1  0.671929  0.320004  0.935813  1
  Er  Er7  1  0.837679  0.825417  0.564763  1
  Er  Er8  1  0.327663  0.678630  0.435296  1
  Er  Er9  1  0.161358  0.180669  0.058765  1
  Er  Er10  1  0.134369  0.457692  0.750000  1
  Er  Er11  1  0.372711  0.970902  0.750000  1
  Cu  Cu12  1  0.550026  0.612944  0.750000  1
  Tc  Tc13  1  0.001534  0.860591  0.250000  1
  Tc  Tc14  1  0.493766  0.361947  0.250000  1
  Tc  Tc15  1  0.959492  0.114301  0.750000  1
