# generated using pymatgen
data_Sr6HfMn2O12
_symmetry_space_group_name_H-M   'P 1'
_cell_length_a   8.78880345
_cell_length_b   8.78880423
_cell_length_c   6.93742844
_cell_angle_alpha   67.68246416
_cell_angle_beta   67.68245989
_cell_angle_gamma   36.84236076
_symmetry_Int_Tables_number   1
_chemical_formula_structural   Sr6HfMn2O12
_chemical_formula_sum   'Sr6 Hf1 Mn2 O12'
_cell_volume   294.45513091
_cell_formula_units_Z   1
loop_
 _symmetry_equiv_pos_site_id
 _symmetry_equiv_pos_as_xyz
  1  'x, y, z'
loop_
 _atom_site_type_symbol
 _atom_site_label
 _atom_site_symmetry_multiplicity
 _atom_site_fract_x
 _atom_site_fract_y
 _atom_site_fract_z
 _atom_site_occupancy
  Sr  Sr0  1  0.877265  0.877265  0.713616  1
  Sr  Sr1  1  0.218936  0.218936  0.709681  1
  Sr  Sr2  1  0.549356  0.549356  0.702629  1
  Sr  Sr3  1  0.450644  0.450644  0.297371  1
  Sr  Sr4  1  0.781064  0.781064  0.290319  1
  Sr  Sr5  1  0.122735  0.122735  0.286384  1
  Hf  Hf6  1  0.000000  0.000000  0.000000  1
  Mn  Mn7  1  0.667819  0.667819  0.999299  1
  Mn  Mn8  1  0.332181  0.332181  0.000701  1
  O  O9  1  0.944402  0.944402  0.327971  1
  O  O10  1  0.281153  0.281153  0.312761  1
  O  O11  1  0.615460  0.615460  0.312033  1
  O  O12  1  0.384540  0.384540  0.687967  1
  O  O13  1  0.718847  0.718847  0.687239  1
  O  O14  1  0.055598  0.055598  0.672029  1
  O  O15  1  0.500000  0.000000  0.000000  1
  O  O16  1  0.826988  0.346904  0.999945  1
  O  O17  1  0.173012  0.653096  0.000055  1
  O  O18  1  0.000000  0.500000  0.000000  1
  O  O19  1  0.346904  0.826988  0.999945  1
  O  O20  1  0.653096  0.173012  0.000055  1
