# generated using pymatgen
data_SmY5Si4(BRh6)2
_symmetry_space_group_name_H-M   'P 1'
_cell_length_a   5.54507000
_cell_length_b   5.54509084
_cell_length_c   14.65692100
_cell_angle_alpha   90.00000000
_cell_angle_beta   90.00000000
_cell_angle_gamma   120.00036230
_symmetry_Int_Tables_number   1
_chemical_formula_structural   SmY5Si4(BRh6)2
_chemical_formula_sum   'Sm1 Y5 Si4 B2 Rh12'
_cell_volume   390.29006043
_cell_formula_units_Z   1
loop_
 _symmetry_equiv_pos_site_id
 _symmetry_equiv_pos_as_xyz
  1  'x, y, z'
loop_
 _atom_site_type_symbol
 _atom_site_label
 _atom_site_symmetry_multiplicity
 _atom_site_fract_x
 _atom_site_fract_y
 _atom_site_fract_z
 _atom_site_occupancy
  Sm  Sm0  1  0.666667  0.333334  0.750000  1
  Y  Y1  1  0.666668  0.333336  0.971104  1
  Y  Y2  1  0.666668  0.333336  0.528896  1
  Y  Y3  1  0.333334  0.666670  0.042278  1
  Y  Y4  1  0.333334  0.666670  0.457722  1
  Y  Y5  1  0.333332  0.666666  0.250000  1
  Si  Si6  1  0.999998  0.999997  0.488856  1
  Si  Si7  1  0.000001  0.000003  0.750000  1
  Si  Si8  1  0.333331  0.666663  0.750000  1
  Si  Si9  1  0.999998  0.999997  0.011144  1
  B  B10  1  0.666674  0.333348  0.250000  1
  B  B11  1  0.999993  0.999989  0.250000  1
  Rh  Rh12  1  0.166140  0.332281  0.873578  1
  Rh  Rh13  1  0.166140  0.332281  0.626422  1
  Rh  Rh14  1  0.667715  0.833861  0.873578  1
  Rh  Rh15  1  0.332033  0.166015  0.350954  1
  Rh  Rh16  1  0.833983  0.667966  0.350953  1
  Rh  Rh17  1  0.833983  0.166014  0.350953  1
  Rh  Rh18  1  0.833983  0.166014  0.149047  1
  Rh  Rh19  1  0.332033  0.166015  0.149046  1
  Rh  Rh20  1  0.667715  0.833861  0.626422  1
  Rh  Rh21  1  0.166144  0.833861  0.626422  1
  Rh  Rh22  1  0.833983  0.667966  0.149047  1
  Rh  Rh23  1  0.166144  0.833861  0.873578  1
