# generated using pymatgen
data_Ca6Dy2Zn3Si12Pd
_symmetry_space_group_name_H-M   'P 1'
_cell_length_a   8.19996000
_cell_length_b   8.19995942
_cell_length_c   8.40090100
_cell_angle_alpha   90.00000000
_cell_angle_beta   90.00000000
_cell_angle_gamma   120.00000234
_symmetry_Int_Tables_number   1
_chemical_formula_structural   Ca6Dy2Zn3Si12Pd
_chemical_formula_sum   'Ca6 Dy2 Zn3 Si12 Pd1'
_cell_volume   489.19265229
_cell_formula_units_Z   1
loop_
 _symmetry_equiv_pos_site_id
 _symmetry_equiv_pos_as_xyz
  1  'x, y, z'
loop_
 _atom_site_type_symbol
 _atom_site_label
 _atom_site_symmetry_multiplicity
 _atom_site_fract_x
 _atom_site_fract_y
 _atom_site_fract_z
 _atom_site_occupancy
  Ca  Ca0  1  0.499168  0.998335  0.253443  1
  Ca  Ca1  1  0.497886  0.995774  0.746416  1
  Ca  Ca2  1  0.001665  0.500832  0.253443  1
  Ca  Ca3  1  0.004226  0.502114  0.746416  1
  Ca  Ca4  1  0.499168  0.500832  0.253443  1
  Ca  Ca5  1  0.497886  0.502114  0.746416  1
  Dy  Dy6  1  0.000000  0.000000  0.251992  1
  Dy  Dy7  1  0.000000  0.000000  0.748263  1
  Zn  Zn8  1  0.333333  0.666667  0.004585  1
  Zn  Zn9  1  0.666667  0.333333  0.996130  1
  Zn  Zn10  1  0.666667  0.333333  0.501485  1
  Si  Si11  1  0.164710  0.329422  0.998211  1
  Si  Si12  1  0.835953  0.671906  0.001741  1
  Si  Si13  1  0.670578  0.835290  0.998211  1
  Si  Si14  1  0.838649  0.677297  0.501246  1
  Si  Si15  1  0.328094  0.164047  0.001741  1
  Si  Si16  1  0.166464  0.332926  0.498716  1
  Si  Si17  1  0.164710  0.835290  0.998211  1
  Si  Si18  1  0.322703  0.161351  0.501246  1
  Si  Si19  1  0.835953  0.164047  0.001741  1
  Si  Si20  1  0.667074  0.833536  0.498716  1
  Si  Si21  1  0.838649  0.161351  0.501246  1
  Si  Si22  1  0.166464  0.833536  0.498716  1
  Pd  Pd23  1  0.333333  0.666667  0.498220  1
