# generated using pymatgen
data_Ti8Al15Os3Pt4
_symmetry_space_group_name_H-M   'P 1'
_cell_length_a   8.69271774
_cell_length_b   8.69095102
_cell_length_c   8.70572159
_cell_angle_alpha   120.04240439
_cell_angle_beta   119.89883403
_cell_angle_gamma   90.14613122
_symmetry_Int_Tables_number   1
_chemical_formula_structural   Ti8Al15Os3Pt4
_chemical_formula_sum   'Ti8 Al15 Os3 Pt4'
_cell_volume   464.88106759
_cell_formula_units_Z   1
loop_
 _symmetry_equiv_pos_site_id
 _symmetry_equiv_pos_as_xyz
  1  'x, y, z'
loop_
 _atom_site_type_symbol
 _atom_site_label
 _atom_site_symmetry_multiplicity
 _atom_site_fract_x
 _atom_site_fract_y
 _atom_site_fract_z
 _atom_site_occupancy
  Ti  Ti0  1  0.796840  0.288877  0.073004  1
  Ti  Ti1  1  0.213336  0.285397  0.494347  1
  Ti  Ti2  1  0.207451  0.708426  0.495292  1
  Ti  Ti3  1  0.208016  0.714815  0.922469  1
  Ti  Ti4  1  0.794488  0.720908  0.509054  1
  Ti  Ti5  1  0.787073  0.284898  0.505800  1
  Ti  Ti6  1  0.381502  0.120950  0.738852  1
  Ti  Ti7  1  0.372344  0.639026  0.254574  1
  Al  Al8  1  0.996535  0.496016  0.498306  1
  Al  Al9  1  0.154526  0.342105  0.186745  1
  Al  Al10  1  0.155201  0.967887  0.812969  1
  Al  Al11  1  0.151245  0.345961  0.807036  1
  Al  Al12  1  0.543981  0.347681  0.196795  1
  Al  Al13  1  0.846335  0.654574  0.811816  1
  Al  Al14  1  0.846641  0.038788  0.191649  1
  Al  Al15  1  0.844320  0.653697  0.187934  1
  Al  Al16  1  0.462205  0.653374  0.808477  1
  Al  Al17  1  0.374152  0.117270  0.256855  1
  Al  Al18  1  0.862789  0.123809  0.747385  1
  Al  Al19  1  0.619257  0.879942  0.261106  1
  Al  Al20  1  0.626025  0.361615  0.743931  1
  Al  Al21  1  0.626464  0.881840  0.742980  1
  Al  Al22  1  0.135526  0.876542  0.251584  1
  Os  Os23  1  0.001518  0.499890  0.002542  1
  Os  Os24  1  0.999520  0.999590  0.999550  1
  Os  Os25  1  0.498085  0.999453  0.500431  1
  Pt  Pt26  1  0.999012  0.998720  0.499347  1
  Pt  Pt27  1  0.499118  0.999003  0.999621  1
  Pt  Pt28  1  0.498184  0.499271  0.000106  1
  Pt  Pt29  1  0.498308  0.499671  0.499444  1
