# generated using pymatgen
data_Dy8SiGeBr12
_symmetry_space_group_name_H-M   'P 1'
_cell_length_a   4.06785600
_cell_length_b   13.23423300
_cell_length_c   14.03388000
_cell_angle_alpha   89.99992169
_cell_angle_beta   90.00000000
_cell_angle_gamma   90.00000000
_symmetry_Int_Tables_number   1
_chemical_formula_structural   Dy8SiGeBr12
_chemical_formula_sum   'Dy8 Si1 Ge1 Br12'
_cell_volume   755.51328585
_cell_formula_units_Z   1
loop_
 _symmetry_equiv_pos_site_id
 _symmetry_equiv_pos_as_xyz
  1  'x, y, z'
loop_
 _atom_site_type_symbol
 _atom_site_label
 _atom_site_symmetry_multiplicity
 _atom_site_fract_x
 _atom_site_fract_y
 _atom_site_fract_z
 _atom_site_occupancy
  Dy  Dy0  1  0.500000  0.119104  0.339796  1
  Dy  Dy1  1  0.500000  0.880896  0.660204  1
  Dy  Dy2  1  0.500000  0.617852  0.158509  1
  Dy  Dy3  1  0.500000  0.382148  0.841491  1
  Dy  Dy4  1  0.000000  0.119079  0.578995  1
  Dy  Dy5  1  0.000000  0.880921  0.421005  1
  Dy  Dy6  1  0.000000  0.617480  0.922092  1
  Dy  Dy7  1  0.000000  0.382520  0.077908  1
  Si  Si8  1  0.500000  0.500000  0.000000  1
  Ge  Ge9  1  0.500000  0.000000  0.500000  1
  Br  Br10  1  0.500000  0.243930  0.162719  1
  Br  Br11  1  0.500000  0.756070  0.837281  1
  Br  Br12  1  0.500000  0.744114  0.337532  1
  Br  Br13  1  0.500000  0.255886  0.662468  1
  Br  Br14  1  0.000000  0.255541  0.411465  1
  Br  Br15  1  0.000000  0.744459  0.588535  1
  Br  Br16  1  0.000000  0.755581  0.088684  1
  Br  Br17  1  0.000000  0.244419  0.911316  1
  Br  Br18  1  0.000000  0.001520  0.243028  1
  Br  Br19  1  0.000000  0.998480  0.756972  1
  Br  Br20  1  0.000000  0.501699  0.256989  1
  Br  Br21  1  0.000000  0.498301  0.743011  1
