# generated using pymatgen
data_Tb4Al17GaRh6
_symmetry_space_group_name_H-M   'P 1'
_cell_length_a   7.56010828
_cell_length_b   7.56010771
_cell_length_c   9.50228600
_cell_angle_alpha   90.00000000
_cell_angle_beta   90.00000000
_cell_angle_gamma   119.25496320
_symmetry_Int_Tables_number   1
_chemical_formula_structural   Tb4Al17GaRh6
_chemical_formula_sum   'Tb4 Al17 Ga1 Rh6'
_cell_volume   473.83427666
_cell_formula_units_Z   1
loop_
 _symmetry_equiv_pos_site_id
 _symmetry_equiv_pos_as_xyz
  1  'x, y, z'
loop_
 _atom_site_type_symbol
 _atom_site_label
 _atom_site_symmetry_multiplicity
 _atom_site_fract_x
 _atom_site_fract_y
 _atom_site_fract_z
 _atom_site_occupancy
  Tb  Tb0  1  0.994061  0.672648  0.250000  1
  Tb  Tb1  1  0.005460  0.328953  0.750000  1
  Tb  Tb2  1  0.672648  0.994061  0.250000  1
  Tb  Tb3  1  0.328953  0.005460  0.750000  1
  Al  Al4  1  0.871255  0.871255  0.750000  1
  Al  Al5  1  0.001625  0.335902  0.073774  1
  Al  Al6  1  0.998611  0.664402  0.925882  1
  Al  Al7  1  0.998611  0.664402  0.574118  1
  Al  Al8  1  0.335902  0.001625  0.426226  1
  Al  Al9  1  0.001625  0.335902  0.426226  1
  Al  Al10  1  0.664402  0.998611  0.574118  1
  Al  Al11  1  0.664402  0.998611  0.925882  1
  Al  Al12  1  0.335902  0.001625  0.073774  1
  Al  Al13  1  0.333292  0.333292  0.550981  1
  Al  Al14  1  0.666255  0.666255  0.450716  1
  Al  Al15  1  0.666255  0.666255  0.049284  1
  Al  Al16  1  0.333292  0.333292  0.949019  1
  Al  Al17  1  0.338322  0.549425  0.250000  1
  Al  Al18  1  0.661128  0.450916  0.750000  1
  Al  Al19  1  0.549425  0.338322  0.250000  1
  Al  Al20  1  0.450916  0.661128  0.750000  1
  Ga  Ga21  1  0.130208  0.130208  0.250000  1
  Rh  Rh22  1  0.671311  0.328050  0.000374  1
  Rh  Rh23  1  0.328050  0.671311  0.000374  1
  Rh  Rh24  1  0.328050  0.671311  0.499626  1
  Rh  Rh25  1  0.671311  0.328050  0.499626  1
  Rh  Rh26  1  0.999363  0.999363  0.997745  1
  Rh  Rh27  1  0.999363  0.999363  0.502255  1
