# generated using pymatgen
data_Dy4Al13Ga5Ir6
_symmetry_space_group_name_H-M   'P 1'
_cell_length_a   7.53881649
_cell_length_b   7.53508701
_cell_length_c   9.55710100
_cell_angle_alpha   90.00000000
_cell_angle_beta   90.00000000
_cell_angle_gamma   119.58302096
_symmetry_Int_Tables_number   1
_chemical_formula_structural   Dy4Al13Ga5Ir6
_chemical_formula_sum   'Dy4 Al13 Ga5 Ir6'
_cell_volume   472.12582695
_cell_formula_units_Z   1
loop_
 _symmetry_equiv_pos_site_id
 _symmetry_equiv_pos_as_xyz
  1  'x, y, z'
loop_
 _atom_site_type_symbol
 _atom_site_label
 _atom_site_symmetry_multiplicity
 _atom_site_fract_x
 _atom_site_fract_y
 _atom_site_fract_z
 _atom_site_occupancy
  Dy  Dy0  1  0.994918  0.669637  0.750000  1
  Dy  Dy1  1  0.001863  0.327716  0.250000  1
  Dy  Dy2  1  0.669549  0.995724  0.750000  1
  Dy  Dy3  1  0.330590  0.006358  0.250000  1
  Al  Al4  1  0.001907  0.334750  0.572573  1
  Al  Al5  1  0.999087  0.665464  0.427179  1
  Al  Al6  1  0.999087  0.665464  0.072821  1
  Al  Al7  1  0.334665  0.001628  0.927558  1
  Al  Al8  1  0.001907  0.334750  0.927427  1
  Al  Al9  1  0.664942  0.998209  0.073138  1
  Al  Al10  1  0.664942  0.998209  0.426862  1
  Al  Al11  1  0.334665  0.001628  0.572442  1
  Al  Al12  1  0.333714  0.334167  0.055493  1
  Al  Al13  1  0.666035  0.666116  0.946793  1
  Al  Al14  1  0.666035  0.666116  0.553207  1
  Al  Al15  1  0.333714  0.334167  0.444507  1
  Al  Al16  1  0.451860  0.661581  0.250000  1
  Ga  Ga17  1  0.127943  0.128007  0.750000  1
  Ga  Ga18  1  0.870766  0.870300  0.250000  1
  Ga  Ga19  1  0.338609  0.546872  0.750000  1
  Ga  Ga20  1  0.661654  0.454173  0.250000  1
  Ga  Ga21  1  0.547185  0.339060  0.750000  1
  Ir  Ir22  1  0.672208  0.327967  0.500339  1
  Ir  Ir23  1  0.329543  0.671745  0.497528  1
  Ir  Ir24  1  0.329543  0.671745  0.002472  1
  Ir  Ir25  1  0.672208  0.327967  0.999661  1
  Ir  Ir26  1  0.000431  0.000241  0.500169  1
  Ir  Ir27  1  0.000431  0.000241  0.999831  1
