# generated using pymatgen
data_Dy20Bi8Ir3Ru
_symmetry_space_group_name_H-M   'P 1'
_cell_length_a   8.00482944
_cell_length_b   9.01201000
_cell_length_c   12.50325179
_cell_angle_alpha   90.00000000
_cell_angle_beta   90.03014911
_cell_angle_gamma   90.00000000
_symmetry_Int_Tables_number   1
_chemical_formula_structural   Dy20Bi8Ir3Ru
_chemical_formula_sum   'Dy20 Bi8 Ir3 Ru1'
_cell_volume   901.97949544
_cell_formula_units_Z   1
loop_
 _symmetry_equiv_pos_site_id
 _symmetry_equiv_pos_as_xyz
  1  'x, y, z'
loop_
 _atom_site_type_symbol
 _atom_site_label
 _atom_site_symmetry_multiplicity
 _atom_site_fract_x
 _atom_site_fract_y
 _atom_site_fract_z
 _atom_site_occupancy
  Dy  Dy0  1  0.841950  0.750000  0.793379  1
  Dy  Dy1  1  0.157120  0.250000  0.205702  1
  Dy  Dy2  1  0.342447  0.250000  0.706011  1
  Dy  Dy3  1  0.655397  0.750000  0.295566  1
  Dy  Dy4  1  0.379424  0.750000  0.692629  1
  Dy  Dy5  1  0.623390  0.250000  0.305431  1
  Dy  Dy6  1  0.876005  0.250000  0.805912  1
  Dy  Dy7  1  0.122951  0.750000  0.193165  1
  Dy  Dy8  1  0.947445  0.750000  0.502822  1
  Dy  Dy9  1  0.053693  0.250000  0.497615  1
  Dy  Dy10  1  0.448236  0.250000  0.998366  1
  Dy  Dy11  1  0.552815  0.750000  0.001924  1
  Dy  Dy12  1  0.677179  0.041535  0.565014  1
  Dy  Dy13  1  0.323483  0.958145  0.435393  1
  Dy  Dy14  1  0.176828  0.959640  0.934212  1
  Dy  Dy15  1  0.323483  0.541855  0.435393  1
  Dy  Dy16  1  0.822033  0.041826  0.065717  1
  Dy  Dy17  1  0.677179  0.458465  0.565014  1
  Dy  Dy18  1  0.822033  0.458174  0.065717  1
  Dy  Dy19  1  0.176828  0.540360  0.934212  1
  Bi  Bi20  1  0.569303  0.491615  0.826914  1
  Bi  Bi21  1  0.430042  0.508876  0.173266  1
  Bi  Bi22  1  0.070192  0.508688  0.672989  1
  Bi  Bi23  1  0.430042  0.991124  0.173266  1
  Bi  Bi24  1  0.930523  0.492137  0.327430  1
  Bi  Bi25  1  0.569303  0.008385  0.826914  1
  Bi  Bi26  1  0.930523  0.007863  0.327430  1
  Bi  Bi27  1  0.070192  0.991312  0.672989  1
  Ir  Ir28  1  0.428655  0.250000  0.489737  1
  Ir  Ir29  1  0.068347  0.250000  0.990573  1
  Ir  Ir30  1  0.930873  0.750000  0.008639  1
  Ru  Ru31  1  0.572087  0.750000  0.510658  1
