# generated using pymatgen
data_Ba2In3SnPt4
_symmetry_space_group_name_H-M   'P 1'
_cell_length_a   4.95814977
_cell_length_b   4.74680600
_cell_length_c   10.74444424
_cell_angle_alpha   90.00000000
_cell_angle_beta   92.58003571
_cell_angle_gamma   90.00000000
_symmetry_Int_Tables_number   1
_chemical_formula_structural   Ba2In3SnPt4
_chemical_formula_sum   'Ba2 In3 Sn1 Pt4'
_cell_volume   252.61819008
_cell_formula_units_Z   1
loop_
 _symmetry_equiv_pos_site_id
 _symmetry_equiv_pos_as_xyz
  1  'x, y, z'
loop_
 _atom_site_type_symbol
 _atom_site_label
 _atom_site_symmetry_multiplicity
 _atom_site_fract_x
 _atom_site_fract_y
 _atom_site_fract_z
 _atom_site_occupancy
  Ba  Ba0  1  0.731620  0.750000  0.243076  1
  Ba  Ba1  1  0.265558  0.250001  0.757359  1
  In  In2  1  0.199850  0.250001  0.113968  1
  In  In3  1  0.746651  0.250001  0.499137  1
  In  In4  1  0.253091  0.750000  0.501360  1
  Sn  Sn5  1  0.803898  0.750000  0.888678  1
  Pt  Pt6  1  0.314941  0.750000  0.995556  1
  Pt  Pt7  1  0.233925  0.250001  0.370775  1
  Pt  Pt8  1  0.765654  0.750000  0.633351  1
  Pt  Pt9  1  0.684812  0.250001  0.996742  1
