# generated using pymatgen
data_LiNd4(FeO4)3
_symmetry_space_group_name_H-M   'P 1'
_cell_length_a   5.43792378
_cell_length_b   5.63665782
_cell_length_c   7.84535597
_cell_angle_alpha   89.97032339
_cell_angle_beta   89.95072321
_cell_angle_gamma   90.18797988
_symmetry_Int_Tables_number   1
_chemical_formula_structural   LiNd4(FeO4)3
_chemical_formula_sum   'Li1 Nd4 Fe3 O12'
_cell_volume   240.47220467
_cell_formula_units_Z   1
loop_
 _symmetry_equiv_pos_site_id
 _symmetry_equiv_pos_as_xyz
  1  'x, y, z'
loop_
 _atom_site_type_symbol
 _atom_site_label
 _atom_site_symmetry_multiplicity
 _atom_site_fract_x
 _atom_site_fract_y
 _atom_site_fract_z
 _atom_site_occupancy
  Li  Li0  1  0.000000  0.500000  0.500000  1
  Nd  Nd1  1  0.017044  0.937047  0.741993  1
  Nd  Nd2  1  0.509217  0.553507  0.257833  1
  Nd  Nd3  1  0.490783  0.446493  0.742167  1
  Nd  Nd4  1  0.982956  0.062953  0.258007  1
  Fe  Fe5  1  0.500000  0.000000  0.500000  1
  Fe  Fe6  1  0.500000  0.000000  0.000000  1
  Fe  Fe7  1  0.000000  0.500000  0.000000  1
  O  O8  1  0.690863  0.280002  0.456861  1
  O  O9  1  0.222852  0.190539  0.541515  1
  O  O10  1  0.791808  0.796928  0.053279  1
  O  O11  1  0.297119  0.705739  0.948108  1
  O  O12  1  0.309137  0.719998  0.543139  1
  O  O13  1  0.777148  0.809461  0.458485  1
  O  O14  1  0.208192  0.203072  0.946721  1
  O  O15  1  0.702881  0.294261  0.051892  1
  O  O16  1  0.083908  0.477761  0.238486  1
  O  O17  1  0.594730  0.025475  0.755469  1
  O  O18  1  0.405270  0.974525  0.244531  1
  O  O19  1  0.916092  0.522239  0.761514  1
