# generated using pymatgen
data_Lu3Zr(Al3Rh)6
_symmetry_space_group_name_H-M   'P 1'
_cell_length_a   7.50707165
_cell_length_b   7.49697785
_cell_length_c   9.34832600
_cell_angle_alpha   90.00000000
_cell_angle_beta   90.00000000
_cell_angle_gamma   119.48095260
_symmetry_Int_Tables_number   1
_chemical_formula_structural   Lu3Zr(Al3Rh)6
_chemical_formula_sum   'Lu3 Zr1 Al18 Rh6'
_cell_volume   458.00378430
_cell_formula_units_Z   1
loop_
 _symmetry_equiv_pos_site_id
 _symmetry_equiv_pos_as_xyz
  1  'x, y, z'
loop_
 _atom_site_type_symbol
 _atom_site_label
 _atom_site_symmetry_multiplicity
 _atom_site_fract_x
 _atom_site_fract_y
 _atom_site_fract_z
 _atom_site_occupancy
  Lu  Lu0  1  0.006686  0.325757  0.750000  1
  Lu  Lu1  1  0.672911  0.996137  0.250000  1
  Lu  Lu2  1  0.326875  0.007333  0.750000  1
  Zr  Zr3  1  0.996161  0.672174  0.250000  1
  Al  Al4  1  0.124755  0.122683  0.250000  1
  Al  Al5  1  0.870699  0.869902  0.750000  1
  Al  Al6  1  0.999575  0.337852  0.079731  1
  Al  Al7  1  0.000364  0.664251  0.925357  1
  Al  Al8  1  0.000364  0.664251  0.574643  1
  Al  Al9  1  0.333419  0.997767  0.420147  1
  Al  Al10  1  0.999575  0.337852  0.420269  1
  Al  Al11  1  0.663728  0.999393  0.577188  1
  Al  Al12  1  0.663728  0.999393  0.922812  1
  Al  Al13  1  0.333419  0.997767  0.079853  1
  Al  Al14  1  0.333345  0.333341  0.550066  1
  Al  Al15  1  0.669832  0.668299  0.443800  1
  Al  Al16  1  0.669832  0.668299  0.056200  1
  Al  Al17  1  0.333345  0.333341  0.949934  1
  Al  Al18  1  0.337429  0.552491  0.250000  1
  Al  Al19  1  0.659857  0.448769  0.750000  1
  Al  Al20  1  0.556693  0.343774  0.250000  1
  Al  Al21  1  0.447268  0.658362  0.750000  1
  Rh  Rh22  1  0.672954  0.327490  0.000760  1
  Rh  Rh23  1  0.327567  0.673095  0.001462  1
  Rh  Rh24  1  0.327567  0.673095  0.498538  1
  Rh  Rh25  1  0.672954  0.327490  0.499240  1
  Rh  Rh26  1  0.999549  0.999821  0.000473  1
  Rh  Rh27  1  0.999549  0.999821  0.499527  1
