# generated using pymatgen
data_DyPu3Ge6Rh7
_symmetry_space_group_name_H-M   'P 1'
_cell_length_a   7.31700638
_cell_length_b   7.31700658
_cell_length_c   7.31700742
_cell_angle_alpha   109.41575874
_cell_angle_beta   109.41575254
_cell_angle_gamma   109.41576524
_symmetry_Int_Tables_number   1
_chemical_formula_structural   DyPu3Ge6Rh7
_chemical_formula_sum   'Dy1 Pu3 Ge6 Rh7'
_cell_volume   302.18094764
_cell_formula_units_Z   1
loop_
 _symmetry_equiv_pos_site_id
 _symmetry_equiv_pos_as_xyz
  1  'x, y, z'
loop_
 _atom_site_type_symbol
 _atom_site_label
 _atom_site_symmetry_multiplicity
 _atom_site_fract_x
 _atom_site_fract_y
 _atom_site_fract_z
 _atom_site_occupancy
  Dy  Dy0  1  0.500000  0.500000  0.500000  1
  Pu  Pu1  1  0.000000  0.000000  0.500000  1
  Pu  Pu2  1  0.000000  0.500000  0.000000  1
  Pu  Pu3  1  0.500000  0.000000  0.000000  1
  Ge  Ge4  1  0.679683  0.679683  0.999277  1
  Ge  Ge5  1  0.320317  0.000723  0.320317  1
  Ge  Ge6  1  0.000723  0.320317  0.320317  1
  Ge  Ge7  1  0.320317  0.320317  0.000723  1
  Ge  Ge8  1  0.679683  0.999277  0.679683  1
  Ge  Ge9  1  0.999277  0.679683  0.679683  1
  Rh  Rh10  1  0.748981  0.251019  0.500000  1
  Rh  Rh11  1  0.748981  0.500000  0.251019  1
  Rh  Rh12  1  0.500000  0.251019  0.748981  1
  Rh  Rh13  1  0.251019  0.500000  0.748981  1
  Rh  Rh14  1  0.251019  0.748981  0.500000  1
  Rh  Rh15  1  0.500000  0.748981  0.251019  1
  Rh  Rh16  1  0.000000  0.000000  0.000000  1
