# generated using pymatgen
data_Mg6ScTa5Ir12
_symmetry_space_group_name_H-M   'P 1'
_cell_length_a   4.31555700
_cell_length_b   6.80846300
_cell_length_c   12.90259500
_cell_angle_alpha   90.00000000
_cell_angle_beta   89.99993797
_cell_angle_gamma   90.00000000
_symmetry_Int_Tables_number   1
_chemical_formula_structural   Mg6ScTa5Ir12
_chemical_formula_sum   'Mg6 Sc1 Ta5 Ir12'
_cell_volume   379.10804814
_cell_formula_units_Z   1
loop_
 _symmetry_equiv_pos_site_id
 _symmetry_equiv_pos_as_xyz
  1  'x, y, z'
loop_
 _atom_site_type_symbol
 _atom_site_label
 _atom_site_symmetry_multiplicity
 _atom_site_fract_x
 _atom_site_fract_y
 _atom_site_fract_z
 _atom_site_occupancy
  Mg  Mg0  1  0.999996  0.000000  0.996072  1
  Mg  Mg1  1  0.499955  0.499999  0.167783  1
  Mg  Mg2  1  0.999966  0.000000  0.333336  1
  Mg  Mg3  1  0.500004  0.499999  0.498886  1
  Mg  Mg4  1  0.000047  0.000000  0.670613  1
  Mg  Mg5  1  0.500017  0.499999  0.833324  1
  Sc  Sc6  1  0.500030  0.000000  0.833331  1
  Ta  Ta7  1  0.999995  0.499999  0.999549  1
  Ta  Ta8  1  0.499964  0.000000  0.164653  1
  Ta  Ta9  1  0.999969  0.499999  0.333347  1
  Ta  Ta10  1  0.500001  0.000000  0.502018  1
  Ta  Ta11  1  0.000036  0.499999  0.667099  1
  Ir  Ir12  1  0.499994  0.255384  0.004610  1
  Ir  Ir13  1  0.499994  0.744617  0.004610  1
  Ir  Ir14  1  0.999963  0.248189  0.168056  1
  Ir  Ir15  1  0.999963  0.751809  0.168056  1
  Ir  Ir16  1  0.499963  0.249470  0.333337  1
  Ir  Ir17  1  0.499963  0.750530  0.333337  1
  Ir  Ir18  1  0.000001  0.248185  0.498612  1
  Ir  Ir19  1  0.000001  0.751817  0.498612  1
  Ir  Ir20  1  0.500038  0.255363  0.662053  1
  Ir  Ir21  1  0.500038  0.744637  0.662053  1
  Ir  Ir22  1  0.000053  0.262235  0.833328  1
  Ir  Ir23  1  0.000053  0.737763  0.833328  1
