# generated using pymatgen
data_Y3Tm5Al8
_symmetry_space_group_name_H-M   'P 1'
_cell_length_a   5.83451505
_cell_length_b   11.34037909
_cell_length_c   5.58014200
_cell_angle_alpha   90.00000000
_cell_angle_beta   90.00000000
_cell_angle_gamma   89.98538666
_symmetry_Int_Tables_number   1
_chemical_formula_structural   Y3Tm5Al8
_chemical_formula_sum   'Y3 Tm5 Al8'
_cell_volume   369.21350102
_cell_formula_units_Z   1
loop_
 _symmetry_equiv_pos_site_id
 _symmetry_equiv_pos_as_xyz
  1  'x, y, z'
loop_
 _atom_site_type_symbol
 _atom_site_label
 _atom_site_symmetry_multiplicity
 _atom_site_fract_x
 _atom_site_fract_y
 _atom_site_fract_z
 _atom_site_occupancy
  Y  Y0  1  0.164642  0.015738  0.250001  1
  Y  Y1  1  0.834948  0.983748  0.750001  1
  Y  Y2  1  0.162102  0.484452  0.750001  1
  Tm  Tm3  1  0.836857  0.516867  0.250001  1
  Tm  Tm4  1  0.396970  0.330978  0.250001  1
  Tm  Tm5  1  0.604725  0.668874  0.750001  1
  Tm  Tm6  1  0.395947  0.170407  0.750001  1
  Tm  Tm7  1  0.604312  0.829270  0.250001  1
  Al  Al8  1  0.659220  0.098357  0.250001  1
  Al  Al9  1  0.340603  0.901495  0.750001  1
  Al  Al10  1  0.659083  0.402566  0.750001  1
  Al  Al11  1  0.341260  0.597277  0.250001  1
  Al  Al12  1  0.930339  0.250519  0.000447  1
  Al  Al13  1  0.069323  0.749467  0.500062  1
  Al  Al14  1  0.069323  0.749467  0.999937  1
  Al  Al15  1  0.930339  0.250519  0.499552  1
