# generated using pymatgen
data_Pa4MnAl18Ir5
_symmetry_space_group_name_H-M   'P 1'
_cell_length_a   7.58930283
_cell_length_b   7.58930380
_cell_length_c   9.33613527
_cell_angle_alpha   89.90338459
_cell_angle_beta   89.90338595
_cell_angle_gamma   119.21859321
_symmetry_Int_Tables_number   1
_chemical_formula_structural   Pa4MnAl18Ir5
_chemical_formula_sum   'Pa4 Mn1 Al18 Ir5'
_cell_volume   469.31585390
_cell_formula_units_Z   1
loop_
 _symmetry_equiv_pos_site_id
 _symmetry_equiv_pos_as_xyz
  1  'x, y, z'
loop_
 _atom_site_type_symbol
 _atom_site_label
 _atom_site_symmetry_multiplicity
 _atom_site_fract_x
 _atom_site_fract_y
 _atom_site_fract_z
 _atom_site_occupancy
  Pa  Pa0  1  0.995290  0.678476  0.246862  1
  Pa  Pa1  1  0.004710  0.321524  0.753138  1
  Pa  Pa2  1  0.678476  0.995290  0.246862  1
  Pa  Pa3  1  0.321524  0.004710  0.753138  1
  Mn  Mn4  1  0.000000  0.000000  0.000000  1
  Al  Al5  1  0.130214  0.130214  0.245434  1
  Al  Al6  1  0.869786  0.869786  0.754566  1
  Al  Al7  1  0.003759  0.333572  0.075735  1
  Al  Al8  1  0.996241  0.666428  0.924265  1
  Al  Al9  1  0.996773  0.662046  0.576561  1
  Al  Al10  1  0.337954  0.003227  0.423439  1
  Al  Al11  1  0.003227  0.337954  0.423439  1
  Al  Al12  1  0.662046  0.996773  0.576561  1
  Al  Al13  1  0.666428  0.996241  0.924265  1
  Al  Al14  1  0.333572  0.003759  0.075735  1
  Al  Al15  1  0.334904  0.334904  0.550850  1
  Al  Al16  1  0.665096  0.665096  0.449150  1
  Al  Al17  1  0.669670  0.669670  0.046173  1
  Al  Al18  1  0.330330  0.330330  0.953827  1
  Al  Al19  1  0.343427  0.550783  0.249845  1
  Al  Al20  1  0.656573  0.449217  0.750155  1
  Al  Al21  1  0.550783  0.343427  0.249845  1
  Al  Al22  1  0.449217  0.656573  0.750155  1
  Ir  Ir23  1  0.673547  0.326453  0.000000  1
  Ir  Ir24  1  0.326453  0.673547  0.000000  1
  Ir  Ir25  1  0.326970  0.673030  0.500000  1
  Ir  Ir26  1  0.673030  0.326970  0.500000  1
  Ir  Ir27  1  0.000000  0.000000  0.500000  1
