# generated using pymatgen
data_Nd3Sm(AuBr6)4
_symmetry_space_group_name_H-M   'P 1'
_cell_length_a   8.37446184
_cell_length_b   10.58520106
_cell_length_c   15.17585792
_cell_angle_alpha   103.14295278
_cell_angle_beta   96.29211875
_cell_angle_gamma   112.51031392
_symmetry_Int_Tables_number   1
_chemical_formula_structural   Nd3Sm(AuBr6)4
_chemical_formula_sum   'Nd3 Sm1 Au4 Br24'
_cell_volume   1180.95238666
_cell_formula_units_Z   1
loop_
 _symmetry_equiv_pos_site_id
 _symmetry_equiv_pos_as_xyz
  1  'x, y, z'
loop_
 _atom_site_type_symbol
 _atom_site_label
 _atom_site_symmetry_multiplicity
 _atom_site_fract_x
 _atom_site_fract_y
 _atom_site_fract_z
 _atom_site_occupancy
  Nd  Nd0  1  0.579458  0.923064  0.622203  1
  Nd  Nd1  1  0.420163  0.076586  0.377508  1
  Nd  Nd2  1  0.975355  0.312906  0.871233  1
  Sm  Sm3  1  0.024989  0.687183  0.128959  1
  Au  Au4  1  0.294005  0.631699  0.762576  1
  Au  Au5  1  0.706272  0.368617  0.237201  1
  Au  Au6  1  0.499950  0.499923  0.499931  1
  Au  Au7  1  0.000062  0.999734  0.000283  1
  Br  Br8  1  0.607736  0.734211  0.749863  1
  Br  Br9  1  0.392485  0.265932  0.250172  1
  Br  Br10  1  0.275464  0.847102  0.733956  1
  Br  Br11  1  0.724675  0.153124  0.266058  1
  Br  Br12  1  0.977599  0.532275  0.771016  1
  Br  Br13  1  0.022261  0.469543  0.228199  1
  Br  Br14  1  0.311236  0.412908  0.787198  1
  Br  Br15  1  0.690949  0.587804  0.212338  1
  Br  Br16  1  0.688833  0.368231  0.506577  1
  Br  Br17  1  0.311128  0.631748  0.493380  1
  Br  Br18  1  0.762025  0.729157  0.527443  1
  Br  Br19  1  0.237824  0.270647  0.472445  1
  Br  Br20  1  0.789402  0.109577  0.979170  1
  Br  Br21  1  0.208931  0.888670  0.021776  1
  Br  Br22  1  0.770590  0.793327  0.031700  1
  Br  Br23  1  0.230843  0.205959  0.968981  1
  Br  Br24  1  0.617998  0.194511  0.745919  1
  Br  Br25  1  0.379272  0.804779  0.253231  1
  Br  Br26  1  0.949552  0.054795  0.728434  1
  Br  Br27  1  0.050242  0.942634  0.270174  1
  Br  Br28  1  0.726817  0.049516  0.480791  1
  Br  Br29  1  0.272998  0.950374  0.519032  1
  Br  Br30  1  0.764868  0.437381  0.978759  1
  Br  Br31  1  0.236018  0.566083  0.023493  1
