# generated using pymatgen
data_AcGa3Pd
_symmetry_space_group_name_H-M   'P 1'
_cell_length_a   6.24579774
_cell_length_b   6.24579752
_cell_length_c   6.08570000
_cell_angle_alpha   90.00000000
_cell_angle_beta   90.00000000
_cell_angle_gamma   116.09860763
_symmetry_Int_Tables_number   1
_chemical_formula_structural   AcGa3Pd
_chemical_formula_sum   'Ac2 Ga6 Pd2'
_cell_volume   213.19705417
_cell_formula_units_Z   2
loop_
 _symmetry_equiv_pos_site_id
 _symmetry_equiv_pos_as_xyz
  1  'x, y, z'
loop_
 _atom_site_type_symbol
 _atom_site_label
 _atom_site_symmetry_multiplicity
 _atom_site_fract_x
 _atom_site_fract_y
 _atom_site_fract_z
 _atom_site_occupancy
  Ac  Ac0  1  0.232014  0.767986  0.750000  1
  Ac  Ac1  1  0.767986  0.232014  0.250000  1
  Ga  Ga2  1  0.660411  0.339589  0.750000  1
  Ga  Ga3  1  0.339589  0.660411  0.250000  1
  Ga  Ga4  1  0.718242  0.718242  0.000000  1
  Ga  Ga5  1  0.718242  0.718242  0.500000  1
  Ga  Ga6  1  0.281758  0.281758  0.000000  1
  Ga  Ga7  1  0.281758  0.281758  0.500000  1
  Pd  Pd8  1  0.903778  0.096222  0.750000  1
  Pd  Pd9  1  0.096222  0.903778  0.250000  1
