# generated using pymatgen
data_Y5Sc5Co6(Si10Ir)2
_symmetry_space_group_name_H-M   'P 1'
_cell_length_a   12.32318395
_cell_length_b   12.31589691
_cell_length_c   4.06513300
_cell_angle_alpha   90.00000000
_cell_angle_beta   90.00000000
_cell_angle_gamma   89.69052577
_symmetry_Int_Tables_number   1
_chemical_formula_structural   Y5Sc5Co6(Si10Ir)2
_chemical_formula_sum   'Y5 Sc5 Co6 Si20 Ir2'
_cell_volume   616.96055701
_cell_formula_units_Z   1
loop_
 _symmetry_equiv_pos_site_id
 _symmetry_equiv_pos_as_xyz
  1  'x, y, z'
loop_
 _atom_site_type_symbol
 _atom_site_label
 _atom_site_symmetry_multiplicity
 _atom_site_fract_x
 _atom_site_fract_y
 _atom_site_fract_z
 _atom_site_occupancy
  Y  Y0  1  0.000000  0.000000  0.000000  1
  Y  Y1  1  0.882208  0.387059  0.500000  1
  Y  Y2  1  0.117792  0.612941  0.500000  1
  Y  Y3  1  0.389619  0.113009  0.500000  1
  Y  Y4  1  0.610381  0.886991  0.500000  1
  Sc  Sc5  1  0.500000  0.500000  0.000000  1
  Sc  Sc6  1  0.671540  0.175809  0.500000  1
  Sc  Sc7  1  0.328460  0.824191  0.500000  1
  Sc  Sc8  1  0.179560  0.326808  0.500000  1
  Sc  Sc9  1  0.820440  0.673192  0.500000  1
  Co  Co10  1  0.740111  0.521720  0.000000  1
  Co  Co11  1  0.259889  0.478280  0.000000  1
  Co  Co12  1  0.247507  0.976456  0.000000  1
  Co  Co13  1  0.752493  0.023544  0.000000  1
  Co  Co14  1  0.477310  0.741704  0.000000  1
  Co  Co15  1  0.522690  0.258296  0.000000  1
  Si  Si16  1  0.568848  0.071234  0.000000  1
  Si  Si17  1  0.431152  0.928766  0.000000  1
  Si  Si18  1  0.074738  0.437046  0.000000  1
  Si  Si19  1  0.925262  0.562954  0.000000  1
  Si  Si20  1  0.655481  0.693278  0.000000  1
  Si  Si21  1  0.344519  0.306722  0.000000  1
  Si  Si22  1  0.168400  0.802529  0.000000  1
  Si  Si23  1  0.831600  0.197471  0.000000  1
  Si  Si24  1  0.308980  0.657578  0.000000  1
  Si  Si25  1  0.691020  0.342422  0.000000  1
  Si  Si26  1  0.204529  0.158289  0.000000  1
  Si  Si27  1  0.795471  0.841711  0.000000  1
  Si  Si28  1  0.659267  0.506684  0.500000  1
  Si  Si29  1  0.340733  0.493316  0.500000  1
  Si  Si30  1  0.168598  0.993613  0.500000  1
  Si  Si31  1  0.831402  0.006387  0.500000  1
  Si  Si32  1  0.494507  0.661415  0.500000  1
  Si  Si33  1  0.505493  0.338585  0.500000  1
  Si  Si34  1  0.006611  0.158616  0.500000  1
  Si  Si35  1  0.993389  0.841384  0.500000  1
  Ir  Ir36  1  0.022774  0.248703  0.000000  1
  Ir  Ir37  1  0.977226  0.751297  0.000000  1
