# generated using pymatgen
data_SiMo12As(Rh3N2)2
_symmetry_space_group_name_H-M   'P 1'
_cell_length_a   6.84106233
_cell_length_b   6.82164068
_cell_length_c   6.83611488
_cell_angle_alpha   89.36988138
_cell_angle_beta   90.00024431
_cell_angle_gamma   90.07141618
_symmetry_Int_Tables_number   1
_chemical_formula_structural   SiMo12As(Rh3N2)2
_chemical_formula_sum   'Si1 Mo12 As1 Rh6 N4'
_cell_volume   319.00327240
_cell_formula_units_Z   1
loop_
 _symmetry_equiv_pos_site_id
 _symmetry_equiv_pos_as_xyz
  1  'x, y, z'
loop_
 _atom_site_type_symbol
 _atom_site_label
 _atom_site_symmetry_multiplicity
 _atom_site_fract_x
 _atom_site_fract_y
 _atom_site_fract_z
 _atom_site_occupancy
  Si  Si0  1  0.183321  0.825493  0.067594  1
  Mo  Mo1  1  0.620047  0.044568  0.543038  1
  Mo  Mo2  1  0.121057  0.955522  0.452660  1
  Mo  Mo3  1  0.869860  0.538669  0.943080  1
  Mo  Mo4  1  0.364128  0.466816  0.056686  1
  Mo  Mo5  1  0.201469  0.623610  0.699554  1
  Mo  Mo6  1  0.298402  0.122683  0.783938  1
  Mo  Mo7  1  0.801490  0.872505  0.215843  1
  Mo  Mo8  1  0.702712  0.379320  0.306199  1
  Mo  Mo9  1  0.050123  0.207989  0.131847  1
  Mo  Mo10  1  0.963924  0.305393  0.619028  1
  Mo  Mo11  1  0.544121  0.789695  0.870462  1
  Mo  Mo12  1  0.461745  0.696042  0.376764  1
  As  As13  1  0.686456  0.176200  0.935772  1
  Rh  Rh14  1  0.812136  0.686021  0.568092  1
  Rh  Rh15  1  0.312013  0.314699  0.431744  1
  Rh  Rh16  1  0.063925  0.576765  0.295854  1
  Rh  Rh17  1  0.432192  0.060146  0.168049  1
  Rh  Rh18  1  0.563018  0.424844  0.702899  1
  Rh  Rh19  1  0.938549  0.935501  0.833701  1
  N  N20  1  0.375322  0.872063  0.617809  1
  N  N21  1  0.875365  0.128333  0.379902  1
  N  N22  1  0.128447  0.374708  0.874979  1
  N  N23  1  0.630179  0.622416  0.124508  1
