# generated using pymatgen
data_Cd21Pd4Au
_symmetry_space_group_name_H-M   'P 1'
_cell_length_a   8.82020409
_cell_length_b   8.82824647
_cell_length_c   8.82824500
_cell_angle_alpha   109.48966526
_cell_angle_beta   109.45276840
_cell_angle_gamma   109.45277453
_symmetry_Int_Tables_number   1
_chemical_formula_structural   Cd21Pd4Au
_chemical_formula_sum   'Cd21 Pd4 Au1'
_cell_volume   529.30304590
_cell_formula_units_Z   1
loop_
 _symmetry_equiv_pos_site_id
 _symmetry_equiv_pos_as_xyz
  1  'x, y, z'
loop_
 _atom_site_type_symbol
 _atom_site_label
 _atom_site_symmetry_multiplicity
 _atom_site_fract_x
 _atom_site_fract_y
 _atom_site_fract_z
 _atom_site_occupancy
  Cd  Cd0  1  0.649962  0.254363  0.000000  1
  Cd  Cd1  1  0.359533  0.357327  0.000000  1
  Cd  Cd2  1  0.644039  0.649561  0.000000  1
  Cd  Cd3  1  0.260561  0.649634  0.000000  1
  Cd  Cd4  1  0.996051  0.792539  0.000000  1
  Cd  Cd5  1  0.203511  0.207461  0.207461  1
  Cd  Cd6  1  0.649962  0.000000  0.254363  1
  Cd  Cd7  1  0.998787  0.647160  0.260167  1
  Cd  Cd8  1  0.610926  0.350366  0.350366  1
  Cd  Cd9  1  0.351627  0.613007  0.352840  1
  Cd  Cd10  1  0.359533  0.000000  0.357327  1
  Cd  Cd11  1  0.994478  0.350439  0.350439  1
  Cd  Cd12  1  0.738620  0.739833  0.386993  1
  Cd  Cd13  1  0.351627  0.352840  0.613007  1
  Cd  Cd14  1  0.644039  0.000000  0.649561  1
  Cd  Cd15  1  0.002206  0.642673  0.642673  1
  Cd  Cd16  1  0.260561  0.000000  0.649634  1
  Cd  Cd17  1  0.998787  0.260167  0.647160  1
  Cd  Cd18  1  0.395600  0.745637  0.745637  1
  Cd  Cd19  1  0.738620  0.386993  0.739833  1
  Cd  Cd20  1  0.996051  0.000000  0.792539  1
  Pd  Pd21  1  0.339112  0.000000  0.000000  1
  Pd  Pd22  1  0.005578  0.350054  0.000000  1
  Pd  Pd23  1  0.005578  0.000000  0.350054  1
  Pd  Pd24  1  0.655525  0.649946  0.649946  1
  Au  Au25  1  0.789127  0.000000  0.000000  1
