# generated using pymatgen
data_Nd8InRh2Au
_symmetry_space_group_name_H-M   'P 1'
_cell_length_a   9.89835696
_cell_length_b   9.89835657
_cell_length_c   9.95204600
_cell_angle_alpha   59.82041026
_cell_angle_beta   59.82041156
_cell_angle_gamma   60.06116660
_symmetry_Int_Tables_number   1
_chemical_formula_structural   Nd8InRh2Au
_chemical_formula_sum   'Nd16 In2 Rh4 Au2'
_cell_volume   687.92106029
_cell_formula_units_Z   2
loop_
 _symmetry_equiv_pos_site_id
 _symmetry_equiv_pos_as_xyz
  1  'x, y, z'
loop_
 _atom_site_type_symbol
 _atom_site_label
 _atom_site_symmetry_multiplicity
 _atom_site_fract_x
 _atom_site_fract_y
 _atom_site_fract_z
 _atom_site_occupancy
  Nd  Nd0  1  0.807128  0.807128  0.192872  1
  Nd  Nd1  1  0.810188  0.191842  0.805919  1
  Nd  Nd2  1  0.193558  0.193558  0.806442  1
  Nd  Nd3  1  0.646781  0.054556  0.649332  1
  Nd  Nd4  1  0.062144  0.062144  0.437856  1
  Nd  Nd5  1  0.440088  0.440088  0.059912  1
  Nd  Nd6  1  0.649833  0.649833  0.650690  1
  Nd  Nd7  1  0.810188  0.191842  0.192050  1
  Nd  Nd8  1  0.191842  0.810188  0.805919  1
  Nd  Nd9  1  0.054556  0.646781  0.649332  1
  Nd  Nd10  1  0.439378  0.067838  0.057562  1
  Nd  Nd11  1  0.439378  0.067838  0.435223  1
  Nd  Nd12  1  0.067838  0.439378  0.057562  1
  Nd  Nd13  1  0.649833  0.649833  0.049645  1
  Nd  Nd14  1  0.191842  0.810188  0.192050  1
  Nd  Nd15  1  0.067838  0.439378  0.435223  1
  In  In16  1  0.419365  0.736148  0.422243  1
  In  In17  1  0.736148  0.419365  0.422243  1
  Rh  Rh18  1  0.856814  0.425403  0.858892  1
  Rh  Rh19  1  0.857786  0.857786  0.858699  1
  Rh  Rh20  1  0.857786  0.857786  0.425730  1
  Rh  Rh21  1  0.425403  0.856814  0.858892  1
  Au  Au22  1  0.412143  0.412143  0.409421  1
  Au  Au23  1  0.412143  0.412143  0.766291  1
