# generated using pymatgen
data_Tm20ZnGaBi10
_symmetry_space_group_name_H-M   'P 1'
_cell_length_a   8.07987330
_cell_length_b   9.35588300
_cell_length_c   11.84193237
_cell_angle_alpha   89.99985416
_cell_angle_beta   90.02628842
_cell_angle_gamma   89.99985541
_symmetry_Int_Tables_number   1
_chemical_formula_structural   Tm20ZnGaBi10
_chemical_formula_sum   'Tm20 Zn1 Ga1 Bi10'
_cell_volume   895.18307688
_cell_formula_units_Z   1
loop_
 _symmetry_equiv_pos_site_id
 _symmetry_equiv_pos_as_xyz
  1  'x, y, z'
loop_
 _atom_site_type_symbol
 _atom_site_label
 _atom_site_symmetry_multiplicity
 _atom_site_fract_x
 _atom_site_fract_y
 _atom_site_fract_z
 _atom_site_occupancy
  Tm  Tm0  1  0.036017  0.250001  0.509430  1
  Tm  Tm1  1  0.979449  0.750001  0.490957  1
  Tm  Tm2  1  0.479855  0.749998  0.010138  1
  Tm  Tm3  1  0.537331  0.249999  0.990296  1
  Tm  Tm4  1  0.353705  0.250001  0.293614  1
  Tm  Tm5  1  0.653509  0.750001  0.717002  1
  Tm  Tm6  1  0.150183  0.750001  0.783011  1
  Tm  Tm7  1  0.855403  0.250001  0.205228  1
  Tm  Tm8  1  0.180352  0.250001  0.785614  1
  Tm  Tm9  1  0.811120  0.750000  0.218026  1
  Tm  Tm10  1  0.311121  0.749999  0.282308  1
  Tm  Tm11  1  0.675704  0.250000  0.712501  1
  Tm  Tm12  1  0.184578  0.071693  0.055699  1
  Tm  Tm13  1  0.809085  0.952305  0.941131  1
  Tm  Tm14  1  0.308305  0.950510  0.558833  1
  Tm  Tm15  1  0.809086  0.547695  0.941130  1
  Tm  Tm16  1  0.684673  0.071658  0.444637  1
  Tm  Tm17  1  0.184577  0.428306  0.055698  1
  Tm  Tm18  1  0.684673  0.428342  0.444637  1
  Tm  Tm19  1  0.308303  0.549491  0.558833  1
  Zn  Zn20  1  0.910681  0.250001  0.958109  1
  Ga  Ga21  1  0.408533  0.250001  0.539810  1
  Bi  Bi22  1  0.594388  0.749999  0.457906  1
  Bi  Bi23  1  0.094303  0.750000  0.042432  1
  Bi  Bi24  1  0.061404  0.002679  0.324656  1
  Bi  Bi25  1  0.937247  0.999821  0.677076  1
  Bi  Bi26  1  0.437010  0.997116  0.823319  1
  Bi  Bi27  1  0.937249  0.500177  0.677076  1
  Bi  Bi28  1  0.561870  0.003403  0.176457  1
  Bi  Bi29  1  0.061403  0.497321  0.324656  1
  Bi  Bi30  1  0.561871  0.496597  0.176457  1
  Bi  Bi31  1  0.437011  0.502883  0.823318  1
