# generated using pymatgen
data_Dy15Th(CdPt)4
_symmetry_space_group_name_H-M   'P 1'
_cell_length_a   9.68043585
_cell_length_b   9.68043496
_cell_length_c   9.68043487
_cell_angle_alpha   60.48435504
_cell_angle_beta   60.48435448
_cell_angle_gamma   60.48435263
_symmetry_Int_Tables_number   1
_chemical_formula_structural   Dy15Th(CdPt)4
_chemical_formula_sum   'Dy15 Th1 Cd4 Pt4'
_cell_volume   648.48247090
_cell_formula_units_Z   1
loop_
 _symmetry_equiv_pos_site_id
 _symmetry_equiv_pos_as_xyz
  1  'x, y, z'
loop_
 _atom_site_type_symbol
 _atom_site_label
 _atom_site_symmetry_multiplicity
 _atom_site_fract_x
 _atom_site_fract_y
 _atom_site_fract_z
 _atom_site_occupancy
  Dy  Dy0  1  0.353802  0.353802  0.939322  1
  Dy  Dy1  1  0.353802  0.939322  0.353802  1
  Dy  Dy2  1  0.939322  0.353802  0.353802  1
  Dy  Dy3  1  0.811758  0.189940  0.189940  1
  Dy  Dy4  1  0.191089  0.810608  0.810608  1
  Dy  Dy5  1  0.189940  0.811758  0.189940  1
  Dy  Dy6  1  0.810608  0.191089  0.810608  1
  Dy  Dy7  1  0.189940  0.189940  0.811758  1
  Dy  Dy8  1  0.810608  0.810608  0.191089  1
  Dy  Dy9  1  0.936668  0.566982  0.566982  1
  Dy  Dy10  1  0.563304  0.937086  0.937086  1
  Dy  Dy11  1  0.566982  0.936668  0.566982  1
  Dy  Dy12  1  0.937086  0.563303  0.937086  1
  Dy  Dy13  1  0.566982  0.566982  0.936668  1
  Dy  Dy14  1  0.937086  0.937086  0.563303  1
  Th  Th15  1  0.348031  0.348031  0.348031  1
  Cd  Cd16  1  0.581046  0.581046  0.581046  1
  Cd  Cd17  1  0.582230  0.582230  0.253047  1
  Cd  Cd18  1  0.582230  0.253047  0.582230  1
  Cd  Cd19  1  0.253047  0.582230  0.582230  1
  Pt  Pt20  1  0.144135  0.144135  0.144135  1
  Pt  Pt21  1  0.139683  0.139683  0.570940  1
  Pt  Pt22  1  0.139683  0.570940  0.139683  1
  Pt  Pt23  1  0.570940  0.139683  0.139683  1
