# generated using pymatgen
data_SmU5(Ni3Sb4)2
_symmetry_space_group_name_H-M   'P 1'
_cell_length_a   8.14726155
_cell_length_b   8.14726004
_cell_length_c   8.14726069
_cell_angle_alpha   109.44167888
_cell_angle_beta   109.53031459
_cell_angle_gamma   109.44168227
_symmetry_Int_Tables_number   1
_chemical_formula_structural   SmU5(Ni3Sb4)2
_chemical_formula_sum   'Sm1 U5 Ni6 Sb8'
_cell_volume   416.30595640
_cell_formula_units_Z   1
loop_
 _symmetry_equiv_pos_site_id
 _symmetry_equiv_pos_as_xyz
  1  'x, y, z'
loop_
 _atom_site_type_symbol
 _atom_site_label
 _atom_site_symmetry_multiplicity
 _atom_site_fract_x
 _atom_site_fract_y
 _atom_site_fract_z
 _atom_site_occupancy
  Sm  Sm0  1  0.875000  0.250000  0.125000  1
  U  U1  1  0.625000  0.750000  0.375000  1
  U  U2  1  0.250019  0.123298  0.878396  1
  U  U3  1  0.755097  0.376702  0.626719  1
  U  U4  1  0.121604  0.871622  0.244903  1
  U  U5  1  0.373281  0.628378  0.749981  1
  Ni  Ni6  1  0.375000  0.250000  0.625000  1
  Ni  Ni7  1  0.125000  0.750000  0.875000  1
  Ni  Ni8  1  0.263168  0.634220  0.382333  1
  Ni  Ni9  1  0.748113  0.865780  0.128948  1
  Ni  Ni10  1  0.617667  0.380835  0.251887  1
  Ni  Ni11  1  0.871052  0.119165  0.736832  1
  Sb  Sb12  1  0.661472  0.497162  0.996483  1
  Sb  Sb13  1  0.499323  0.002838  0.664311  1
  Sb  Sb14  1  0.998601  0.665129  0.497652  1
  Sb  Sb15  1  0.832524  0.834871  0.833472  1
  Sb  Sb16  1  0.502348  0.000948  0.167476  1
  Sb  Sb17  1  0.166528  0.499052  0.001399  1
  Sb  Sb18  1  0.003517  0.164988  0.500677  1
  Sb  Sb19  1  0.335689  0.335012  0.338528  1
