# generated using pymatgen
data_U2Cu3Sn2I9
_symmetry_space_group_name_H-M   'P 1'
_cell_length_a   20.08973288
_cell_length_b   19.83192321
_cell_length_c   26.95648200
_cell_angle_alpha   91.02306863
_cell_angle_beta   90.90887034
_cell_angle_gamma   120.73935663
_symmetry_Int_Tables_number   1
_chemical_formula_structural   U2Cu3Sn2I9
_chemical_formula_sum   'U2 Cu3 Sn2 I9'
_cell_volume   9225.62647488
_cell_formula_units_Z   1
loop_
 _symmetry_equiv_pos_site_id
 _symmetry_equiv_pos_as_xyz
  1  'x, y, z'
loop_
 _atom_site_type_symbol
 _atom_site_label
 _atom_site_symmetry_multiplicity
 _atom_site_fract_x
 _atom_site_fract_y
 _atom_site_fract_z
 _atom_site_occupancy
  U  U0  1  0.999535  0.005182  0.499152  1
  U  U1  1  0.001474  0.002426  0.000106  1
  Cu  Cu2  1  0.671684  0.991116  0.622922  1
  Cu  Cu3  1  0.328414  0.009855  0.376613  1
  Cu  Cu4  1  0.008944  0.680273  0.622870  1
  Sn  Sn5  1  0.665649  0.333438  0.752144  1
  Sn  Sn6  1  0.333831  0.666058  0.248399  1
  I  I7  1  0.675871  0.682519  0.877897  1
  I  I8  1  0.991122  0.311839  0.380233  1
  I  I9  1  0.322531  0.316178  0.121501  1
  I  I10  1  0.312855  0.319677  0.620166  1
  I  I11  1  0.006764  0.322027  0.878659  1
  I  I12  1  0.687499  0.679709  0.380318  1
  I  I13  1  0.991792  0.677814  0.120488  1
  I  I14  1  0.317450  0.993997  0.877894  1
  I  I15  1  0.684585  0.007890  0.120637  1
