# generated using pymatgen
data_Sc3(MnCo2)2
_symmetry_space_group_name_H-M   'P 1'
_cell_length_a   4.84052214
_cell_length_b   4.79380149
_cell_length_c   12.17468419
_cell_angle_alpha   90.64427421
_cell_angle_beta   88.38280073
_cell_angle_gamma   118.09865778
_symmetry_Int_Tables_number   1
_chemical_formula_structural   Sc3(MnCo2)2
_chemical_formula_sum   'Sc6 Mn4 Co8'
_cell_volume   249.11062574
_cell_formula_units_Z   2
loop_
 _symmetry_equiv_pos_site_id
 _symmetry_equiv_pos_as_xyz
  1  'x, y, z'
loop_
 _atom_site_type_symbol
 _atom_site_label
 _atom_site_symmetry_multiplicity
 _atom_site_fract_x
 _atom_site_fract_y
 _atom_site_fract_z
 _atom_site_occupancy
  Sc  Sc0  1  0.333666  0.660751  0.914537  1
  Sc  Sc1  1  0.004597  0.004235  0.250645  1
  Sc  Sc2  1  0.669248  0.333247  0.582707  1
  Sc  Sc3  1  0.330752  0.666753  0.667293  1
  Sc  Sc4  1  0.995403  0.995765  0.999355  1
  Sc  Sc5  1  0.666334  0.339249  0.335463  1
  Mn  Mn6  1  0.500000  0.500000  0.125000  1
  Mn  Mn7  1  0.168062  0.834845  0.459020  1
  Mn  Mn8  1  0.831938  0.165155  0.790980  1
  Mn  Mn9  1  0.500000  0.000000  0.125000  1
  Co  Co10  1  0.167980  0.336740  0.458890  1
  Co  Co11  1  0.832020  0.663260  0.791110  1
  Co  Co12  1  0.339549  0.674821  0.291163  1
  Co  Co13  1  0.000000  0.000000  0.625000  1
  Co  Co14  1  0.660451  0.325179  0.958837  1
  Co  Co15  1  0.000000  0.500000  0.125000  1
  Co  Co16  1  0.667006  0.834871  0.459035  1
  Co  Co17  1  0.332994  0.165129  0.790965  1
