# generated using pymatgen
data_Tb3Dy4Sn23Ru6
_symmetry_space_group_name_H-M   'P 1'
_cell_length_a   9.85597345
_cell_length_b   9.85597380
_cell_length_c   10.09694264
_cell_angle_alpha   89.94345965
_cell_angle_beta   90.05654025
_cell_angle_gamma   119.92247832
_symmetry_Int_Tables_number   1
_chemical_formula_structural   Tb3Dy4Sn23Ru6
_chemical_formula_sum   'Tb3 Dy4 Sn23 Ru6'
_cell_volume   850.07653410
_cell_formula_units_Z   1
loop_
 _symmetry_equiv_pos_site_id
 _symmetry_equiv_pos_as_xyz
  1  'x, y, z'
loop_
 _atom_site_type_symbol
 _atom_site_label
 _atom_site_symmetry_multiplicity
 _atom_site_fract_x
 _atom_site_fract_y
 _atom_site_fract_z
 _atom_site_occupancy
  Tb  Tb0  1  0.000000  0.000000  0.000000  1
  Tb  Tb1  1  0.484019  0.515981  0.302982  1
  Tb  Tb2  1  0.515981  0.484019  0.697018  1
  Dy  Dy3  1  0.484217  0.968424  0.302944  1
  Dy  Dy4  1  0.515783  0.031576  0.697056  1
  Dy  Dy5  1  0.031576  0.515783  0.302944  1
  Dy  Dy6  1  0.968424  0.484217  0.697056  1
  Sn  Sn7  1  0.349003  0.000000  0.999949  1
  Sn  Sn8  1  0.650997  0.000000  0.000051  1
  Sn  Sn9  1  0.000000  0.349003  0.000051  1
  Sn  Sn10  1  0.000000  0.650997  0.999949  1
  Sn  Sn11  1  0.651284  0.651284  0.000000  1
  Sn  Sn12  1  0.348716  0.348716  0.000000  1
  Sn  Sn13  1  0.333315  0.666685  0.821500  1
  Sn  Sn14  1  0.666685  0.333315  0.178500  1
  Sn  Sn15  1  0.000000  0.000000  0.500000  1
  Sn  Sn16  1  0.780342  0.219658  0.462364  1
  Sn  Sn17  1  0.219658  0.780342  0.537636  1
  Sn  Sn18  1  0.780410  0.560856  0.462423  1
  Sn  Sn19  1  0.219590  0.439144  0.537577  1
  Sn  Sn20  1  0.439144  0.219590  0.462423  1
  Sn  Sn21  1  0.560856  0.780410  0.537577  1
  Sn  Sn22  1  0.333207  0.666793  0.126663  1
  Sn  Sn23  1  0.666793  0.333207  0.873337  1
  Sn  Sn24  1  0.118510  0.881490  0.272848  1
  Sn  Sn25  1  0.881490  0.118510  0.727152  1
  Sn  Sn26  1  0.118468  0.236854  0.272875  1
  Sn  Sn27  1  0.881532  0.763146  0.727125  1
  Sn  Sn28  1  0.763146  0.881532  0.272875  1
  Sn  Sn29  1  0.236854  0.118468  0.727125  1
  Ru  Ru30  1  0.830112  0.169888  0.202457  1
  Ru  Ru31  1  0.169888  0.830112  0.797543  1
  Ru  Ru32  1  0.830358  0.660122  0.202275  1
  Ru  Ru33  1  0.169642  0.339878  0.797725  1
  Ru  Ru34  1  0.339878  0.169642  0.202275  1
  Ru  Ru35  1  0.660122  0.830358  0.797725  1
