# generated using pymatgen
data_Ba4Pr5Y3Se16
_symmetry_space_group_name_H-M   'P 1'
_cell_length_a   4.32468500
_cell_length_b   12.99307644
_cell_length_c   15.52551155
_cell_angle_alpha   89.84051736
_cell_angle_beta   90.00000000
_cell_angle_gamma   90.00000000
_symmetry_Int_Tables_number   1
_chemical_formula_structural   Ba4Pr5Y3Se16
_chemical_formula_sum   'Ba4 Pr5 Y3 Se16'
_cell_volume   872.39006205
_cell_formula_units_Z   1
loop_
 _symmetry_equiv_pos_site_id
 _symmetry_equiv_pos_as_xyz
  1  'x, y, z'
loop_
 _atom_site_type_symbol
 _atom_site_label
 _atom_site_symmetry_multiplicity
 _atom_site_fract_x
 _atom_site_fract_y
 _atom_site_fract_z
 _atom_site_occupancy
  Ba  Ba0  1  0.250000  0.757150  0.341896  1
  Ba  Ba1  1  0.250000  0.254230  0.161769  1
  Ba  Ba2  1  0.750000  0.242881  0.655996  1
  Ba  Ba3  1  0.750000  0.743569  0.840379  1
  Pr  Pr4  1  0.250000  0.424886  0.390789  1
  Pr  Pr5  1  0.250000  0.923664  0.108663  1
  Pr  Pr6  1  0.750000  0.577864  0.606379  1
  Pr  Pr7  1  0.750000  0.072843  0.889575  1
  Pr  Pr8  1  0.250000  0.424642  0.899878  1
  Y  Y9  1  0.250000  0.925294  0.600780  1
  Y  Y10  1  0.750000  0.576888  0.103694  1
  Y  Y11  1  0.750000  0.073401  0.398660  1
  Se  Se12  1  0.250000  0.211236  0.822378  1
  Se  Se13  1  0.250000  0.717241  0.672363  1
  Se  Se14  1  0.750000  0.784642  0.175791  1
  Se  Se15  1  0.750000  0.282760  0.328171  1
  Se  Se16  1  0.250000  0.126328  0.519785  1
  Se  Se17  1  0.250000  0.632684  0.983325  1
  Se  Se18  1  0.750000  0.872416  0.479609  1
  Se  Se19  1  0.750000  0.372677  0.028070  1
  Se  Se20  1  0.250000  0.019150  0.286866  1
  Se  Se21  1  0.250000  0.520358  0.214148  1
  Se  Se22  1  0.750000  0.979271  0.711941  1
  Se  Se23  1  0.750000  0.484833  0.782810  1
  Se  Se24  1  0.250000  0.419422  0.580634  1
  Se  Se25  1  0.250000  0.917044  0.918380  1
  Se  Se26  1  0.750000  0.581775  0.417034  1
  Se  Se27  1  0.750000  0.080848  0.080240  1
