# generated using pymatgen
data_Zn14B6Ir17Au
_symmetry_space_group_name_H-M   'P 1'
_cell_length_a   2.90150400
_cell_length_b   11.42295500
_cell_length_c   15.04189700
_cell_angle_alpha   90.00000000
_cell_angle_beta   90.00000000
_cell_angle_gamma   90.00000000
_symmetry_Int_Tables_number   1
_chemical_formula_structural   Zn14B6Ir17Au
_chemical_formula_sum   'Zn14 B6 Ir17 Au1'
_cell_volume   498.54486804
_cell_formula_units_Z   1
loop_
 _symmetry_equiv_pos_site_id
 _symmetry_equiv_pos_as_xyz
  1  'x, y, z'
loop_
 _atom_site_type_symbol
 _atom_site_label
 _atom_site_symmetry_multiplicity
 _atom_site_fract_x
 _atom_site_fract_y
 _atom_site_fract_z
 _atom_site_occupancy
  Zn  Zn0  1  0.500000  0.500000  0.350343  1
  Zn  Zn1  1  0.500000  0.000000  0.652009  1
  Zn  Zn2  1  0.500000  0.388217  0.998870  1
  Zn  Zn3  1  0.500000  0.115629  0.995470  1
  Zn  Zn4  1  0.500000  0.611783  0.998870  1
  Zn  Zn5  1  0.500000  0.884371  0.995470  1
  Zn  Zn6  1  0.500000  0.373191  0.768404  1
  Zn  Zn7  1  0.500000  0.134230  0.237152  1
  Zn  Zn8  1  0.500000  0.626809  0.768404  1
  Zn  Zn9  1  0.500000  0.865770  0.237152  1
  Zn  Zn10  1  0.500000  0.297509  0.603589  1
  Zn  Zn11  1  0.500000  0.204702  0.398699  1
  Zn  Zn12  1  0.500000  0.702491  0.603589  1
  Zn  Zn13  1  0.500000  0.795298  0.398699  1
  B  B14  1  0.500000  0.500000  0.530779  1
  B  B15  1  0.500000  0.000000  0.470325  1
  B  B16  1  0.500000  0.142344  0.820252  1
  B  B17  1  0.500000  0.358921  0.178222  1
  B  B18  1  0.500000  0.857656  0.820252  1
  B  B19  1  0.500000  0.641079  0.178222  1
  Ir  Ir20  1  0.000000  0.247885  0.892219  1
  Ir  Ir21  1  0.000000  0.253150  0.105053  1
  Ir  Ir22  1  0.000000  0.752115  0.892219  1
  Ir  Ir23  1  0.000000  0.746850  0.105053  1
  Ir  Ir24  1  0.000000  0.500000  0.642369  1
  Ir  Ir25  1  0.000000  0.000000  0.357902  1
  Ir  Ir26  1  0.000000  0.172098  0.715999  1
  Ir  Ir27  1  0.000000  0.330232  0.283269  1
  Ir  Ir28  1  0.000000  0.827902  0.715999  1
  Ir  Ir29  1  0.000000  0.669768  0.283269  1
  Ir  Ir30  1  0.000000  0.500000  0.137330  1
  Ir  Ir31  1  0.000000  0.000000  0.861098  1
  Ir  Ir32  1  0.000000  0.122094  0.530070  1
  Ir  Ir33  1  0.000000  0.377843  0.471036  1
  Ir  Ir34  1  0.000000  0.877906  0.530070  1
  Ir  Ir35  1  0.000000  0.622157  0.471036  1
  Ir  Ir36  1  0.000000  0.500000  0.877802  1
  Au  Au37  1  0.000000  0.000000  0.123433  1
