# generated using pymatgen
data_MgMn2Fe3(B2Rh5)2
_symmetry_space_group_name_H-M   'P 1'
_cell_length_a   9.35482343
_cell_length_b   9.35482286
_cell_length_c   2.92066700
_cell_angle_alpha   90.00000000
_cell_angle_beta   90.00000000
_cell_angle_gamma   90.27379513
_symmetry_Int_Tables_number   1
_chemical_formula_structural   MgMn2Fe3(B2Rh5)2
_chemical_formula_sum   'Mg1 Mn2 Fe3 B4 Rh10'
_cell_volume   255.59258382
_cell_formula_units_Z   1
loop_
 _symmetry_equiv_pos_site_id
 _symmetry_equiv_pos_as_xyz
  1  'x, y, z'
loop_
 _atom_site_type_symbol
 _atom_site_label
 _atom_site_symmetry_multiplicity
 _atom_site_fract_x
 _atom_site_fract_y
 _atom_site_fract_z
 _atom_site_occupancy
  Mg  Mg0  1  0.823563  0.676437  0.000000  1
  Mn  Mn1  1  0.677553  0.175430  0.000000  1
  Mn  Mn2  1  0.324570  0.822447  0.000000  1
  Fe  Fe3  1  0.178498  0.321502  0.000000  1
  Fe  Fe4  1  0.998479  0.997030  0.000000  1
  Fe  Fe5  1  0.502970  0.501521  0.000000  1
  B  B6  1  0.128200  0.626476  0.000000  1
  B  B7  1  0.873524  0.371800  0.000000  1
  B  B8  1  0.623505  0.876495  0.000000  1
  B  B9  1  0.371921  0.128079  0.000000  1
  Rh  Rh10  1  0.497108  0.002892  0.500000  1
  Rh  Rh11  1  0.005405  0.494595  0.500000  1
  Rh  Rh12  1  0.211656  0.074529  0.500000  1
  Rh  Rh13  1  0.782151  0.934695  0.500000  1
  Rh  Rh14  1  0.075786  0.785332  0.500000  1
  Rh  Rh15  1  0.714668  0.424214  0.500000  1
  Rh  Rh16  1  0.933532  0.213861  0.500000  1
  Rh  Rh17  1  0.286139  0.566468  0.500000  1
  Rh  Rh18  1  0.565305  0.717849  0.500000  1
  Rh  Rh19  1  0.425471  0.288344  0.500000  1
