# generated using pymatgen
data_TlW3Cl7
_symmetry_space_group_name_H-M   'P 1'
_cell_length_a   12.50075538
_cell_length_b   12.50075525
_cell_length_c   9.53427900
_cell_angle_alpha   69.68469180
_cell_angle_beta   69.68469201
_cell_angle_gamma   74.39763588
_symmetry_Int_Tables_number   1
_chemical_formula_structural   TlW3Cl7
_chemical_formula_sum   'Tl4 W12 Cl28'
_cell_volume   1291.52528051
_cell_formula_units_Z   4
loop_
 _symmetry_equiv_pos_site_id
 _symmetry_equiv_pos_as_xyz
  1  'x, y, z'
loop_
 _atom_site_type_symbol
 _atom_site_label
 _atom_site_symmetry_multiplicity
 _atom_site_fract_x
 _atom_site_fract_y
 _atom_site_fract_z
 _atom_site_occupancy
  Tl  Tl0  1  0.430147  0.569853  0.250000  1
  Tl  Tl1  1  0.569853  0.430147  0.750000  1
  Tl  Tl2  1  0.000000  0.000000  0.000000  1
  Tl  Tl3  1  0.000000  0.000000  0.500000  1
  W  W4  1  0.047985  0.340632  0.055290  1
  W  W5  1  0.659368  0.952015  0.444710  1
  W  W6  1  0.952015  0.659368  0.944710  1
  W  W7  1  0.340632  0.047985  0.555290  1
  W  W8  1  0.069527  0.513000  0.136440  1
  W  W9  1  0.487000  0.930473  0.363560  1
  W  W10  1  0.930473  0.487000  0.863560  1
  W  W11  1  0.513000  0.069527  0.636440  1
  W  W12  1  0.862283  0.482556  0.159699  1
  W  W13  1  0.517444  0.137717  0.340301  1
  W  W14  1  0.137717  0.517444  0.840301  1
  W  W15  1  0.482556  0.862283  0.659699  1
  Cl  Cl16  1  0.849637  0.317483  0.073471  1
  Cl  Cl17  1  0.682517  0.150363  0.426529  1
  Cl  Cl18  1  0.150363  0.682517  0.926530  1
  Cl  Cl19  1  0.317483  0.849637  0.573471  1
  Cl  Cl20  1  0.889263  0.647459  0.229370  1
  Cl  Cl21  1  0.352541  0.110737  0.270630  1
  Cl  Cl22  1  0.110737  0.352541  0.770630  1
  Cl  Cl23  1  0.647459  0.889263  0.729370  1
  Cl  Cl24  1  0.243281  0.376584  0.029994  1
  Cl  Cl25  1  0.623416  0.756719  0.470006  1
  Cl  Cl26  1  0.756719  0.623416  0.970006  1
  Cl  Cl27  1  0.376584  0.243281  0.529994  1
  Cl  Cl28  1  0.979806  0.343353  0.335932  1
  Cl  Cl29  1  0.656647  0.020194  0.164068  1
  Cl  Cl30  1  0.020194  0.656647  0.664068  1
  Cl  Cl31  1  0.343353  0.979806  0.835932  1
  Cl  Cl32  1  0.111244  0.126670  0.134241  1
  Cl  Cl33  1  0.873330  0.888756  0.365759  1
  Cl  Cl34  1  0.888756  0.873330  0.865759  1
  Cl  Cl35  1  0.126670  0.111244  0.634241  1
  Cl  Cl36  1  0.162697  0.530648  0.311973  1
  Cl  Cl37  1  0.469352  0.837303  0.188027  1
  Cl  Cl38  1  0.837303  0.469352  0.688027  1
  Cl  Cl39  1  0.530648  0.162697  0.811973  1
  Cl  Cl40  1  0.677777  0.461752  0.367035  1
  Cl  Cl41  1  0.538248  0.322223  0.132965  1
  Cl  Cl42  1  0.322223  0.538248  0.632965  1
  Cl  Cl43  1  0.461752  0.677777  0.867035  1
