# generated using pymatgen
data_YLuInSnPt2
_symmetry_space_group_name_H-M   'P 1'
_cell_length_a   7.61843873
_cell_length_b   7.59902613
_cell_length_c   7.74340512
_cell_angle_alpha   90.07368147
_cell_angle_beta   89.99883214
_cell_angle_gamma   120.07081505
_symmetry_Int_Tables_number   1
_chemical_formula_structural   YLuInSnPt2
_chemical_formula_sum   'Y3 Lu3 In3 Sn3 Pt6'
_cell_volume   387.94996056
_cell_formula_units_Z   3
loop_
 _symmetry_equiv_pos_site_id
 _symmetry_equiv_pos_as_xyz
  1  'x, y, z'
loop_
 _atom_site_type_symbol
 _atom_site_label
 _atom_site_symmetry_multiplicity
 _atom_site_fract_x
 _atom_site_fract_y
 _atom_site_fract_z
 _atom_site_occupancy
  Y  Y0  1  0.402777  0.998038  0.751359  1
  Y  Y1  1  0.596385  0.594370  0.751555  1
  Y  Y2  1  0.001683  0.407792  0.751385  1
  Lu  Lu3  1  0.398790  0.998754  0.249094  1
  Lu  Lu4  1  0.600664  0.597206  0.248099  1
  Lu  Lu5  1  0.000550  0.404312  0.248847  1
  In  In6  1  0.263298  0.261885  0.003174  1
  In  In7  1  0.002116  0.741194  0.003083  1
  In  In8  1  0.999431  0.733906  0.496752  1
  Sn  Sn9  1  0.732989  0.997595  0.497532  1
  Sn  Sn10  1  0.264166  0.262747  0.497468  1
  Sn  Sn11  1  0.741328  0.000737  0.002348  1
  Pt  Pt12  1  0.997588  0.002088  0.746133  1
  Pt  Pt13  1  0.997354  0.002819  0.253702  1
  Pt  Pt14  1  0.667673  0.332354  0.010567  1
  Pt  Pt15  1  0.333234  0.665280  0.487282  1
  Pt  Pt16  1  0.335685  0.668741  0.012455  1
  Pt  Pt17  1  0.664291  0.330183  0.489168  1
