# generated using pymatgen
data_Nd2HoLu5(WO6)4
_symmetry_space_group_name_H-M   'P 1'
_cell_length_a   5.39095900
_cell_length_b   7.69100962
_cell_length_c   11.41116384
_cell_angle_alpha   75.52019985
_cell_angle_beta   90.00000000
_cell_angle_gamma   90.00000000
_symmetry_Int_Tables_number   1
_chemical_formula_structural   Nd2HoLu5(WO6)4
_chemical_formula_sum   'Nd2 Ho1 Lu5 W4 O24'
_cell_volume   458.10020317
_cell_formula_units_Z   1
loop_
 _symmetry_equiv_pos_site_id
 _symmetry_equiv_pos_as_xyz
  1  'x, y, z'
loop_
 _atom_site_type_symbol
 _atom_site_label
 _atom_site_symmetry_multiplicity
 _atom_site_fract_x
 _atom_site_fract_y
 _atom_site_fract_z
 _atom_site_occupancy
  Nd  Nd0  1  0.314413  0.500000  0.750000  1
  Nd  Nd1  1  0.686409  0.500000  0.250000  1
  Ho  Ho2  1  0.255384  0.000000  0.750000  1
  Lu  Lu3  1  0.183990  0.797287  0.078279  1
  Lu  Lu4  1  0.183990  0.202713  0.421721  1
  Lu  Lu5  1  0.743778  0.000000  0.250000  1
  Lu  Lu6  1  0.815319  0.203068  0.922709  1
  Lu  Lu7  1  0.815319  0.796932  0.577291  1
  W  W8  1  0.745553  0.728233  0.884817  1
  W  W9  1  0.254736  0.729685  0.383983  1
  W  W10  1  0.745553  0.271767  0.615183  1
  W  W11  1  0.254736  0.270315  0.116017  1
  O  O12  1  0.542026  0.155481  0.069378  1
  O  O13  1  0.041881  0.055549  0.104357  1
  O  O14  1  0.014775  0.721821  0.767987  1
  O  O15  1  0.458736  0.157537  0.567885  1
  O  O16  1  0.345222  0.491708  0.386937  1
  O  O17  1  0.954556  0.056182  0.602337  1
  O  O18  1  0.546433  0.797088  0.724533  1
  O  O19  1  0.456549  0.799703  0.224390  1
  O  O20  1  0.142369  0.642994  0.546624  1
  O  O21  1  0.041881  0.944451  0.395643  1
  O  O22  1  0.458736  0.842463  0.932115  1
  O  O23  1  0.456549  0.200297  0.275610  1
  O  O24  1  0.858830  0.358526  0.452894  1
  O  O25  1  0.654229  0.490582  0.887773  1
  O  O26  1  0.345222  0.508292  0.113063  1
  O  O27  1  0.954556  0.943818  0.897663  1
  O  O28  1  0.542026  0.844519  0.430622  1
  O  O29  1  0.984801  0.276784  0.232506  1
  O  O30  1  0.546433  0.202912  0.775467  1
  O  O31  1  0.858830  0.641474  0.047106  1
  O  O32  1  0.014775  0.278179  0.732013  1
  O  O33  1  0.142369  0.357006  0.953376  1
  O  O34  1  0.984801  0.723216  0.267494  1
  O  O35  1  0.654229  0.509418  0.612227  1
