# generated using pymatgen
data_DyY4Tm5Bi6
_symmetry_space_group_name_H-M   'P 1'
_cell_length_a   8.21223500
_cell_length_b   9.45956300
_cell_length_c   12.02793100
_cell_angle_alpha   90.00152663
_cell_angle_beta   90.00000000
_cell_angle_gamma   90.00000000
_symmetry_Int_Tables_number   1
_chemical_formula_structural   DyY4Tm5Bi6
_chemical_formula_sum   'Dy2 Y8 Tm10 Bi12'
_cell_volume   934.37964819
_cell_formula_units_Z   2
loop_
 _symmetry_equiv_pos_site_id
 _symmetry_equiv_pos_as_xyz
  1  'x, y, z'
loop_
 _atom_site_type_symbol
 _atom_site_label
 _atom_site_symmetry_multiplicity
 _atom_site_fract_x
 _atom_site_fract_y
 _atom_site_fract_z
 _atom_site_occupancy
  Dy  Dy0  1  0.307249  0.435818  0.940693  1
  Dy  Dy1  1  0.807249  0.064182  0.559307  1
  Y  Y2  1  0.186166  0.749985  0.718727  1
  Y  Y3  1  0.686166  0.750015  0.781273  1
  Y  Y4  1  0.813668  0.250204  0.281180  1
  Y  Y5  1  0.313668  0.249796  0.218820  1
  Y  Y6  1  0.353401  0.749901  0.215992  1
  Y  Y7  1  0.853401  0.750099  0.284008  1
  Y  Y8  1  0.646342  0.250108  0.784059  1
  Y  Y9  1  0.146342  0.249892  0.715941  1
  Tm  Tm10  1  0.024478  0.750126  0.989222  1
  Tm  Tm11  1  0.524478  0.749874  0.510778  1
  Tm  Tm12  1  0.974798  0.249779  0.010977  1
  Tm  Tm13  1  0.474798  0.250221  0.489023  1
  Tm  Tm14  1  0.693162  0.934700  0.059439  1
  Tm  Tm15  1  0.193162  0.565300  0.440561  1
  Tm  Tm16  1  0.692869  0.565355  0.059251  1
  Tm  Tm17  1  0.192869  0.934645  0.440749  1
  Tm  Tm18  1  0.307084  0.065092  0.940670  1
  Tm  Tm19  1  0.807084  0.434908  0.559330  1
  Bi  Bi20  1  0.433503  0.003862  0.672309  1
  Bi  Bi21  1  0.933503  0.496138  0.827691  1
  Bi  Bi22  1  0.566267  0.503982  0.327780  1
  Bi  Bi23  1  0.066267  0.996018  0.172220  1
  Bi  Bi24  1  0.566255  0.996129  0.327573  1
  Bi  Bi25  1  0.066255  0.503871  0.172427  1
  Bi  Bi26  1  0.433899  0.496144  0.672156  1
  Bi  Bi27  1  0.933899  0.003856  0.827844  1
  Bi  Bi28  1  0.406875  0.751628  0.957988  1
  Bi  Bi29  1  0.906875  0.748372  0.542012  1
  Bi  Bi30  1  0.593983  0.249454  0.042470  1
  Bi  Bi31  1  0.093983  0.250546  0.457530  1
