# generated using pymatgen
data_DyErAlZn16
_symmetry_space_group_name_H-M   'P 1'
_cell_length_a   6.79226420
_cell_length_b   6.79226281
_cell_length_c   6.79226317
_cell_angle_alpha   82.78141037
_cell_angle_beta   82.78141442
_cell_angle_gamma   82.78140556
_symmetry_Int_Tables_number   1
_chemical_formula_structural   DyErAlZn16
_chemical_formula_sum   'Dy1 Er1 Al1 Zn16'
_cell_volume   306.48471909
_cell_formula_units_Z   1
loop_
 _symmetry_equiv_pos_site_id
 _symmetry_equiv_pos_as_xyz
  1  'x, y, z'
loop_
 _atom_site_type_symbol
 _atom_site_label
 _atom_site_symmetry_multiplicity
 _atom_site_fract_x
 _atom_site_fract_y
 _atom_site_fract_z
 _atom_site_occupancy
  Dy  Dy0  1  0.334868  0.334868  0.334868  1
  Er  Er1  1  0.665396  0.665396  0.665396  1
  Al  Al2  1  0.098716  0.098716  0.098716  1
  Zn  Zn3  1  0.352628  0.838751  0.352628  1
  Zn  Zn4  1  0.352628  0.352628  0.838751  1
  Zn  Zn5  1  0.838751  0.352628  0.352628  1
  Zn  Zn6  1  0.648671  0.160873  0.648671  1
  Zn  Zn7  1  0.648671  0.648671  0.160873  1
  Zn  Zn8  1  0.160873  0.648671  0.648671  1
  Zn  Zn9  1  0.300328  0.700515  0.999371  1
  Zn  Zn10  1  0.999371  0.300328  0.700515  1
  Zn  Zn11  1  0.700515  0.999371  0.300328  1
  Zn  Zn12  1  0.999371  0.700515  0.300328  1
  Zn  Zn13  1  0.300328  0.999371  0.700515  1
  Zn  Zn14  1  0.700515  0.300328  0.999371  1
  Zn  Zn15  1  0.999078  0.999078  0.502723  1
  Zn  Zn16  1  0.502723  0.999078  0.999078  1
  Zn  Zn17  1  0.999078  0.502723  0.999078  1
  Zn  Zn18  1  0.897491  0.897491  0.897491  1
