# generated using pymatgen
data_HoZnNi2BIr
_symmetry_space_group_name_H-M   'P 1'
_cell_length_a   5.29437500
_cell_length_b   5.19442268
_cell_length_c   6.99702900
_cell_angle_alpha   90.00000000
_cell_angle_beta   90.00000000
_cell_angle_gamma   120.63858957
_symmetry_Int_Tables_number   1
_chemical_formula_structural   HoZnNi2BIr
_chemical_formula_sum   'Ho2 Zn2 Ni4 B2 Ir2'
_cell_volume   165.56386199
_cell_formula_units_Z   2
loop_
 _symmetry_equiv_pos_site_id
 _symmetry_equiv_pos_as_xyz
  1  'x, y, z'
loop_
 _atom_site_type_symbol
 _atom_site_label
 _atom_site_symmetry_multiplicity
 _atom_site_fract_x
 _atom_site_fract_y
 _atom_site_fract_z
 _atom_site_occupancy
  Ho  Ho0  1  0.000000  0.000000  0.500000  1
  Ho  Ho1  1  0.000000  0.000000  0.000000  1
  Zn  Zn2  1  0.340972  0.681945  0.500000  1
  Zn  Zn3  1  0.659028  0.318055  0.500000  1
  Ni  Ni4  1  0.500000  0.000000  0.798866  1
  Ni  Ni5  1  0.000000  0.500000  0.796659  1
  Ni  Ni6  1  0.500000  0.000000  0.201134  1
  Ni  Ni7  1  0.500000  0.500000  0.203341  1
  B  B8  1  0.335714  0.671429  0.000000  1
  B  B9  1  0.664286  0.328571  0.000000  1
  Ir  Ir10  1  0.000000  0.500000  0.206966  1
  Ir  Ir11  1  0.500000  0.500000  0.793034  1
