# generated using pymatgen
data_Ho12InGaSi4
_symmetry_space_group_name_H-M   'P 1'
_cell_length_a   8.44486515
_cell_length_b   8.44496786
_cell_length_c   8.44486563
_cell_angle_alpha   111.98504558
_cell_angle_beta   111.48808086
_cell_angle_gamma   105.02971442
_symmetry_Int_Tables_number   1
_chemical_formula_structural   Ho12InGaSi4
_chemical_formula_sum   'Ho12 In1 Ga1 Si4'
_cell_volume   461.54460052
_cell_formula_units_Z   1
loop_
 _symmetry_equiv_pos_site_id
 _symmetry_equiv_pos_as_xyz
  1  'x, y, z'
loop_
 _atom_site_type_symbol
 _atom_site_label
 _atom_site_symmetry_multiplicity
 _atom_site_fract_x
 _atom_site_fract_y
 _atom_site_fract_z
 _atom_site_occupancy
  Ho  Ho0  1  0.433081  0.235378  0.197679  1
  Ho  Ho1  1  0.566919  0.764622  0.802321  1
  Ho  Ho2  1  0.037698  0.235378  0.802297  1
  Ho  Ho3  1  0.962302  0.764622  0.197703  1
  Ho  Ho4  1  0.181441  0.272842  0.454282  1
  Ho  Ho5  1  0.818559  0.727158  0.545718  1
  Ho  Ho6  1  0.181440  0.727158  0.908598  1
  Ho  Ho7  1  0.818560  0.272842  0.091402  1
  Ho  Ho8  1  0.320392  0.619085  0.298695  1
  Ho  Ho9  1  0.679608  0.380915  0.701305  1
  Ho  Ho10  1  0.320385  0.021699  0.701314  1
  Ho  Ho11  1  0.679615  0.978301  0.298686  1
  In  In12  1  0.500000  0.500000  0.000000  1
  Ga  Ga13  1  0.000000  0.000000  0.000000  1
  Si  Si14  1  0.367442  0.000000  0.367442  1
  Si  Si15  1  0.632558  0.000000  0.632558  1
  Si  Si16  1  0.116242  0.616236  0.499993  1
  Si  Si17  1  0.883758  0.383764  0.500007  1
