# generated using pymatgen
data_Tb6Y2CdInPd2
_symmetry_space_group_name_H-M   'P 1'
_cell_length_a   9.75041109
_cell_length_b   9.75550769
_cell_length_c   9.76555733
_cell_angle_alpha   59.93138051
_cell_angle_beta   59.98313993
_cell_angle_gamma   60.04416520
_symmetry_Int_Tables_number   1
_chemical_formula_structural   Tb6Y2CdInPd2
_chemical_formula_sum   'Tb12 Y4 Cd2 In2 Pd4'
_cell_volume   656.62643144
_cell_formula_units_Z   2
loop_
 _symmetry_equiv_pos_site_id
 _symmetry_equiv_pos_as_xyz
  1  'x, y, z'
loop_
 _atom_site_type_symbol
 _atom_site_label
 _atom_site_symmetry_multiplicity
 _atom_site_fract_x
 _atom_site_fract_y
 _atom_site_fract_z
 _atom_site_occupancy
  Tb  Tb0  1  0.352619  0.352727  0.352418  1
  Tb  Tb1  1  0.352727  0.352619  0.942236  1
  Tb  Tb2  1  0.353852  0.939210  0.353434  1
  Tb  Tb3  1  0.939210  0.353852  0.353504  1
  Tb  Tb4  1  0.809818  0.190803  0.190145  1
  Tb  Tb5  1  0.190803  0.809818  0.809234  1
  Tb  Tb6  1  0.190719  0.809865  0.190136  1
  Tb  Tb7  1  0.809865  0.190719  0.809280  1
  Tb  Tb8  1  0.189109  0.189109  0.810891  1
  Tb  Tb9  1  0.808394  0.808394  0.191606  1
  Tb  Tb10  1  0.937126  0.565200  0.565052  1
  Tb  Tb11  1  0.565200  0.937126  0.932622  1
  Y  Y12  1  0.565136  0.937000  0.564757  1
  Y  Y13  1  0.937000  0.565136  0.933108  1
  Y  Y14  1  0.565565  0.565565  0.934435  1
  Y  Y15  1  0.936703  0.936703  0.563297  1
  Cd  Cd16  1  0.581198  0.252063  0.583294  1
  Cd  Cd17  1  0.252063  0.581198  0.583445  1
  In  In18  1  0.582104  0.582184  0.583953  1
  In  In19  1  0.582184  0.582104  0.251759  1
  Pd  Pd20  1  0.143771  0.144013  0.145313  1
  Pd  Pd21  1  0.144013  0.143771  0.566902  1
  Pd  Pd22  1  0.143321  0.567500  0.144462  1
  Pd  Pd23  1  0.567500  0.143321  0.144717  1
