# generated using pymatgen
data_Pr4Nd4CdInIr2
_symmetry_space_group_name_H-M   'P 1'
_cell_length_a   10.01042232
_cell_length_b   10.01042159
_cell_length_c   10.01338000
_cell_angle_alpha   59.99022337
_cell_angle_beta   59.99022579
_cell_angle_gamma   59.96684902
_symmetry_Int_Tables_number   1
_chemical_formula_structural   Pr4Nd4CdInIr2
_chemical_formula_sum   'Pr8 Nd8 Cd2 In2 Ir4'
_cell_volume   709.24680717
_cell_formula_units_Z   2
loop_
 _symmetry_equiv_pos_site_id
 _symmetry_equiv_pos_as_xyz
  1  'x, y, z'
loop_
 _atom_site_type_symbol
 _atom_site_label
 _atom_site_symmetry_multiplicity
 _atom_site_fract_x
 _atom_site_fract_y
 _atom_site_fract_z
 _atom_site_occupancy
  Pr  Pr0  1  0.188660  0.188660  0.811340  1
  Pr  Pr1  1  0.807374  0.807374  0.192626  1
  Pr  Pr2  1  0.941305  0.560712  0.560488  1
  Pr  Pr3  1  0.560712  0.941305  0.937495  1
  Pr  Pr4  1  0.560712  0.941305  0.560488  1
  Pr  Pr5  1  0.941305  0.560712  0.937495  1
  Pr  Pr6  1  0.560734  0.560734  0.939266  1
  Pr  Pr7  1  0.939868  0.939868  0.560132  1
  Nd  Nd8  1  0.348254  0.348254  0.346557  1
  Nd  Nd9  1  0.348254  0.348254  0.956934  1
  Nd  Nd10  1  0.349171  0.955211  0.347809  1
  Nd  Nd11  1  0.955211  0.349171  0.347809  1
  Nd  Nd12  1  0.808808  0.190365  0.191628  1
  Nd  Nd13  1  0.190365  0.808808  0.809199  1
  Nd  Nd14  1  0.190365  0.808808  0.191628  1
  Nd  Nd15  1  0.808808  0.190365  0.809199  1
  Cd  Cd16  1  0.578785  0.260505  0.580354  1
  Cd  Cd17  1  0.260505  0.578785  0.580354  1
  In  In18  1  0.579863  0.579863  0.581516  1
  In  In19  1  0.579863  0.579863  0.258757  1
  Ir  Ir20  1  0.141618  0.141618  0.141416  1
  Ir  Ir21  1  0.141618  0.141618  0.575348  1
  Ir  Ir22  1  0.142386  0.575451  0.141081  1
  Ir  Ir23  1  0.575451  0.142386  0.141081  1
