# generated using pymatgen
data_CaZnGa5Cu6
_symmetry_space_group_name_H-M   'P 1'
_cell_length_a   5.15538101
_cell_length_b   6.61404833
_cell_length_c   6.61404700
_cell_angle_alpha   99.61840186
_cell_angle_beta   112.93769252
_cell_angle_gamma   67.06231782
_symmetry_Int_Tables_number   1
_chemical_formula_structural   CaZnGa5Cu6
_chemical_formula_sum   'Ca1 Zn1 Ga5 Cu6'
_cell_volume   191.23977346
_cell_formula_units_Z   1
loop_
 _symmetry_equiv_pos_site_id
 _symmetry_equiv_pos_as_xyz
  1  'x, y, z'
loop_
 _atom_site_type_symbol
 _atom_site_label
 _atom_site_symmetry_multiplicity
 _atom_site_fract_x
 _atom_site_fract_y
 _atom_site_fract_z
 _atom_site_occupancy
  Ca  Ca0  1  0.999294  0.000706  0.999294  1
  Zn  Zn1  1  0.302019  0.197981  0.802019  1
  Ga  Ga2  1  0.652524  0.347476  0.652524  1
  Ga  Ga3  1  0.350431  0.649569  0.350431  1
  Ga  Ga4  1  0.001390  0.347505  0.350284  1
  Ga  Ga5  1  0.001390  0.649716  0.652495  1
  Ga  Ga6  1  0.692514  0.807486  0.192514  1
  Cu  Cu7  1  0.500799  0.998441  0.499117  1
  Cu  Cu8  1  0.999879  0.998441  0.499117  1
  Cu  Cu9  1  0.500799  0.500883  0.001559  1
  Cu  Cu10  1  0.999879  0.500883  0.001559  1
  Cu  Cu11  1  0.499542  0.768259  0.767344  1
  Cu  Cu12  1  0.499542  0.232656  0.231741  1
