# generated using pymatgen
data_Tb8GePBr12
_symmetry_space_group_name_H-M   'P 1'
_cell_length_a   4.06557100
_cell_length_b   13.24440130
_cell_length_c   14.02340165
_cell_angle_alpha   90.00093755
_cell_angle_beta   90.00000000
_cell_angle_gamma   90.00000000
_symmetry_Int_Tables_number   1
_chemical_formula_structural   Tb8GePBr12
_chemical_formula_sum   'Tb8 Ge1 P1 Br12'
_cell_volume   755.10484003
_cell_formula_units_Z   1
loop_
 _symmetry_equiv_pos_site_id
 _symmetry_equiv_pos_as_xyz
  1  'x, y, z'
loop_
 _atom_site_type_symbol
 _atom_site_label
 _atom_site_symmetry_multiplicity
 _atom_site_fract_x
 _atom_site_fract_y
 _atom_site_fract_z
 _atom_site_occupancy
  Tb  Tb0  1  0.500000  0.115484  0.344813  1
  Tb  Tb1  1  0.500000  0.884516  0.655187  1
  Tb  Tb2  1  0.500000  0.620310  0.161706  1
  Tb  Tb3  1  0.500000  0.379690  0.838294  1
  Tb  Tb4  1  0.000000  0.112882  0.574768  1
  Tb  Tb5  1  0.000000  0.887118  0.425232  1
  Tb  Tb6  1  0.000000  0.620443  0.919963  1
  Tb  Tb7  1  0.000000  0.379557  0.080037  1
  Ge  Ge8  1  0.500000  0.500000  0.000000  1
  P  P9  1  0.500000  0.000000  0.500000  1
  Br  Br10  1  0.500000  0.243250  0.163616  1
  Br  Br11  1  0.500000  0.756750  0.836384  1
  Br  Br12  1  0.500000  0.745503  0.337904  1
  Br  Br13  1  0.500000  0.254497  0.662096  1
  Br  Br14  1  0.000000  0.254520  0.412069  1
  Br  Br15  1  0.000000  0.745480  0.587931  1
  Br  Br16  1  0.000000  0.756408  0.088319  1
  Br  Br17  1  0.000000  0.243592  0.911681  1
  Br  Br18  1  0.000000  0.001291  0.244263  1
  Br  Br19  1  0.000000  0.998709  0.755737  1
  Br  Br20  1  0.000000  0.501147  0.257794  1
  Br  Br21  1  0.000000  0.498853  0.742206  1
