# generated using pymatgen
data_PaP2Br12N
_symmetry_space_group_name_H-M   'P 1'
_cell_length_a   8.93919220
_cell_length_b   8.93919182
_cell_length_c   17.57580755
_cell_angle_alpha   78.42901189
_cell_angle_beta   78.42901346
_cell_angle_gamma   67.65161383
_symmetry_Int_Tables_number   1
_chemical_formula_structural   PaP2Br12N
_chemical_formula_sum   'Pa2 P4 Br24 N2'
_cell_volume   1260.54388196
_cell_formula_units_Z   2
loop_
 _symmetry_equiv_pos_site_id
 _symmetry_equiv_pos_as_xyz
  1  'x, y, z'
loop_
 _atom_site_type_symbol
 _atom_site_label
 _atom_site_symmetry_multiplicity
 _atom_site_fract_x
 _atom_site_fract_y
 _atom_site_fract_z
 _atom_site_occupancy
  Pa  Pa0  1  0.000000  0.000000  0.500000  1
  Pa  Pa1  1  0.000000  0.000000  0.000000  1
  P  P2  1  0.464655  0.326602  0.769890  1
  P  P3  1  0.673398  0.535345  0.730110  1
  P  P4  1  0.326602  0.464655  0.269890  1
  P  P5  1  0.535345  0.673398  0.230110  1
  Br  Br6  1  0.691810  0.225258  0.009893  1
  Br  Br7  1  0.773093  0.888986  0.470325  1
  Br  Br8  1  0.308190  0.774742  0.990107  1
  Br  Br9  1  0.898892  0.476123  0.650254  1
  Br  Br10  1  0.242800  0.500136  0.824295  1
  Br  Br11  1  0.523877  0.101108  0.849746  1
  Br  Br12  1  0.111014  0.226907  0.029675  1
  Br  Br13  1  0.476123  0.898892  0.150254  1
  Br  Br14  1  0.950858  0.904236  0.156855  1
  Br  Br15  1  0.774742  0.308190  0.490107  1
  Br  Br16  1  0.904236  0.950858  0.656855  1
  Br  Br17  1  0.226907  0.111014  0.529675  1
  Br  Br18  1  0.888986  0.773093  0.970325  1
  Br  Br19  1  0.276735  0.405424  0.165728  1
  Br  Br20  1  0.594576  0.723265  0.334272  1
  Br  Br21  1  0.095764  0.049142  0.343145  1
  Br  Br22  1  0.723265  0.594576  0.834272  1
  Br  Br23  1  0.225258  0.691810  0.509893  1
  Br  Br24  1  0.049142  0.095764  0.843145  1
  Br  Br25  1  0.101108  0.523877  0.349746  1
  Br  Br26  1  0.757200  0.499864  0.175705  1
  Br  Br27  1  0.499864  0.757200  0.675705  1
  Br  Br28  1  0.405424  0.276735  0.665728  1
  Br  Br29  1  0.500136  0.242800  0.324295  1
  N  N30  1  0.613991  0.386009  0.750000  1
  N  N31  1  0.386009  0.613991  0.250000  1
