# generated using pymatgen
data_Rb6YInBi4
_symmetry_space_group_name_H-M   'P 1'
_cell_length_a   10.36205208
_cell_length_b   10.36205101
_cell_length_c   10.36203222
_cell_angle_alpha   128.29184703
_cell_angle_beta   69.16399230
_cell_angle_gamma   137.39410280
_symmetry_Int_Tables_number   1
_chemical_formula_structural   Rb6YInBi4
_chemical_formula_sum   'Rb6 Y1 In1 Bi4'
_cell_volume   580.48840023
_cell_formula_units_Z   1
loop_
 _symmetry_equiv_pos_site_id
 _symmetry_equiv_pos_as_xyz
  1  'x, y, z'
loop_
 _atom_site_type_symbol
 _atom_site_label
 _atom_site_symmetry_multiplicity
 _atom_site_fract_x
 _atom_site_fract_y
 _atom_site_fract_z
 _atom_site_occupancy
  Rb  Rb0  1  0.250001  0.250001  0.000000  1
  Rb  Rb1  1  0.749997  0.749998  0.000000  1
  Rb  Rb2  1  0.322557  0.815581  0.125846  1
  Rb  Rb3  1  0.177448  0.303294  0.493027  1
  Rb  Rb4  1  0.810268  0.684422  0.506975  1
  Rb  Rb5  1  0.689733  0.196710  0.874154  1
  Y  Y6  1  0.249997  0.749997  0.499999  1
  In  In7  1  0.750000  0.250000  0.500000  1
  Bi  Bi8  1  0.893058  0.299750  0.204884  1
  Bi  Bi9  1  0.606941  0.811827  0.406691  1
  Bi  Bi10  1  0.405135  0.200249  0.593308  1
  Bi  Bi11  1  0.094864  0.688172  0.795115  1
