# generated using pymatgen
data_Mg2ReH7
_symmetry_space_group_name_H-M   'P 1'
_cell_length_a   4.89010705
_cell_length_b   4.95898707
_cell_length_c   6.87743502
_cell_angle_alpha   45.88769820
_cell_angle_beta   45.77464048
_cell_angle_gamma   61.46575828
_symmetry_Int_Tables_number   1
_chemical_formula_structural   Mg2ReH7
_chemical_formula_sum   'Mg2 Re1 H7'
_cell_volume   85.79781641
_cell_formula_units_Z   1
loop_
 _symmetry_equiv_pos_site_id
 _symmetry_equiv_pos_as_xyz
  1  'x, y, z'
loop_
 _atom_site_type_symbol
 _atom_site_label
 _atom_site_symmetry_multiplicity
 _atom_site_fract_x
 _atom_site_fract_y
 _atom_site_fract_z
 _atom_site_occupancy
  Mg  Mg0  1  0.925222  0.038909  0.604521  1
  Mg  Mg1  1  0.919049  0.031560  0.132562  1
  Re  Re2  1  0.401294  0.556207  0.870514  1
  H  H3  1  0.297186  0.557917  0.677074  1
  H  H4  1  0.336138  0.065045  0.148644  1
  H  H5  1  0.814399  0.505864  0.566197  1
  H  H6  1  0.781565  0.515755  0.850400  1
  H  H7  1  0.265480  0.563489  0.172774  1
  H  H8  1  0.911575  0.631655  0.069602  1
  H  H9  1  0.469782  0.045919  0.588383  1
