# generated using pymatgen
data_Zr4In2PdPt3
_symmetry_space_group_name_H-M   'P 1'
_cell_length_a   7.59228090
_cell_length_b   7.59228090
_cell_length_c   6.87056368
_cell_angle_alpha   90.07161691
_cell_angle_beta   90.07161691
_cell_angle_gamma   90.03766518
_symmetry_Int_Tables_number   1
_chemical_formula_structural   Zr4In2PdPt3
_chemical_formula_sum   'Zr8 In4 Pd2 Pt6'
_cell_volume   396.03733698
_cell_formula_units_Z   2
loop_
 _symmetry_equiv_pos_site_id
 _symmetry_equiv_pos_as_xyz
  1  'x, y, z'
loop_
 _atom_site_type_symbol
 _atom_site_label
 _atom_site_symmetry_multiplicity
 _atom_site_fract_x
 _atom_site_fract_y
 _atom_site_fract_z
 _atom_site_occupancy
  Zr  Zr0  1  0.652331  0.652331  0.502932  1
  Zr  Zr1  1  0.814517  0.185483  0.500000  1
  Zr  Zr2  1  0.683960  0.683960  0.998738  1
  Zr  Zr3  1  0.846409  0.153591  0.000000  1
  Zr  Zr4  1  0.185483  0.814517  0.500000  1
  Zr  Zr5  1  0.316040  0.316040  0.001262  1
  Zr  Zr6  1  0.153591  0.846409  0.000000  1
  Zr  Zr7  1  0.347669  0.347669  0.497068  1
  In  In8  1  0.998564  0.501827  0.250430  1
  In  In9  1  0.498173  0.001436  0.749570  1
  In  In10  1  0.501827  0.998564  0.250430  1
  In  In11  1  0.001436  0.498173  0.749570  1
  Pd  Pd12  1  0.868285  0.868285  0.284815  1
  Pd  Pd13  1  0.131715  0.131715  0.715185  1
  Pt  Pt14  1  0.630158  0.369833  0.218867  1
  Pt  Pt15  1  0.369842  0.630167  0.781133  1
  Pt  Pt16  1  0.872102  0.872102  0.721558  1
  Pt  Pt17  1  0.630167  0.369842  0.781133  1
  Pt  Pt18  1  0.369833  0.630158  0.218867  1
  Pt  Pt19  1  0.127898  0.127898  0.278442  1
