# generated using pymatgen
data_ZnCo7Sb2(RhO8)2
_symmetry_space_group_name_H-M   'P 1'
_cell_length_a   6.07979517
_cell_length_b   10.47242857
_cell_length_c   6.19002655
_cell_angle_alpha   73.83057283
_cell_angle_beta   60.58554095
_cell_angle_gamma   89.97091762
_symmetry_Int_Tables_number   1
_chemical_formula_structural   ZnCo7Sb2(RhO8)2
_chemical_formula_sum   'Zn1 Co7 Sb2 Rh2 O16'
_cell_volume   325.33097704
_cell_formula_units_Z   1
loop_
 _symmetry_equiv_pos_site_id
 _symmetry_equiv_pos_as_xyz
  1  'x, y, z'
loop_
 _atom_site_type_symbol
 _atom_site_label
 _atom_site_symmetry_multiplicity
 _atom_site_fract_x
 _atom_site_fract_y
 _atom_site_fract_z
 _atom_site_occupancy
  Zn  Zn0  1  0.706935  0.570690  0.097197  1
  Co  Co1  1  0.796750  0.930482  0.900353  1
  Co  Co2  1  0.749648  0.249920  0.499854  1
  Co  Co3  1  0.996796  0.499779  0.500370  1
  Co  Co4  1  0.196996  0.069581  0.098955  1
  Co  Co5  1  0.302436  0.430623  0.900949  1
  Co  Co6  1  0.503218  0.000108  0.499642  1
  Co  Co7  1  0.750402  0.750209  0.500001  1
  Sb  Sb8  1  0.749498  0.250127  0.999946  1
  Sb  Sb9  1  0.250462  0.749888  0.000056  1
  Rh  Rh10  1  0.249212  0.249938  0.500241  1
  Rh  Rh11  1  0.250566  0.750156  0.500261  1
  O  O12  1  0.393460  0.130199  0.714393  1
  O  O13  1  0.892099  0.630361  0.713406  1
  O  O14  1  0.105596  0.369597  0.285729  1
  O  O15  1  0.608429  0.869660  0.285320  1
  O  O16  1  0.394184  0.136217  0.245570  1
  O  O17  1  0.902734  0.634093  0.241166  1
  O  O18  1  0.857105  0.134533  0.239453  1
  O  O19  1  0.359534  0.635990  0.246681  1
  O  O20  1  0.616917  0.362923  0.247777  1
  O  O21  1  0.135852  0.862985  0.246783  1
  O  O22  1  0.642269  0.365367  0.760288  1
  O  O23  1  0.140027  0.863476  0.754734  1
  O  O24  1  0.882119  0.136796  0.753224  1
  O  O25  1  0.364830  0.637103  0.753092  1
  O  O26  1  0.105017  0.363456  0.754604  1
  O  O27  1  0.596915  0.865739  0.759954  1
