# generated using pymatgen
data_Yb11PrPdRu3
_symmetry_space_group_name_H-M   'P 1'
_cell_length_a   6.27150358
_cell_length_b   7.67883958
_cell_length_c   9.29546900
_cell_angle_alpha   90.00000000
_cell_angle_beta   90.00000000
_cell_angle_gamma   90.26320052
_symmetry_Int_Tables_number   1
_chemical_formula_structural   Yb11PrPdRu3
_chemical_formula_sum   'Yb11 Pr1 Pd1 Ru3'
_cell_volume   447.64526366
_cell_formula_units_Z   1
loop_
 _symmetry_equiv_pos_site_id
 _symmetry_equiv_pos_as_xyz
  1  'x, y, z'
loop_
 _atom_site_type_symbol
 _atom_site_label
 _atom_site_symmetry_multiplicity
 _atom_site_fract_x
 _atom_site_fract_y
 _atom_site_fract_z
 _atom_site_occupancy
  Yb  Yb0  1  0.350566  0.661234  0.063851  1
  Yb  Yb1  1  0.154950  0.176532  0.436637  1
  Yb  Yb2  1  0.654489  0.332209  0.565961  1
  Yb  Yb3  1  0.845393  0.830576  0.930998  1
  Yb  Yb4  1  0.654489  0.332209  0.934039  1
  Yb  Yb5  1  0.845393  0.830576  0.569002  1
  Yb  Yb6  1  0.350566  0.661234  0.436149  1
  Yb  Yb7  1  0.154950  0.176532  0.063363  1
  Yb  Yb8  1  0.864535  0.532341  0.250000  1
  Yb  Yb9  1  0.624267  0.044721  0.250000  1
  Yb  Yb10  1  0.131132  0.460280  0.750000  1
  Pr  Pr11  1  0.372968  0.960251  0.750000  1
  Pd  Pd12  1  0.048590  0.876045  0.250000  1
  Ru  Ru13  1  0.458007  0.376001  0.250000  1
  Ru  Ru14  1  0.955818  0.118274  0.750000  1
  Ru  Ru15  1  0.533888  0.630985  0.750000  1
