# generated using pymatgen
data_Tb6Zn4Pd2Pt11
_symmetry_space_group_name_H-M   'P 1'
_cell_length_a   8.28911716
_cell_length_b   8.28911730
_cell_length_c   8.28454505
_cell_angle_alpha   109.42466840
_cell_angle_beta   109.42465873
_cell_angle_gamma   109.51577670
_symmetry_Int_Tables_number   1
_chemical_formula_structural   Tb6Zn4Pd2Pt11
_chemical_formula_sum   'Tb6 Zn4 Pd2 Pt11'
_cell_volume   438.45300387
_cell_formula_units_Z   1
loop_
 _symmetry_equiv_pos_site_id
 _symmetry_equiv_pos_as_xyz
  1  'x, y, z'
loop_
 _atom_site_type_symbol
 _atom_site_label
 _atom_site_symmetry_multiplicity
 _atom_site_fract_x
 _atom_site_fract_y
 _atom_site_fract_z
 _atom_site_occupancy
  Tb  Tb0  1  0.698445  0.698445  0.002560  1
  Tb  Tb1  1  0.300826  0.999477  0.300902  1
  Tb  Tb2  1  0.999477  0.300826  0.300902  1
  Tb  Tb3  1  0.302119  0.302119  0.999979  1
  Tb  Tb4  1  0.699553  0.000642  0.698166  1
  Tb  Tb5  1  0.000642  0.699553  0.698166  1
  Zn  Zn6  1  0.000115  0.000115  0.500084  1
  Zn  Zn7  1  0.999175  0.499440  0.999106  1
  Zn  Zn8  1  0.499440  0.999175  0.999106  1
  Zn  Zn9  1  0.499738  0.499738  0.500658  1
  Pd  Pd10  1  0.667606  0.335357  0.667483  1
  Pd  Pd11  1  0.335357  0.667606  0.667483  1
  Pt  Pt12  1  0.331960  0.331960  0.662278  1
  Pt  Pt13  1  0.668735  0.001044  0.331931  1
  Pt  Pt14  1  0.001044  0.668735  0.331931  1
  Pt  Pt15  1  0.669117  0.331196  0.999828  1
  Pt  Pt16  1  0.331685  0.662937  0.332130  1
  Pt  Pt17  1  0.000544  0.332554  0.668883  1
  Pt  Pt18  1  0.331196  0.669117  0.999828  1
  Pt  Pt19  1  0.332554  0.000544  0.668883  1
  Pt  Pt20  1  0.662937  0.331685  0.332130  1
  Pt  Pt21  1  0.668754  0.668754  0.338265  1
  Pt  Pt22  1  0.998979  0.998979  0.999320  1
