# generated using pymatgen
data_Cs2Mn3(AsO3)4
_symmetry_space_group_name_H-M   'P 1'
_cell_length_a   6.08680989
_cell_length_b   6.08681128
_cell_length_c   12.18973616
_cell_angle_alpha   75.74044352
_cell_angle_beta   75.74055817
_cell_angle_gamma   56.19674129
_symmetry_Int_Tables_number   1
_chemical_formula_structural   Cs2Mn3(AsO3)4
_chemical_formula_sum   'Cs2 Mn3 As4 O12'
_cell_volume   360.34941416
_cell_formula_units_Z   1
loop_
 _symmetry_equiv_pos_site_id
 _symmetry_equiv_pos_as_xyz
  1  'x, y, z'
loop_
 _atom_site_type_symbol
 _atom_site_label
 _atom_site_symmetry_multiplicity
 _atom_site_fract_x
 _atom_site_fract_y
 _atom_site_fract_z
 _atom_site_occupancy
  Cs  Cs0  1  0.369258  0.369254  0.419679  1
  Cs  Cs1  1  0.630742  0.630746  0.580321  1
  Mn  Mn2  1  0.222391  0.222393  0.765634  1
  Mn  Mn3  1  0.000000  0.000000  0.000000  1
  Mn  Mn4  1  0.777609  0.777607  0.234366  1
  As  As5  1  0.086691  0.086688  0.283299  1
  As  As6  1  0.913309  0.913312  0.716701  1
  As  As7  1  0.321244  0.321244  0.044215  1
  As  As8  1  0.678756  0.678756  0.955785  1
  O  O9  1  0.899862  0.391385  0.331520  1
  O  O10  1  0.870753  0.381755  0.890845  1
  O  O11  1  0.391389  0.899857  0.331520  1
  O  O12  1  0.137073  0.137073  0.130257  1
  O  O13  1  0.100138  0.608615  0.668480  1
  O  O14  1  0.920458  0.920455  0.326746  1
  O  O15  1  0.608611  0.100143  0.668480  1
  O  O16  1  0.618247  0.129242  0.109154  1
  O  O17  1  0.129247  0.618245  0.109155  1
  O  O18  1  0.381753  0.870758  0.890846  1
  O  O19  1  0.079542  0.079545  0.673254  1
  O  O20  1  0.862927  0.862927  0.869743  1
