# generated using pymatgen
data_La15PrCd3HgIr4
_symmetry_space_group_name_H-M   'P 1'
_cell_length_a   10.11766944
_cell_length_b   10.11766911
_cell_length_c   10.12103054
_cell_angle_alpha   60.01959910
_cell_angle_beta   60.01959948
_cell_angle_gamma   59.94661392
_symmetry_Int_Tables_number   1
_chemical_formula_structural   La15PrCd3HgIr4
_chemical_formula_sum   'La15 Pr1 Cd3 Hg1 Ir4'
_cell_volume   732.52703283
_cell_formula_units_Z   1
loop_
 _symmetry_equiv_pos_site_id
 _symmetry_equiv_pos_as_xyz
  1  'x, y, z'
loop_
 _atom_site_type_symbol
 _atom_site_label
 _atom_site_symmetry_multiplicity
 _atom_site_fract_x
 _atom_site_fract_y
 _atom_site_fract_z
 _atom_site_occupancy
  La  La0  1  0.346955  0.346955  0.346857  1
  La  La1  1  0.347490  0.347490  0.957505  1
  La  La2  1  0.347292  0.956664  0.348031  1
  La  La3  1  0.956664  0.347292  0.348031  1
  La  La4  1  0.809905  0.189682  0.190983  1
  La  La5  1  0.190231  0.809139  0.808628  1
  La  La6  1  0.189682  0.809905  0.190983  1
  La  La7  1  0.809139  0.190231  0.808628  1
  La  La8  1  0.189860  0.189860  0.810182  1
  La  La9  1  0.809021  0.809021  0.190759  1
  La  La10  1  0.939242  0.560924  0.560938  1
  La  La11  1  0.560812  0.939702  0.938538  1
  La  La12  1  0.560924  0.939242  0.560938  1
  La  La13  1  0.939702  0.560812  0.938538  1
  La  La14  1  0.560766  0.560766  0.938947  1
  Pr  Pr15  1  0.939029  0.939029  0.560810  1
  Cd  Cd16  1  0.579231  0.579231  0.261651  1
  Cd  Cd17  1  0.580090  0.260880  0.579237  1
  Cd  Cd18  1  0.260880  0.580090  0.579237  1
  Hg  Hg19  1  0.581118  0.581118  0.581189  1
  Ir  Ir20  1  0.141507  0.141507  0.140394  1
  Ir  Ir21  1  0.141699  0.141699  0.576911  1
  Ir  Ir22  1  0.141389  0.577368  0.141040  1
  Ir  Ir23  1  0.577368  0.141389  0.141040  1
