# generated using pymatgen
data_Er4Al2B4(RuRh)5
_symmetry_space_group_name_H-M   'P 1'
_cell_length_a   9.58079038
_cell_length_b   9.56053439
_cell_length_c   3.08893900
_cell_angle_alpha   90.00000000
_cell_angle_beta   90.00000000
_cell_angle_gamma   90.06168619
_symmetry_Int_Tables_number   1
_chemical_formula_structural   Er4Al2B4(RuRh)5
_chemical_formula_sum   'Er4 Al2 B4 Ru5 Rh5'
_cell_volume   282.93885176
_cell_formula_units_Z   1
loop_
 _symmetry_equiv_pos_site_id
 _symmetry_equiv_pos_as_xyz
  1  'x, y, z'
loop_
 _atom_site_type_symbol
 _atom_site_label
 _atom_site_symmetry_multiplicity
 _atom_site_fract_x
 _atom_site_fract_y
 _atom_site_fract_z
 _atom_site_occupancy
  Er  Er0  1  0.827184  0.321084  0.000000  1
  Er  Er1  1  0.323127  0.175432  0.000000  1
  Er  Er2  1  0.674563  0.826693  0.000000  1
  Er  Er3  1  0.176320  0.677212  0.000000  1
  Al  Al4  1  0.000428  0.001352  0.000000  1
  Al  Al5  1  0.499443  0.499137  0.000000  1
  B  B6  1  0.626668  0.115987  0.000000  1
  B  B7  1  0.117285  0.374391  0.000000  1
  B  B8  1  0.880266  0.620624  0.000000  1
  B  B9  1  0.373673  0.883582  0.000000  1
  Ru  Ru10  1  0.070473  0.217635  0.500000  1
  Ru  Ru11  1  0.217332  0.931028  0.500000  1
  Ru  Ru12  1  0.783069  0.068509  0.500000  1
  Ru  Ru13  1  0.498866  0.000646  0.500000  1
  Ru  Ru14  1  0.999956  0.501998  0.500000  1
  Rh  Rh15  1  0.929660  0.783888  0.500000  1
  Rh  Rh16  1  0.431168  0.715790  0.500000  1
  Rh  Rh17  1  0.570070  0.283460  0.500000  1
  Rh  Rh18  1  0.717212  0.569545  0.500000  1
  Rh  Rh19  1  0.283237  0.432006  0.500000  1
