# generated using pymatgen
data_CaDy3Re3B16W
_symmetry_space_group_name_H-M   'P 1'
_cell_length_a   3.60985000
_cell_length_b   6.00135715
_cell_length_c   11.60776108
_cell_angle_alpha   90.01931322
_cell_angle_beta   90.00000000
_cell_angle_gamma   90.00000000
_symmetry_Int_Tables_number   1
_chemical_formula_structural   CaDy3Re3B16W
_chemical_formula_sum   'Ca1 Dy3 Re3 B16 W1'
_cell_volume   251.47051121
_cell_formula_units_Z   1
loop_
 _symmetry_equiv_pos_site_id
 _symmetry_equiv_pos_as_xyz
  1  'x, y, z'
loop_
 _atom_site_type_symbol
 _atom_site_label
 _atom_site_symmetry_multiplicity
 _atom_site_fract_x
 _atom_site_fract_y
 _atom_site_fract_z
 _atom_site_occupancy
  Ca  Ca0  1  0.000000  0.626947  0.351066  1
  Dy  Dy1  1  0.000000  0.373962  0.648659  1
  Dy  Dy2  1  0.000000  0.128642  0.151815  1
  Dy  Dy3  1  0.000000  0.873712  0.848745  1
  Re  Re4  1  0.000000  0.369635  0.914065  1
  Re  Re5  1  0.000000  0.132109  0.415628  1
  Re  Re6  1  0.000000  0.869220  0.586899  1
  B  B7  1  0.500000  0.788572  0.186289  1
  B  B8  1  0.500000  0.213171  0.814602  1
  B  B9  1  0.500000  0.284165  0.316289  1
  B  B10  1  0.500000  0.713816  0.684101  1
  B  B11  1  0.500000  0.866582  0.030759  1
  B  B12  1  0.500000  0.135369  0.967203  1
  B  B13  1  0.500000  0.363034  0.469036  1
  B  B14  1  0.500000  0.636688  0.531966  1
  B  B15  1  0.500000  0.885237  0.452832  1
  B  B16  1  0.500000  0.112757  0.547086  1
  B  B17  1  0.500000  0.383170  0.046463  1
  B  B18  1  0.500000  0.612780  0.950806  1
  B  B19  1  0.500000  0.978372  0.308831  1
  B  B20  1  0.500000  0.022854  0.691964  1
  B  B21  1  0.500000  0.474566  0.193387  1
  B  B22  1  0.500000  0.522714  0.806571  1
  W  W23  1  0.000000  0.631927  0.084940  1
