# generated using pymatgen
data_Yb2CdRu4PbO14
_symmetry_space_group_name_H-M   'P 1'
_cell_length_a   7.33279461
_cell_length_b   7.27047084
_cell_length_c   7.23650671
_cell_angle_alpha   59.30902781
_cell_angle_beta   59.55886075
_cell_angle_gamma   59.71602115
_symmetry_Int_Tables_number   1
_chemical_formula_structural   Yb2CdRu4PbO14
_chemical_formula_sum   'Yb2 Cd1 Ru4 Pb1 O14'
_cell_volume   269.86593951
_cell_formula_units_Z   1
loop_
 _symmetry_equiv_pos_site_id
 _symmetry_equiv_pos_as_xyz
  1  'x, y, z'
loop_
 _atom_site_type_symbol
 _atom_site_label
 _atom_site_symmetry_multiplicity
 _atom_site_fract_x
 _atom_site_fract_y
 _atom_site_fract_z
 _atom_site_occupancy
  Yb  Yb0  1  0.625000  0.125000  0.125000  1
  Yb  Yb1  1  0.125000  0.125000  0.125000  1
  Cd  Cd2  1  0.125000  0.125000  0.625000  1
  Ru  Ru3  1  0.625000  0.125000  0.625000  1
  Ru  Ru4  1  0.625000  0.625000  0.125000  1
  Ru  Ru5  1  0.125000  0.625000  0.625000  1
  Ru  Ru6  1  0.625000  0.625000  0.625000  1
  Pb  Pb7  1  0.125000  0.625000  0.125000  1
  O  O8  1  0.704031  0.696437  0.298425  1
  O  O9  1  0.945789  0.561966  0.546456  1
  O  O10  1  0.547691  0.950942  0.953676  1
  O  O11  1  0.944428  0.943296  0.553609  1
  O  O12  1  0.948893  0.553563  0.951575  1
  O  O13  1  0.558666  0.943296  0.553609  1
  O  O14  1  0.301107  0.696437  0.298425  1
  O  O15  1  0.304211  0.688034  0.703544  1
  O  O16  1  0.702309  0.299058  0.296324  1
  O  O17  1  0.691334  0.306704  0.696391  1
  O  O18  1  0.545969  0.553563  0.951575  1
  O  O19  1  0.305572  0.306704  0.696391  1
  O  O20  1  0.246481  0.243285  0.263753  1
  O  O21  1  0.003519  0.006715  0.986247  1
