# generated using pymatgen
data_Tb6Ho4Si5As
_symmetry_space_group_name_H-M   'P 1'
_cell_length_a   8.46916000
_cell_length_b   8.48344588
_cell_length_c   6.32685300
_cell_angle_alpha   90.00000000
_cell_angle_beta   90.00000000
_cell_angle_gamma   119.94431027
_symmetry_Int_Tables_number   1
_chemical_formula_structural   Tb6Ho4Si5As
_chemical_formula_sum   'Tb6 Ho4 Si5 As1'
_cell_volume   393.88953765
_cell_formula_units_Z   1
loop_
 _symmetry_equiv_pos_site_id
 _symmetry_equiv_pos_as_xyz
  1  'x, y, z'
loop_
 _atom_site_type_symbol
 _atom_site_label
 _atom_site_symmetry_multiplicity
 _atom_site_fract_x
 _atom_site_fract_y
 _atom_site_fract_z
 _atom_site_occupancy
  Tb  Tb0  1  0.996520  0.753379  0.750000  1
  Tb  Tb1  1  0.000228  0.244313  0.250000  1
  Tb  Tb2  1  0.755915  0.755687  0.250000  1
  Tb  Tb3  1  0.757903  0.000000  0.750000  1
  Tb  Tb4  1  0.243141  0.246621  0.750000  1
  Tb  Tb5  1  0.243430  0.000000  0.250000  1
  Ho  Ho6  1  0.333001  0.663924  0.498675  1
  Ho  Ho7  1  0.669078  0.336076  0.001325  1
  Ho  Ho8  1  0.669078  0.336076  0.498675  1
  Ho  Ho9  1  0.333001  0.663924  0.001325  1
  Si  Si10  1  0.394448  0.393420  0.250000  1
  Si  Si11  1  0.001029  0.606580  0.250000  1
  Si  Si12  1  0.999790  0.394315  0.750000  1
  Si  Si13  1  0.605475  0.605685  0.750000  1
  Si  Si14  1  0.606570  0.000000  0.250000  1
  As  As15  1  0.391391  0.000000  0.750000  1
