# generated using pymatgen
data_Ta4Ti15Si16Mo
_symmetry_space_group_name_H-M   'P 1'
_cell_length_a   6.71441220
_cell_length_b   6.71624190
_cell_length_c   12.27419943
_cell_angle_alpha   90.03471538
_cell_angle_beta   89.89053788
_cell_angle_gamma   90.00106954
_symmetry_Int_Tables_number   1
_chemical_formula_structural   Ta4Ti15Si16Mo
_chemical_formula_sum   'Ta4 Ti15 Si16 Mo1'
_cell_volume   553.51147904
_cell_formula_units_Z   1
loop_
 _symmetry_equiv_pos_site_id
 _symmetry_equiv_pos_as_xyz
  1  'x, y, z'
loop_
 _atom_site_type_symbol
 _atom_site_label
 _atom_site_symmetry_multiplicity
 _atom_site_fract_x
 _atom_site_fract_y
 _atom_site_fract_z
 _atom_site_occupancy
  Ta  Ta0  1  0.995819  0.150625  0.621298  1
  Ta  Ta1  1  0.170435  0.170049  0.000370  1
  Ta  Ta2  1  0.328968  0.670508  0.250898  1
  Ta  Ta3  1  0.671504  0.329873  0.749137  1
  Ti  Ti4  1  0.350353  0.495574  0.872491  1
  Ti  Ti5  1  0.649030  0.503907  0.371321  1
  Ti  Ti6  1  0.494947  0.349971  0.128180  1
  Ti  Ti7  1  0.505091  0.650189  0.627994  1
  Ti  Ti8  1  0.004580  0.850239  0.123085  1
  Ti  Ti9  1  0.150393  0.994122  0.378704  1
  Ti  Ti10  1  0.850975  0.004741  0.876756  1
  Ti  Ti11  1  0.002863  0.341515  0.221712  1
  Ti  Ti12  1  0.160725  0.500077  0.471302  1
  Ti  Ti13  1  0.840953  0.497275  0.971164  1
  Ti  Ti14  1  0.501494  0.161085  0.528754  1
  Ti  Ti15  1  0.496826  0.841370  0.029218  1
  Ti  Ti16  1  0.997431  0.658234  0.721403  1
  Ti  Ti17  1  0.339886  0.002842  0.777953  1
  Ti  Ti18  1  0.658370  0.996314  0.278333  1
  Si  Si19  1  0.044962  0.305929  0.815158  1
  Si  Si20  1  0.196221  0.544654  0.063351  1
  Si  Si21  1  0.801827  0.461094  0.560842  1
  Si  Si22  1  0.545166  0.196589  0.937085  1
  Si  Si23  1  0.459817  0.804405  0.437009  1
  Si  Si24  1  0.953632  0.697846  0.314516  1
  Si  Si25  1  0.303286  0.044066  0.187192  1
  Si  Si26  1  0.694319  0.952673  0.686137  1
  Si  Si27  1  0.295589  0.362049  0.673953  1
  Si  Si28  1  0.140102  0.792783  0.922930  1
  Si  Si29  1  0.858494  0.206482  0.420305  1
  Si  Si30  1  0.792603  0.140129  0.077616  1
  Si  Si31  1  0.207524  0.854182  0.576547  1
  Si  Si32  1  0.707333  0.640179  0.172333  1
  Si  Si33  1  0.359149  0.292162  0.327172  1
  Si  Si34  1  0.640594  0.707283  0.828155  1
  Mo  Mo35  1  0.828740  0.828985  0.499629  1
