# generated using pymatgen
data_Tm2Ni2PRh4
_symmetry_space_group_name_H-M   'P 1'
_cell_length_a   5.84797778
_cell_length_b   5.84797832
_cell_length_c   5.73334900
_cell_angle_alpha   60.64631683
_cell_angle_beta   60.64631382
_cell_angle_gamma   60.01360558
_symmetry_Int_Tables_number   1
_chemical_formula_structural   Tm2Ni2PRh4
_chemical_formula_sum   'Tm2 Ni2 P1 Rh4'
_cell_volume   139.99889610
_cell_formula_units_Z   1
loop_
 _symmetry_equiv_pos_site_id
 _symmetry_equiv_pos_as_xyz
  1  'x, y, z'
loop_
 _atom_site_type_symbol
 _atom_site_label
 _atom_site_symmetry_multiplicity
 _atom_site_fract_x
 _atom_site_fract_y
 _atom_site_fract_z
 _atom_site_occupancy
  Tm  Tm0  1  0.254520  0.254520  0.252137  1
  Tm  Tm1  1  0.745480  0.745480  0.761178  1
  Ni  Ni2  1  0.784183  0.215816  0.235245  1
  Ni  Ni3  1  0.215816  0.784183  0.235245  1
  P  P4  1  0.500000  0.500000  0.470243  1
  Rh  Rh5  1  0.766878  0.766878  0.242206  1
  Rh  Rh6  1  0.233121  0.233121  0.775963  1
  Rh  Rh7  1  0.761401  0.238598  0.763890  1
  Rh  Rh8  1  0.238598  0.761401  0.763890  1
