# generated using pymatgen
data_Ba6DyCd(Ir2O9)2
_symmetry_space_group_name_H-M   'P 1'
_cell_length_a   5.95014352
_cell_length_b   5.95985750
_cell_length_c   14.75313212
_cell_angle_alpha   89.00182984
_cell_angle_beta   89.14508759
_cell_angle_gamma   119.75921329
_symmetry_Int_Tables_number   1
_chemical_formula_structural   Ba6DyCd(Ir2O9)2
_chemical_formula_sum   'Ba6 Dy1 Cd1 Ir4 O18'
_cell_volume   453.94241608
_cell_formula_units_Z   1
loop_
 _symmetry_equiv_pos_site_id
 _symmetry_equiv_pos_as_xyz
  1  'x, y, z'
loop_
 _atom_site_type_symbol
 _atom_site_label
 _atom_site_symmetry_multiplicity
 _atom_site_fract_x
 _atom_site_fract_y
 _atom_site_fract_z
 _atom_site_occupancy
  Ba  Ba0  1  0.326275  0.660875  0.583986  1
  Ba  Ba1  1  0.673725  0.339125  0.416014  1
  Ba  Ba2  1  0.338700  0.671953  0.908899  1
  Ba  Ba3  1  0.661300  0.328047  0.091101  1
  Ba  Ba4  1  0.990703  0.998298  0.745270  1
  Ba  Ba5  1  0.009297  0.001702  0.254730  1
  Dy  Dy6  1  0.000000  0.000000  0.000000  1
  Cd  Cd7  1  0.000000  0.000000  0.500000  1
  Ir  Ir8  1  0.651508  0.319104  0.665137  1
  Ir  Ir9  1  0.348492  0.680896  0.334863  1
  Ir  Ir10  1  0.679380  0.348008  0.837208  1
  Ir  Ir11  1  0.320620  0.651992  0.162792  1
  O  O12  1  0.380975  0.202844  0.924214  1
  O  O13  1  0.619025  0.797156  0.075786  1
  O  O14  1  0.790402  0.607602  0.575930  1
  O  O15  1  0.209598  0.392398  0.424070  1
  O  O16  1  0.511699  0.492142  0.750838  1
  O  O17  1  0.488301  0.507858  0.249162  1
  O  O18  1  0.788604  0.140354  0.591394  1
  O  O19  1  0.211396  0.859646  0.408606  1
  O  O20  1  0.849045  0.201224  0.913280  1
  O  O21  1  0.150955  0.798776  0.086720  1
  O  O22  1  0.324740  0.143546  0.599778  1
  O  O23  1  0.675260  0.856454  0.400222  1
  O  O24  1  0.849566  0.672746  0.905534  1
  O  O25  1  0.150434  0.327254  0.094466  1
  O  O26  1  0.508436  0.024359  0.761743  1
  O  O27  1  0.491564  0.975641  0.238257  1
  O  O28  1  0.975755  0.492134  0.741614  1
  O  O29  1  0.024245  0.507866  0.258386  1
