# generated using pymatgen
data_Sm2Al20Fe3Rh
_symmetry_space_group_name_H-M   'P 1'
_cell_length_a   6.81229281
_cell_length_b   6.80409324
_cell_length_c   9.05839090
_cell_angle_alpha   90.14067897
_cell_angle_beta   89.97027854
_cell_angle_gamma   97.08564456
_symmetry_Int_Tables_number   1
_chemical_formula_structural   Sm2Al20Fe3Rh
_chemical_formula_sum   'Sm2 Al20 Fe3 Rh1'
_cell_volume   416.66191940
_cell_formula_units_Z   1
loop_
 _symmetry_equiv_pos_site_id
 _symmetry_equiv_pos_as_xyz
  1  'x, y, z'
loop_
 _atom_site_type_symbol
 _atom_site_label
 _atom_site_symmetry_multiplicity
 _atom_site_fract_x
 _atom_site_fract_y
 _atom_site_fract_z
 _atom_site_occupancy
  Sm  Sm0  1  0.875763  0.126081  0.748539  1
  Sm  Sm1  1  0.124237  0.873919  0.251461  1
  Al  Al2  1  0.412082  0.138302  0.745137  1
  Al  Al3  1  0.135916  0.414172  0.251019  1
  Al  Al4  1  0.587918  0.861698  0.254863  1
  Al  Al5  1  0.864084  0.585828  0.748981  1
  Al  Al6  1  0.519459  0.777748  0.744095  1
  Al  Al7  1  0.780898  0.518797  0.251167  1
  Al  Al8  1  0.480541  0.222252  0.255905  1
  Al  Al9  1  0.219102  0.481203  0.748833  1
  Al  Al10  1  0.840604  0.159070  0.402115  1
  Al  Al11  1  0.159396  0.840930  0.597885  1
  Al  Al12  1  0.845329  0.163733  0.100910  1
  Al  Al13  1  0.154671  0.836267  0.899090  1
  Al  Al14  1  0.627153  0.380881  0.949134  1
  Al  Al15  1  0.372847  0.619119  0.050866  1
  Al  Al16  1  0.625396  0.375990  0.548395  1
  Al  Al17  1  0.374604  0.624010  0.451605  1
  Al  Al18  1  0.776269  0.767366  0.002804  1
  Al  Al19  1  0.772929  0.771131  0.500735  1
  Al  Al20  1  0.223731  0.232633  0.997196  1
  Al  Al21  1  0.227071  0.228868  0.499265  1
  Fe  Fe22  1  0.000000  0.500000  0.000000  1
  Fe  Fe23  1  0.500000  0.000000  0.500000  1
  Fe  Fe24  1  0.000000  0.500000  0.500000  1
  Rh  Rh25  1  0.500000  0.000000  0.000000  1
