# generated using pymatgen
data_Y3Th11(OsRu2)2
_symmetry_space_group_name_H-M   'P 1'
_cell_length_a   9.84659521
_cell_length_b   9.95118545
_cell_length_c   6.42365910
_cell_angle_alpha   90.13724704
_cell_angle_beta   89.75455038
_cell_angle_gamma   120.34179471
_symmetry_Int_Tables_number   1
_chemical_formula_structural   Y3Th11(OsRu2)2
_chemical_formula_sum   'Y3 Th11 Os2 Ru4'
_cell_volume   543.20519902
_cell_formula_units_Z   1
loop_
 _symmetry_equiv_pos_site_id
 _symmetry_equiv_pos_as_xyz
  1  'x, y, z'
loop_
 _atom_site_type_symbol
 _atom_site_label
 _atom_site_symmetry_multiplicity
 _atom_site_fract_x
 _atom_site_fract_y
 _atom_site_fract_z
 _atom_site_occupancy
  Y  Y0  1  0.461799  0.537219  0.295423  1
  Y  Y1  1  0.072997  0.535303  0.298740  1
  Y  Y2  1  0.926156  0.462385  0.800681  1
  Th  Th3  1  0.249584  0.126657  0.509315  1
  Th  Th4  1  0.541345  0.082921  0.797137  1
  Th  Th5  1  0.747603  0.873407  0.012462  1
  Th  Th6  1  0.666444  0.333720  0.276125  1
  Th  Th7  1  0.126402  0.870863  0.007707  1
  Th  Th8  1  0.460805  0.918007  0.298214  1
  Th  Th9  1  0.538231  0.462934  0.798900  1
  Th  Th10  1  0.876452  0.128856  0.512860  1
  Th  Th11  1  0.124885  0.251685  0.013678  1
  Th  Th12  1  0.873761  0.747565  0.508130  1
  Th  Th13  1  0.334451  0.666082  0.771705  1
  Os  Os14  1  0.811738  0.629295  0.050642  1
  Os  Os15  1  0.812708  0.182832  0.050505  1
  Ru  Ru16  1  0.631498  0.817775  0.546765  1
  Ru  Ru17  1  0.368861  0.187092  0.039264  1
  Ru  Ru18  1  0.184038  0.363656  0.553025  1
  Ru  Ru19  1  0.190245  0.821747  0.542717  1
