# generated using pymatgen
data_Mg4Ga4PdPt7
_symmetry_space_group_name_H-M   'P 1'
_cell_length_a   5.83034511
_cell_length_b   5.83044691
_cell_length_c   7.25190500
_cell_angle_alpha   89.99996229
_cell_angle_beta   90.00015766
_cell_angle_gamma   90.47458059
_symmetry_Int_Tables_number   1
_chemical_formula_structural   Mg4Ga4PdPt7
_chemical_formula_sum   'Mg4 Ga4 Pd1 Pt7'
_cell_volume   246.50930359
_cell_formula_units_Z   1
loop_
 _symmetry_equiv_pos_site_id
 _symmetry_equiv_pos_as_xyz
  1  'x, y, z'
loop_
 _atom_site_type_symbol
 _atom_site_label
 _atom_site_symmetry_multiplicity
 _atom_site_fract_x
 _atom_site_fract_y
 _atom_site_fract_z
 _atom_site_occupancy
  Mg  Mg0  1  0.750163  0.250313  0.999655  1
  Mg  Mg1  1  0.249839  0.749687  0.999644  1
  Mg  Mg2  1  0.750328  0.250304  0.500354  1
  Mg  Mg3  1  0.249674  0.749696  0.500349  1
  Ga  Ga4  1  0.250742  0.249356  0.999610  1
  Ga  Ga5  1  0.749257  0.750642  0.999625  1
  Ga  Ga6  1  0.749287  0.750649  0.500393  1
  Ga  Ga7  1  0.250711  0.249349  0.500373  1
  Pd  Pd8  1  0.000010  0.500014  0.750032  1
  Pt  Pt9  1  0.000004  0.999996  0.249867  1
  Pt  Pt10  1  0.999987  0.499994  0.250011  1
  Pt  Pt11  1  0.500003  0.000000  0.250091  1
  Pt  Pt12  1  0.499983  0.500006  0.250021  1
  Pt  Pt13  1  0.499999  0.999998  0.749911  1
  Pt  Pt14  1  0.500012  0.499990  0.749993  1
  Pt  Pt15  1  0.999998  0.000006  0.750072  1
