# generated using pymatgen
data_AcZnAgSn2
_symmetry_space_group_name_H-M   'P 1'
_cell_length_a   4.77627700
_cell_length_b   4.77627700
_cell_length_c   11.20375500
_cell_angle_alpha   90.00000000
_cell_angle_beta   90.00000000
_cell_angle_gamma   90.00000000
_symmetry_Int_Tables_number   1
_chemical_formula_structural   AcZnAgSn2
_chemical_formula_sum   'Ac2 Zn2 Ag2 Sn4'
_cell_volume   255.58926833
_cell_formula_units_Z   2
loop_
 _symmetry_equiv_pos_site_id
 _symmetry_equiv_pos_as_xyz
  1  'x, y, z'
loop_
 _atom_site_type_symbol
 _atom_site_label
 _atom_site_symmetry_multiplicity
 _atom_site_fract_x
 _atom_site_fract_y
 _atom_site_fract_z
 _atom_site_occupancy
  Ac  Ac0  1  0.000000  0.500000  0.246645  1
  Ac  Ac1  1  0.500000  0.000000  0.753355  1
  Zn  Zn2  1  0.500000  0.000000  0.369195  1
  Zn  Zn3  1  0.000000  0.500000  0.630805  1
  Ag  Ag4  1  0.000000  0.000000  0.000000  1
  Ag  Ag5  1  0.500000  0.500000  0.000000  1
  Sn  Sn6  1  0.500000  0.000000  0.135700  1
  Sn  Sn7  1  0.000000  0.000000  0.500000  1
  Sn  Sn8  1  0.500000  0.500000  0.500000  1
  Sn  Sn9  1  0.000000  0.500000  0.864300  1
