# generated using pymatgen
data_Li4Ca2TbHoGa8
_symmetry_space_group_name_H-M   'P 1'
_cell_length_a   4.38038100
_cell_length_b   7.08343631
_cell_length_c   10.31664292
_cell_angle_alpha   90.22233791
_cell_angle_beta   90.00000000
_cell_angle_gamma   90.00000000
_symmetry_Int_Tables_number   1
_chemical_formula_structural   Li4Ca2TbHoGa8
_chemical_formula_sum   'Li4 Ca2 Tb1 Ho1 Ga8'
_cell_volume   320.10393215
_cell_formula_units_Z   1
loop_
 _symmetry_equiv_pos_site_id
 _symmetry_equiv_pos_as_xyz
  1  'x, y, z'
loop_
 _atom_site_type_symbol
 _atom_site_label
 _atom_site_symmetry_multiplicity
 _atom_site_fract_x
 _atom_site_fract_y
 _atom_site_fract_z
 _atom_site_occupancy
  Li  Li0  1  0.250000  0.546822  0.096223  1
  Li  Li1  1  0.750000  0.448968  0.901228  1
  Li  Li2  1  0.750000  0.949432  0.598652  1
  Li  Li3  1  0.250000  0.046844  0.402418  1
  Ca  Ca4  1  0.750000  0.218330  0.172799  1
  Ca  Ca5  1  0.750000  0.718573  0.326982  1
  Tb  Tb6  1  0.250000  0.285622  0.672265  1
  Ho  Ho7  1  0.250000  0.786434  0.828608  1
  Ga  Ga8  1  0.250000  0.924944  0.136247  1
  Ga  Ga9  1  0.750000  0.074402  0.844420  1
  Ga  Ga10  1  0.750000  0.577130  0.656053  1
  Ga  Ga11  1  0.250000  0.425718  0.363715  1
  Ga  Ga12  1  0.250000  0.713742  0.543780  1
  Ga  Ga13  1  0.750000  0.286762  0.469646  1
  Ga  Ga14  1  0.750000  0.785902  0.029353  1
  Ga  Ga15  1  0.250000  0.210373  0.957610  1
