# generated using pymatgen
data_Ti8Mo3OsRh4
_symmetry_space_group_name_H-M   'P 1'
_cell_length_a   6.22754100
_cell_length_b   4.40161300
_cell_length_c   8.83831700
_cell_angle_alpha   90.00000000
_cell_angle_beta   90.00155995
_cell_angle_gamma   90.00000000
_symmetry_Int_Tables_number   1
_chemical_formula_structural   Ti8Mo3OsRh4
_chemical_formula_sum   'Ti8 Mo3 Os1 Rh4'
_cell_volume   242.26909961
_cell_formula_units_Z   1
loop_
 _symmetry_equiv_pos_site_id
 _symmetry_equiv_pos_as_xyz
  1  'x, y, z'
loop_
 _atom_site_type_symbol
 _atom_site_label
 _atom_site_symmetry_multiplicity
 _atom_site_fract_x
 _atom_site_fract_y
 _atom_site_fract_z
 _atom_site_occupancy
  Ti  Ti0  1  0.498375  0.750000  0.125001  1
  Ti  Ti1  1  0.001806  0.750000  0.125007  1
  Ti  Ti2  1  0.499790  0.249999  0.375667  1
  Ti  Ti3  1  0.000372  0.249999  0.375677  1
  Ti  Ti4  1  0.000447  0.750000  0.624994  1
  Ti  Ti5  1  0.499386  0.750000  0.625005  1
  Ti  Ti6  1  0.000220  0.249999  0.874302  1
  Ti  Ti7  1  0.499630  0.249999  0.874321  1
  Mo  Mo8  1  0.249955  0.750000  0.373200  1
  Mo  Mo9  1  0.750036  0.249999  0.625001  1
  Mo  Mo10  1  0.249851  0.750000  0.876817  1
  Os  Os11  1  0.750081  0.249999  0.124993  1
  Rh  Rh12  1  0.250094  0.249999  0.125006  1
  Rh  Rh13  1  0.750042  0.750000  0.372290  1
  Rh  Rh14  1  0.249981  0.249999  0.625011  1
  Rh  Rh15  1  0.749933  0.750000  0.877709  1
