# generated using pymatgen
data_TbPa3(ZnIr)4
_symmetry_space_group_name_H-M   'P 1'
_cell_length_a   3.96920600
_cell_length_b   7.03095673
_cell_length_c   8.31386786
_cell_angle_alpha   90.25917556
_cell_angle_beta   90.00000000
_cell_angle_gamma   90.00000000
_symmetry_Int_Tables_number   1
_chemical_formula_structural   TbPa3(ZnIr)4
_chemical_formula_sum   'Tb1 Pa3 Zn4 Ir4'
_cell_volume   232.01536086
_cell_formula_units_Z   1
loop_
 _symmetry_equiv_pos_site_id
 _symmetry_equiv_pos_as_xyz
  1  'x, y, z'
loop_
 _atom_site_type_symbol
 _atom_site_label
 _atom_site_symmetry_multiplicity
 _atom_site_fract_x
 _atom_site_fract_y
 _atom_site_fract_z
 _atom_site_occupancy
  Tb  Tb0  1  0.750000  0.947116  0.688141  1
  Pa  Pa1  1  0.250000  0.547259  0.187148  1
  Pa  Pa2  1  0.750000  0.446430  0.810226  1
  Pa  Pa3  1  0.250000  0.049278  0.316825  1
  Zn  Zn4  1  0.250000  0.118023  0.939086  1
  Zn  Zn5  1  0.750000  0.876347  0.054857  1
  Zn  Zn6  1  0.250000  0.636969  0.558894  1
  Zn  Zn7  1  0.750000  0.378819  0.442153  1
  Ir  Ir8  1  0.750000  0.767137  0.359812  1
  Ir  Ir9  1  0.250000  0.251064  0.630173  1
  Ir  Ir10  1  0.750000  0.264644  0.132271  1
  Ir  Ir11  1  0.250000  0.716916  0.880412  1
