# generated using pymatgen
data_TbEr2Zr(Co4P3)2
_symmetry_space_group_name_H-M   'P 1'
_cell_length_a   3.71543400
_cell_length_b   10.66918400
_cell_length_c   12.38345400
_cell_angle_alpha   90.00000000
_cell_angle_beta   90.00000000
_cell_angle_gamma   90.00000000
_symmetry_Int_Tables_number   1
_chemical_formula_structural   TbEr2Zr(Co4P3)2
_chemical_formula_sum   'Tb2 Er4 Zr2 Co16 P12'
_cell_volume   490.88815325
_cell_formula_units_Z   2
loop_
 _symmetry_equiv_pos_site_id
 _symmetry_equiv_pos_as_xyz
  1  'x, y, z'
loop_
 _atom_site_type_symbol
 _atom_site_label
 _atom_site_symmetry_multiplicity
 _atom_site_fract_x
 _atom_site_fract_y
 _atom_site_fract_z
 _atom_site_occupancy
  Tb  Tb0  1  0.750000  0.250000  0.469972  1
  Tb  Tb1  1  0.250000  0.750000  0.530028  1
  Er  Er2  1  0.250000  0.928082  0.795439  1
  Er  Er3  1  0.250000  0.571918  0.795439  1
  Er  Er4  1  0.750000  0.071918  0.204561  1
  Er  Er5  1  0.750000  0.428082  0.204561  1
  Zr  Zr6  1  0.250000  0.250000  0.842256  1
  Zr  Zr7  1  0.750000  0.750000  0.157744  1
  Co  Co8  1  0.250000  0.250000  0.295480  1
  Co  Co9  1  0.750000  0.750000  0.704520  1
  Co  Co10  1  0.750000  0.250000  0.014323  1
  Co  Co11  1  0.250000  0.750000  0.985677  1
  Co  Co12  1  0.250000  0.418151  0.007234  1
  Co  Co13  1  0.250000  0.081849  0.007234  1
  Co  Co14  1  0.750000  0.581849  0.992766  1
  Co  Co15  1  0.750000  0.918151  0.992766  1
  Co  Co16  1  0.250000  0.455204  0.566968  1
  Co  Co17  1  0.250000  0.044796  0.566968  1
  Co  Co18  1  0.750000  0.544796  0.433032  1
  Co  Co19  1  0.750000  0.955204  0.433032  1
  Co  Co20  1  0.250000  0.872922  0.298243  1
  Co  Co21  1  0.250000  0.627078  0.298243  1
  Co  Co22  1  0.750000  0.127078  0.701757  1
  Co  Co23  1  0.750000  0.372922  0.701757  1
  P  P24  1  0.250000  0.250000  0.116655  1
  P  P25  1  0.750000  0.750000  0.883345  1
  P  P26  1  0.250000  0.250000  0.637143  1
  P  P27  1  0.750000  0.750000  0.362857  1
  P  P28  1  0.250000  0.440344  0.383694  1
  P  P29  1  0.250000  0.059656  0.383694  1
  P  P30  1  0.750000  0.559656  0.616306  1
  P  P31  1  0.750000  0.940344  0.616306  1
  P  P32  1  0.250000  0.912352  0.106553  1
  P  P33  1  0.250000  0.587648  0.106553  1
  P  P34  1  0.750000  0.087648  0.893447  1
  P  P35  1  0.750000  0.412352  0.893447  1
