# generated using pymatgen
data_Li6Sm2NpN6
_symmetry_space_group_name_H-M   'P 1'
_cell_length_a   6.11201900
_cell_length_b   6.11201949
_cell_length_c   5.48239400
_cell_angle_alpha   90.00000000
_cell_angle_beta   90.00000000
_cell_angle_gamma   120.00000276
_symmetry_Int_Tables_number   1
_chemical_formula_structural   Li6Sm2NpN6
_chemical_formula_sum   'Li6 Sm2 Np1 N6'
_cell_volume   177.36596627
_cell_formula_units_Z   1
loop_
 _symmetry_equiv_pos_site_id
 _symmetry_equiv_pos_as_xyz
  1  'x, y, z'
loop_
 _atom_site_type_symbol
 _atom_site_label
 _atom_site_symmetry_multiplicity
 _atom_site_fract_x
 _atom_site_fract_y
 _atom_site_fract_z
 _atom_site_occupancy
  Li  Li0  1  0.972922  0.642961  0.603366  1
  Li  Li1  1  0.357039  0.329961  0.603366  1
  Li  Li2  1  0.670039  0.027078  0.603366  1
  Li  Li3  1  0.001641  0.337286  0.394055  1
  Li  Li4  1  0.662714  0.664356  0.394055  1
  Li  Li5  1  0.335644  0.998359  0.394055  1
  Sm  Sm6  1  0.000000  0.000000  0.997920  1
  Sm  Sm7  1  0.333333  0.666667  0.992440  1
  Np  Np8  1  0.666667  0.333333  0.006124  1
  N  N9  1  0.969271  0.636004  0.228217  1
  N  N10  1  0.363996  0.333267  0.228217  1
  N  N11  1  0.666733  0.030729  0.228217  1
  N  N12  1  0.965646  0.333684  0.775535  1
  N  N13  1  0.666316  0.631962  0.775535  1
  N  N14  1  0.368038  0.034354  0.775535  1
