# generated using pymatgen
data_LiLa(ZnRu)2
_symmetry_space_group_name_H-M   'P 1'
_cell_length_a   5.29642636
_cell_length_b   5.41443483
_cell_length_c   4.33138600
_cell_angle_alpha   90.00000000
_cell_angle_beta   90.00000000
_cell_angle_gamma   120.73982711
_symmetry_Int_Tables_number   1
_chemical_formula_structural   LiLa(ZnRu)2
_chemical_formula_sum   'Li1 La1 Zn2 Ru2'
_cell_volume   106.75971679
_cell_formula_units_Z   1
loop_
 _symmetry_equiv_pos_site_id
 _symmetry_equiv_pos_as_xyz
  1  'x, y, z'
loop_
 _atom_site_type_symbol
 _atom_site_label
 _atom_site_symmetry_multiplicity
 _atom_site_fract_x
 _atom_site_fract_y
 _atom_site_fract_z
 _atom_site_occupancy
  Li  Li0  1  0.667823  0.333911  0.000000  1
  La  La1  1  0.996486  0.998242  0.000000  1
  Zn  Zn2  1  0.521143  0.006255  0.500000  1
  Zn  Zn3  1  0.521143  0.514888  0.500000  1
  Ru  Ru4  1  0.014204  0.507102  0.500000  1
  Ru  Ru5  1  0.279201  0.639601  0.000000  1
