# generated using pymatgen
data_Eu2AlIrI
_symmetry_space_group_name_H-M   'P 1'
_cell_length_a   4.30680100
_cell_length_b   4.30679945
_cell_length_c   17.94306200
_cell_angle_alpha   90.00000000
_cell_angle_beta   90.00000000
_cell_angle_gamma   120.00001956
_symmetry_Int_Tables_number   1
_chemical_formula_structural   Eu2AlIrI
_chemical_formula_sum   'Eu4 Al2 Ir2 I2'
_cell_volume   288.22825890
_cell_formula_units_Z   2
loop_
 _symmetry_equiv_pos_site_id
 _symmetry_equiv_pos_as_xyz
  1  'x, y, z'
loop_
 _atom_site_type_symbol
 _atom_site_label
 _atom_site_symmetry_multiplicity
 _atom_site_fract_x
 _atom_site_fract_y
 _atom_site_fract_z
 _atom_site_occupancy
  Eu  Eu0  1  0.000000  0.000000  0.387689  1
  Eu  Eu1  1  0.000000  0.000000  0.887689  1
  Eu  Eu2  1  0.000000  0.000000  0.612329  1
  Eu  Eu3  1  0.000000  0.000000  0.112329  1
  Al  Al4  1  0.333333  0.666667  0.500606  1
  Al  Al5  1  0.666667  0.333333  0.000606  1
  Ir  Ir6  1  0.666667  0.333333  0.499081  1
  Ir  Ir7  1  0.333333  0.666667  0.999081  1
  I  I8  1  0.333333  0.666667  0.250296  1
  I  I9  1  0.666667  0.333333  0.750296  1
