# generated using pymatgen
data_Hf8Mn7Si14Tc
_symmetry_space_group_name_H-M   'P 1'
_cell_length_a   5.12744602
_cell_length_b   9.62388057
_cell_length_c   9.60746640
_cell_angle_alpha   85.90604433
_cell_angle_beta   74.50732779
_cell_angle_gamma   74.53978416
_symmetry_Int_Tables_number   1
_chemical_formula_structural   Hf8Mn7Si14Tc
_chemical_formula_sum   'Hf8 Mn7 Si14 Tc1'
_cell_volume   440.33188708
_cell_formula_units_Z   1
loop_
 _symmetry_equiv_pos_site_id
 _symmetry_equiv_pos_as_xyz
  1  'x, y, z'
loop_
 _atom_site_type_symbol
 _atom_site_label
 _atom_site_symmetry_multiplicity
 _atom_site_fract_x
 _atom_site_fract_y
 _atom_site_fract_z
 _atom_site_occupancy
  Hf  Hf0  1  0.194870  0.804703  0.803214  1
  Hf  Hf1  1  0.801294  0.195249  0.196178  1
  Hf  Hf2  1  0.002316  0.195528  0.802759  1
  Hf  Hf3  1  0.002270  0.804623  0.196247  1
  Hf  Hf4  1  0.362089  0.999954  0.275925  1
  Hf  Hf5  1  0.639642  0.999884  0.721260  1
  Hf  Hf6  1  0.639100  0.723473  0.999349  1
  Hf  Hf7  1  0.361622  0.276651  0.999189  1
  Mn  Mn8  1  0.601040  0.499858  0.798237  1
  Mn  Mn9  1  0.103605  0.499792  0.793398  1
  Mn  Mn10  1  0.599847  0.799719  0.502123  1
  Mn  Mn11  1  0.899551  0.500175  0.200068  1
  Mn  Mn12  1  0.396312  0.206196  0.499527  1
  Mn  Mn13  1  0.898447  0.199854  0.502028  1
  Mn  Mn14  1  0.103712  0.794305  0.499647  1
  Si  Si15  1  0.420334  0.592916  0.591871  1
  Si  Si16  1  0.614120  0.407017  0.413506  1
  Si  Si17  1  0.988106  0.407333  0.591328  1
  Si  Si18  1  0.972490  0.592878  0.413560  1
  Si  Si19  1  0.249891  0.999694  0.999034  1
  Si  Si20  1  0.751039  0.000471  0.999109  1
  Si  Si21  1  0.191022  0.291529  0.297007  1
  Si  Si22  1  0.791597  0.703651  0.703464  1
  Si  Si23  1  0.510741  0.708535  0.297090  1
  Si  Si24  1  0.505675  0.296252  0.703289  1
  Si  Si25  1  0.209529  0.999962  0.581887  1
  Si  Si26  1  0.790806  0.000033  0.417385  1
  Si  Si27  1  0.796733  0.415304  0.996511  1
  Si  Si28  1  0.206933  0.584724  0.996454  1
  Tc  Tc29  1  0.395269  0.499736  0.209354  1
