# generated using pymatgen
data_Y3Ga7CuAg3
_symmetry_space_group_name_H-M   'P 1'
_cell_length_a   4.29470110
_cell_length_b   8.31871853
_cell_length_c   8.31002343
_cell_angle_alpha   71.09239055
_cell_angle_beta   75.02456852
_cell_angle_gamma   75.04058797
_symmetry_Int_Tables_number   1
_chemical_formula_structural   Y3Ga7CuAg3
_chemical_formula_sum   'Y3 Ga7 Cu1 Ag3'
_cell_volume   266.34265226
_cell_formula_units_Z   1
loop_
 _symmetry_equiv_pos_site_id
 _symmetry_equiv_pos_as_xyz
  1  'x, y, z'
loop_
 _atom_site_type_symbol
 _atom_site_label
 _atom_site_symmetry_multiplicity
 _atom_site_fract_x
 _atom_site_fract_y
 _atom_site_fract_z
 _atom_site_occupancy
  Y  Y0  1  0.997385  0.004041  0.001188  1
  Y  Y1  1  0.299771  0.693901  0.706556  1
  Y  Y2  1  0.702138  0.299516  0.296207  1
  Ga  Ga3  1  0.658501  0.710704  0.972293  1
  Ga  Ga4  1  0.343287  0.038514  0.274911  1
  Ga  Ga5  1  0.659403  0.971394  0.709801  1
  Ga  Ga6  1  0.147834  0.570630  0.133704  1
  Ga  Ga7  1  0.857634  0.409480  0.875250  1
  Ga  Ga8  1  0.144267  0.136695  0.574773  1
  Ga  Ga9  1  0.856680  0.864402  0.422236  1
  Cu  Cu10  1  0.336738  0.297821  0.028703  1
  Ag  Ag11  1  0.499077  0.304022  0.697825  1
  Ag  Ag12  1  0.498213  0.698140  0.305433  1
  Ag  Ag13  1  0.999071  0.500739  0.501120  1
