# generated using pymatgen
data_VCdSbF12
_symmetry_space_group_name_H-M   'P 1'
_cell_length_a   11.38879135
_cell_length_b   5.71506440
_cell_length_c   5.72890500
_cell_angle_alpha   57.53719700
_cell_angle_beta   57.06980468
_cell_angle_gamma   57.20808233
_symmetry_Int_Tables_number   1
_chemical_formula_structural   VCdSbF12
_chemical_formula_sum   'V1 Cd1 Sb1 F12'
_cell_volume   247.09298065
_cell_formula_units_Z   1
loop_
 _symmetry_equiv_pos_site_id
 _symmetry_equiv_pos_as_xyz
  1  'x, y, z'
loop_
 _atom_site_type_symbol
 _atom_site_label
 _atom_site_symmetry_multiplicity
 _atom_site_fract_x
 _atom_site_fract_y
 _atom_site_fract_z
 _atom_site_occupancy
  V  V0  1  0.485670  0.016882  0.003265  1
  Cd  Cd1  1  0.743286  0.501716  0.506919  1
  Sb  Sb2  1  0.013601  0.983513  0.997615  1
  F  F3  1  0.177109  0.114849  0.765633  1
  F  F4  1  0.659933  0.122807  0.783231  1
  F  F5  1  0.053735  0.778495  0.351640  1
  F  F6  1  0.560931  0.784282  0.313825  1
  F  F7  1  0.114705  0.646068  0.886795  1
  F  F8  1  0.611098  0.683130  0.877871  1
  F  F9  1  0.444332  0.213146  0.678006  1
  F  F10  1  0.941039  0.222318  0.666387  1
  F  F11  1  0.337841  0.884387  0.219183  1
  F  F12  1  0.830327  0.885860  0.219974  1
  F  F13  1  0.390575  0.325231  0.114929  1
  F  F14  1  0.885819  0.337316  0.114729  1
