# generated using pymatgen
data_Ba2SrTa2MnO9
_symmetry_space_group_name_H-M   'P 1'
_cell_length_a   5.83893800
_cell_length_b   5.83893745
_cell_length_c   7.24108400
_cell_angle_alpha   90.00000000
_cell_angle_beta   90.00000000
_cell_angle_gamma   120.00000314
_symmetry_Int_Tables_number   1
_chemical_formula_structural   Ba2SrTa2MnO9
_chemical_formula_sum   'Ba2 Sr1 Ta2 Mn1 O9'
_cell_volume   213.79713931
_cell_formula_units_Z   1
loop_
 _symmetry_equiv_pos_site_id
 _symmetry_equiv_pos_as_xyz
  1  'x, y, z'
loop_
 _atom_site_type_symbol
 _atom_site_label
 _atom_site_symmetry_multiplicity
 _atom_site_fract_x
 _atom_site_fract_y
 _atom_site_fract_z
 _atom_site_occupancy
  Ba  Ba0  1  0.333333  0.666667  0.663614  1
  Ba  Ba1  1  0.666667  0.333333  0.336386  1
  Sr  Sr2  1  0.000000  0.000000  0.000000  1
  Ta  Ta3  1  0.333333  0.666667  0.170767  1
  Ta  Ta4  1  0.666667  0.333333  0.829233  1
  Mn  Mn5  1  0.000000  0.000000  0.500000  1
  O  O6  1  0.172102  0.827898  0.316411  1
  O  O7  1  0.827898  0.172102  0.683589  1
  O  O8  1  0.172102  0.344203  0.316411  1
  O  O9  1  0.827898  0.655797  0.683589  1
  O  O10  1  0.655797  0.827898  0.316411  1
  O  O11  1  0.344203  0.172102  0.683589  1
  O  O12  1  0.500000  0.000000  0.000000  1
  O  O13  1  0.000000  0.500000  0.000000  1
  O  O14  1  0.500000  0.500000  0.000000  1
