# generated using pymatgen
data_Ta6Be12Si3Ni8
_symmetry_space_group_name_H-M   'P 1'
_cell_length_a   7.66211956
_cell_length_b   7.66211908
_cell_length_c   7.64930817
_cell_angle_alpha   59.76805835
_cell_angle_beta   59.76806469
_cell_angle_gamma   59.88738552
_symmetry_Int_Tables_number   1
_chemical_formula_structural   Ta6Be12Si3Ni8
_chemical_formula_sum   'Ta6 Be12 Si3 Ni8'
_cell_volume   316.15870950
_cell_formula_units_Z   1
loop_
 _symmetry_equiv_pos_site_id
 _symmetry_equiv_pos_as_xyz
  1  'x, y, z'
loop_
 _atom_site_type_symbol
 _atom_site_label
 _atom_site_symmetry_multiplicity
 _atom_site_fract_x
 _atom_site_fract_y
 _atom_site_fract_z
 _atom_site_occupancy
  Ta  Ta0  1  0.700470  0.301600  0.299474  1
  Ta  Ta1  1  0.299530  0.698400  0.700526  1
  Ta  Ta2  1  0.301600  0.700470  0.299474  1
  Ta  Ta3  1  0.698400  0.299530  0.700526  1
  Ta  Ta4  1  0.302168  0.302168  0.700268  1
  Ta  Ta5  1  0.697832  0.697832  0.299732  1
  Be  Be6  1  0.332710  0.332710  0.315050  1
  Be  Be7  1  0.667290  0.667290  0.684950  1
  Be  Be8  1  0.326912  0.326912  0.017611  1
  Be  Be9  1  0.322442  0.018738  0.321060  1
  Be  Be10  1  0.673088  0.673088  0.982389  1
  Be  Be11  1  0.677558  0.981262  0.678940  1
  Be  Be12  1  0.018738  0.322442  0.321060  1
  Be  Be13  1  0.981262  0.677558  0.678940  1
  Be  Be14  1  0.500000  0.000000  0.000000  1
  Be  Be15  1  0.000000  0.500000  0.000000  1
  Be  Be16  1  0.000000  0.000000  0.500000  1
  Be  Be17  1  0.500000  0.500000  0.000000  1
  Si  Si18  1  0.000000  0.500000  0.500000  1
  Si  Si19  1  0.500000  0.000000  0.500000  1
  Si  Si20  1  0.000000  0.000000  0.000000  1
  Ni  Ni21  1  0.123931  0.123931  0.122098  1
  Ni  Ni22  1  0.876069  0.876070  0.877902  1
  Ni  Ni23  1  0.122941  0.122941  0.626966  1
  Ni  Ni24  1  0.124824  0.628287  0.120707  1
  Ni  Ni25  1  0.877059  0.877060  0.373034  1
  Ni  Ni26  1  0.875176  0.371713  0.879292  1
  Ni  Ni27  1  0.628287  0.124824  0.120708  1
  Ni  Ni28  1  0.371713  0.875176  0.879292  1
