# generated using pymatgen
data_YTh2(SnRh)3
_symmetry_space_group_name_H-M   'P 1'
_cell_length_a   7.58034754
_cell_length_b   7.58034828
_cell_length_c   4.06517800
_cell_angle_alpha   90.00000000
_cell_angle_beta   90.00000000
_cell_angle_gamma   120.31443946
_symmetry_Int_Tables_number   1
_chemical_formula_structural   YTh2(SnRh)3
_chemical_formula_sum   'Y1 Th2 Sn3 Rh3'
_cell_volume   201.65252962
_cell_formula_units_Z   1
loop_
 _symmetry_equiv_pos_site_id
 _symmetry_equiv_pos_as_xyz
  1  'x, y, z'
loop_
 _atom_site_type_symbol
 _atom_site_label
 _atom_site_symmetry_multiplicity
 _atom_site_fract_x
 _atom_site_fract_y
 _atom_site_fract_z
 _atom_site_occupancy
  Y  Y0  1  0.407842  0.407842  0.500000  1
  Th  Th1  1  0.587305  0.999796  0.500000  1
  Th  Th2  1  0.999796  0.587305  0.500000  1
  Sn  Sn3  1  0.738252  0.738252  0.000000  1
  Sn  Sn4  1  0.253067  0.009910  0.000000  1
  Sn  Sn5  1  0.009910  0.253067  0.000000  1
  Rh  Rh6  1  0.677700  0.331987  0.000000  1
  Rh  Rh7  1  0.331987  0.677700  0.000000  1
  Rh  Rh8  1  0.994140  0.994140  0.500000  1
