# generated using pymatgen
data_Ca12Zn3Ga7N2
_symmetry_space_group_name_H-M   'P 1'
_cell_length_a   13.59554117
_cell_length_b   13.58535559
_cell_length_c   13.61083495
_cell_angle_alpha   30.68605349
_cell_angle_beta   30.66983017
_cell_angle_gamma   30.70631555
_symmetry_Int_Tables_number   1
_chemical_formula_structural   Ca12Zn3Ga7N2
_chemical_formula_sum   'Ca12 Zn3 Ga7 N2'
_cell_volume   580.58901038
_cell_formula_units_Z   1
loop_
 _symmetry_equiv_pos_site_id
 _symmetry_equiv_pos_as_xyz
  1  'x, y, z'
loop_
 _atom_site_type_symbol
 _atom_site_label
 _atom_site_symmetry_multiplicity
 _atom_site_fract_x
 _atom_site_fract_y
 _atom_site_fract_z
 _atom_site_occupancy
  Ca  Ca0  1  0.781517  0.244016  0.367697  1
  Ca  Ca1  1  0.243067  0.369810  0.780886  1
  Ca  Ca2  1  0.369258  0.781515  0.241810  1
  Ca  Ca3  1  0.718221  0.128791  0.258119  1
  Ca  Ca4  1  0.128744  0.257399  0.720000  1
  Ca  Ca5  1  0.256836  0.718697  0.129136  1
  Ca  Ca6  1  0.220170  0.759816  0.627749  1
  Ca  Ca7  1  0.758752  0.631062  0.217761  1
  Ca  Ca8  1  0.627915  0.223874  0.756230  1
  Ca  Ca9  1  0.280833  0.867694  0.742750  1
  Ca  Ca10  1  0.869515  0.740985  0.280479  1
  Ca  Ca11  1  0.742707  0.280032  0.868782  1
  Zn  Zn12  1  0.251361  0.461001  0.038241  1
  Zn  Zn13  1  0.193958  0.199494  0.187957  1
  Zn  Zn14  1  0.694021  0.692181  0.691982  1
  Ga  Ga15  1  0.306418  0.311000  0.303609  1
  Ga  Ga16  1  0.806389  0.809410  0.806358  1
  Ga  Ga17  1  0.466729  0.025580  0.259414  1
  Ga  Ga18  1  0.033743  0.242099  0.474283  1
  Ga  Ga19  1  0.750388  0.533620  0.966184  1
  Ga  Ga20  1  0.532803  0.967512  0.750262  1
  Ga  Ga21  1  0.966887  0.751273  0.532535  1
  N  N22  1  0.499962  0.502058  0.497098  1
  N  N23  1  0.999805  0.001078  0.000680  1
