# generated using pymatgen
data_Tb3Al12Ru3Au
_symmetry_space_group_name_H-M   'P 1'
_cell_length_a   8.89522145
_cell_length_b   8.84882231
_cell_length_c   9.59208362
_cell_angle_alpha   89.99999794
_cell_angle_beta   89.94156643
_cell_angle_gamma   119.82760229
_symmetry_Int_Tables_number   1
_chemical_formula_structural   Tb3Al12Ru3Au
_chemical_formula_sum   'Tb6 Al24 Ru6 Au2'
_cell_volume   654.99406007
_cell_formula_units_Z   2
loop_
 _symmetry_equiv_pos_site_id
 _symmetry_equiv_pos_as_xyz
  1  'x, y, z'
loop_
 _atom_site_type_symbol
 _atom_site_label
 _atom_site_symmetry_multiplicity
 _atom_site_fract_x
 _atom_site_fract_y
 _atom_site_fract_z
 _atom_site_occupancy
  Tb  Tb0  1  0.383659  0.191829  0.252778  1
  Tb  Tb1  1  0.808698  0.193183  0.246918  1
  Tb  Tb2  1  0.808698  0.615515  0.246918  1
  Tb  Tb3  1  0.616341  0.808171  0.747222  1
  Tb  Tb4  1  0.191302  0.806817  0.753082  1
  Tb  Tb5  1  0.191302  0.384485  0.753082  1
  Al  Al6  1  0.435179  0.871316  0.242874  1
  Al  Al7  1  0.121584  0.560792  0.249952  1
  Al  Al8  1  0.435179  0.563863  0.242874  1
  Al  Al9  1  0.564821  0.128684  0.757126  1
  Al  Al10  1  0.878416  0.439208  0.750048  1
  Al  Al11  1  0.564821  0.436137  0.757126  1
  Al  Al12  1  0.151247  0.828291  0.418597  1
  Al  Al13  1  0.151247  0.322958  0.418597  1
  Al  Al14  1  0.681866  0.840933  0.416015  1
  Al  Al15  1  0.848753  0.171709  0.581403  1
  Al  Al16  1  0.848753  0.677042  0.581403  1
  Al  Al17  1  0.318134  0.159067  0.583985  1
  Al  Al18  1  0.836183  0.163378  0.924849  1
  Al  Al19  1  0.836183  0.672804  0.924849  1
  Al  Al20  1  0.326738  0.163369  0.929125  1
  Al  Al21  1  0.163817  0.836622  0.075151  1
  Al  Al22  1  0.163817  0.327196  0.075151  1
  Al  Al23  1  0.673262  0.836631  0.070875  1
  Al  Al24  1  0.321040  0.660520  0.528479  1
  Al  Al25  1  0.678960  0.339480  0.471521  1
  Al  Al26  1  0.666053  0.333026  0.026492  1
  Al  Al27  1  0.333947  0.666974  0.973508  1
  Al  Al28  1  0.003147  0.001573  0.248928  1
  Al  Al29  1  0.996853  0.998427  0.751072  1
  Ru  Ru30  1  0.000000  0.000000  0.500000  1
  Ru  Ru31  1  0.000000  0.000000  0.000000  1
  Ru  Ru32  1  0.000000  0.500000  0.500000  1
  Ru  Ru33  1  0.500000  0.000000  0.000000  1
  Ru  Ru34  1  0.000000  0.500000  0.000000  1
  Ru  Ru35  1  0.500000  0.500000  0.000000  1
  Au  Au36  1  0.500000  0.000000  0.500000  1
  Au  Au37  1  0.500000  0.500000  0.500000  1
