# generated using pymatgen
data_Cs2AuBrCl6
_symmetry_space_group_name_H-M   'P 1'
_cell_length_a   7.97197746
_cell_length_b   7.97197759
_cell_length_c   7.97197756
_cell_angle_alpha   119.91505833
_cell_angle_beta   119.91506076
_cell_angle_gamma   90.14718536
_symmetry_Int_Tables_number   1
_chemical_formula_structural   Cs2AuBrCl6
_chemical_formula_sum   'Cs2 Au1 Br1 Cl6'
_cell_volume   358.70618642
_cell_formula_units_Z   1
loop_
 _symmetry_equiv_pos_site_id
 _symmetry_equiv_pos_as_xyz
  1  'x, y, z'
loop_
 _atom_site_type_symbol
 _atom_site_label
 _atom_site_symmetry_multiplicity
 _atom_site_fract_x
 _atom_site_fract_y
 _atom_site_fract_z
 _atom_site_occupancy
  Cs  Cs0  1  0.750000  0.250000  0.500000  1
  Cs  Cs1  1  0.250000  0.750000  0.500000  1
  Au  Au2  1  0.000000  0.000000  0.000000  1
  Br  Br3  1  0.500000  0.500000  0.000000  1
  Cl  Cl4  1  0.285386  0.285386  0.000000  1
  Cl  Cl5  1  0.793030  0.206970  0.000000  1
  Cl  Cl6  1  0.206970  0.793030  0.000000  1
  Cl  Cl7  1  0.793030  0.793030  0.586059  1
  Cl  Cl8  1  0.714614  0.714614  0.000000  1
  Cl  Cl9  1  0.206970  0.206970  0.413941  1
