# generated using pymatgen
data_Ho3PaZnHgRh3
_symmetry_space_group_name_H-M   'P 1'
_cell_length_a   7.70580874
_cell_length_b   7.63785967
_cell_length_c   3.82125300
_cell_angle_alpha   90.00000000
_cell_angle_beta   90.00000000
_cell_angle_gamma   121.61494880
_symmetry_Int_Tables_number   1
_chemical_formula_structural   Ho3PaZnHgRh3
_chemical_formula_sum   'Ho3 Pa1 Zn1 Hg1 Rh3'
_cell_volume   191.52538557
_cell_formula_units_Z   1
loop_
 _symmetry_equiv_pos_site_id
 _symmetry_equiv_pos_as_xyz
  1  'x, y, z'
loop_
 _atom_site_type_symbol
 _atom_site_label
 _atom_site_symmetry_multiplicity
 _atom_site_fract_x
 _atom_site_fract_y
 _atom_site_fract_z
 _atom_site_occupancy
  Ho  Ho0  1  0.960371  0.413758  0.500000  1
  Ho  Ho1  1  0.645053  0.637821  0.500000  1
  Ho  Ho2  1  0.400620  0.959462  0.500000  1
  Pa  Pa3  1  0.261660  0.267880  0.000000  1
  Zn  Zn4  1  0.014205  0.743588  0.000000  1
  Hg  Hg5  1  0.742209  0.013014  0.000000  1
  Rh  Rh6  1  0.316837  0.624402  0.000000  1
  Rh  Rh7  1  0.031136  0.007665  0.500000  1
  Rh  Rh8  1  0.627912  0.332412  0.000000  1
