# generated using pymatgen
data_Ho3BBr3
_symmetry_space_group_name_H-M   'P 1'
_cell_length_a   9.70085823
_cell_length_b   9.70085742
_cell_length_c   9.70085800
_cell_angle_alpha   109.47121975
_cell_angle_beta   109.47121806
_cell_angle_gamma   109.47122196
_symmetry_Int_Tables_number   1
_chemical_formula_structural   Ho3BBr3
_chemical_formula_sum   'Ho12 B4 Br12'
_cell_volume   702.76244926
_cell_formula_units_Z   4
loop_
 _symmetry_equiv_pos_site_id
 _symmetry_equiv_pos_as_xyz
  1  'x, y, z'
loop_
 _atom_site_type_symbol
 _atom_site_label
 _atom_site_symmetry_multiplicity
 _atom_site_fract_x
 _atom_site_fract_y
 _atom_site_fract_z
 _atom_site_occupancy
  Ho  Ho0  1  0.458970  0.479485  0.229485  1
  Ho  Ho1  1  0.750000  0.229485  0.270515  1
  Ho  Ho2  1  0.750000  0.020515  0.479485  1
  Ho  Ho3  1  0.229485  0.458970  0.479485  1
  Ho  Ho4  1  0.270515  0.750000  0.229485  1
  Ho  Ho5  1  0.041030  0.270515  0.020515  1
  Ho  Ho6  1  0.020515  0.041030  0.270515  1
  Ho  Ho7  1  0.479485  0.750000  0.020515  1
  Ho  Ho8  1  0.479485  0.229485  0.458970  1
  Ho  Ho9  1  0.020515  0.479485  0.750000  1
  Ho  Ho10  1  0.270515  0.020515  0.041030  1
  Ho  Ho11  1  0.229485  0.270515  0.750000  1
  B  B12  1  0.250000  0.250000  0.250000  1
  B  B13  1  0.500000  0.000000  0.250000  1
  B  B14  1  0.000000  0.250000  0.500000  1
  B  B15  1  0.250000  0.500000  0.000000  1
  Br  Br16  1  0.250000  0.758187  0.741813  1
  Br  Br17  1  0.516376  0.508187  0.758187  1
  Br  Br18  1  0.983624  0.741813  0.991813  1
  Br  Br19  1  0.741813  0.250000  0.758187  1
  Br  Br20  1  0.991813  0.983624  0.741813  1
  Br  Br21  1  0.250000  0.991813  0.508187  1
  Br  Br22  1  0.758187  0.516376  0.508187  1
  Br  Br23  1  0.508187  0.250000  0.991813  1
  Br  Br24  1  0.758187  0.741813  0.250000  1
  Br  Br25  1  0.741813  0.991813  0.983624  1
  Br  Br26  1  0.991813  0.508187  0.250000  1
  Br  Br27  1  0.508187  0.758187  0.516376  1
