# generated using pymatgen
data_CaTiMnO5
_symmetry_space_group_name_H-M   'P 1'
_cell_length_a   5.78127500
_cell_length_b   7.59742300
_cell_length_c   8.54173600
_cell_angle_alpha   90.00000000
_cell_angle_beta   90.00000000
_cell_angle_gamma   90.00000000
_symmetry_Int_Tables_number   1
_chemical_formula_structural   CaTiMnO5
_chemical_formula_sum   'Ca4 Ti4 Mn4 O20'
_cell_volume   375.17689069
_cell_formula_units_Z   4
loop_
 _symmetry_equiv_pos_site_id
 _symmetry_equiv_pos_as_xyz
  1  'x, y, z'
loop_
 _atom_site_type_symbol
 _atom_site_label
 _atom_site_symmetry_multiplicity
 _atom_site_fract_x
 _atom_site_fract_y
 _atom_site_fract_z
 _atom_site_occupancy
  Ca  Ca0  1  0.500000  0.362525  0.333806  1
  Ca  Ca1  1  0.500000  0.637475  0.666194  1
  Ca  Ca2  1  0.500000  0.137475  0.833806  1
  Ca  Ca3  1  0.500000  0.862525  0.166194  1
  Ti  Ti4  1  0.000000  0.116061  0.143541  1
  Ti  Ti5  1  0.000000  0.883939  0.856459  1
  Ti  Ti6  1  0.000000  0.383939  0.643541  1
  Ti  Ti7  1  0.000000  0.616061  0.356459  1
  Mn  Mn8  1  0.254021  0.000000  0.500000  1
  Mn  Mn9  1  0.745979  0.000000  0.500000  1
  Mn  Mn10  1  0.745979  0.500000  0.000000  1
  Mn  Mn11  1  0.254021  0.500000  0.000000  1
  O  O12  1  0.215087  0.000000  0.000000  1
  O  O13  1  0.784913  0.000000  0.000000  1
  O  O14  1  0.784913  0.500000  0.500000  1
  O  O15  1  0.215087  0.500000  0.500000  1
  O  O16  1  0.000000  0.345655  0.070144  1
  O  O17  1  0.000000  0.654345  0.929856  1
  O  O18  1  0.000000  0.154345  0.570144  1
  O  O19  1  0.000000  0.845655  0.429856  1
  O  O20  1  0.243483  0.102418  0.294721  1
  O  O21  1  0.756517  0.897582  0.705279  1
  O  O22  1  0.243483  0.897582  0.705279  1
  O  O23  1  0.756517  0.397582  0.794721  1
  O  O24  1  0.756517  0.102418  0.294721  1
  O  O25  1  0.243483  0.602418  0.205279  1
  O  O26  1  0.756517  0.602418  0.205279  1
  O  O27  1  0.243483  0.397582  0.794721  1
  O  O28  1  0.500000  0.346966  0.055746  1
  O  O29  1  0.500000  0.653034  0.944254  1
  O  O30  1  0.500000  0.153034  0.555746  1
  O  O31  1  0.500000  0.846966  0.444254  1
