# generated using pymatgen
data_HoLu6Co6Sn23
_symmetry_space_group_name_H-M   'P 1'
_cell_length_a   9.63968200
_cell_length_b   9.63968107
_cell_length_c   9.93382000
_cell_angle_alpha   90.00000000
_cell_angle_beta   90.00000000
_cell_angle_gamma   119.99999633
_symmetry_Int_Tables_number   1
_chemical_formula_structural   HoLu6Co6Sn23
_chemical_formula_sum   'Ho1 Lu6 Co6 Sn23'
_cell_volume   799.41502568
_cell_formula_units_Z   1
loop_
 _symmetry_equiv_pos_site_id
 _symmetry_equiv_pos_as_xyz
  1  'x, y, z'
loop_
 _atom_site_type_symbol
 _atom_site_label
 _atom_site_symmetry_multiplicity
 _atom_site_fract_x
 _atom_site_fract_y
 _atom_site_fract_z
 _atom_site_occupancy
  Ho  Ho0  1  0.000000  0.000000  0.000000  1
  Lu  Lu1  1  0.520809  0.479191  0.693303  1
  Lu  Lu2  1  0.520809  0.041618  0.693303  1
  Lu  Lu3  1  0.958382  0.479191  0.693303  1
  Lu  Lu4  1  0.041618  0.520809  0.306697  1
  Lu  Lu5  1  0.479191  0.958382  0.306697  1
  Lu  Lu6  1  0.479191  0.520809  0.306697  1
  Co  Co7  1  0.168298  0.831702  0.802580  1
  Co  Co8  1  0.168298  0.336595  0.802580  1
  Co  Co9  1  0.663405  0.831702  0.802580  1
  Co  Co10  1  0.336595  0.168298  0.197420  1
  Co  Co11  1  0.831702  0.663405  0.197420  1
  Co  Co12  1  0.831702  0.168298  0.197420  1
  Sn  Sn13  1  0.666667  0.333333  0.182801  1
  Sn  Sn14  1  0.666667  0.333333  0.878191  1
  Sn  Sn15  1  0.333333  0.666667  0.121809  1
  Sn  Sn16  1  0.346318  0.346318  0.000000  1
  Sn  Sn17  1  0.000000  0.653682  0.000000  1
  Sn  Sn18  1  0.653682  0.000000  0.000000  1
  Sn  Sn19  1  0.653682  0.653682  0.000000  1
  Sn  Sn20  1  0.333333  0.666667  0.817199  1
  Sn  Sn21  1  0.437925  0.218963  0.451793  1
  Sn  Sn22  1  0.218963  0.781037  0.548207  1
  Sn  Sn23  1  0.218963  0.437925  0.548207  1
  Sn  Sn24  1  0.562075  0.781037  0.548207  1
  Sn  Sn25  1  0.119009  0.880991  0.274276  1
  Sn  Sn26  1  0.781037  0.562075  0.451793  1
  Sn  Sn27  1  0.781037  0.218963  0.451793  1
  Sn  Sn28  1  0.346318  0.000000  0.000000  1
  Sn  Sn29  1  0.119009  0.238019  0.274276  1
  Sn  Sn30  1  0.761981  0.880991  0.274276  1
  Sn  Sn31  1  0.238019  0.119009  0.725724  1
  Sn  Sn32  1  0.880991  0.761981  0.725724  1
  Sn  Sn33  1  0.880991  0.119009  0.725724  1
  Sn  Sn34  1  0.000000  0.000000  0.500000  1
  Sn  Sn35  1  0.000000  0.346318  0.000000  1
