# generated using pymatgen
data_TbEr4In4PtRh
_symmetry_space_group_name_H-M   'P 1'
_cell_length_a   3.60331200
_cell_length_b   8.09452936
_cell_length_c   18.18954280
_cell_angle_alpha   90.11713978
_cell_angle_beta   90.00000000
_cell_angle_gamma   90.00000000
_symmetry_Int_Tables_number   1
_chemical_formula_structural   TbEr4In4PtRh
_chemical_formula_sum   'Tb2 Er8 In8 Pt2 Rh2'
_cell_volume   530.53537390
_cell_formula_units_Z   2
loop_
 _symmetry_equiv_pos_site_id
 _symmetry_equiv_pos_as_xyz
  1  'x, y, z'
loop_
 _atom_site_type_symbol
 _atom_site_label
 _atom_site_symmetry_multiplicity
 _atom_site_fract_x
 _atom_site_fract_y
 _atom_site_fract_z
 _atom_site_occupancy
  Tb  Tb0  1  0.000000  0.000000  0.000000  1
  Tb  Tb1  1  0.000000  0.500000  0.500000  1
  Er  Er2  1  0.000000  0.115160  0.412206  1
  Er  Er3  1  0.000000  0.884840  0.587794  1
  Er  Er4  1  0.000000  0.383101  0.913724  1
  Er  Er5  1  0.000000  0.616899  0.086276  1
  Er  Er6  1  0.000000  0.238718  0.221488  1
  Er  Er7  1  0.000000  0.761282  0.778512  1
  Er  Er8  1  0.000000  0.251266  0.720438  1
  Er  Er9  1  0.000000  0.748734  0.279562  1
  In  In10  1  0.500000  0.422582  0.351092  1
  In  In11  1  0.500000  0.577418  0.648908  1
  In  In12  1  0.500000  0.073430  0.849897  1
  In  In13  1  0.500000  0.926570  0.150103  1
  In  In14  1  0.500000  0.293228  0.066286  1
  In  In15  1  0.500000  0.706772  0.933714  1
  In  In16  1  0.500000  0.205643  0.567913  1
  In  In17  1  0.500000  0.794357  0.432087  1
  Pt  Pt18  1  0.500000  0.478174  0.803290  1
  Pt  Pt19  1  0.500000  0.521826  0.196710  1
  Rh  Rh20  1  0.500000  0.021804  0.304660  1
  Rh  Rh21  1  0.500000  0.978196  0.695340  1
