# generated using pymatgen
data_Y3Sc4U(CrB6)4
_symmetry_space_group_name_H-M   'P 1'
_cell_length_a   3.47831300
_cell_length_b   9.00922079
_cell_length_c   11.38658100
_cell_angle_alpha   90.04801142
_cell_angle_beta   90.00000000
_cell_angle_gamma   90.00000000
_symmetry_Int_Tables_number   1
_chemical_formula_structural   Y3Sc4U(CrB6)4
_chemical_formula_sum   'Y3 Sc4 U1 Cr4 B24'
_cell_volume   356.81990866
_cell_formula_units_Z   1
loop_
 _symmetry_equiv_pos_site_id
 _symmetry_equiv_pos_as_xyz
  1  'x, y, z'
loop_
 _atom_site_type_symbol
 _atom_site_label
 _atom_site_symmetry_multiplicity
 _atom_site_fract_x
 _atom_site_fract_y
 _atom_site_fract_z
 _atom_site_occupancy
  Y  Y0  1  0.000000  0.822455  0.085442  1
  Y  Y1  1  0.000000  0.177335  0.914569  1
  Y  Y2  1  0.000000  0.319948  0.414300  1
  Sc  Sc3  1  0.000000  0.443256  0.131276  1
  Sc  Sc4  1  0.000000  0.556300  0.870503  1
  Sc  Sc5  1  0.000000  0.944614  0.370259  1
  Sc  Sc6  1  0.000000  0.057401  0.629144  1
  U  U7  1  0.000000  0.677658  0.584905  1
  Cr  Cr8  1  0.000000  0.140884  0.182527  1
  Cr  Cr9  1  0.000000  0.855690  0.814717  1
  Cr  Cr10  1  0.000000  0.641215  0.321709  1
  Cr  Cr11  1  0.000000  0.362253  0.680904  1
  B  B12  1  0.500000  0.054506  0.067663  1
  B  B13  1  0.500000  0.944418  0.930903  1
  B  B14  1  0.500000  0.555886  0.433167  1
  B  B15  1  0.500000  0.447197  0.568591  1
  B  B16  1  0.500000  0.252836  0.082795  1
  B  B17  1  0.500000  0.747350  0.916972  1
  B  B18  1  0.500000  0.752692  0.418466  1
  B  B19  1  0.500000  0.247988  0.583236  1
  B  B20  1  0.500000  0.294276  0.235164  1
  B  B21  1  0.500000  0.705513  0.763548  1
  B  B22  1  0.500000  0.793909  0.265138  1
  B  B23  1  0.500000  0.206508  0.734967  1
  B  B24  1  0.500000  0.129194  0.316125  1
  B  B25  1  0.500000  0.869157  0.682142  1
  B  B26  1  0.500000  0.629315  0.184376  1
  B  B27  1  0.500000  0.370776  0.816615  1
  B  B28  1  0.500000  0.482577  0.286339  1
  B  B29  1  0.500000  0.518338  0.713182  1
  B  B30  1  0.500000  0.982148  0.213796  1
  B  B31  1  0.500000  0.017090  0.785528  1
  B  B32  1  0.500000  0.097871  0.473487  1
  B  B33  1  0.500000  0.901415  0.526446  1
  B  B34  1  0.500000  0.596485  0.026709  1
  B  B35  1  0.500000  0.403545  0.974391  1
