# generated using pymatgen
data_TiMnCr3Co3P4
_symmetry_space_group_name_H-M   'P 1'
_cell_length_a   3.53713100
_cell_length_b   5.84901579
_cell_length_c   6.70428562
_cell_angle_alpha   89.51850494
_cell_angle_beta   90.00000000
_cell_angle_gamma   90.00000000
_symmetry_Int_Tables_number   1
_chemical_formula_structural   TiMnCr3Co3P4
_chemical_formula_sum   'Ti1 Mn1 Cr3 Co3 P4'
_cell_volume   138.69829138
_cell_formula_units_Z   1
loop_
 _symmetry_equiv_pos_site_id
 _symmetry_equiv_pos_as_xyz
  1  'x, y, z'
loop_
 _atom_site_type_symbol
 _atom_site_label
 _atom_site_symmetry_multiplicity
 _atom_site_fract_x
 _atom_site_fract_y
 _atom_site_fract_z
 _atom_site_occupancy
  Ti  Ti0  1  0.250000  0.478265  0.820931  1
  Mn  Mn1  1  0.750000  0.641710  0.560531  1
  Cr  Cr2  1  0.750000  0.530809  0.175003  1
  Cr  Cr3  1  0.750000  0.021782  0.332043  1
  Cr  Cr4  1  0.250000  0.970551  0.667186  1
  Co  Co5  1  0.750000  0.144390  0.941302  1
  Co  Co6  1  0.250000  0.354802  0.433870  1
  Co  Co7  1  0.250000  0.858019  0.066255  1
  P  P8  1  0.750000  0.256554  0.618758  1
  P  P9  1  0.750000  0.774627  0.877968  1
  P  P10  1  0.250000  0.735286  0.376208  1
  P  P11  1  0.250000  0.233205  0.129945  1
