# generated using pymatgen
data_ErLuTc2F14
_symmetry_space_group_name_H-M   'P 1'
_cell_length_a   5.52548666
_cell_length_b   8.78561111
_cell_length_c   11.89802011
_cell_angle_alpha   62.88919958
_cell_angle_beta   89.90520025
_cell_angle_gamma   90.00715621
_symmetry_Int_Tables_number   1
_chemical_formula_structural   ErLuTc2F14
_chemical_formula_sum   'Er2 Lu2 Tc4 F28'
_cell_volume   514.12454407
_cell_formula_units_Z   2
loop_
 _symmetry_equiv_pos_site_id
 _symmetry_equiv_pos_as_xyz
  1  'x, y, z'
loop_
 _atom_site_type_symbol
 _atom_site_label
 _atom_site_symmetry_multiplicity
 _atom_site_fract_x
 _atom_site_fract_y
 _atom_site_fract_z
 _atom_site_occupancy
  Er  Er0  1  0.258231  0.815397  0.264581  1
  Er  Er1  1  0.741769  0.184603  0.735419  1
  Lu  Lu2  1  0.759182  0.186337  0.235378  1
  Lu  Lu3  1  0.240818  0.813663  0.764622  1
  Tc  Tc4  1  0.758636  0.725818  0.042561  1
  Tc  Tc5  1  0.241364  0.274182  0.957439  1
  Tc  Tc6  1  0.258704  0.271498  0.456054  1
  Tc  Tc7  1  0.741296  0.728502  0.543946  1
  F  F8  1  0.943045  0.706799  0.416942  1
  F  F9  1  0.056955  0.293201  0.583058  1
  F  F10  1  0.443517  0.294942  0.084395  1
  F  F11  1  0.556483  0.705058  0.915605  1
  F  F12  1  0.471006  0.727502  0.138837  1
  F  F13  1  0.528994  0.272498  0.861163  1
  F  F14  1  0.971377  0.271309  0.358895  1
  F  F15  1  0.028623  0.728691  0.641105  1
  F  F16  1  0.952725  0.746742  0.173952  1
  F  F17  1  0.047275  0.253258  0.826048  1
  F  F18  1  0.456323  0.250689  0.325182  1
  F  F19  1  0.543677  0.749311  0.674818  1
  F  F20  1  0.776471  0.475168  0.141725  1
  F  F21  1  0.223529  0.524832  0.858275  1
  F  F22  1  0.276782  0.521990  0.358383  1
  F  F23  1  0.723218  0.478010  0.641617  1
  F  F24  1  0.940595  0.275076  0.047564  1
  F  F25  1  0.059405  0.724924  0.952436  1
  F  F26  1  0.442394  0.725561  0.454425  1
  F  F27  1  0.557606  0.274439  0.545575  1
  F  F28  1  0.744651  0.977097  0.446456  1
  F  F29  1  0.255349  0.022903  0.553544  1
  F  F30  1  0.244716  0.025383  0.053489  1
  F  F31  1  0.755284  0.974617  0.946511  1
  F  F32  1  0.580973  0.974727  0.232578  1
  F  F33  1  0.419027  0.025273  0.767422  1
  F  F34  1  0.076275  0.031328  0.267203  1
  F  F35  1  0.923725  0.968672  0.732797  1
