# generated using pymatgen
data_Pr17Ho3(RuPt2)4
_symmetry_space_group_name_H-M   'P 1'
_cell_length_a   11.53490000
_cell_length_b   11.53490000
_cell_length_c   6.54124000
_cell_angle_alpha   90.00000000
_cell_angle_beta   90.00000000
_cell_angle_gamma   90.00000000
_symmetry_Int_Tables_number   1
_chemical_formula_structural   Pr17Ho3(RuPt2)4
_chemical_formula_sum   'Pr17 Ho3 Ru4 Pt8'
_cell_volume   870.33761064
_cell_formula_units_Z   1
loop_
 _symmetry_equiv_pos_site_id
 _symmetry_equiv_pos_as_xyz
  1  'x, y, z'
loop_
 _atom_site_type_symbol
 _atom_site_label
 _atom_site_symmetry_multiplicity
 _atom_site_fract_x
 _atom_site_fract_y
 _atom_site_fract_z
 _atom_site_occupancy
  Pr  Pr0  1  0.296671  0.087089  0.374740  1
  Pr  Pr1  1  0.296088  0.912837  0.875926  1
  Pr  Pr2  1  0.703912  0.087163  0.875926  1
  Pr  Pr3  1  0.703329  0.912911  0.374740  1
  Pr  Pr4  1  0.587332  0.794199  0.875771  1
  Pr  Pr5  1  0.587260  0.205434  0.375954  1
  Pr  Pr6  1  0.412740  0.794566  0.375954  1
  Pr  Pr7  1  0.412668  0.205801  0.875771  1
  Pr  Pr8  1  0.205434  0.412740  0.624046  1
  Pr  Pr9  1  0.205801  0.587332  0.124229  1
  Pr  Pr10  1  0.794199  0.412668  0.124229  1
  Pr  Pr11  1  0.794566  0.587260  0.624046  1
  Pr  Pr12  1  0.912837  0.703912  0.124074  1
  Pr  Pr13  1  0.912911  0.296671  0.625260  1
  Pr  Pr14  1  0.087089  0.703329  0.625260  1
  Pr  Pr15  1  0.087163  0.296088  0.124074  1
  Pr  Pr16  1  0.000000  0.000000  0.500000  1
  Ho  Ho17  1  0.000000  0.000000  0.000000  1
  Ho  Ho18  1  0.500000  0.500000  0.000000  1
  Ho  Ho19  1  0.500000  0.500000  0.500000  1
  Ru  Ru20  1  0.500000  0.000000  0.117835  1
  Ru  Ru21  1  0.500000  0.000000  0.618113  1
  Ru  Ru22  1  0.000000  0.500000  0.882165  1
  Ru  Ru23  1  0.000000  0.500000  0.381887  1
  Pt  Pt24  1  0.850165  0.150708  0.243481  1
  Pt  Pt25  1  0.849292  0.850165  0.756519  1
  Pt  Pt26  1  0.150708  0.149835  0.756519  1
  Pt  Pt27  1  0.149835  0.849292  0.243481  1
  Pt  Pt28  1  0.645585  0.354641  0.750067  1
  Pt  Pt29  1  0.645359  0.645585  0.249933  1
  Pt  Pt30  1  0.354641  0.354415  0.249933  1
  Pt  Pt31  1  0.354415  0.645359  0.750067  1
