# generated using pymatgen
data_Ce4Sn2IrPd3
_symmetry_space_group_name_H-M   'P 1'
_cell_length_a   7.77983989
_cell_length_b   7.77983989
_cell_length_c   3.78110700
_cell_angle_alpha   90.00000000
_cell_angle_beta   90.00000000
_cell_angle_gamma   89.79963729
_symmetry_Int_Tables_number   1
_chemical_formula_structural   Ce4Sn2IrPd3
_chemical_formula_sum   'Ce4 Sn2 Ir1 Pd3'
_cell_volume   228.85353794
_cell_formula_units_Z   1
loop_
 _symmetry_equiv_pos_site_id
 _symmetry_equiv_pos_as_xyz
  1  'x, y, z'
loop_
 _atom_site_type_symbol
 _atom_site_label
 _atom_site_symmetry_multiplicity
 _atom_site_fract_x
 _atom_site_fract_y
 _atom_site_fract_z
 _atom_site_occupancy
  Ce  Ce0  1  0.673763  0.173763  0.500000  1
  Ce  Ce1  1  0.316789  0.816789  0.500000  1
  Ce  Ce2  1  0.177379  0.334492  0.500000  1
  Ce  Ce3  1  0.834492  0.677379  0.500000  1
  Sn  Sn4  1  0.000684  0.001563  0.000000  1
  Sn  Sn5  1  0.501563  0.500684  0.000000  1
  Ir  Ir6  1  0.128228  0.628228  0.000000  1
  Pd  Pd7  1  0.868110  0.368110  0.000000  1
  Pd  Pd8  1  0.628092  0.870900  0.000000  1
  Pd  Pd9  1  0.370900  0.128092  0.000000  1
