# generated using pymatgen
data_Ca9Nd10SmSn16
_symmetry_space_group_name_H-M   'P 1'
_cell_length_a   8.00745754
_cell_length_b   8.53346775
_cell_length_c   16.18461137
_cell_angle_alpha   90.02889761
_cell_angle_beta   90.05003975
_cell_angle_gamma   90.04680066
_symmetry_Int_Tables_number   1
_chemical_formula_structural   Ca9Nd10SmSn16
_chemical_formula_sum   'Ca9 Nd10 Sm1 Sn16'
_cell_volume   1105.91590916
_cell_formula_units_Z   1
loop_
 _symmetry_equiv_pos_site_id
 _symmetry_equiv_pos_as_xyz
  1  'x, y, z'
loop_
 _atom_site_type_symbol
 _atom_site_label
 _atom_site_symmetry_multiplicity
 _atom_site_fract_x
 _atom_site_fract_y
 _atom_site_fract_z
 _atom_site_occupancy
  Ca  Ca0  1  0.998284  0.184502  0.406782  1
  Ca  Ca1  1  0.330940  0.828522  0.122663  1
  Ca  Ca2  1  0.167909  0.328186  0.622400  1
  Ca  Ca3  1  0.500604  0.682569  0.906564  1
  Ca  Ca4  1  0.830729  0.672524  0.122878  1
  Ca  Ca5  1  0.161312  0.495889  0.248565  1
  Ca  Ca6  1  0.664723  0.004094  0.248836  1
  Ca  Ca7  1  0.338496  0.994882  0.749826  1
  Ca  Ca8  1  0.834765  0.505502  0.750518  1
  Nd  Nd9  1  0.506422  0.682913  0.593659  1
  Nd  Nd10  1  0.669193  0.174018  0.624598  1
  Nd  Nd11  1  0.833077  0.672966  0.376044  1
  Nd  Nd12  1  0.990756  0.186034  0.093521  1
  Nd  Nd13  1  0.007980  0.813007  0.903891  1
  Nd  Nd14  1  0.668311  0.171288  0.877054  1
  Nd  Nd15  1  0.490428  0.313654  0.096426  1
  Nd  Nd16  1  0.332885  0.828562  0.374589  1
  Nd  Nd17  1  0.010575  0.813426  0.596522  1
  Nd  Nd18  1  0.492848  0.316005  0.403717  1
  Sm  Sm19  1  0.168902  0.329878  0.875899  1
  Sn  Sn20  1  0.827253  0.467114  0.539196  1
  Sn  Sn21  1  0.672255  0.965113  0.461880  1
  Sn  Sn22  1  0.711564  0.862802  0.749339  1
  Sn  Sn23  1  0.175711  0.539408  0.462691  1
  Sn  Sn24  1  0.324376  0.040129  0.962292  1
  Sn  Sn25  1  0.787513  0.360585  0.250454  1
  Sn  Sn26  1  0.831288  0.465138  0.961222  1
  Sn  Sn27  1  0.532275  0.604244  0.249762  1
  Sn  Sn28  1  0.169259  0.530763  0.038493  1
  Sn  Sn29  1  0.463973  0.388261  0.750025  1
  Sn  Sn30  1  0.209921  0.639278  0.749810  1
  Sn  Sn31  1  0.970646  0.102837  0.750906  1
  Sn  Sn32  1  0.331133  0.031544  0.539669  1
  Sn  Sn33  1  0.671023  0.969132  0.040345  1
  Sn  Sn34  1  0.289336  0.139349  0.249437  1
  Sn  Sn35  1  0.033337  0.895884  0.249525  1
