# generated using pymatgen
data_KLu2F7
_symmetry_space_group_name_H-M   'P 1'
_cell_length_a   6.53357130
_cell_length_b   6.53357257
_cell_length_c   4.25820300
_cell_angle_alpha   90.00000000
_cell_angle_beta   90.00000000
_cell_angle_gamma   116.50854428
_symmetry_Int_Tables_number   1
_chemical_formula_structural   KLu2F7
_chemical_formula_sum   'K1 Lu2 F7'
_cell_volume   162.66218540
_cell_formula_units_Z   1
loop_
 _symmetry_equiv_pos_site_id
 _symmetry_equiv_pos_as_xyz
  1  'x, y, z'
loop_
 _atom_site_type_symbol
 _atom_site_label
 _atom_site_symmetry_multiplicity
 _atom_site_fract_x
 _atom_site_fract_y
 _atom_site_fract_z
 _atom_site_occupancy
  K  K0  1  0.000000  0.000000  0.000000  1
  Lu  Lu1  1  0.692572  0.307428  0.500000  1
  Lu  Lu2  1  0.307428  0.692572  0.500000  1
  F  F3  1  0.957020  0.666172  0.500000  1
  F  F4  1  0.699682  0.300318  0.000000  1
  F  F5  1  0.666172  0.957020  0.500000  1
  F  F6  1  0.500000  0.500000  0.500000  1
  F  F7  1  0.333828  0.042980  0.500000  1
  F  F8  1  0.300318  0.699682  0.000000  1
  F  F9  1  0.042980  0.333828  0.500000  1
