# generated using pymatgen
data_Na2Dy3Tc3(P3Ir4)4
_symmetry_space_group_name_H-M   'P 1'
_cell_length_a   12.64663800
_cell_length_b   12.65267054
_cell_length_c   3.97468600
_cell_angle_alpha   90.00000000
_cell_angle_beta   90.00000000
_cell_angle_gamma   119.98422951
_symmetry_Int_Tables_number   1
_chemical_formula_structural   Na2Dy3Tc3(P3Ir4)4
_chemical_formula_sum   'Na2 Dy3 Tc3 P12 Ir16'
_cell_volume   550.88346531
_cell_formula_units_Z   1
loop_
 _symmetry_equiv_pos_site_id
 _symmetry_equiv_pos_as_xyz
  1  'x, y, z'
loop_
 _atom_site_type_symbol
 _atom_site_label
 _atom_site_symmetry_multiplicity
 _atom_site_fract_x
 _atom_site_fract_y
 _atom_site_fract_z
 _atom_site_occupancy
  Na  Na0  1  0.000671  0.817875  0.000000  1
  Na  Na1  1  0.182796  0.182125  0.000000  1
  Dy  Dy2  1  0.333866  0.667665  0.500000  1
  Dy  Dy3  1  0.666202  0.332335  0.500000  1
  Dy  Dy4  1  0.818549  0.000000  0.000000  1
  Tc  Tc5  1  0.997540  0.454451  0.500000  1
  Tc  Tc6  1  0.543089  0.545549  0.500000  1
  Tc  Tc7  1  0.455912  0.000000  0.500000  1
  P  P8  1  0.000313  0.640340  0.500000  1
  P  P9  1  0.359973  0.359660  0.500000  1
  P  P10  1  0.638345  0.000000  0.500000  1
  P  P11  1  0.516422  0.684307  0.000000  1
  P  P12  1  0.313298  0.831554  0.000000  1
  P  P13  1  0.168243  0.482218  0.000000  1
  P  P14  1  0.481744  0.168446  0.000000  1
  P  P15  1  0.686025  0.517782  0.000000  1
  P  P16  1  0.832115  0.315693  0.000000  1
  P  P17  1  0.003994  0.180022  0.500000  1
  P  P18  1  0.823971  0.819978  0.500000  1
  P  P19  1  0.177587  0.000000  0.500000  1
  Ir  Ir20  1  0.508583  0.866968  0.000000  1
  Ir  Ir21  1  0.131685  0.639823  0.000000  1
  Ir  Ir22  1  0.358431  0.490859  0.000000  1
  Ir  Ir23  1  0.491863  0.360177  0.000000  1
  Ir  Ir24  1  0.867573  0.509141  0.000000  1
  Ir  Ir25  1  0.641616  0.133032  0.000000  1
  Ir  Ir26  1  0.998380  0.286532  0.000000  1
  Ir  Ir27  1  0.711848  0.713468  0.000000  1
  Ir  Ir28  1  0.286870  0.000000  0.000000  1
  Ir  Ir29  1  0.625700  0.805685  0.500000  1
  Ir  Ir30  1  0.197863  0.818664  0.500000  1
  Ir  Ir31  1  0.180914  0.379425  0.500000  1
  Ir  Ir32  1  0.379200  0.181336  0.500000  1
  Ir  Ir33  1  0.801489  0.620575  0.500000  1
  Ir  Ir34  1  0.820015  0.194315  0.500000  1
  Ir  Ir35  1  0.997316  0.000000  0.500000  1
