# generated using pymatgen
data_Lu10Tl5Sb
_symmetry_space_group_name_H-M   'P 1'
_cell_length_a   8.79953839
_cell_length_b   8.79953937
_cell_length_c   6.49321600
_cell_angle_alpha   90.00000000
_cell_angle_beta   90.00000000
_cell_angle_gamma   119.82112577
_symmetry_Int_Tables_number   1
_chemical_formula_structural   Lu10Tl5Sb
_chemical_formula_sum   'Lu10 Tl5 Sb1'
_cell_volume   436.20464818
_cell_formula_units_Z   1
loop_
 _symmetry_equiv_pos_site_id
 _symmetry_equiv_pos_as_xyz
  1  'x, y, z'
loop_
 _atom_site_type_symbol
 _atom_site_label
 _atom_site_symmetry_multiplicity
 _atom_site_fract_x
 _atom_site_fract_y
 _atom_site_fract_z
 _atom_site_occupancy
  Lu  Lu0  1  0.667764  0.334407  0.002878  1
  Lu  Lu1  1  0.334407  0.667764  0.002878  1
  Lu  Lu2  1  0.334407  0.667764  0.497122  1
  Lu  Lu3  1  0.667764  0.334407  0.497122  1
  Lu  Lu4  1  0.766479  0.766479  0.750000  1
  Lu  Lu5  1  0.233883  0.995318  0.750000  1
  Lu  Lu6  1  0.995318  0.233883  0.750000  1
  Lu  Lu7  1  0.237449  0.237449  0.250000  1
  Lu  Lu8  1  0.765410  0.999996  0.250000  1
  Lu  Lu9  1  0.999996  0.765410  0.250000  1
  Tl  Tl10  1  0.598366  0.999366  0.750000  1
  Tl  Tl11  1  0.999366  0.598366  0.750000  1
  Tl  Tl12  1  0.603937  0.603937  0.250000  1
  Tl  Tl13  1  0.400211  0.001959  0.250000  1
  Tl  Tl14  1  0.001959  0.400211  0.250000  1
  Sb  Sb15  1  0.393286  0.393286  0.750000  1
