# generated using pymatgen
data_Yb7Sm(OsC2)4
_symmetry_space_group_name_H-M   'P 1'
_cell_length_a   5.15922600
_cell_length_b   6.46374919
_cell_length_c   10.22133405
_cell_angle_alpha   90.24587813
_cell_angle_beta   90.00000000
_cell_angle_gamma   90.00000000
_symmetry_Int_Tables_number   1
_chemical_formula_structural   Yb7Sm(OsC2)4
_chemical_formula_sum   'Yb7 Sm1 Os4 C8'
_cell_volume   340.85732519
_cell_formula_units_Z   1
loop_
 _symmetry_equiv_pos_site_id
 _symmetry_equiv_pos_as_xyz
  1  'x, y, z'
loop_
 _atom_site_type_symbol
 _atom_site_label
 _atom_site_symmetry_multiplicity
 _atom_site_fract_x
 _atom_site_fract_y
 _atom_site_fract_z
 _atom_site_occupancy
  Yb  Yb0  1  0.750000  0.301751  0.448661  1
  Yb  Yb1  1  0.750000  0.804457  0.049396  1
  Yb  Yb2  1  0.250000  0.193930  0.950678  1
  Yb  Yb3  1  0.250000  0.532823  0.220264  1
  Yb  Yb4  1  0.750000  0.466285  0.779503  1
  Yb  Yb5  1  0.750000  0.970296  0.730153  1
  Yb  Yb6  1  0.250000  0.032346  0.271364  1
  Sm  Sm7  1  0.250000  0.691615  0.550250  1
  Os  Os8  1  0.250000  0.730519  0.855693  1
  Os  Os9  1  0.750000  0.267779  0.145341  1
  Os  Os10  1  0.750000  0.769256  0.351091  1
  Os  Os11  1  0.250000  0.229168  0.648523  1
  C  C12  1  0.250000  0.468924  0.758374  1
  C  C13  1  0.750000  0.531584  0.239438  1
  C  C14  1  0.750000  0.030045  0.256829  1
  C  C15  1  0.250000  0.965287  0.740860  1
  C  C16  1  0.250000  0.796960  0.031527  1
  C  C17  1  0.750000  0.204214  0.968377  1
  C  C18  1  0.750000  0.709031  0.531020  1
  C  C19  1  0.250000  0.303729  0.472658  1
