# generated using pymatgen
data_EuMnCoC2
_symmetry_space_group_name_H-M   'P 1'
_cell_length_a   5.66137870
_cell_length_b   5.66137820
_cell_length_c   5.66137941
_cell_angle_alpha   143.93754415
_cell_angle_beta   143.93753562
_cell_angle_gamma   51.92070483
_symmetry_Int_Tables_number   1
_chemical_formula_structural   EuMnCoC2
_chemical_formula_sum   'Eu1 Mn1 Co1 C2'
_cell_volume   62.52500512
_cell_formula_units_Z   1
loop_
 _symmetry_equiv_pos_site_id
 _symmetry_equiv_pos_as_xyz
  1  'x, y, z'
loop_
 _atom_site_type_symbol
 _atom_site_label
 _atom_site_symmetry_multiplicity
 _atom_site_fract_x
 _atom_site_fract_y
 _atom_site_fract_z
 _atom_site_occupancy
  Eu  Eu0  1  0.000000  0.000000  0.000000  1
  Mn  Mn1  1  0.750000  0.250000  0.500000  1
  Co  Co2  1  0.250000  0.750000  0.500000  1
  C  C3  1  0.671135  0.671135  0.000000  1
  C  C4  1  0.328865  0.328865  0.000000  1
