# generated using pymatgen
data_CaBRu2C
_symmetry_space_group_name_H-M   'P 1'
_cell_length_a   6.72039469
_cell_length_b   5.89065341
_cell_length_c   5.52437084
_cell_angle_alpha   72.05309569
_cell_angle_beta   56.49981705
_cell_angle_gamma   51.44708915
_symmetry_Int_Tables_number   1
_chemical_formula_structural   CaBRu2C
_chemical_formula_sum   'Ca2 B2 Ru4 C2'
_cell_volume   142.40145121
_cell_formula_units_Z   2
loop_
 _symmetry_equiv_pos_site_id
 _symmetry_equiv_pos_as_xyz
  1  'x, y, z'
loop_
 _atom_site_type_symbol
 _atom_site_label
 _atom_site_symmetry_multiplicity
 _atom_site_fract_x
 _atom_site_fract_y
 _atom_site_fract_z
 _atom_site_occupancy
  Ca  Ca0  1  0.000000  0.000000  0.000000  1
  Ca  Ca1  1  0.250000  0.250000  0.250000  1
  B  B2  1  0.932696  0.567304  0.932696  1
  B  B3  1  0.567304  0.932696  0.567304  1
  Ru  Ru4  1  0.609453  0.609453  0.890547  1
  Ru  Ru5  1  0.631015  0.631015  0.368984  1
  Ru  Ru6  1  0.368984  0.368985  0.631015  1
  Ru  Ru7  1  0.890548  0.890547  0.609452  1
  C  C8  1  0.681580  0.318420  0.681580  1
  C  C9  1  0.318420  0.681580  0.318420  1
