# generated using pymatgen
data_YbPrTiIr3
_symmetry_space_group_name_H-M   'P 1'
_cell_length_a   5.67818212
_cell_length_b   5.21243045
_cell_length_c   5.67818200
_cell_angle_alpha   56.99740606
_cell_angle_beta   60.00000071
_cell_angle_gamma   56.99740579
_symmetry_Int_Tables_number   1
_chemical_formula_structural   YbPrTiIr3
_chemical_formula_sum   'Yb1 Pr1 Ti1 Ir3'
_cell_volume   113.15263607
_cell_formula_units_Z   1
loop_
 _symmetry_equiv_pos_site_id
 _symmetry_equiv_pos_as_xyz
  1  'x, y, z'
loop_
 _atom_site_type_symbol
 _atom_site_label
 _atom_site_symmetry_multiplicity
 _atom_site_fract_x
 _atom_site_fract_y
 _atom_site_fract_z
 _atom_site_occupancy
  Yb  Yb0  1  0.751536  0.745392  0.751536  1
  Pr  Pr1  1  0.502624  0.492128  0.502624  1
  Ti  Ti2  1  0.125273  0.624180  0.125273  1
  Ir  Ir3  1  0.625725  0.129434  0.122421  1
  Ir  Ir4  1  0.122421  0.129434  0.122421  1
  Ir  Ir5  1  0.122421  0.129434  0.625725  1
