# generated using pymatgen
data_NdNp3Ga12Ag
_symmetry_space_group_name_H-M   'P 1'
_cell_length_a   7.55487260
_cell_length_b   7.55487168
_cell_length_c   7.56720900
_cell_angle_alpha   109.50430445
_cell_angle_beta   109.50430199
_cell_angle_gamma   109.43812527
_symmetry_Int_Tables_number   1
_chemical_formula_structural   NdNp3Ga12Ag
_chemical_formula_sum   'Nd1 Np3 Ga12 Ag1'
_cell_volume   332.34607749
_cell_formula_units_Z   1
loop_
 _symmetry_equiv_pos_site_id
 _symmetry_equiv_pos_as_xyz
  1  'x, y, z'
loop_
 _atom_site_type_symbol
 _atom_site_label
 _atom_site_symmetry_multiplicity
 _atom_site_fract_x
 _atom_site_fract_y
 _atom_site_fract_z
 _atom_site_occupancy
  Nd  Nd0  1  0.000000  0.000000  0.500000  1
  Np  Np1  1  0.500000  0.500000  0.500000  1
  Np  Np2  1  0.000000  0.500000  0.000000  1
  Np  Np3  1  0.500000  0.000000  0.000000  1
  Ga  Ga4  1  0.497508  0.748755  0.248755  1
  Ga  Ga5  1  0.502492  0.251245  0.751245  1
  Ga  Ga6  1  0.251245  0.502492  0.751245  1
  Ga  Ga7  1  0.748755  0.497508  0.248755  1
  Ga  Ga8  1  0.748755  0.251245  0.500000  1
  Ga  Ga9  1  0.251245  0.748755  0.500000  1
  Ga  Ga10  1  0.000000  0.304352  0.300957  1
  Ga  Ga11  1  0.000000  0.695648  0.699043  1
  Ga  Ga12  1  0.304352  0.000000  0.300957  1
  Ga  Ga13  1  0.695648  0.000000  0.699043  1
  Ga  Ga14  1  0.304352  0.304352  0.003394  1
  Ga  Ga15  1  0.695648  0.695648  0.996606  1
  Ag  Ag16  1  0.000000  0.000000  0.000000  1
