# generated using pymatgen
data_Ac8(SeS3)3
_symmetry_space_group_name_H-M   'P 1'
_cell_length_a   4.27193000
_cell_length_b   8.01498950
_cell_length_c   16.63237200
_cell_angle_alpha   90.07295126
_cell_angle_beta   90.00000000
_cell_angle_gamma   90.00000000
_symmetry_Int_Tables_number   1
_chemical_formula_structural   Ac8(SeS3)3
_chemical_formula_sum   'Ac8 Se3 S9'
_cell_volume   569.48320839
_cell_formula_units_Z   1
loop_
 _symmetry_equiv_pos_site_id
 _symmetry_equiv_pos_as_xyz
  1  'x, y, z'
loop_
 _atom_site_type_symbol
 _atom_site_label
 _atom_site_symmetry_multiplicity
 _atom_site_fract_x
 _atom_site_fract_y
 _atom_site_fract_z
 _atom_site_occupancy
  Ac  Ac0  1  0.750000  0.246997  0.542616  1
  Ac  Ac1  1  0.250000  0.752948  0.456503  1
  Ac  Ac2  1  0.750000  0.745768  0.958404  1
  Ac  Ac3  1  0.250000  0.263658  0.045546  1
  Ac  Ac4  1  0.250000  0.142594  0.795894  1
  Ac  Ac5  1  0.750000  0.853476  0.204179  1
  Ac  Ac6  1  0.250000  0.642683  0.705995  1
  Ac  Ac7  1  0.750000  0.357488  0.291749  1
  Se  Se8  1  0.250000  0.006683  0.610166  1
  Se  Se9  1  0.750000  0.992529  0.388522  1
  Se  Se10  1  0.250000  0.506893  0.890497  1
  S  S11  1  0.750000  0.489563  0.108960  1
  S  S12  1  0.750000  0.352865  0.718506  1
  S  S13  1  0.250000  0.645344  0.280173  1
  S  S14  1  0.750000  0.852490  0.783038  1
  S  S15  1  0.250000  0.146379  0.218076  1
  S  S16  1  0.250000  0.374277  0.430376  1
  S  S17  1  0.750000  0.625954  0.568409  1
  S  S18  1  0.250000  0.874838  0.068807  1
  S  S19  1  0.750000  0.126570  0.933585  1
