# generated using pymatgen
data_Cs4Zr6CCl18
_symmetry_space_group_name_H-M   'P 1'
_cell_length_a   10.71373768
_cell_length_b   10.71373836
_cell_length_c   10.31218591
_cell_angle_alpha   77.10223997
_cell_angle_beta   77.10224099
_cell_angle_gamma   117.42598241
_symmetry_Int_Tables_number   1
_chemical_formula_structural   Cs4Zr6CCl18
_chemical_formula_sum   'Cs4 Zr6 C1 Cl18'
_cell_volume   948.64108276
_cell_formula_units_Z   1
loop_
 _symmetry_equiv_pos_site_id
 _symmetry_equiv_pos_as_xyz
  1  'x, y, z'
loop_
 _atom_site_type_symbol
 _atom_site_label
 _atom_site_symmetry_multiplicity
 _atom_site_fract_x
 _atom_site_fract_y
 _atom_site_fract_z
 _atom_site_occupancy
  Cs  Cs0  1  0.768055  0.446609  0.686877  1
  Cs  Cs1  1  0.553391  0.231945  0.313123  1
  Cs  Cs2  1  0.231945  0.553391  0.313123  1
  Cs  Cs3  1  0.446609  0.768055  0.686877  1
  Zr  Zr4  1  0.116842  0.116842  0.139602  1
  Zr  Zr5  1  0.883158  0.883158  0.860398  1
  Zr  Zr6  1  0.949448  0.771800  0.145396  1
  Zr  Zr7  1  0.228200  0.050552  0.854604  1
  Zr  Zr8  1  0.050552  0.228200  0.854604  1
  Zr  Zr9  1  0.771800  0.949448  0.145396  1
  C  C10  1  0.000000  0.000000  0.000000  1
  Cl  Cl11  1  0.815564  0.617005  0.007339  1
  Cl  Cl12  1  0.382996  0.184436  0.992661  1
  Cl  Cl13  1  0.184436  0.382996  0.992661  1
  Cl  Cl14  1  0.617004  0.815564  0.007339  1
  Cl  Cl15  1  0.197161  0.802839  0.000000  1
  Cl  Cl16  1  0.802839  0.197161  0.000000  1
  Cl  Cl17  1  0.310926  0.310926  0.679727  1
  Cl  Cl18  1  0.689074  0.689074  0.320273  1
  Cl  Cl19  1  0.890989  0.509175  0.314052  1
  Cl  Cl20  1  0.490825  0.109011  0.685948  1
  Cl  Cl21  1  0.109011  0.490825  0.685948  1
  Cl  Cl22  1  0.509175  0.890989  0.314052  1
  Cl  Cl23  1  0.249824  0.249824  0.294948  1
  Cl  Cl24  1  0.750176  0.750176  0.705052  1
  Cl  Cl25  1  0.074230  0.876164  0.312170  1
  Cl  Cl26  1  0.123836  0.925770  0.687830  1
  Cl  Cl27  1  0.925770  0.123836  0.687830  1
  Cl  Cl28  1  0.876164  0.074230  0.312170  1
