# generated using pymatgen
data_LiAc16Cd3Ru4
_symmetry_space_group_name_H-M   'P 1'
_cell_length_a   10.51529857
_cell_length_b   10.51529844
_cell_length_c   10.49835817
_cell_angle_alpha   59.94660681
_cell_angle_beta   59.94660595
_cell_angle_gamma   60.00000167
_symmetry_Int_Tables_number   1
_chemical_formula_structural   LiAc16Cd3Ru4
_chemical_formula_sum   'Li1 Ac16 Cd3 Ru4'
_cell_volume   820.16010059
_cell_formula_units_Z   1
loop_
 _symmetry_equiv_pos_site_id
 _symmetry_equiv_pos_as_xyz
  1  'x, y, z'
loop_
 _atom_site_type_symbol
 _atom_site_label
 _atom_site_symmetry_multiplicity
 _atom_site_fract_x
 _atom_site_fract_y
 _atom_site_fract_z
 _atom_site_occupancy
  Li  Li0  1  0.681522  0.681522  0.955432  1
  Ac  Ac1  1  0.905885  0.905885  0.905125  1
  Ac  Ac2  1  0.436026  0.436026  0.063577  1
  Ac  Ac3  1  0.061261  0.061261  0.438898  1
  Ac  Ac4  1  0.436026  0.064372  0.063577  1
  Ac  Ac5  1  0.307945  0.688998  0.314057  1
  Ac  Ac6  1  0.688998  0.688998  0.314057  1
  Ac  Ac7  1  0.688998  0.307945  0.314057  1
  Ac  Ac8  1  0.283104  0.905885  0.905125  1
  Ac  Ac9  1  0.905885  0.283104  0.905125  1
  Ac  Ac10  1  0.310397  0.689332  0.689873  1
  Ac  Ac11  1  0.904608  0.904608  0.286176  1
  Ac  Ac12  1  0.064372  0.436026  0.063577  1
  Ac  Ac13  1  0.310397  0.310397  0.689873  1
  Ac  Ac14  1  0.061261  0.438580  0.438898  1
  Ac  Ac15  1  0.438580  0.061261  0.438898  1
  Ac  Ac16  1  0.689332  0.310397  0.689873  1
  Cd  Cd17  1  0.984561  0.670826  0.673788  1
  Cd  Cd18  1  0.670826  0.984561  0.673788  1
  Cd  Cd19  1  0.670826  0.670826  0.673788  1
  Ru  Ru20  1  0.111486  0.111486  0.665541  1
  Ru  Ru21  1  0.112189  0.112189  0.112299  1
  Ru  Ru22  1  0.112189  0.663322  0.112299  1
  Ru  Ru23  1  0.663322  0.112189  0.112299  1
