# generated using pymatgen
data_HoNiP4Ru5
_symmetry_space_group_name_H-M   'P 1'
_cell_length_a   6.81263000
_cell_length_b   6.88643147
_cell_length_c   3.73189800
_cell_angle_alpha   90.00000000
_cell_angle_beta   90.00000000
_cell_angle_gamma   119.64612479
_symmetry_Int_Tables_number   1
_chemical_formula_structural   HoNiP4Ru5
_chemical_formula_sum   'Ho1 Ni1 P4 Ru5'
_cell_volume   152.16229627
_cell_formula_units_Z   1
loop_
 _symmetry_equiv_pos_site_id
 _symmetry_equiv_pos_as_xyz
  1  'x, y, z'
loop_
 _atom_site_type_symbol
 _atom_site_label
 _atom_site_symmetry_multiplicity
 _atom_site_fract_x
 _atom_site_fract_y
 _atom_site_fract_z
 _atom_site_occupancy
  Ho  Ho0  1  0.996405  0.992811  0.000000  1
  Ni  Ni1  1  0.802725  0.605451  0.500000  1
  P  P2  1  0.192076  0.384152  0.500000  1
  P  P3  1  0.618890  0.808707  0.500000  1
  P  P4  1  0.189817  0.808707  0.500000  1
  P  P5  1  0.663632  0.327261  0.000000  1
  Ru  Ru6  1  0.397485  0.199080  0.500000  1
  Ru  Ru7  1  0.801595  0.199080  0.500000  1
  Ru  Ru8  1  0.465534  0.931068  0.000000  1
  Ru  Ru9  1  0.063529  0.538507  0.000000  1
  Ru  Ru10  1  0.474980  0.538507  0.000000  1
