# generated using pymatgen
data_Pr2USn3Ir2Rh
_symmetry_space_group_name_H-M   'P 1'
_cell_length_a   7.70918807
_cell_length_b   7.60420157
_cell_length_c   4.00201000
_cell_angle_alpha   90.00000000
_cell_angle_beta   90.00000000
_cell_angle_gamma   120.46594735
_symmetry_Int_Tables_number   1
_chemical_formula_structural   Pr2USn3Ir2Rh
_chemical_formula_sum   'Pr2 U1 Sn3 Ir2 Rh1'
_cell_volume   202.21471559
_cell_formula_units_Z   1
loop_
 _symmetry_equiv_pos_site_id
 _symmetry_equiv_pos_as_xyz
  1  'x, y, z'
loop_
 _atom_site_type_symbol
 _atom_site_label
 _atom_site_symmetry_multiplicity
 _atom_site_fract_x
 _atom_site_fract_y
 _atom_site_fract_z
 _atom_site_occupancy
  Pr  Pr0  1  0.999599  0.588492  0.000000  1
  Pr  Pr1  1  0.411148  0.411508  0.000000  1
  U  U2  1  0.582115  0.000012  0.000000  1
  Sn  Sn3  1  0.239872  0.999865  0.500000  1
  Sn  Sn4  1  0.007019  0.259227  0.500000  1
  Sn  Sn5  1  0.747830  0.740906  0.500000  1
  Ir  Ir6  1  0.374423  0.715510  0.500000  1
  Ir  Ir7  1  0.658958  0.284499  0.500000  1
  Rh  Rh8  1  0.979038  0.999980  0.000000  1
