# generated using pymatgen
data_Sr4TbDy3(BO4)4
_symmetry_space_group_name_H-M   'P 1'
_cell_length_a   3.68382700
_cell_length_b   9.75554118
_cell_length_c   10.98592920
_cell_angle_alpha   89.97807929
_cell_angle_beta   90.00000000
_cell_angle_gamma   90.00000000
_symmetry_Int_Tables_number   1
_chemical_formula_structural   Sr4TbDy3(BO4)4
_chemical_formula_sum   'Sr4 Tb1 Dy3 B4 O16'
_cell_volume   394.80928451
_cell_formula_units_Z   1
loop_
 _symmetry_equiv_pos_site_id
 _symmetry_equiv_pos_as_xyz
  1  'x, y, z'
loop_
 _atom_site_type_symbol
 _atom_site_label
 _atom_site_symmetry_multiplicity
 _atom_site_fract_x
 _atom_site_fract_y
 _atom_site_fract_z
 _atom_site_occupancy
  Sr  Sr0  1  0.250000  0.659567  0.083462  1
  Sr  Sr1  1  0.750000  0.340542  0.916262  1
  Sr  Sr2  1  0.750000  0.159743  0.416676  1
  Sr  Sr3  1  0.250000  0.840297  0.583575  1
  Tb  Tb4  1  0.250000  0.081955  0.110766  1
  Dy  Dy5  1  0.750000  0.918108  0.889151  1
  Dy  Dy6  1  0.750000  0.581689  0.389495  1
  Dy  Dy7  1  0.250000  0.418316  0.610551  1
  B  B8  1  0.250000  0.363661  0.204715  1
  B  B9  1  0.750000  0.636574  0.795512  1
  B  B10  1  0.750000  0.863236  0.295705  1
  B  B11  1  0.250000  0.136602  0.704501  1
  O  O12  1  0.250000  0.490294  0.262495  1
  O  O13  1  0.750000  0.510046  0.737450  1
  O  O14  1  0.750000  0.989812  0.237875  1
  O  O15  1  0.250000  0.010006  0.762443  1
  O  O16  1  0.250000  0.241625  0.271041  1
  O  O17  1  0.750000  0.758980  0.729616  1
  O  O18  1  0.750000  0.740939  0.229706  1
  O  O19  1  0.250000  0.259040  0.770295  1
  O  O20  1  0.250000  0.356574  0.077221  1
  O  O21  1  0.750000  0.643228  0.922936  1
  O  O22  1  0.750000  0.856372  0.423110  1
  O  O23  1  0.250000  0.143461  0.577045  1
  O  O24  1  0.250000  0.612462  0.500054  1
  O  O25  1  0.750000  0.387545  0.499979  1
  O  O26  1  0.750000  0.112469  0.998813  1
  O  O27  1  0.250000  0.886855  0.999550  1
