# generated using pymatgen
data_Ba3Tb2TeO9
_symmetry_space_group_name_H-M   'P 1'
_cell_length_a   6.12307900
_cell_length_b   6.12307792
_cell_length_c   14.92604800
_cell_angle_alpha   90.00000000
_cell_angle_beta   90.00000000
_cell_angle_gamma   120.00000046
_symmetry_Int_Tables_number   1
_chemical_formula_structural   Ba3Tb2TeO9
_chemical_formula_sum   'Ba6 Tb4 Te2 O18'
_cell_volume   484.63537586
_cell_formula_units_Z   2
loop_
 _symmetry_equiv_pos_site_id
 _symmetry_equiv_pos_as_xyz
  1  'x, y, z'
loop_
 _atom_site_type_symbol
 _atom_site_label
 _atom_site_symmetry_multiplicity
 _atom_site_fract_x
 _atom_site_fract_y
 _atom_site_fract_z
 _atom_site_occupancy
  Ba  Ba0  1  0.333333  0.666667  0.090193  1
  Ba  Ba1  1  0.666667  0.333333  0.909807  1
  Ba  Ba2  1  0.333333  0.666667  0.590193  1
  Ba  Ba3  1  0.666667  0.333333  0.409807  1
  Ba  Ba4  1  0.000000  0.000000  0.250000  1
  Ba  Ba5  1  0.000000  0.000000  0.750000  1
  Tb  Tb6  1  0.333333  0.666667  0.833800  1
  Tb  Tb7  1  0.666667  0.333333  0.166200  1
  Tb  Tb8  1  0.333333  0.666667  0.333800  1
  Tb  Tb9  1  0.666667  0.333333  0.666200  1
  Te  Te10  1  0.000000  0.000000  0.000000  1
  Te  Te11  1  0.000000  0.000000  0.500000  1
  O  O12  1  0.888596  0.698168  0.575185  1
  O  O13  1  0.000000  0.550768  0.250000  1
  O  O14  1  0.190428  0.301832  0.924815  1
  O  O15  1  0.888596  0.190428  0.075185  1
  O  O16  1  0.809572  0.111404  0.575185  1
  O  O17  1  0.809572  0.698168  0.075185  1
  O  O18  1  0.698168  0.809572  0.424815  1
  O  O19  1  0.449232  0.000000  0.750000  1
  O  O20  1  0.550768  0.550768  0.750000  1
  O  O21  1  0.301832  0.190428  0.575185  1
  O  O22  1  0.111404  0.301832  0.424815  1
  O  O23  1  0.190428  0.888596  0.424815  1
  O  O24  1  0.301832  0.111404  0.075185  1
  O  O25  1  0.550768  0.000000  0.250000  1
  O  O26  1  0.449232  0.449232  0.250000  1
  O  O27  1  0.000000  0.449232  0.750000  1
  O  O28  1  0.111404  0.809572  0.924815  1
  O  O29  1  0.698168  0.888596  0.924815  1
