# generated using pymatgen
data_TbDy4Bi2Sb
_symmetry_space_group_name_H-M   'P 1'
_cell_length_a   8.18309000
_cell_length_b   9.48182700
_cell_length_c   11.93245100
_cell_angle_alpha   90.00000000
_cell_angle_beta   90.00000000
_cell_angle_gamma   90.00000000
_symmetry_Int_Tables_number   1
_chemical_formula_structural   TbDy4Bi2Sb
_chemical_formula_sum   'Tb4 Dy16 Bi8 Sb4'
_cell_volume   925.84655407
_cell_formula_units_Z   4
loop_
 _symmetry_equiv_pos_site_id
 _symmetry_equiv_pos_as_xyz
  1  'x, y, z'
loop_
 _atom_site_type_symbol
 _atom_site_label
 _atom_site_symmetry_multiplicity
 _atom_site_fract_x
 _atom_site_fract_y
 _atom_site_fract_z
 _atom_site_occupancy
  Tb  Tb0  1  0.317487  0.250000  0.219065  1
  Tb  Tb1  1  0.817487  0.250000  0.280935  1
  Tb  Tb2  1  0.682513  0.750000  0.780935  1
  Tb  Tb3  1  0.182513  0.750000  0.719065  1
  Dy  Dy4  1  0.353037  0.750000  0.213526  1
  Dy  Dy5  1  0.853037  0.750000  0.286474  1
  Dy  Dy6  1  0.646963  0.250000  0.786474  1
  Dy  Dy7  1  0.146963  0.250000  0.713526  1
  Dy  Dy8  1  0.689458  0.561598  0.057349  1
  Dy  Dy9  1  0.189458  0.938402  0.442651  1
  Dy  Dy10  1  0.310542  0.061598  0.942651  1
  Dy  Dy11  1  0.810542  0.438402  0.557349  1
  Dy  Dy12  1  0.310542  0.438402  0.942651  1
  Dy  Dy13  1  0.810542  0.061598  0.557349  1
  Dy  Dy14  1  0.689458  0.938402  0.057349  1
  Dy  Dy15  1  0.189458  0.561598  0.442651  1
  Dy  Dy16  1  0.473812  0.250000  0.487760  1
  Dy  Dy17  1  0.973812  0.250000  0.012240  1
  Dy  Dy18  1  0.526188  0.750000  0.512240  1
  Dy  Dy19  1  0.026188  0.750000  0.987760  1
  Bi  Bi20  1  0.567219  0.995057  0.325490  1
  Bi  Bi21  1  0.067219  0.504943  0.174510  1
  Bi  Bi22  1  0.432781  0.495057  0.674510  1
  Bi  Bi23  1  0.932781  0.004943  0.825490  1
  Bi  Bi24  1  0.432781  0.004943  0.674510  1
  Bi  Bi25  1  0.932781  0.495057  0.825490  1
  Bi  Bi26  1  0.567219  0.504943  0.325490  1
  Bi  Bi27  1  0.067219  0.995057  0.174510  1
  Sb  Sb28  1  0.407256  0.750000  0.958511  1
  Sb  Sb29  1  0.907256  0.750000  0.541489  1
  Sb  Sb30  1  0.592744  0.250000  0.041489  1
  Sb  Sb31  1  0.092744  0.250000  0.458511  1
