# generated using pymatgen
data_Nd8SnPd23Pt
_symmetry_space_group_name_H-M   'P 1'
_cell_length_a   8.54451600
_cell_length_b   8.54154800
_cell_length_c   8.54154800
_cell_angle_alpha   90.00000000
_cell_angle_beta   90.00000000
_cell_angle_gamma   90.00000000
_symmetry_Int_Tables_number   1
_chemical_formula_structural   Nd8SnPd23Pt
_chemical_formula_sum   'Nd8 Sn1 Pd23 Pt1'
_cell_volume   623.39115922
_cell_formula_units_Z   1
loop_
 _symmetry_equiv_pos_site_id
 _symmetry_equiv_pos_as_xyz
  1  'x, y, z'
loop_
 _atom_site_type_symbol
 _atom_site_label
 _atom_site_symmetry_multiplicity
 _atom_site_fract_x
 _atom_site_fract_y
 _atom_site_fract_z
 _atom_site_occupancy
  Nd  Nd0  1  0.252128  0.252446  0.252446  1
  Nd  Nd1  1  0.747902  0.747918  0.747918  1
  Nd  Nd2  1  0.747902  0.747918  0.252082  1
  Nd  Nd3  1  0.747902  0.252082  0.747918  1
  Nd  Nd4  1  0.252128  0.252446  0.747554  1
  Nd  Nd5  1  0.252128  0.747554  0.252446  1
  Nd  Nd6  1  0.252128  0.747554  0.747554  1
  Nd  Nd7  1  0.747902  0.252082  0.252082  1
  Sn  Sn8  1  0.000093  0.000000  0.000000  1
  Pd  Pd9  1  0.266470  0.500000  0.000000  1
  Pd  Pd10  1  0.733436  0.500000  0.000000  1
  Pd  Pd11  1  0.000085  0.266512  0.500000  1
  Pd  Pd12  1  0.500105  0.266443  0.000000  1
  Pd  Pd13  1  0.000085  0.733488  0.500000  1
  Pd  Pd14  1  0.500105  0.733557  0.000000  1
  Pd  Pd15  1  0.500105  0.000000  0.266443  1
  Pd  Pd16  1  0.266470  0.000000  0.500000  1
  Pd  Pd17  1  0.500105  0.000000  0.733557  1
  Pd  Pd18  1  0.733436  0.000000  0.500000  1
  Pd  Pd19  1  0.000085  0.500000  0.266512  1
  Pd  Pd20  1  0.000085  0.500000  0.733488  1
  Pd  Pd21  1  0.744925  0.500000  0.500000  1
  Pd  Pd22  1  0.499912  0.255185  0.500000  1
  Pd  Pd23  1  0.499912  0.744815  0.500000  1
  Pd  Pd24  1  0.499912  0.500000  0.255185  1
  Pd  Pd25  1  0.499912  0.500000  0.744815  1
  Pd  Pd26  1  0.311786  0.000000  0.000000  1
  Pd  Pd27  1  0.688292  0.000000  0.000000  1
  Pd  Pd28  1  0.999899  0.311664  0.000000  1
  Pd  Pd29  1  0.999899  0.688336  0.000000  1
  Pd  Pd30  1  0.999899  0.000000  0.311664  1
  Pd  Pd31  1  0.999899  0.000000  0.688336  1
  Pt  Pt32  1  0.254965  0.500000  0.500000  1
