# generated using pymatgen
data_TbTm3Sb6Ru2Rh5
_symmetry_space_group_name_H-M   'P 1'
_cell_length_a   7.55896070
_cell_length_b   7.55973645
_cell_length_c   7.55973590
_cell_angle_alpha   109.32652778
_cell_angle_beta   109.63189285
_cell_angle_gamma   109.63190676
_symmetry_Int_Tables_number   1
_chemical_formula_structural   TbTm3Sb6Ru2Rh5
_chemical_formula_sum   'Tb1 Tm3 Sb6 Ru2 Rh5'
_cell_volume   331.81795568
_cell_formula_units_Z   1
loop_
 _symmetry_equiv_pos_site_id
 _symmetry_equiv_pos_as_xyz
  1  'x, y, z'
loop_
 _atom_site_type_symbol
 _atom_site_label
 _atom_site_symmetry_multiplicity
 _atom_site_fract_x
 _atom_site_fract_y
 _atom_site_fract_z
 _atom_site_occupancy
  Tb  Tb0  1  0.500000  0.501029  0.498971  1
  Tm  Tm1  1  0.500000  0.998775  0.001225  1
  Tm  Tm2  1  0.002474  0.501197  0.001229  1
  Tm  Tm3  1  0.997526  0.998771  0.498803  1
  Sb  Sb4  1  0.998768  0.313254  0.313258  1
  Sb  Sb5  1  0.685925  0.000336  0.684982  1
  Sb  Sb6  1  0.685932  0.686958  0.002149  1
  Sb  Sb7  1  0.001232  0.686742  0.686746  1
  Sb  Sb8  1  0.314068  0.997851  0.313042  1
  Sb  Sb9  1  0.314075  0.315018  0.999664  1
  Ru  Ru10  1  0.000000  0.000035  0.999965  1
  Ru  Ru11  1  0.500000  0.751072  0.248928  1
  Rh  Rh12  1  0.751893  0.499871  0.249569  1
  Rh  Rh13  1  0.248107  0.750431  0.500129  1
  Rh  Rh14  1  0.248055  0.499903  0.750130  1
  Rh  Rh15  1  0.500000  0.248888  0.751112  1
  Rh  Rh16  1  0.751945  0.249870  0.500097  1
