# generated using pymatgen
data_Zr4ZnSbRh10
_symmetry_space_group_name_H-M   'P 1'
_cell_length_a   5.62890325
_cell_length_b   5.62890383
_cell_length_c   8.20219700
_cell_angle_alpha   90.00000000
_cell_angle_beta   90.00000000
_cell_angle_gamma   96.57261891
_symmetry_Int_Tables_number   1
_chemical_formula_structural   Zr4ZnSbRh10
_chemical_formula_sum   'Zr4 Zn1 Sb1 Rh10'
_cell_volume   258.17490227
_cell_formula_units_Z   1
loop_
 _symmetry_equiv_pos_site_id
 _symmetry_equiv_pos_as_xyz
  1  'x, y, z'
loop_
 _atom_site_type_symbol
 _atom_site_label
 _atom_site_symmetry_multiplicity
 _atom_site_fract_x
 _atom_site_fract_y
 _atom_site_fract_z
 _atom_site_occupancy
  Zr  Zr0  1  0.778371  0.221628  0.492820  1
  Zr  Zr1  1  0.221628  0.778371  0.007180  1
  Zr  Zr2  1  0.221628  0.778371  0.492820  1
  Zr  Zr3  1  0.778371  0.221628  0.007180  1
  Zn  Zn4  1  0.498222  0.498222  0.250000  1
  Sb  Sb5  1  0.501500  0.501500  0.750000  1
  Rh  Rh6  1  0.726826  0.726826  0.003022  1
  Rh  Rh7  1  0.726826  0.726826  0.496978  1
  Rh  Rh8  1  0.273091  0.273091  0.001406  1
  Rh  Rh9  1  0.273091  0.273091  0.498594  1
  Rh  Rh10  1  0.500070  0.000391  0.750000  1
  Rh  Rh11  1  0.500044  0.999623  0.250000  1
  Rh  Rh12  1  0.000390  0.000390  0.250000  1
  Rh  Rh13  1  0.999932  0.999932  0.750000  1
  Rh  Rh14  1  0.000391  0.500070  0.750000  1
  Rh  Rh15  1  0.999623  0.500044  0.250000  1
