# generated using pymatgen
data_Tm9Lu(IrPt2)2
_symmetry_space_group_name_H-M   'P 1'
_cell_length_a   10.89701000
_cell_length_b   10.89701000
_cell_length_c   6.28986900
_cell_angle_alpha   90.00000000
_cell_angle_beta   90.00000000
_cell_angle_gamma   90.00000000
_symmetry_Int_Tables_number   1
_chemical_formula_structural   Tm9Lu(IrPt2)2
_chemical_formula_sum   'Tm18 Lu2 Ir4 Pt8'
_cell_volume   746.88940588
_cell_formula_units_Z   2
loop_
 _symmetry_equiv_pos_site_id
 _symmetry_equiv_pos_as_xyz
  1  'x, y, z'
loop_
 _atom_site_type_symbol
 _atom_site_label
 _atom_site_symmetry_multiplicity
 _atom_site_fract_x
 _atom_site_fract_y
 _atom_site_fract_z
 _atom_site_occupancy
  Tm  Tm0  1  0.295035  0.086736  0.374770  1
  Tm  Tm1  1  0.295035  0.913264  0.874770  1
  Tm  Tm2  1  0.704965  0.086736  0.874770  1
  Tm  Tm3  1  0.704965  0.913264  0.374770  1
  Tm  Tm4  1  0.586839  0.795439  0.874546  1
  Tm  Tm5  1  0.586839  0.204561  0.374546  1
  Tm  Tm6  1  0.413161  0.795439  0.374546  1
  Tm  Tm7  1  0.413161  0.204561  0.874546  1
  Tm  Tm8  1  0.204561  0.413161  0.625454  1
  Tm  Tm9  1  0.204561  0.586839  0.125454  1
  Tm  Tm10  1  0.795439  0.413161  0.125454  1
  Tm  Tm11  1  0.795439  0.586839  0.625454  1
  Tm  Tm12  1  0.913264  0.704965  0.125230  1
  Tm  Tm13  1  0.913264  0.295035  0.625230  1
  Tm  Tm14  1  0.086736  0.704965  0.625230  1
  Tm  Tm15  1  0.086736  0.295035  0.125230  1
  Tm  Tm16  1  0.500000  0.500000  0.000000  1
  Tm  Tm17  1  0.500000  0.500000  0.500000  1
  Lu  Lu18  1  0.000000  0.000000  0.500000  1
  Lu  Lu19  1  0.000000  0.000000  0.000000  1
  Ir  Ir20  1  0.500000  0.000000  0.120686  1
  Ir  Ir21  1  0.500000  0.000000  0.620686  1
  Ir  Ir22  1  0.000000  0.500000  0.879314  1
  Ir  Ir23  1  0.000000  0.500000  0.379314  1
  Pt  Pt24  1  0.847171  0.152829  0.250000  1
  Pt  Pt25  1  0.847171  0.847171  0.750000  1
  Pt  Pt26  1  0.152829  0.152829  0.750000  1
  Pt  Pt27  1  0.152829  0.847171  0.250000  1
  Pt  Pt28  1  0.653780  0.346220  0.750000  1
  Pt  Pt29  1  0.653780  0.653780  0.250000  1
  Pt  Pt30  1  0.346220  0.346220  0.250000  1
  Pt  Pt31  1  0.346220  0.653780  0.750000  1
