# generated using pymatgen
data_Dy3Pa(Cu5Sn)4
_symmetry_space_group_name_H-M   'P 1'
_cell_length_a   5.02260800
_cell_length_b   8.22255930
_cell_length_c   10.55652038
_cell_angle_alpha   90.03083081
_cell_angle_beta   90.00000000
_cell_angle_gamma   90.00000000
_symmetry_Int_Tables_number   1
_chemical_formula_structural   Dy3Pa(Cu5Sn)4
_chemical_formula_sum   'Dy3 Pa1 Cu20 Sn4'
_cell_volume   435.97042188
_cell_formula_units_Z   1
loop_
 _symmetry_equiv_pos_site_id
 _symmetry_equiv_pos_as_xyz
  1  'x, y, z'
loop_
 _atom_site_type_symbol
 _atom_site_label
 _atom_site_symmetry_multiplicity
 _atom_site_fract_x
 _atom_site_fract_y
 _atom_site_fract_z
 _atom_site_occupancy
  Dy  Dy0  1  0.750000  0.249892  0.938046  1
  Dy  Dy1  1  0.750000  0.749836  0.560840  1
  Dy  Dy2  1  0.250000  0.249212  0.440219  1
  Pa  Pa3  1  0.250000  0.748696  0.059746  1
  Cu  Cu4  1  0.250000  0.815810  0.745122  1
  Cu  Cu5  1  0.750000  0.184503  0.256597  1
  Cu  Cu6  1  0.750000  0.685791  0.242143  1
  Cu  Cu7  1  0.250000  0.315169  0.756017  1
  Cu  Cu8  1  0.501460  0.568049  0.813303  1
  Cu  Cu9  1  0.498184  0.432106  0.187170  1
  Cu  Cu10  1  0.498314  0.932727  0.312380  1
  Cu  Cu11  1  0.001816  0.432106  0.187170  1
  Cu  Cu12  1  0.501584  0.068035  0.687639  1
  Cu  Cu13  1  0.998540  0.568049  0.813303  1
  Cu  Cu14  1  0.998416  0.068035  0.687639  1
  Cu  Cu15  1  0.001686  0.932727  0.312380  1
  Cu  Cu16  1  0.250000  0.915286  0.517711  1
  Cu  Cu17  1  0.750000  0.083428  0.482979  1
  Cu  Cu18  1  0.750000  0.582551  0.017588  1
  Cu  Cu19  1  0.250000  0.416664  0.982306  1
  Cu  Cu20  1  0.250000  0.560691  0.602703  1
  Cu  Cu21  1  0.750000  0.439490  0.397289  1
  Cu  Cu22  1  0.750000  0.938920  0.102256  1
  Cu  Cu23  1  0.250000  0.059296  0.898039  1
  Sn  Sn24  1  0.250000  0.638932  0.360484  1
  Sn  Sn25  1  0.750000  0.362198  0.639246  1
  Sn  Sn26  1  0.750000  0.863233  0.860106  1
  Sn  Sn27  1  0.250000  0.138571  0.139579  1
