# generated using pymatgen
data_Tb3Y(SbRh)4
_symmetry_space_group_name_H-M   'P 1'
_cell_length_a   4.57405800
_cell_length_b   7.21845004
_cell_length_c   7.86096804
_cell_angle_alpha   89.98840588
_cell_angle_beta   90.00000000
_cell_angle_gamma   90.00000000
_symmetry_Int_Tables_number   1
_chemical_formula_structural   Tb3Y(SbRh)4
_chemical_formula_sum   'Tb3 Y1 Sb4 Rh4'
_cell_volume   259.55036489
_cell_formula_units_Z   1
loop_
 _symmetry_equiv_pos_site_id
 _symmetry_equiv_pos_as_xyz
  1  'x, y, z'
loop_
 _atom_site_type_symbol
 _atom_site_label
 _atom_site_symmetry_multiplicity
 _atom_site_fract_x
 _atom_site_fract_y
 _atom_site_fract_z
 _atom_site_occupancy
  Tb  Tb0  1  0.750000  0.490204  0.798550  1
  Tb  Tb1  1  0.250000  0.009694  0.298559  1
  Tb  Tb2  1  0.750000  0.990178  0.701375  1
  Y  Y3  1  0.250000  0.509271  0.201423  1
  Sb  Sb4  1  0.250000  0.193473  0.908106  1
  Sb  Sb5  1  0.750000  0.306968  0.407551  1
  Sb  Sb6  1  0.250000  0.693476  0.591998  1
  Sb  Sb7  1  0.750000  0.806264  0.092185  1
  Rh  Rh8  1  0.750000  0.194856  0.081955  1
  Rh  Rh9  1  0.250000  0.304769  0.582042  1
  Rh  Rh10  1  0.750000  0.695570  0.418195  1
  Rh  Rh11  1  0.250000  0.805278  0.918061  1
