# generated using pymatgen
data_Er2ReB8Rh
_symmetry_space_group_name_H-M   'P 1'
_cell_length_a   3.57445900
_cell_length_b   5.94387059
_cell_length_c   11.51400729
_cell_angle_alpha   90.32216266
_cell_angle_beta   90.00000000
_cell_angle_gamma   90.00000000
_symmetry_Int_Tables_number   1
_chemical_formula_structural   Er2ReB8Rh
_chemical_formula_sum   'Er4 Re2 B16 Rh2'
_cell_volume   244.62413351
_cell_formula_units_Z   2
loop_
 _symmetry_equiv_pos_site_id
 _symmetry_equiv_pos_as_xyz
  1  'x, y, z'
loop_
 _atom_site_type_symbol
 _atom_site_label
 _atom_site_symmetry_multiplicity
 _atom_site_fract_x
 _atom_site_fract_y
 _atom_site_fract_z
 _atom_site_occupancy
  Er  Er0  1  0.000000  0.129524  0.649722  1
  Er  Er1  1  0.000000  0.870476  0.350278  1
  Er  Er2  1  0.000000  0.628543  0.852038  1
  Er  Er3  1  0.000000  0.371457  0.147962  1
  Re  Re4  1  0.000000  0.634973  0.588915  1
  Re  Re5  1  0.000000  0.365027  0.411085  1
  B  B6  1  0.500000  0.790194  0.686060  1
  B  B7  1  0.500000  0.209806  0.313940  1
  B  B8  1  0.500000  0.290801  0.813960  1
  B  B9  1  0.500000  0.709199  0.186040  1
  B  B10  1  0.500000  0.865178  0.530554  1
  B  B11  1  0.500000  0.134822  0.469446  1
  B  B12  1  0.500000  0.364296  0.969144  1
  B  B13  1  0.500000  0.635704  0.030856  1
  B  B14  1  0.500000  0.021984  0.193234  1
  B  B15  1  0.500000  0.978016  0.806766  1
  B  B16  1  0.500000  0.523435  0.307197  1
  B  B17  1  0.500000  0.476565  0.692803  1
  B  B18  1  0.500000  0.113059  0.047907  1
  B  B19  1  0.500000  0.886941  0.952093  1
  B  B20  1  0.500000  0.613175  0.452929  1
  B  B21  1  0.500000  0.386825  0.547071  1
  Rh  Rh22  1  0.000000  0.141115  0.905283  1
  Rh  Rh23  1  0.000000  0.858885  0.094717  1
