# generated using pymatgen
data_YbEr(FeB4)2
_symmetry_space_group_name_H-M   'P 1'
_cell_length_a   3.34696000
_cell_length_b   5.88393219
_cell_length_c   11.37731589
_cell_angle_alpha   89.89051394
_cell_angle_beta   90.00000000
_cell_angle_gamma   90.00000000
_symmetry_Int_Tables_number   1
_chemical_formula_structural   YbEr(FeB4)2
_chemical_formula_sum   'Yb2 Er2 Fe4 B16'
_cell_volume   224.05632311
_cell_formula_units_Z   2
loop_
 _symmetry_equiv_pos_site_id
 _symmetry_equiv_pos_as_xyz
  1  'x, y, z'
loop_
 _atom_site_type_symbol
 _atom_site_label
 _atom_site_symmetry_multiplicity
 _atom_site_fract_x
 _atom_site_fract_y
 _atom_site_fract_z
 _atom_site_occupancy
  Yb  Yb0  1  0.000000  0.626877  0.349676  1
  Yb  Yb1  1  0.000000  0.373123  0.650324  1
  Er  Er2  1  0.000000  0.127701  0.150609  1
  Er  Er3  1  0.000000  0.872299  0.849391  1
  Fe  Fe4  1  0.000000  0.633896  0.087011  1
  Fe  Fe5  1  0.000000  0.366104  0.912989  1
  Fe  Fe6  1  0.000000  0.128286  0.414933  1
  Fe  Fe7  1  0.000000  0.871714  0.585067  1
  B  B8  1  0.500000  0.782042  0.183677  1
  B  B9  1  0.500000  0.217958  0.816323  1
  B  B10  1  0.500000  0.282471  0.317214  1
  B  B11  1  0.500000  0.717529  0.682786  1
  B  B12  1  0.500000  0.861439  0.031650  1
  B  B13  1  0.500000  0.138561  0.968350  1
  B  B14  1  0.500000  0.361445  0.467668  1
  B  B15  1  0.500000  0.638555  0.532332  1
  B  B16  1  0.500000  0.887365  0.453705  1
  B  B17  1  0.500000  0.112635  0.546295  1
  B  B18  1  0.500000  0.388811  0.046501  1
  B  B19  1  0.500000  0.611189  0.953499  1
  B  B20  1  0.500000  0.977321  0.309533  1
  B  B21  1  0.500000  0.022679  0.690467  1
  B  B22  1  0.500000  0.476224  0.190619  1
  B  B23  1  0.500000  0.523776  0.809381  1
