# generated using pymatgen
data_Tb5P4Pt15
_symmetry_space_group_name_H-M   'P 1'
_cell_length_a   4.09851700
_cell_length_b   4.09851700
_cell_length_c   25.98099300
_cell_angle_alpha   90.00000000
_cell_angle_beta   90.00000000
_cell_angle_gamma   90.00000000
_symmetry_Int_Tables_number   1
_chemical_formula_structural   Tb5P4Pt15
_chemical_formula_sum   'Tb5 P4 Pt15'
_cell_volume   436.42460501
_cell_formula_units_Z   1
loop_
 _symmetry_equiv_pos_site_id
 _symmetry_equiv_pos_as_xyz
  1  'x, y, z'
loop_
 _atom_site_type_symbol
 _atom_site_label
 _atom_site_symmetry_multiplicity
 _atom_site_fract_x
 _atom_site_fract_y
 _atom_site_fract_z
 _atom_site_occupancy
  Tb  Tb0  1  0.000000  0.000000  0.902180  1
  Tb  Tb1  1  0.000000  0.000000  0.097820  1
  Tb  Tb2  1  0.000000  0.000000  0.309527  1
  Tb  Tb3  1  0.000000  0.000000  0.500000  1
  Tb  Tb4  1  0.000000  0.000000  0.690473  1
  P  P5  1  0.500000  0.500000  0.156682  1
  P  P6  1  0.500000  0.500000  0.366855  1
  P  P7  1  0.500000  0.500000  0.633145  1
  P  P8  1  0.500000  0.500000  0.843318  1
  Pt  Pt9  1  0.500000  0.500000  0.929105  1
  Pt  Pt10  1  0.500000  0.500000  0.070895  1
  Pt  Pt11  1  0.500000  0.500000  0.279720  1
  Pt  Pt12  1  0.500000  0.500000  0.500000  1
  Pt  Pt13  1  0.500000  0.500000  0.720280  1
  Pt  Pt14  1  0.500000  0.000000  0.000000  1
  Pt  Pt15  1  0.500000  0.000000  0.204067  1
  Pt  Pt16  1  0.500000  0.000000  0.414972  1
  Pt  Pt17  1  0.500000  0.000000  0.585028  1
  Pt  Pt18  1  0.500000  0.000000  0.795933  1
  Pt  Pt19  1  0.000000  0.500000  0.000000  1
  Pt  Pt20  1  0.000000  0.500000  0.204067  1
  Pt  Pt21  1  0.000000  0.500000  0.414972  1
  Pt  Pt22  1  0.000000  0.500000  0.585028  1
  Pt  Pt23  1  0.000000  0.500000  0.795933  1
