# generated using pymatgen
data_Ac2Zn9Ni17
_symmetry_space_group_name_H-M   'P 1'
_cell_length_a   8.23389757
_cell_length_b   8.19814078
_cell_length_c   8.14047331
_cell_angle_alpha   60.52256231
_cell_angle_beta   60.08532252
_cell_angle_gamma   59.39211187
_symmetry_Int_Tables_number   1
_chemical_formula_structural   Ac2Zn9Ni17
_chemical_formula_sum   'Ac2 Zn9 Ni17'
_cell_volume   388.48093275
_cell_formula_units_Z   1
loop_
 _symmetry_equiv_pos_site_id
 _symmetry_equiv_pos_as_xyz
  1  'x, y, z'
loop_
 _atom_site_type_symbol
 _atom_site_label
 _atom_site_symmetry_multiplicity
 _atom_site_fract_x
 _atom_site_fract_y
 _atom_site_fract_z
 _atom_site_occupancy
  Ac  Ac0  1  0.250000  0.250000  0.250000  1
  Ac  Ac1  1  0.750000  0.750000  0.750000  1
  Zn  Zn2  1  0.693329  0.059222  0.940778  1
  Zn  Zn3  1  0.059222  0.693329  0.306671  1
  Zn  Zn4  1  0.200260  0.561714  0.799740  1
  Zn  Zn5  1  0.561714  0.200260  0.438286  1
  Zn  Zn6  1  0.306671  0.940778  0.059222  1
  Zn  Zn7  1  0.940778  0.306671  0.693329  1
  Zn  Zn8  1  0.799740  0.438286  0.200260  1
  Zn  Zn9  1  0.438286  0.799740  0.561714  1
  Zn  Zn10  1  0.000000  0.000000  0.000000  1
  Ni  Ni11  1  0.702398  0.297602  0.063028  1
  Ni  Ni12  1  0.297602  0.702398  0.936972  1
  Ni  Ni13  1  0.206189  0.793811  0.434084  1
  Ni  Ni14  1  0.793811  0.206189  0.565916  1
  Ni  Ni15  1  0.434084  0.565916  0.206189  1
  Ni  Ni16  1  0.565916  0.434084  0.793811  1
  Ni  Ni17  1  0.063028  0.936972  0.702398  1
  Ni  Ni18  1  0.936972  0.063028  0.297602  1
  Ni  Ni19  1  0.435997  0.213006  0.786994  1
  Ni  Ni20  1  0.213006  0.435997  0.564003  1
  Ni  Ni21  1  0.934640  0.709070  0.065360  1
  Ni  Ni22  1  0.709070  0.934640  0.290930  1
  Ni  Ni23  1  0.564003  0.786994  0.213006  1
  Ni  Ni24  1  0.786994  0.564003  0.435997  1
  Ni  Ni25  1  0.065360  0.290930  0.934640  1
  Ni  Ni26  1  0.290930  0.065360  0.709070  1
  Ni  Ni27  1  0.500000  0.500000  0.500000  1
