# generated using pymatgen
data_Li6Nb6RuRh11
_symmetry_space_group_name_H-M   'P 1'
_cell_length_a   4.37853000
_cell_length_b   6.11578100
_cell_length_c   13.08064700
_cell_angle_alpha   90.00000000
_cell_angle_beta   89.99947986
_cell_angle_gamma   90.00000000
_symmetry_Int_Tables_number   1
_chemical_formula_structural   Li6Nb6RuRh11
_chemical_formula_sum   'Li6 Nb6 Ru1 Rh11'
_cell_volume   350.27527345
_cell_formula_units_Z   1
loop_
 _symmetry_equiv_pos_site_id
 _symmetry_equiv_pos_as_xyz
  1  'x, y, z'
loop_
 _atom_site_type_symbol
 _atom_site_label
 _atom_site_symmetry_multiplicity
 _atom_site_fract_x
 _atom_site_fract_y
 _atom_site_fract_z
 _atom_site_occupancy
  Li  Li0  1  0.000000  0.500582  0.000000  1
  Li  Li1  1  0.499886  0.999748  0.166571  1
  Li  Li2  1  0.999883  0.500053  0.333332  1
  Li  Li3  1  0.500001  0.999794  0.500000  1
  Li  Li4  1  0.000117  0.500053  0.666667  1
  Li  Li5  1  0.500116  0.999748  0.833428  1
  Nb  Nb6  1  0.000000  0.004898  0.000000  1
  Nb  Nb7  1  0.499904  0.497861  0.164352  1
  Nb  Nb8  1  0.999894  0.999463  0.333149  1
  Nb  Nb9  1  0.500001  0.500010  0.500000  1
  Nb  Nb10  1  0.000106  0.999463  0.666850  1
  Nb  Nb11  1  0.500098  0.497861  0.835649  1
  Ru  Ru12  1  0.500001  0.250085  0.000000  1
  Rh  Rh13  1  0.500001  0.749954  0.000000  1
  Rh  Rh14  1  0.999904  0.250087  0.166904  1
  Rh  Rh15  1  0.999900  0.750190  0.167418  1
  Rh  Rh16  1  0.499893  0.250000  0.333843  1
  Rh  Rh17  1  0.499897  0.750030  0.333783  1
  Rh  Rh18  1  0.000000  0.249970  0.500000  1
  Rh  Rh19  1  0.000000  0.749838  0.500000  1
  Rh  Rh20  1  0.500106  0.250000  0.666157  1
  Rh  Rh21  1  0.500102  0.750030  0.666217  1
  Rh  Rh22  1  0.000095  0.250087  0.833095  1
  Rh  Rh23  1  0.000099  0.750190  0.832581  1
