# generated using pymatgen
data_Tm8ReOsBr8
_symmetry_space_group_name_H-M   'P 1'
_cell_length_a   8.88303207
_cell_length_b   8.88303160
_cell_length_c   6.50476634
_cell_angle_alpha   89.48648743
_cell_angle_beta   89.48648262
_cell_angle_gamma   89.29971846
_symmetry_Int_Tables_number   1
_chemical_formula_structural   Tm8ReOsBr8
_chemical_formula_sum   'Tm8 Re1 Os1 Br8'
_cell_volume   513.20069204
_cell_formula_units_Z   1
loop_
 _symmetry_equiv_pos_site_id
 _symmetry_equiv_pos_as_xyz
  1  'x, y, z'
loop_
 _atom_site_type_symbol
 _atom_site_label
 _atom_site_symmetry_multiplicity
 _atom_site_fract_x
 _atom_site_fract_y
 _atom_site_fract_z
 _atom_site_occupancy
  Tm  Tm0  1  0.751738  0.098988  0.989608  1
  Tm  Tm1  1  0.098584  0.752597  0.488353  1
  Tm  Tm2  1  0.096686  0.246558  0.992322  1
  Tm  Tm3  1  0.246475  0.096797  0.491019  1
  Tm  Tm4  1  0.903203  0.753525  0.008981  1
  Tm  Tm5  1  0.901012  0.248262  0.510392  1
  Tm  Tm6  1  0.247403  0.901416  0.011647  1
  Tm  Tm7  1  0.753442  0.903314  0.507678  1
  Re  Re8  1  0.994553  0.005447  0.250000  1
  Os  Os9  1  0.005551  0.994449  0.750000  1
  Br  Br10  1  0.580167  0.183382  0.591605  1
  Br  Br11  1  0.809931  0.584371  0.406966  1
  Br  Br12  1  0.415629  0.190069  0.093034  1
  Br  Br13  1  0.190054  0.414915  0.593541  1
  Br  Br14  1  0.585085  0.809946  0.906459  1
  Br  Br15  1  0.420325  0.816454  0.409460  1
  Br  Br16  1  0.183546  0.579675  0.090540  1
  Br  Br17  1  0.816618  0.419833  0.908395  1
