# generated using pymatgen
data_Er16Mg2In2IrPd3
_symmetry_space_group_name_H-M   'P 1'
_cell_length_a   9.61743289
_cell_length_b   9.63421897
_cell_length_c   9.61743216
_cell_angle_alpha   60.18982150
_cell_angle_beta   60.34279586
_cell_angle_gamma   60.18982175
_symmetry_Int_Tables_number   1
_chemical_formula_structural   Er16Mg2In2IrPd3
_chemical_formula_sum   'Er16 Mg2 In2 Ir1 Pd3'
_cell_volume   633.54705898
_cell_formula_units_Z   1
loop_
 _symmetry_equiv_pos_site_id
 _symmetry_equiv_pos_as_xyz
  1  'x, y, z'
loop_
 _atom_site_type_symbol
 _atom_site_label
 _atom_site_symmetry_multiplicity
 _atom_site_fract_x
 _atom_site_fract_y
 _atom_site_fract_z
 _atom_site_occupancy
  Er  Er0  1  0.064854  0.064598  0.434737  1
  Er  Er1  1  0.645331  0.059414  0.645331  1
  Er  Er2  1  0.192872  0.805726  0.192872  1
  Er  Er3  1  0.434478  0.064021  0.434478  1
  Er  Er4  1  0.186093  0.192074  0.810839  1
  Er  Er5  1  0.656446  0.647259  0.656446  1
  Er  Er6  1  0.055558  0.644045  0.646509  1
  Er  Er7  1  0.434737  0.064598  0.064854  1
  Er  Er8  1  0.646509  0.644045  0.055558  1
  Er  Er9  1  0.191735  0.806988  0.811299  1
  Er  Er10  1  0.813275  0.191551  0.813275  1
  Er  Er11  1  0.810839  0.192074  0.186093  1
  Er  Er12  1  0.811299  0.806988  0.191735  1
  Er  Er13  1  0.066194  0.430762  0.434274  1
  Er  Er14  1  0.434274  0.430762  0.066194  1
  Er  Er15  1  0.061138  0.432603  0.061138  1
  Mg  Mg16  1  0.735544  0.424415  0.420533  1
  Mg  Mg17  1  0.420533  0.424415  0.735544  1
  In  In18  1  0.418521  0.749088  0.418521  1
  In  In19  1  0.416482  0.416957  0.416482  1
  Ir  Ir20  1  0.862319  0.428101  0.862319  1
  Pd  Pd21  1  0.853890  0.859445  0.853890  1
  Pd  Pd22  1  0.428277  0.860037  0.858804  1
  Pd  Pd23  1  0.858804  0.860037  0.428277  1
