# generated using pymatgen
data_Dy2Ho6Re(B8Ir)3
_symmetry_space_group_name_H-M   'P 1'
_cell_length_a   3.65605200
_cell_length_b   9.17729934
_cell_length_c   11.50812301
_cell_angle_alpha   90.12872150
_cell_angle_beta   90.00000000
_cell_angle_gamma   90.00000000
_symmetry_Int_Tables_number   1
_chemical_formula_structural   Dy2Ho6Re(B8Ir)3
_chemical_formula_sum   'Dy2 Ho6 Re1 B24 Ir3'
_cell_volume   386.12743593
_cell_formula_units_Z   1
loop_
 _symmetry_equiv_pos_site_id
 _symmetry_equiv_pos_as_xyz
  1  'x, y, z'
loop_
 _atom_site_type_symbol
 _atom_site_label
 _atom_site_symmetry_multiplicity
 _atom_site_fract_x
 _atom_site_fract_y
 _atom_site_fract_z
 _atom_site_occupancy
  Dy  Dy0  1  0.000000  0.321230  0.413434  1
  Dy  Dy1  1  0.000000  0.682611  0.590751  1
  Ho  Ho2  1  0.000000  0.821165  0.082813  1
  Ho  Ho3  1  0.000000  0.175449  0.912041  1
  Ho  Ho4  1  0.000000  0.943860  0.373130  1
  Ho  Ho5  1  0.000000  0.053802  0.626183  1
  Ho  Ho6  1  0.000000  0.443666  0.125930  1
  Ho  Ho7  1  0.000000  0.557187  0.875288  1
  Re  Re8  1  0.000000  0.862647  0.821659  1
  B  B9  1  0.500000  0.553406  0.433954  1
  B  B10  1  0.500000  0.447680  0.566883  1
  B  B11  1  0.500000  0.053105  0.066350  1
  B  B12  1  0.500000  0.946913  0.933254  1
  B  B13  1  0.500000  0.750052  0.420486  1
  B  B14  1  0.500000  0.250848  0.579145  1
  B  B15  1  0.500000  0.248570  0.078861  1
  B  B16  1  0.500000  0.752439  0.920224  1
  B  B17  1  0.500000  0.792031  0.265473  1
  B  B18  1  0.500000  0.207835  0.733063  1
  B  B19  1  0.500000  0.292688  0.234402  1
  B  B20  1  0.500000  0.708230  0.766697  1
  B  B21  1  0.500000  0.631455  0.184739  1
  B  B22  1  0.500000  0.367915  0.815485  1
  B  B23  1  0.500000  0.132304  0.315092  1
  B  B24  1  0.500000  0.868668  0.685910  1
  B  B25  1  0.500000  0.981843  0.212692  1
  B  B26  1  0.500000  0.017196  0.786615  1
  B  B27  1  0.500000  0.481570  0.287269  1
  B  B28  1  0.500000  0.517774  0.714339  1
  B  B29  1  0.500000  0.610128  0.031766  1
  B  B30  1  0.500000  0.387488  0.969630  1
  B  B31  1  0.500000  0.110535  0.468856  1
  B  B32  1  0.500000  0.890415  0.529081  1
  Ir  Ir33  1  0.000000  0.637359  0.322561  1
  Ir  Ir34  1  0.000000  0.362604  0.678007  1
  Ir  Ir35  1  0.000000  0.137330  0.177937  1
