# generated using pymatgen
data_Tb8Ta11TiSi15P
_symmetry_space_group_name_H-M   'P 1'
_cell_length_a   7.04923294
_cell_length_b   7.04936233
_cell_length_c   13.02967103
_cell_angle_alpha   89.87635092
_cell_angle_beta   89.98203910
_cell_angle_gamma   89.97798891
_symmetry_Int_Tables_number   1
_chemical_formula_structural   Tb8Ta11TiSi15P
_chemical_formula_sum   'Tb8 Ta11 Ti1 Si15 P1'
_cell_volume   647.47660585
_cell_formula_units_Z   1
loop_
 _symmetry_equiv_pos_site_id
 _symmetry_equiv_pos_as_xyz
  1  'x, y, z'
loop_
 _atom_site_type_symbol
 _atom_site_label
 _atom_site_symmetry_multiplicity
 _atom_site_fract_x
 _atom_site_fract_y
 _atom_site_fract_z
 _atom_site_occupancy
  Tb  Tb0  1  0.340872  0.002748  0.468869  1
  Tb  Tb1  1  0.494957  0.844903  0.717885  1
  Tb  Tb2  1  0.501565  0.158698  0.218271  1
  Tb  Tb3  1  0.840942  0.496798  0.282141  1
  Tb  Tb4  1  0.158649  0.498404  0.780692  1
  Tb  Tb5  1  0.659785  0.996115  0.968211  1
  Tb  Tb6  1  0.003606  0.340300  0.533191  1
  Tb  Tb7  1  0.997298  0.659913  0.031271  1
  Ta  Ta8  1  0.328803  0.329163  0.999250  1
  Ta  Ta9  1  0.171026  0.828990  0.250016  1
  Ta  Ta10  1  0.828858  0.172992  0.749346  1
  Ta  Ta11  1  0.669987  0.670131  0.499936  1
  Ta  Ta12  1  0.155221  0.008896  0.871680  1
  Ta  Ta13  1  0.492183  0.653357  0.124548  1
  Ta  Ta14  1  0.505346  0.344202  0.625414  1
  Ta  Ta15  1  0.654305  0.494266  0.875850  1
  Ta  Ta16  1  0.347059  0.506308  0.375784  1
  Ta  Ta17  1  0.845694  0.992068  0.374804  1
  Ta  Ta18  1  0.007691  0.153080  0.125830  1
  Ti  Ti19  1  0.996120  0.848283  0.626754  1
  Si  Si20  1  0.365935  0.703767  0.931709  1
  Si  Si21  1  0.633173  0.296344  0.433474  1
  Si  Si22  1  0.702704  0.366717  0.067415  1
  Si  Si23  1  0.296895  0.633701  0.567379  1
  Si  Si24  1  0.796511  0.866362  0.182568  1
  Si  Si25  1  0.133531  0.202937  0.318134  1
  Si  Si26  1  0.867377  0.797340  0.816070  1
  Si  Si27  1  0.293703  0.954917  0.063205  1
  Si  Si28  1  0.544557  0.793989  0.314112  1
  Si  Si29  1  0.459946  0.207701  0.816335  1
  Si  Si30  1  0.793653  0.548052  0.684489  1
  Si  Si31  1  0.205889  0.454808  0.186001  1
  Si  Si32  1  0.709193  0.043270  0.564435  1
  Si  Si33  1  0.954596  0.293712  0.936236  1
  Si  Si34  1  0.044575  0.706811  0.437249  1
  P  P35  1  0.197791  0.129955  0.681445  1
