# generated using pymatgen
data_Ce3In2SbRh3
_symmetry_space_group_name_H-M   'P 1'
_cell_length_a   7.55333000
_cell_length_b   7.50910553
_cell_length_c   4.06744900
_cell_angle_alpha   90.00000000
_cell_angle_beta   90.00000000
_cell_angle_gamma   120.19500446
_symmetry_Int_Tables_number   1
_chemical_formula_structural   Ce3In2SbRh3
_chemical_formula_sum   'Ce3 In2 Sb1 Rh3'
_cell_volume   199.39885969
_cell_formula_units_Z   1
loop_
 _symmetry_equiv_pos_site_id
 _symmetry_equiv_pos_as_xyz
  1  'x, y, z'
loop_
 _atom_site_type_symbol
 _atom_site_label
 _atom_site_symmetry_multiplicity
 _atom_site_fract_x
 _atom_site_fract_y
 _atom_site_fract_z
 _atom_site_occupancy
  Ce  Ce0  1  0.413653  0.000000  0.500000  1
  Ce  Ce1  1  0.999751  0.411263  0.500000  1
  Ce  Ce2  1  0.588488  0.588737  0.500000  1
  In  In3  1  0.004342  0.749362  0.000000  1
  In  In4  1  0.254981  0.250638  0.000000  1
  Sb  Sb5  1  0.745762  0.000000  0.000000  1
  Rh  Rh6  1  0.338408  0.670068  0.000000  1
  Rh  Rh7  1  0.668340  0.329932  0.000000  1
  Rh  Rh8  1  0.986274  0.000000  0.500000  1
