# generated using pymatgen
data_Ca3In(Ir2O7)2
_symmetry_space_group_name_H-M   'P 1'
_cell_length_a   7.26595285
_cell_length_b   7.20057327
_cell_length_c   7.26595300
_cell_angle_alpha   59.69919013
_cell_angle_beta   60.00000388
_cell_angle_gamma   59.69918882
_symmetry_Int_Tables_number   1
_chemical_formula_structural   Ca3In(Ir2O7)2
_chemical_formula_sum   'Ca3 In1 Ir4 O14'
_cell_volume   267.57626292
_cell_formula_units_Z   1
loop_
 _symmetry_equiv_pos_site_id
 _symmetry_equiv_pos_as_xyz
  1  'x, y, z'
loop_
 _atom_site_type_symbol
 _atom_site_label
 _atom_site_symmetry_multiplicity
 _atom_site_fract_x
 _atom_site_fract_y
 _atom_site_fract_z
 _atom_site_occupancy
  Ca  Ca0  1  0.125000  0.125000  0.125000  1
  Ca  Ca1  1  0.625000  0.125000  0.125000  1
  Ca  Ca2  1  0.125000  0.125000  0.625000  1
  In  In3  1  0.125000  0.625000  0.125000  1
  Ir  Ir4  1  0.625000  0.625000  0.625000  1
  Ir  Ir5  1  0.625000  0.625000  0.125000  1
  Ir  Ir6  1  0.125000  0.625000  0.625000  1
  Ir  Ir7  1  0.625000  0.125000  0.625000  1
  O  O8  1  0.241270  0.276190  0.241270  1
  O  O9  1  0.299878  0.692046  0.299878  1
  O  O10  1  0.953400  0.953304  0.546648  1
  O  O11  1  0.546648  0.953304  0.546648  1
  O  O12  1  0.708199  0.692046  0.299878  1
  O  O13  1  0.950122  0.557954  0.541801  1
  O  O14  1  0.703352  0.296696  0.703352  1
  O  O15  1  0.296600  0.296696  0.703352  1
  O  O16  1  0.703352  0.296696  0.296600  1
  O  O17  1  0.299878  0.692046  0.708199  1
  O  O18  1  0.950122  0.557954  0.950122  1
  O  O19  1  0.541801  0.557954  0.950122  1
  O  O20  1  0.008730  0.973810  0.008730  1
  O  O21  1  0.546648  0.953304  0.953400  1
