# generated using pymatgen
data_CeTh(Sb2O7)2
_symmetry_space_group_name_H-M   'P 1'
_cell_length_a   7.42182235
_cell_length_b   7.44921211
_cell_length_c   7.44921310
_cell_angle_alpha   119.90455300
_cell_angle_beta   119.96225442
_cell_angle_gamma   90.22142516
_symmetry_Int_Tables_number   1
_chemical_formula_structural   CeTh(Sb2O7)2
_chemical_formula_sum   'Ce1 Th1 Sb4 O14'
_cell_volume   291.23772263
_cell_formula_units_Z   1
loop_
 _symmetry_equiv_pos_site_id
 _symmetry_equiv_pos_as_xyz
  1  'x, y, z'
loop_
 _atom_site_type_symbol
 _atom_site_label
 _atom_site_symmetry_multiplicity
 _atom_site_fract_x
 _atom_site_fract_y
 _atom_site_fract_z
 _atom_site_occupancy
  Ce  Ce0  1  0.500000  0.500000  0.000000  1
  Th  Th1  1  0.000000  0.500000  0.500000  1
  Sb  Sb2  1  0.000000  0.500000  0.000000  1
  Sb  Sb3  1  0.000000  0.000000  0.500000  1
  Sb  Sb4  1  0.000000  0.000000  0.000000  1
  Sb  Sb5  1  0.500000  0.000000  0.500000  1
  O  O6  1  0.061564  0.327864  0.150067  1
  O  O7  1  0.061564  0.911498  0.733701  1
  O  O8  1  0.316857  0.067077  0.249780  1
  O  O9  1  0.679251  0.914490  0.353073  1
  O  O10  1  0.679251  0.326177  0.764761  1
  O  O11  1  0.646879  0.408248  0.238631  1
  O  O12  1  0.938436  0.672136  0.849933  1
  O  O13  1  0.938436  0.088502  0.266299  1
  O  O14  1  0.683143  0.932923  0.750220  1
  O  O15  1  0.320749  0.085510  0.646927  1
  O  O16  1  0.320749  0.673823  0.235239  1
  O  O17  1  0.353121  0.591752  0.761369  1
  O  O18  1  0.929145  0.676977  0.252169  1
  O  O19  1  0.070855  0.323023  0.747831  1
