# generated using pymatgen
data_Sr9Pu(PN5)2
_symmetry_space_group_name_H-M   'P 1'
_cell_length_a   7.49568684
_cell_length_b   7.49568737
_cell_length_c   8.55043600
_cell_angle_alpha   76.47235481
_cell_angle_beta   76.47234596
_cell_angle_gamma   95.24627112
_symmetry_Int_Tables_number   1
_chemical_formula_structural   Sr9Pu(PN5)2
_chemical_formula_sum   'Sr9 Pu1 P2 N10'
_cell_volume   448.66220022
_cell_formula_units_Z   1
loop_
 _symmetry_equiv_pos_site_id
 _symmetry_equiv_pos_as_xyz
  1  'x, y, z'
loop_
 _atom_site_type_symbol
 _atom_site_label
 _atom_site_symmetry_multiplicity
 _atom_site_fract_x
 _atom_site_fract_y
 _atom_site_fract_z
 _atom_site_occupancy
  Sr  Sr0  1  0.607648  0.607648  0.629426  1
  Sr  Sr1  1  0.680562  0.680562  0.996141  1
  Sr  Sr2  1  0.326441  0.326441  0.999140  1
  Sr  Sr3  1  0.929470  0.929470  0.203442  1
  Sr  Sr4  1  0.072082  0.072082  0.788588  1
  Sr  Sr5  1  0.558186  0.088217  0.754770  1
  Sr  Sr6  1  0.916873  0.436070  0.249870  1
  Sr  Sr7  1  0.436070  0.916873  0.249870  1
  Sr  Sr8  1  0.088217  0.558186  0.754770  1
  Pu  Pu9  1  0.417965  0.417965  0.358080  1
  P  P10  1  0.757275  0.242530  0.003384  1
  P  P11  1  0.242530  0.757275  0.003384  1
  N  N12  1  0.631605  0.631605  0.326336  1
  N  N13  1  0.348004  0.348004  0.629087  1
  N  N14  1  0.717381  0.022837  0.996810  1
  N  N15  1  0.976179  0.276666  0.016630  1
  N  N16  1  0.276666  0.976179  0.016630  1
  N  N17  1  0.022837  0.717381  0.996810  1
  N  N18  1  0.390215  0.723406  0.837633  1
  N  N19  1  0.277796  0.602590  0.175780  1
  N  N20  1  0.602590  0.277796  0.175780  1
  N  N21  1  0.723406  0.390215  0.837633  1
