# generated using pymatgen
data_Rb12Na8Hf(TiP4)3
_symmetry_space_group_name_H-M   'P 1'
_cell_length_a   10.64234577
_cell_length_b   10.64234554
_cell_length_c   15.46441658
_cell_angle_alpha   89.99489585
_cell_angle_beta   89.99490045
_cell_angle_gamma   142.68212736
_symmetry_Int_Tables_number   1
_chemical_formula_structural   Rb12Na8Hf(TiP4)3
_chemical_formula_sum   'Rb12 Na8 Hf1 Ti3 P12'
_cell_volume   1061.81860494
_cell_formula_units_Z   1
loop_
 _symmetry_equiv_pos_site_id
 _symmetry_equiv_pos_as_xyz
  1  'x, y, z'
loop_
 _atom_site_type_symbol
 _atom_site_label
 _atom_site_symmetry_multiplicity
 _atom_site_fract_x
 _atom_site_fract_y
 _atom_site_fract_z
 _atom_site_occupancy
  Rb  Rb0  1  0.946156  0.608405  0.822503  1
  Rb  Rb1  1  0.557497  0.893628  0.325014  1
  Rb  Rb2  1  0.391595  0.053844  0.177497  1
  Rb  Rb3  1  0.057626  0.393416  0.175757  1
  Rb  Rb4  1  0.893475  0.557239  0.325315  1
  Rb  Rb5  1  0.442761  0.106525  0.674685  1
  Rb  Rb6  1  0.606584  0.942374  0.824243  1
  Rb  Rb7  1  0.274144  0.274071  0.316780  1
  Rb  Rb8  1  0.775611  0.777032  0.185661  1
  Rb  Rb9  1  0.222968  0.224389  0.814339  1
  Rb  Rb10  1  0.725929  0.725856  0.683220  1
  Rb  Rb11  1  0.106372  0.442503  0.674986  1
  Na  Na12  1  0.920343  0.079657  0.000000  1
  Na  Na13  1  0.579318  0.420682  0.500000  1
  Na  Na14  1  0.079453  0.920547  0.000000  1
  Na  Na15  1  0.420670  0.579330  0.500000  1
  Na  Na16  1  0.755310  0.244690  0.000000  1
  Na  Na17  1  0.745416  0.254584  0.500000  1
  Na  Na18  1  0.245315  0.754685  0.000000  1
  Na  Na19  1  0.254608  0.745392  0.500000  1
  Hf  Hf20  1  0.584037  0.415963  0.000000  1
  Ti  Ti21  1  0.915939  0.084061  0.500000  1
  Ti  Ti22  1  0.414739  0.585261  0.000000  1
  Ti  Ti23  1  0.084047  0.915953  0.500000  1
  P  P24  1  0.869513  0.558692  0.096085  1
  P  P25  1  0.441308  0.130487  0.903915  1
  P  P26  1  0.642162  0.946834  0.591584  1
  P  P27  1  0.946895  0.642154  0.591460  1
  P  P28  1  0.142489  0.447529  0.908382  1
  P  P29  1  0.552471  0.857511  0.091618  1
  P  P30  1  0.357846  0.053105  0.408540  1
  P  P31  1  0.188422  0.188542  0.581580  1
  P  P32  1  0.691309  0.696948  0.915205  1
  P  P33  1  0.303052  0.308691  0.084795  1
  P  P34  1  0.053166  0.357838  0.408416  1
  P  P35  1  0.811458  0.811578  0.418420  1
