# generated using pymatgen
data_Tb6Al24ZnOs6Rh
_symmetry_space_group_name_H-M   'P 1'
_cell_length_a   8.87529600
_cell_length_b   8.84273353
_cell_length_c   9.56337950
_cell_angle_alpha   89.86789496
_cell_angle_beta   90.00000000
_cell_angle_gamma   120.12188773
_symmetry_Int_Tables_number   1
_chemical_formula_structural   Tb6Al24ZnOs6Rh
_chemical_formula_sum   'Tb6 Al24 Zn1 Os6 Rh1'
_cell_volume   649.19496280
_cell_formula_units_Z   1
loop_
 _symmetry_equiv_pos_site_id
 _symmetry_equiv_pos_as_xyz
  1  'x, y, z'
loop_
 _atom_site_type_symbol
 _atom_site_label
 _atom_site_symmetry_multiplicity
 _atom_site_fract_x
 _atom_site_fract_y
 _atom_site_fract_z
 _atom_site_occupancy
  Tb  Tb0  1  0.195152  0.390305  0.253690  1
  Tb  Tb1  1  0.804848  0.609695  0.746310  1
  Tb  Tb2  1  0.616720  0.805278  0.246732  1
  Tb  Tb3  1  0.383280  0.194722  0.753268  1
  Tb  Tb4  1  0.188559  0.805278  0.246732  1
  Tb  Tb5  1  0.811441  0.194722  0.753268  1
  Al  Al6  1  0.329415  0.658829  0.023066  1
  Al  Al7  1  0.670585  0.341171  0.976934  1
  Al  Al8  1  0.666653  0.333306  0.522620  1
  Al  Al9  1  0.333347  0.666694  0.477380  1
  Al  Al10  1  0.164206  0.328413  0.576614  1
  Al  Al11  1  0.835794  0.671587  0.423386  1
  Al  Al12  1  0.674054  0.835430  0.573969  1
  Al  Al13  1  0.835871  0.671741  0.076702  1
  Al  Al14  1  0.325946  0.164570  0.426031  1
  Al  Al15  1  0.164129  0.328259  0.923298  1
  Al  Al16  1  0.161377  0.835430  0.573969  1
  Al  Al17  1  0.323092  0.171708  0.080492  1
  Al  Al18  1  0.838623  0.164570  0.426031  1
  Al  Al19  1  0.676908  0.828292  0.919508  1
  Al  Al20  1  0.848615  0.171708  0.080492  1
  Al  Al21  1  0.151385  0.828292  0.919508  1
  Al  Al22  1  0.562875  0.125749  0.254967  1
  Al  Al23  1  0.437125  0.874251  0.745033  1
  Al  Al24  1  0.876987  0.439795  0.249841  1
  Al  Al25  1  0.123013  0.560205  0.750159  1
  Al  Al26  1  0.562807  0.439795  0.249841  1
  Al  Al27  1  0.437193  0.560205  0.750159  1
  Al  Al28  1  0.998900  0.997799  0.250391  1
  Al  Al29  1  0.001100  0.002201  0.749609  1
  Zn  Zn30  1  0.500000  0.000000  0.000000  1
  Os  Os31  1  0.000000  0.500000  0.000000  1
  Os  Os32  1  0.500000  0.500000  0.000000  1
  Os  Os33  1  0.000000  0.500000  0.500000  1
  Os  Os34  1  0.500000  0.500000  0.500000  1
  Os  Os35  1  0.000000  0.000000  0.000000  1
  Os  Os36  1  0.000000  0.000000  0.500000  1
  Rh  Rh37  1  0.500000  0.000000  0.500000  1
