# generated using pymatgen
data_La2Nd3Y3(CdIr)2
_symmetry_space_group_name_H-M   'P 1'
_cell_length_a   9.90483685
_cell_length_b   9.90483839
_cell_length_c   9.90483700
_cell_angle_alpha   60.00000131
_cell_angle_beta   59.99999616
_cell_angle_gamma   60.00000259
_symmetry_Int_Tables_number   1
_chemical_formula_structural   La2Nd3Y3(CdIr)2
_chemical_formula_sum   'La4 Nd6 Y6 Cd4 Ir4'
_cell_volume   687.11124429
_cell_formula_units_Z   2
loop_
 _symmetry_equiv_pos_site_id
 _symmetry_equiv_pos_as_xyz
  1  'x, y, z'
loop_
 _atom_site_type_symbol
 _atom_site_label
 _atom_site_symmetry_multiplicity
 _atom_site_fract_x
 _atom_site_fract_y
 _atom_site_fract_z
 _atom_site_occupancy
  La  La0  1  0.349460  0.349460  0.349460  1
  La  La1  1  0.349460  0.349460  0.951621  1
  La  La2  1  0.349460  0.951621  0.349460  1
  La  La3  1  0.951621  0.349460  0.349460  1
  Nd  Nd4  1  0.938849  0.561151  0.561151  1
  Nd  Nd5  1  0.561151  0.938849  0.938849  1
  Nd  Nd6  1  0.561151  0.938849  0.561151  1
  Nd  Nd7  1  0.938849  0.561151  0.938849  1
  Nd  Nd8  1  0.561151  0.561151  0.938849  1
  Nd  Nd9  1  0.938849  0.938849  0.561151  1
  Y  Y10  1  0.814063  0.185937  0.185937  1
  Y  Y11  1  0.185937  0.814063  0.814063  1
  Y  Y12  1  0.185937  0.814063  0.185937  1
  Y  Y13  1  0.814063  0.185937  0.814063  1
  Y  Y14  1  0.185937  0.185937  0.814063  1
  Y  Y15  1  0.814063  0.814063  0.185937  1
  Cd  Cd16  1  0.580039  0.580039  0.580039  1
  Cd  Cd17  1  0.580039  0.580039  0.259881  1
  Cd  Cd18  1  0.580039  0.259881  0.580039  1
  Cd  Cd19  1  0.259881  0.580039  0.580039  1
  Ir  Ir20  1  0.140207  0.140207  0.140207  1
  Ir  Ir21  1  0.140207  0.140207  0.579378  1
  Ir  Ir22  1  0.140207  0.579378  0.140207  1
  Ir  Ir23  1  0.579378  0.140207  0.140207  1
