# generated using pymatgen
data_Sc22Tc5OsRh2
_symmetry_space_group_name_H-M   'P 1'
_cell_length_a   9.50383633
_cell_length_b   9.50383692
_cell_length_c   9.51764000
_cell_angle_alpha   59.95194437
_cell_angle_beta   59.95194232
_cell_angle_gamma   60.09611781
_symmetry_Int_Tables_number   1
_chemical_formula_structural   Sc22Tc5OsRh2
_chemical_formula_sum   'Sc22 Tc5 Os1 Rh2'
_cell_volume   607.86953709
_cell_formula_units_Z   1
loop_
 _symmetry_equiv_pos_site_id
 _symmetry_equiv_pos_as_xyz
  1  'x, y, z'
loop_
 _atom_site_type_symbol
 _atom_site_label
 _atom_site_symmetry_multiplicity
 _atom_site_fract_x
 _atom_site_fract_y
 _atom_site_fract_z
 _atom_site_occupancy
  Sc  Sc0  1  0.843701  0.843701  0.843584  1
  Sc  Sc1  1  0.530986  0.156416  0.156299  1
  Sc  Sc2  1  0.156299  0.156299  0.530986  1
  Sc  Sc3  1  0.156416  0.530986  0.156299  1
  Sc  Sc4  1  0.843701  0.843701  0.469014  1
  Sc  Sc5  1  0.843584  0.469014  0.843701  1
  Sc  Sc6  1  0.469014  0.843584  0.843701  1
  Sc  Sc7  1  0.156299  0.156299  0.156416  1
  Sc  Sc8  1  0.197580  0.802420  0.197580  1
  Sc  Sc9  1  0.197580  0.802420  0.802420  1
  Sc  Sc10  1  0.802420  0.197580  0.197580  1
  Sc  Sc11  1  0.801664  0.801664  0.198336  1
  Sc  Sc12  1  0.198336  0.198336  0.801664  1
  Sc  Sc13  1  0.802420  0.197580  0.802420  1
  Sc  Sc14  1  0.382361  0.382361  0.385868  1
  Sc  Sc15  1  0.150591  0.614132  0.617639  1
  Sc  Sc16  1  0.614132  0.150591  0.617639  1
  Sc  Sc17  1  0.617639  0.617639  0.150591  1
  Sc  Sc18  1  0.385868  0.849409  0.382361  1
  Sc  Sc19  1  0.382361  0.382361  0.849409  1
  Sc  Sc20  1  0.849409  0.385868  0.382361  1
  Sc  Sc21  1  0.617639  0.617639  0.614132  1
  Tc  Tc22  1  0.500000  0.000000  0.500000  1
  Tc  Tc23  1  0.000000  0.500000  0.500000  1
  Tc  Tc24  1  0.500000  0.000000  0.000000  1
  Tc  Tc25  1  0.000000  0.500000  0.000000  1
  Tc  Tc26  1  0.000000  0.000000  0.000000  1
  Os  Os27  1  0.500000  0.500000  0.500000  1
  Rh  Rh28  1  0.500000  0.500000  0.000000  1
  Rh  Rh29  1  0.000000  0.000000  0.500000  1
