# generated using pymatgen
data_DyYOs3Ru
_symmetry_space_group_name_H-M   'P 1'
_cell_length_a   5.28069600
_cell_length_b   5.28069652
_cell_length_c   9.00642900
_cell_angle_alpha   89.99984735
_cell_angle_beta   90.00015229
_cell_angle_gamma   119.95125318
_symmetry_Int_Tables_number   1
_chemical_formula_structural   DyYOs3Ru
_chemical_formula_sum   'Dy2 Y2 Os6 Ru2'
_cell_volume   217.60995338
_cell_formula_units_Z   2
loop_
 _symmetry_equiv_pos_site_id
 _symmetry_equiv_pos_as_xyz
  1  'x, y, z'
loop_
 _atom_site_type_symbol
 _atom_site_label
 _atom_site_symmetry_multiplicity
 _atom_site_fract_x
 _atom_site_fract_y
 _atom_site_fract_z
 _atom_site_occupancy
  Dy  Dy0  1  0.333258  0.666742  0.065858  1
  Dy  Dy1  1  0.666742  0.333258  0.934142  1
  Y  Y2  1  0.666741  0.333259  0.565876  1
  Y  Y3  1  0.333259  0.666741  0.434124  1
  Os  Os4  1  0.170706  0.341261  0.750024  1
  Os  Os5  1  0.170533  0.829467  0.750023  1
  Os  Os6  1  0.658739  0.829294  0.750024  1
  Os  Os7  1  0.829294  0.658739  0.249976  1
  Os  Os8  1  0.829467  0.170533  0.249977  1
  Os  Os9  1  0.341261  0.170706  0.249976  1
  Ru  Ru10  1  0.000000  0.000000  0.500000  1
  Ru  Ru11  1  0.000000  0.000000  0.000000  1
