# generated using pymatgen
data_NaTb5SmRuI12
_symmetry_space_group_name_H-M   'P 1'
_cell_length_a   9.83964241
_cell_length_b   9.84862133
_cell_length_c   9.84057463
_cell_angle_alpha   106.82043915
_cell_angle_beta   106.80026061
_cell_angle_gamma   106.95317483
_symmetry_Int_Tables_number   1
_chemical_formula_structural   NaTb5SmRuI12
_chemical_formula_sum   'Na1 Tb5 Sm1 Ru1 I12'
_cell_volume   797.23955317
_cell_formula_units_Z   1
loop_
 _symmetry_equiv_pos_site_id
 _symmetry_equiv_pos_as_xyz
  1  'x, y, z'
loop_
 _atom_site_type_symbol
 _atom_site_label
 _atom_site_symmetry_multiplicity
 _atom_site_fract_x
 _atom_site_fract_y
 _atom_site_fract_z
 _atom_site_occupancy
  Na  Na0  1  0.500066  0.500092  0.500044  1
  Tb  Tb1  1  0.971185  0.900930  0.698348  1
  Tb  Tb2  1  0.698445  0.970841  0.900330  1
  Tb  Tb3  1  0.100158  0.301650  0.029076  1
  Tb  Tb4  1  0.029291  0.100682  0.301739  1
  Tb  Tb5  1  0.301699  0.029672  0.099622  1
  Sm  Sm6  1  0.899094  0.694728  0.971104  1
  Ru  Ru7  1  0.999973  0.999692  0.000242  1
  I  I8  1  0.628450  0.858058  0.550519  1
  I  I9  1  0.544280  0.628275  0.855468  1
  I  I10  1  0.857391  0.549352  0.623013  1
  I  I11  1  0.371466  0.142084  0.449551  1
  I  I12  1  0.449966  0.372011  0.142155  1
  I  I13  1  0.142312  0.450198  0.371683  1
  I  I14  1  0.683804  0.074997  0.222894  1
  I  I15  1  0.228881  0.684429  0.076850  1
  I  I16  1  0.075125  0.223459  0.683634  1
  I  I17  1  0.316331  0.925311  0.777310  1
  I  I18  1  0.776109  0.313891  0.924557  1
  I  I19  1  0.925973  0.779646  0.321863  1
