# generated using pymatgen
data_Dy4Y4Ho4Co5Pb
_symmetry_space_group_name_H-M   'P 1'
_cell_length_a   8.32405889
_cell_length_b   8.32405732
_cell_length_c   8.32405712
_cell_angle_alpha   107.15561172
_cell_angle_beta   110.63664037
_cell_angle_gamma   110.64594026
_symmetry_Int_Tables_number   1
_chemical_formula_structural   Dy4Y4Ho4Co5Pb
_chemical_formula_sum   'Dy4 Y4 Ho4 Co5 Pb1'
_cell_volume   443.45918724
_cell_formula_units_Z   1
loop_
 _symmetry_equiv_pos_site_id
 _symmetry_equiv_pos_as_xyz
  1  'x, y, z'
loop_
 _atom_site_type_symbol
 _atom_site_label
 _atom_site_symmetry_multiplicity
 _atom_site_fract_x
 _atom_site_fract_y
 _atom_site_fract_z
 _atom_site_occupancy
  Dy  Dy0  1  0.193227  0.206836  0.400063  1
  Dy  Dy1  1  0.806773  0.793164  0.599937  1
  Dy  Dy2  1  0.193227  0.793164  0.986391  1
  Dy  Dy3  1  0.806773  0.206836  0.013609  1
  Y  Y4  1  0.477870  0.291810  0.186061  1
  Y  Y5  1  0.105750  0.291810  0.813939  1
  Y  Y6  1  0.894250  0.708190  0.186061  1
  Y  Y7  1  0.522130  0.708190  0.813939  1
  Ho  Ho8  1  0.308223  0.621492  0.313267  1
  Ho  Ho9  1  0.308223  0.994957  0.686733  1
  Ho  Ho10  1  0.691777  0.378508  0.686733  1
  Ho  Ho11  1  0.691777  0.005043  0.313267  1
  Co  Co12  1  0.500000  0.612127  0.112127  1
  Co  Co13  1  0.500000  0.387873  0.887873  1
  Co  Co14  1  0.379039  0.000000  0.379039  1
  Co  Co15  1  0.620961  0.000000  0.620961  1
  Co  Co16  1  0.000000  0.000000  0.000000  1
  Pb  Pb17  1  0.000000  0.500000  0.500000  1
