# generated using pymatgen
data_Tb2Dy3Tm11(Ga3Co)2
_symmetry_space_group_name_H-M   'P 1'
_cell_length_a   9.89586200
_cell_length_b   9.89586123
_cell_length_c   6.91769500
_cell_angle_alpha   90.00000000
_cell_angle_beta   90.00000000
_cell_angle_gamma   120.00000256
_symmetry_Int_Tables_number   1
_chemical_formula_structural   Tb2Dy3Tm11(Ga3Co)2
_chemical_formula_sum   'Tb2 Dy3 Tm11 Ga6 Co2'
_cell_volume   586.67726361
_cell_formula_units_Z   1
loop_
 _symmetry_equiv_pos_site_id
 _symmetry_equiv_pos_as_xyz
  1  'x, y, z'
loop_
 _atom_site_type_symbol
 _atom_site_label
 _atom_site_symmetry_multiplicity
 _atom_site_fract_x
 _atom_site_fract_y
 _atom_site_fract_z
 _atom_site_occupancy
  Tb  Tb0  1  0.000000  0.000000  0.769097  1
  Tb  Tb1  1  0.000000  0.000000  0.269305  1
  Dy  Dy2  1  0.464292  0.928583  0.291726  1
  Dy  Dy3  1  0.071417  0.535708  0.291726  1
  Dy  Dy4  1  0.464292  0.535708  0.291726  1
  Tm  Tm5  1  0.826021  0.652042  0.489921  1
  Tm  Tm6  1  0.347958  0.173979  0.489921  1
  Tm  Tm7  1  0.826021  0.173979  0.489921  1
  Tm  Tm8  1  0.173744  0.347487  0.986429  1
  Tm  Tm9  1  0.652513  0.826256  0.986429  1
  Tm  Tm10  1  0.173744  0.826256  0.986429  1
  Tm  Tm11  1  0.666667  0.333333  0.172306  1
  Tm  Tm12  1  0.333333  0.666667  0.673908  1
  Tm  Tm13  1  0.537244  0.074489  0.792594  1
  Tm  Tm14  1  0.925511  0.462756  0.792594  1
  Tm  Tm15  1  0.537244  0.462756  0.792594  1
  Ga  Ga16  1  0.835777  0.671556  0.040805  1
  Ga  Ga17  1  0.328444  0.164223  0.040805  1
  Ga  Ga18  1  0.835777  0.164223  0.040805  1
  Ga  Ga19  1  0.163616  0.327230  0.542501  1
  Ga  Ga20  1  0.672770  0.836384  0.542501  1
  Ga  Ga21  1  0.163616  0.836384  0.542501  1
  Co  Co22  1  0.666667  0.333333  0.555802  1
  Co  Co23  1  0.333333  0.666667  0.053729  1
