# generated using pymatgen
data_ZrCr2O8
_symmetry_space_group_name_H-M   'P 1'
_cell_length_a   5.76766400
_cell_length_b   5.76766280
_cell_length_c   6.11262000
_cell_angle_alpha   90.00000000
_cell_angle_beta   90.00000000
_cell_angle_gamma   120.00000004
_symmetry_Int_Tables_number   1
_chemical_formula_structural   ZrCr2O8
_chemical_formula_sum   'Zr1 Cr2 O8'
_cell_volume   176.09938671
_cell_formula_units_Z   1
loop_
 _symmetry_equiv_pos_site_id
 _symmetry_equiv_pos_as_xyz
  1  'x, y, z'
loop_
 _atom_site_type_symbol
 _atom_site_label
 _atom_site_symmetry_multiplicity
 _atom_site_fract_x
 _atom_site_fract_y
 _atom_site_fract_z
 _atom_site_occupancy
  Zr  Zr0  1  0.000000  0.000000  0.000000  1
  Cr  Cr1  1  0.333333  0.666666  0.283535  1
  Cr  Cr2  1  0.666667  0.333334  0.716465  1
  O  O3  1  0.666667  0.333334  0.455424  1
  O  O4  1  0.333333  0.666666  0.544576  1
  O  O5  1  0.171078  0.347530  0.192819  1
  O  O6  1  0.176451  0.828922  0.192819  1
  O  O7  1  0.652471  0.823549  0.192819  1
  O  O8  1  0.347530  0.176451  0.807181  1
  O  O9  1  0.823549  0.171078  0.807181  1
  O  O10  1  0.828922  0.652470  0.807181  1
