# generated using pymatgen
data_Nd5SnBi2P
_symmetry_space_group_name_H-M   'P 1'
_cell_length_a   9.49491331
_cell_length_b   9.49491244
_cell_length_c   6.94138700
_cell_angle_alpha   90.00000000
_cell_angle_beta   90.00000000
_cell_angle_gamma   120.07997197
_symmetry_Int_Tables_number   1
_chemical_formula_structural   Nd5SnBi2P
_chemical_formula_sum   'Nd10 Sn2 Bi4 P2'
_cell_volume   541.51228923
_cell_formula_units_Z   2
loop_
 _symmetry_equiv_pos_site_id
 _symmetry_equiv_pos_as_xyz
  1  'x, y, z'
loop_
 _atom_site_type_symbol
 _atom_site_label
 _atom_site_symmetry_multiplicity
 _atom_site_fract_x
 _atom_site_fract_y
 _atom_site_fract_z
 _atom_site_occupancy
  Nd  Nd0  1  0.762658  0.762658  0.250000  1
  Nd  Nd1  1  0.238910  0.000463  0.250000  1
  Nd  Nd2  1  0.000463  0.238910  0.250000  1
  Nd  Nd3  1  0.236933  0.236933  0.750000  1
  Nd  Nd4  1  0.762772  0.004072  0.750000  1
  Nd  Nd5  1  0.004072  0.762772  0.750000  1
  Nd  Nd6  1  0.667322  0.330770  0.503046  1
  Nd  Nd7  1  0.330770  0.667322  0.503046  1
  Nd  Nd8  1  0.330770  0.667322  0.996954  1
  Nd  Nd9  1  0.667322  0.330770  0.996954  1
  Sn  Sn10  1  0.399929  0.000098  0.750000  1
  Sn  Sn11  1  0.000098  0.399929  0.750000  1
  Bi  Bi12  1  0.398831  0.398831  0.250000  1
  Bi  Bi13  1  0.600190  0.999286  0.250000  1
  Bi  Bi14  1  0.999286  0.600190  0.250000  1
  Bi  Bi15  1  0.601178  0.601178  0.750000  1
  P  P16  1  0.999248  0.999248  0.499499  1
  P  P17  1  0.999248  0.999248  0.000501  1
