# generated using pymatgen
data_Be7VGeMo3
_symmetry_space_group_name_H-M   'P 1'
_cell_length_a   4.48190900
_cell_length_b   4.48190921
_cell_length_c   7.40143300
_cell_angle_alpha   90.00000000
_cell_angle_beta   90.00000000
_cell_angle_gamma   120.00000586
_symmetry_Int_Tables_number   1
_chemical_formula_structural   Be7VGeMo3
_chemical_formula_sum   'Be7 V1 Ge1 Mo3'
_cell_volume   128.75749148
_cell_formula_units_Z   1
loop_
 _symmetry_equiv_pos_site_id
 _symmetry_equiv_pos_as_xyz
  1  'x, y, z'
loop_
 _atom_site_type_symbol
 _atom_site_label
 _atom_site_symmetry_multiplicity
 _atom_site_fract_x
 _atom_site_fract_y
 _atom_site_fract_z
 _atom_site_occupancy
  Be  Be0  1  0.000000  0.000000  0.001134  1
  Be  Be1  1  0.827063  0.172937  0.241025  1
  Be  Be2  1  0.827063  0.654124  0.241025  1
  Be  Be3  1  0.345876  0.172937  0.241025  1
  Be  Be4  1  0.172775  0.827225  0.759130  1
  Be  Be5  1  0.172775  0.345551  0.759130  1
  Be  Be6  1  0.654449  0.827225  0.759130  1
  V  V7  1  0.333333  0.666667  0.436133  1
  Ge  Ge8  1  0.000000  0.000000  0.497501  1
  Mo  Mo9  1  0.666667  0.333333  0.563406  1
  Mo  Mo10  1  0.666667  0.333333  0.937466  1
  Mo  Mo11  1  0.333333  0.666667  0.063892  1
