# generated using pymatgen
data_Cs3RbBr16
_symmetry_space_group_name_H-M   'P 1'
_cell_length_a   8.28267327
_cell_length_b   9.98303606
_cell_length_c   11.05936259
_cell_angle_alpha   68.30418244
_cell_angle_beta   90.12733321
_cell_angle_gamma   89.58223407
_symmetry_Int_Tables_number   1
_chemical_formula_structural   Cs3RbBr16
_chemical_formula_sum   'Cs3 Rb1 Br16'
_cell_volume   849.64193284
_cell_formula_units_Z   1
loop_
 _symmetry_equiv_pos_site_id
 _symmetry_equiv_pos_as_xyz
  1  'x, y, z'
loop_
 _atom_site_type_symbol
 _atom_site_label
 _atom_site_symmetry_multiplicity
 _atom_site_fract_x
 _atom_site_fract_y
 _atom_site_fract_z
 _atom_site_occupancy
  Cs  Cs0  1  0.132065  0.266162  0.803748  1
  Cs  Cs1  1  0.377805  0.270058  0.294360  1
  Cs  Cs2  1  0.871845  0.729746  0.204989  1
  Rb  Rb3  1  0.621143  0.752289  0.709258  1
  Br  Br4  1  0.366665  0.538244  0.515074  1
  Br  Br5  1  0.864762  0.468974  0.975093  1
  Br  Br6  1  0.634706  0.451811  0.484333  1
  Br  Br7  1  0.134688  0.550894  0.004141  1
  Br  Br8  1  0.044100  0.650116  0.560355  1
  Br  Br9  1  0.544523  0.354676  0.935259  1
  Br  Br10  1  0.958145  0.335585  0.439001  1
  Br  Br11  1  0.459404  0.662164  0.045907  1
  Br  Br12  1  0.196008  0.856025  0.606666  1
  Br  Br13  1  0.698296  0.145015  0.892437  1
  Br  Br14  1  0.801466  0.127089  0.401078  1
  Br  Br15  1  0.304291  0.862183  0.102730  1
  Br  Br16  1  0.355998  0.050036  0.649573  1
  Br  Br17  1  0.862115  0.950886  0.851030  1
  Br  Br18  1  0.633266  0.932400  0.366829  1
  Br  Br19  1  0.138708  0.045644  0.158137  1
