# generated using pymatgen
data_TbDy3NiAg
_symmetry_space_group_name_H-M   'P 1'
_cell_length_a   9.44972036
_cell_length_b   9.44972018
_cell_length_c   9.44971900
_cell_angle_alpha   60.00000061
_cell_angle_beta   60.00000128
_cell_angle_gamma   59.99999615
_symmetry_Int_Tables_number   1
_chemical_formula_structural   TbDy3NiAg
_chemical_formula_sum   'Tb4 Dy12 Ni4 Ag4'
_cell_volume   596.68043214
_cell_formula_units_Z   4
loop_
 _symmetry_equiv_pos_site_id
 _symmetry_equiv_pos_as_xyz
  1  'x, y, z'
loop_
 _atom_site_type_symbol
 _atom_site_label
 _atom_site_symmetry_multiplicity
 _atom_site_fract_x
 _atom_site_fract_y
 _atom_site_fract_z
 _atom_site_occupancy
  Tb  Tb0  1  0.600257  0.600257  0.600257  1
  Tb  Tb1  1  0.600257  0.600257  0.199230  1
  Tb  Tb2  1  0.600257  0.199230  0.600257  1
  Tb  Tb3  1  0.199230  0.600257  0.600257  1
  Dy  Dy4  1  0.061316  0.438684  0.438684  1
  Dy  Dy5  1  0.438684  0.061316  0.061316  1
  Dy  Dy6  1  0.438684  0.061316  0.438684  1
  Dy  Dy7  1  0.061316  0.438684  0.061316  1
  Dy  Dy8  1  0.438684  0.438684  0.061316  1
  Dy  Dy9  1  0.061316  0.061316  0.438684  1
  Dy  Dy10  1  0.185348  0.814652  0.814652  1
  Dy  Dy11  1  0.814652  0.185348  0.185348  1
  Dy  Dy12  1  0.814652  0.185348  0.814652  1
  Dy  Dy13  1  0.185348  0.814652  0.185348  1
  Dy  Dy14  1  0.814652  0.814652  0.185348  1
  Dy  Dy15  1  0.185348  0.185348  0.814652  1
  Ni  Ni16  1  0.392754  0.392754  0.392754  1
  Ni  Ni17  1  0.392754  0.392754  0.821737  1
  Ni  Ni18  1  0.392754  0.821737  0.392754  1
  Ni  Ni19  1  0.821737  0.392754  0.392754  1
  Ag  Ag20  1  0.831700  0.831700  0.831700  1
  Ag  Ag21  1  0.831700  0.831700  0.504900  1
  Ag  Ag22  1  0.831700  0.504900  0.831700  1
  Ag  Ag23  1  0.504900  0.831700  0.831700  1
