# generated using pymatgen
data_Y2Ho3Co16(MoP4)3
_symmetry_space_group_name_H-M   'P 1'
_cell_length_a   12.06301800
_cell_length_b   12.06301847
_cell_length_c   3.70249900
_cell_angle_alpha   90.00000000
_cell_angle_beta   90.00000000
_cell_angle_gamma   120.00000419
_symmetry_Int_Tables_number   1
_chemical_formula_structural   Y2Ho3Co16(MoP4)3
_chemical_formula_sum   'Y2 Ho3 Co16 Mo3 P12'
_cell_volume   466.59226172
_cell_formula_units_Z   1
loop_
 _symmetry_equiv_pos_site_id
 _symmetry_equiv_pos_as_xyz
  1  'x, y, z'
loop_
 _atom_site_type_symbol
 _atom_site_label
 _atom_site_symmetry_multiplicity
 _atom_site_fract_x
 _atom_site_fract_y
 _atom_site_fract_z
 _atom_site_occupancy
  Y  Y0  1  0.666667  0.333333  0.000000  1
  Y  Y1  1  0.333333  0.666667  0.000000  1
  Ho  Ho2  1  0.814943  0.814943  0.500000  1
  Ho  Ho3  1  0.185057  0.000000  0.500000  1
  Ho  Ho4  1  0.000000  0.185057  0.500000  1
  Co  Co5  1  0.873323  0.355116  0.500000  1
  Co  Co6  1  0.644884  0.518207  0.500000  1
  Co  Co7  1  0.481793  0.126677  0.500000  1
  Co  Co8  1  0.355116  0.873323  0.500000  1
  Co  Co9  1  0.518207  0.644884  0.500000  1
  Co  Co10  1  0.126677  0.481793  0.500000  1
  Co  Co11  1  0.802535  0.177173  0.000000  1
  Co  Co12  1  0.822827  0.625360  0.000000  1
  Co  Co13  1  0.374640  0.197465  0.000000  1
  Co  Co14  1  0.177173  0.802535  0.000000  1
  Co  Co15  1  0.625360  0.822827  0.000000  1
  Co  Co16  1  0.197465  0.374640  0.000000  1
  Co  Co17  1  0.279984  0.279984  0.500000  1
  Co  Co18  1  0.720016  0.000000  0.500000  1
  Co  Co19  1  0.000000  0.720016  0.500000  1
  Co  Co20  1  0.000000  0.000000  0.000000  1
  Mo  Mo21  1  0.446095  0.446095  0.000000  1
  Mo  Mo22  1  0.553905  0.000000  0.000000  1
  Mo  Mo23  1  0.000000  0.553905  0.000000  1
  P  P24  1  0.686266  0.165466  0.500000  1
  P  P25  1  0.834534  0.520801  0.500000  1
  P  P26  1  0.479199  0.313734  0.500000  1
  P  P27  1  0.165466  0.686266  0.500000  1
  P  P28  1  0.520801  0.834534  0.500000  1
  P  P29  1  0.313734  0.479199  0.500000  1
  P  P30  1  0.178014  0.178014  0.000000  1
  P  P31  1  0.821986  0.000000  0.000000  1
  P  P32  1  0.000000  0.821986  0.000000  1
  P  P33  1  0.639622  0.639622  0.000000  1
  P  P34  1  0.360378  0.000000  0.000000  1
  P  P35  1  0.000000  0.360378  0.000000  1
