# generated using pymatgen
data_Y13Er7(Bi2Ir)4
_symmetry_space_group_name_H-M   'P 1'
_cell_length_a   8.00417266
_cell_length_b   8.99738419
_cell_length_c   12.58016385
_cell_angle_alpha   90.00818488
_cell_angle_beta   89.95878241
_cell_angle_gamma   90.02195761
_symmetry_Int_Tables_number   1
_chemical_formula_structural   Y13Er7(Bi2Ir)4
_chemical_formula_sum   'Y13 Er7 Bi8 Ir4'
_cell_volume   905.98052593
_cell_formula_units_Z   1
loop_
 _symmetry_equiv_pos_site_id
 _symmetry_equiv_pos_as_xyz
  1  'x, y, z'
loop_
 _atom_site_type_symbol
 _atom_site_label
 _atom_site_symmetry_multiplicity
 _atom_site_fract_x
 _atom_site_fract_y
 _atom_site_fract_z
 _atom_site_occupancy
  Y  Y0  1  0.661165  0.750175  0.706973  1
  Y  Y1  1  0.338653  0.249919  0.292739  1
  Y  Y2  1  0.161739  0.249523  0.792774  1
  Y  Y3  1  0.838648  0.750110  0.207287  1
  Y  Y4  1  0.129193  0.750423  0.809348  1
  Y  Y5  1  0.871578  0.249557  0.190864  1
  Y  Y6  1  0.628838  0.249857  0.690429  1
  Y  Y7  1  0.371176  0.750021  0.309438  1
  Y  Y8  1  0.552256  0.750917  0.998433  1
  Y  Y9  1  0.446416  0.249281  0.001853  1
  Y  Y10  1  0.053244  0.249904  0.501802  1
  Y  Y11  1  0.946939  0.750052  0.498214  1
  Y  Y12  1  0.824861  0.458984  0.932005  1
  Er  Er13  1  0.171995  0.540869  0.067230  1
  Er  Er14  1  0.327984  0.540826  0.567071  1
  Er  Er15  1  0.172307  0.959118  0.067376  1
  Er  Er16  1  0.672060  0.459171  0.432868  1
  Er  Er17  1  0.828134  0.041001  0.932856  1
  Er  Er18  1  0.672004  0.040849  0.432837  1
  Er  Er19  1  0.327995  0.959038  0.567110  1
  Bi  Bi20  1  0.936648  0.007258  0.672986  1
  Bi  Bi21  1  0.063431  0.992619  0.327177  1
  Bi  Bi22  1  0.436763  0.992642  0.826926  1
  Bi  Bi23  1  0.063349  0.507287  0.327079  1
  Bi  Bi24  1  0.563528  0.007300  0.173098  1
  Bi  Bi25  1  0.936963  0.492737  0.672788  1
  Bi  Bi26  1  0.563791  0.492683  0.172766  1
  Bi  Bi27  1  0.435904  0.507459  0.826907  1
  Ir  Ir28  1  0.932241  0.751541  0.992571  1
  Ir  Ir29  1  0.070168  0.248912  0.008305  1
  Ir  Ir30  1  0.431575  0.249979  0.507645  1
  Ir  Ir31  1  0.568452  0.749986  0.492246  1
