# generated using pymatgen
data_Nd4InRu
_symmetry_space_group_name_H-M   'P 1'
_cell_length_a   9.94523685
_cell_length_b   9.94523685
_cell_length_c   9.94523600
_cell_angle_alpha   60.00000283
_cell_angle_beta   60.00000282
_cell_angle_gamma   59.99999997
_symmetry_Int_Tables_number   1
_chemical_formula_structural   Nd4InRu
_chemical_formula_sum   'Nd16 In4 Ru4'
_cell_volume   695.55323501
_cell_formula_units_Z   4
loop_
 _symmetry_equiv_pos_site_id
 _symmetry_equiv_pos_as_xyz
  1  'x, y, z'
loop_
 _atom_site_type_symbol
 _atom_site_label
 _atom_site_symmetry_multiplicity
 _atom_site_fract_x
 _atom_site_fract_y
 _atom_site_fract_z
 _atom_site_occupancy
  Nd  Nd0  1  0.440521  0.440521  0.059479  1
  Nd  Nd1  1  0.652732  0.652732  0.041806  1
  Nd  Nd2  1  0.193303  0.806697  0.193303  1
  Nd  Nd3  1  0.059479  0.440521  0.059479  1
  Nd  Nd4  1  0.193303  0.806697  0.806697  1
  Nd  Nd5  1  0.059479  0.440521  0.440521  1
  Nd  Nd6  1  0.806697  0.193303  0.193303  1
  Nd  Nd7  1  0.652732  0.652732  0.652732  1
  Nd  Nd8  1  0.806697  0.193303  0.806697  1
  Nd  Nd9  1  0.193303  0.193303  0.806697  1
  Nd  Nd10  1  0.041806  0.652732  0.652732  1
  Nd  Nd11  1  0.440521  0.059479  0.059479  1
  Nd  Nd12  1  0.059479  0.059479  0.440521  1
  Nd  Nd13  1  0.652732  0.041806  0.652732  1
  Nd  Nd14  1  0.806697  0.806697  0.193303  1
  Nd  Nd15  1  0.440521  0.059479  0.440521  1
  In  In16  1  0.419131  0.419131  0.419131  1
  In  In17  1  0.419131  0.419131  0.742608  1
  In  In18  1  0.419131  0.742608  0.419131  1
  In  In19  1  0.742608  0.419131  0.419131  1
  Ru  Ru20  1  0.412141  0.862619  0.862619  1
  Ru  Ru21  1  0.862619  0.862619  0.862619  1
  Ru  Ru22  1  0.862619  0.412141  0.862619  1
  Ru  Ru23  1  0.862619  0.862619  0.412141  1
