# generated using pymatgen
data_Pr3Co8P6Ru
_symmetry_space_group_name_H-M   'P 1'
_cell_length_a   3.79694100
_cell_length_b   10.69043000
_cell_length_c   12.49162700
_cell_angle_alpha   90.00000000
_cell_angle_beta   90.00000000
_cell_angle_gamma   90.00000000
_symmetry_Int_Tables_number   1
_chemical_formula_structural   Pr3Co8P6Ru
_chemical_formula_sum   'Pr6 Co16 P12 Ru2'
_cell_volume   507.04678181
_cell_formula_units_Z   2
loop_
 _symmetry_equiv_pos_site_id
 _symmetry_equiv_pos_as_xyz
  1  'x, y, z'
loop_
 _atom_site_type_symbol
 _atom_site_label
 _atom_site_symmetry_multiplicity
 _atom_site_fract_x
 _atom_site_fract_y
 _atom_site_fract_z
 _atom_site_occupancy
  Pr  Pr0  1  0.000000  0.500000  0.522580  1
  Pr  Pr1  1  0.500000  0.000000  0.477420  1
  Pr  Pr2  1  0.500000  0.817043  0.206783  1
  Pr  Pr3  1  0.500000  0.182957  0.206783  1
  Pr  Pr4  1  0.000000  0.682957  0.793217  1
  Pr  Pr5  1  0.000000  0.317043  0.793217  1
  Co  Co6  1  0.500000  0.500000  0.706137  1
  Co  Co7  1  0.000000  0.000000  0.293863  1
  Co  Co8  1  0.000000  0.500000  0.987931  1
  Co  Co9  1  0.500000  0.000000  0.012069  1
  Co  Co10  1  0.500000  0.332316  0.992673  1
  Co  Co11  1  0.500000  0.667684  0.992673  1
  Co  Co12  1  0.000000  0.167684  0.007327  1
  Co  Co13  1  0.000000  0.832316  0.007327  1
  Co  Co14  1  0.500000  0.297842  0.429310  1
  Co  Co15  1  0.500000  0.702158  0.429310  1
  Co  Co16  1  0.000000  0.202158  0.570690  1
  Co  Co17  1  0.000000  0.797842  0.570690  1
  Co  Co18  1  0.500000  0.882218  0.710713  1
  Co  Co19  1  0.500000  0.117782  0.710713  1
  Co  Co20  1  0.000000  0.617782  0.289287  1
  Co  Co21  1  0.000000  0.382218  0.289287  1
  P  P22  1  0.500000  0.500000  0.887401  1
  P  P23  1  0.000000  0.000000  0.112599  1
  P  P24  1  0.500000  0.500000  0.343584  1
  P  P25  1  0.000000  0.000000  0.656416  1
  P  P26  1  0.500000  0.305381  0.613506  1
  P  P27  1  0.500000  0.694619  0.613506  1
  P  P28  1  0.000000  0.194619  0.386494  1
  P  P29  1  0.000000  0.805381  0.386494  1
  P  P30  1  0.500000  0.848048  0.896509  1
  P  P31  1  0.500000  0.151952  0.896509  1
  P  P32  1  0.000000  0.651952  0.103491  1
  P  P33  1  0.000000  0.348048  0.103491  1
  Ru  Ru34  1  0.500000  0.500000  0.156643  1
  Ru  Ru35  1  0.000000  0.000000  0.843357  1
