# generated using pymatgen
data_CoCuMo6(PtN)2
_symmetry_space_group_name_H-M   'P 1'
_cell_length_a   6.79180114
_cell_length_b   6.79789809
_cell_length_c   6.79273400
_cell_angle_alpha   90.00000000
_cell_angle_beta   90.00000000
_cell_angle_gamma   89.67034116
_symmetry_Int_Tables_number   1
_chemical_formula_structural   CoCuMo6(PtN)2
_chemical_formula_sum   'Co2 Cu2 Mo12 Pt4 N4'
_cell_volume   313.61514770
_cell_formula_units_Z   2
loop_
 _symmetry_equiv_pos_site_id
 _symmetry_equiv_pos_as_xyz
  1  'x, y, z'
loop_
 _atom_site_type_symbol
 _atom_site_label
 _atom_site_symmetry_multiplicity
 _atom_site_fract_x
 _atom_site_fract_y
 _atom_site_fract_z
 _atom_site_occupancy
  Co  Co0  1  0.185061  0.812461  0.312564  1
  Co  Co1  1  0.314939  0.187539  0.812564  1
  Cu  Cu2  1  0.813389  0.314224  0.186707  1
  Cu  Cu3  1  0.686611  0.685776  0.686707  1
  Mo  Mo4  1  0.806298  0.955783  0.372514  1
  Mo  Mo5  1  0.693702  0.044217  0.872514  1
  Mo  Mo6  1  0.198894  0.460626  0.126555  1
  Mo  Mo7  1  0.301106  0.539374  0.626555  1
  Mo  Mo8  1  0.963505  0.372660  0.803575  1
  Mo  Mo9  1  0.047076  0.874703  0.695115  1
  Mo  Mo10  1  0.452924  0.125297  0.195115  1
  Mo  Mo11  1  0.536495  0.627340  0.303575  1
  Mo  Mo12  1  0.371637  0.807407  0.960279  1
  Mo  Mo13  1  0.877316  0.701828  0.045517  1
  Mo  Mo14  1  0.128363  0.192593  0.460279  1
  Mo  Mo15  1  0.622684  0.298172  0.545517  1
  Pt  Pt16  1  0.563899  0.435335  0.935288  1
  Pt  Pt17  1  0.435195  0.935651  0.561873  1
  Pt  Pt18  1  0.936101  0.564665  0.435288  1
  Pt  Pt19  1  0.064805  0.064349  0.061873  1
  N  N20  1  0.875294  0.124473  0.625633  1
  N  N21  1  0.624706  0.875527  0.125633  1
  N  N22  1  0.125823  0.626779  0.874379  1
  N  N23  1  0.374177  0.373221  0.374379  1
