# generated using pymatgen
data_Y3Al2RuC
_symmetry_space_group_name_H-M   'P 1'
_cell_length_a   9.17002250
_cell_length_b   9.17002301
_cell_length_c   9.17002100
_cell_angle_alpha   59.99999643
_cell_angle_beta   59.99999457
_cell_angle_gamma   59.99999407
_symmetry_Int_Tables_number   1
_chemical_formula_structural   Y3Al2RuC
_chemical_formula_sum   'Y12 Al8 Ru4 C4'
_cell_volume   545.25054699
_cell_formula_units_Z   4
loop_
 _symmetry_equiv_pos_site_id
 _symmetry_equiv_pos_as_xyz
  1  'x, y, z'
loop_
 _atom_site_type_symbol
 _atom_site_label
 _atom_site_symmetry_multiplicity
 _atom_site_fract_x
 _atom_site_fract_y
 _atom_site_fract_z
 _atom_site_occupancy
  Y  Y0  1  0.546022  0.953978  0.546022  1
  Y  Y1  1  0.296022  0.703978  0.703978  1
  Y  Y2  1  0.703978  0.296022  0.296022  1
  Y  Y3  1  0.296022  0.703978  0.296022  1
  Y  Y4  1  0.703978  0.703978  0.296022  1
  Y  Y5  1  0.296022  0.296022  0.703978  1
  Y  Y6  1  0.546022  0.546022  0.953978  1
  Y  Y7  1  0.953978  0.546022  0.546022  1
  Y  Y8  1  0.546022  0.953978  0.953978  1
  Y  Y9  1  0.953978  0.953978  0.546022  1
  Y  Y10  1  0.703978  0.296022  0.703978  1
  Y  Y11  1  0.953978  0.546022  0.953978  1
  Al  Al12  1  0.925624  0.925624  0.925624  1
  Al  Al13  1  0.026871  0.324376  0.324376  1
  Al  Al14  1  0.324376  0.026871  0.324376  1
  Al  Al15  1  0.324376  0.324376  0.026871  1
  Al  Al16  1  0.925624  0.223129  0.925624  1
  Al  Al17  1  0.925624  0.925624  0.223129  1
  Al  Al18  1  0.223129  0.925624  0.925624  1
  Al  Al19  1  0.324376  0.324376  0.324376  1
  Ru  Ru20  1  0.125000  0.125000  0.125000  1
  Ru  Ru21  1  0.625000  0.125000  0.125000  1
  Ru  Ru22  1  0.125000  0.625000  0.125000  1
  Ru  Ru23  1  0.125000  0.125000  0.625000  1
  C  C24  1  0.625000  0.625000  0.625000  1
  C  C25  1  0.125000  0.625000  0.625000  1
  C  C26  1  0.625000  0.125000  0.625000  1
  C  C27  1  0.625000  0.625000  0.125000  1
