# generated using pymatgen
data_ErTm9Si5Pb
_symmetry_space_group_name_H-M   'P 1'
_cell_length_a   8.44258500
_cell_length_b   8.44258504
_cell_length_c   6.29827900
_cell_angle_alpha   90.00000000
_cell_angle_beta   90.00000000
_cell_angle_gamma   120.23068614
_symmetry_Int_Tables_number   1
_chemical_formula_structural   ErTm9Si5Pb
_chemical_formula_sum   'Er1 Tm9 Si5 Pb1'
_cell_volume   387.87266499
_cell_formula_units_Z   1
loop_
 _symmetry_equiv_pos_site_id
 _symmetry_equiv_pos_as_xyz
  1  'x, y, z'
loop_
 _atom_site_type_symbol
 _atom_site_label
 _atom_site_symmetry_multiplicity
 _atom_site_fract_x
 _atom_site_fract_y
 _atom_site_fract_z
 _atom_site_occupancy
  Er  Er0  1  0.239485  0.239485  0.750000  1
  Tm  Tm1  1  0.675195  0.331323  0.503677  1
  Tm  Tm2  1  0.331323  0.675195  0.503677  1
  Tm  Tm3  1  0.331323  0.675195  0.996323  1
  Tm  Tm4  1  0.675195  0.331323  0.996323  1
  Tm  Tm5  1  0.767523  0.767523  0.250000  1
  Tm  Tm6  1  0.239598  0.987432  0.250000  1
  Tm  Tm7  1  0.987432  0.239598  0.250000  1
  Tm  Tm8  1  0.756301  0.998165  0.750000  1
  Tm  Tm9  1  0.998165  0.756301  0.750000  1
  Si  Si10  1  0.603825  0.998340  0.250000  1
  Si  Si11  1  0.998340  0.603825  0.250000  1
  Si  Si12  1  0.606071  0.606071  0.750000  1
  Si  Si13  1  0.393868  0.001375  0.750000  1
  Si  Si14  1  0.001375  0.393868  0.750000  1
  Pb  Pb15  1  0.394980  0.394980  0.250000  1
