# generated using pymatgen
data_Pr8Er11MgSn16
_symmetry_space_group_name_H-M   'P 1'
_cell_length_a   8.08681100
_cell_length_b   8.30557172
_cell_length_c   15.73444200
_cell_angle_alpha   90.00000000
_cell_angle_beta   90.00000000
_cell_angle_gamma   89.86599700
_symmetry_Int_Tables_number   1
_chemical_formula_structural   Pr8Er11MgSn16
_chemical_formula_sum   'Pr8 Er11 Mg1 Sn16'
_cell_volume   1056.81016960
_cell_formula_units_Z   1
loop_
 _symmetry_equiv_pos_site_id
 _symmetry_equiv_pos_as_xyz
  1  'x, y, z'
loop_
 _atom_site_type_symbol
 _atom_site_label
 _atom_site_symmetry_multiplicity
 _atom_site_fract_x
 _atom_site_fract_y
 _atom_site_fract_z
 _atom_site_occupancy
  Pr  Pr0  1  0.505450  0.325451  0.903724  1
  Pr  Pr1  1  0.011835  0.182862  0.597375  1
  Pr  Pr2  1  0.491748  0.676872  0.403097  1
  Pr  Pr3  1  0.989822  0.824252  0.096424  1
  Pr  Pr4  1  0.491748  0.676872  0.096903  1
  Pr  Pr5  1  0.989822  0.824252  0.403576  1
  Pr  Pr6  1  0.505450  0.325451  0.596276  1
  Pr  Pr7  1  0.011835  0.182862  0.902625  1
  Er  Er8  1  0.349987  0.831200  0.876392  1
  Er  Er9  1  0.856823  0.665356  0.625312  1
  Er  Er10  1  0.650022  0.163848  0.376855  1
  Er  Er11  1  0.148679  0.332095  0.125288  1
  Er  Er12  1  0.650022  0.163848  0.123145  1
  Er  Er13  1  0.148679  0.332095  0.374712  1
  Er  Er14  1  0.349987  0.831200  0.623608  1
  Er  Er15  1  0.856823  0.665356  0.874688  1
  Er  Er16  1  0.682490  0.997049  0.750000  1
  Er  Er17  1  0.815307  0.496936  0.250000  1
  Er  Er18  1  0.314582  0.000727  0.250000  1
  Mg  Mg19  1  0.183379  0.499226  0.750000  1
  Sn  Sn20  1  0.311938  0.039754  0.041493  1
  Sn  Sn21  1  0.813918  0.458047  0.459584  1
  Sn  Sn22  1  0.689176  0.961267  0.543816  1
  Sn  Sn23  1  0.187031  0.543993  0.962361  1
  Sn  Sn24  1  0.689176  0.961267  0.956184  1
  Sn  Sn25  1  0.187031  0.543993  0.537639  1
  Sn  Sn26  1  0.311938  0.039754  0.458507  1
  Sn  Sn27  1  0.813918  0.458047  0.040416  1
  Sn  Sn28  1  0.548450  0.621676  0.750000  1
  Sn  Sn29  1  0.051268  0.882353  0.750000  1
  Sn  Sn30  1  0.451500  0.373891  0.250000  1
  Sn  Sn31  1  0.949657  0.124126  0.250000  1
  Sn  Sn32  1  0.318467  0.138164  0.750000  1
  Sn  Sn33  1  0.807196  0.357259  0.750000  1
  Sn  Sn34  1  0.682396  0.856861  0.250000  1
  Sn  Sn35  1  0.182449  0.641743  0.250000  1
