# generated using pymatgen
data_Er6Sc2Ti7Ge16Mo5
_symmetry_space_group_name_H-M   'P 1'
_cell_length_a   6.87713039
_cell_length_b   7.03887761
_cell_length_c   13.31141818
_cell_angle_alpha   89.89064064
_cell_angle_beta   89.88595676
_cell_angle_gamma   90.02396222
_symmetry_Int_Tables_number   1
_chemical_formula_structural   Er6Sc2Ti7Ge16Mo5
_chemical_formula_sum   'Er6 Sc2 Ti7 Ge16 Mo5'
_cell_volume   644.36702791
_cell_formula_units_Z   1
loop_
 _symmetry_equiv_pos_site_id
 _symmetry_equiv_pos_as_xyz
  1  'x, y, z'
loop_
 _atom_site_type_symbol
 _atom_site_label
 _atom_site_symmetry_multiplicity
 _atom_site_fract_x
 _atom_site_fract_y
 _atom_site_fract_z
 _atom_site_occupancy
  Er  Er0  1  0.003245  0.173914  0.404888  1
  Er  Er1  1  0.503737  0.324235  0.095267  1
  Er  Er2  1  0.496566  0.672371  0.594125  1
  Er  Er3  1  0.995312  0.827048  0.905765  1
  Er  Er4  1  0.997243  0.825895  0.595052  1
  Er  Er5  1  0.496417  0.674952  0.907741  1
  Sc  Sc6  1  0.504644  0.324487  0.400687  1
  Sc  Sc7  1  0.008236  0.172898  0.097257  1
  Ti  Ti8  1  0.837235  0.667855  0.370967  1
  Ti  Ti9  1  0.662499  0.169018  0.626611  1
  Ti  Ti10  1  0.161783  0.330511  0.874819  1
  Ti  Ti11  1  0.162169  0.332419  0.627191  1
  Ti  Ti12  1  0.661314  0.166721  0.873071  1
  Ti  Ti13  1  0.838876  0.668321  0.127569  1
  Ti  Ti14  1  0.333156  0.832570  0.371480  1
  Ge  Ge15  1  0.328669  0.045589  0.541628  1
  Ge  Ge16  1  0.828034  0.455000  0.958634  1
  Ge  Ge17  1  0.677479  0.961713  0.044826  1
  Ge  Ge18  1  0.180141  0.539095  0.455245  1
  Ge  Ge19  1  0.171727  0.538644  0.044621  1
  Ge  Ge20  1  0.668382  0.961480  0.454600  1
  Ge  Ge21  1  0.826958  0.457258  0.541985  1
  Ge  Ge22  1  0.323062  0.044277  0.959510  1
  Ge  Ge23  1  0.806109  0.358856  0.248005  1
  Ge  Ge24  1  0.306129  0.140991  0.251406  1
  Ge  Ge25  1  0.694054  0.861825  0.749747  1
  Ge  Ge26  1  0.195516  0.637533  0.751003  1
  Ge  Ge27  1  0.035102  0.878570  0.249202  1
  Ge  Ge28  1  0.534450  0.623908  0.250399  1
  Ge  Ge29  1  0.463484  0.374147  0.750643  1
  Ge  Ge30  1  0.964095  0.125529  0.750221  1
  Mo  Mo31  1  0.335733  0.834117  0.127331  1
  Mo  Mo32  1  0.334676  0.009174  0.750509  1
  Mo  Mo33  1  0.664433  0.988974  0.248693  1
  Mo  Mo34  1  0.163516  0.511623  0.249224  1
  Mo  Mo35  1  0.835818  0.488484  0.750082  1
