# generated using pymatgen
data_NdDy5IrI10
_symmetry_space_group_name_H-M   'P 1'
_cell_length_a   7.78868478
_cell_length_b   9.80586972
_cell_length_c   9.80385288
_cell_angle_alpha   107.00215308
_cell_angle_beta   104.81949911
_cell_angle_gamma   96.66129492
_symmetry_Int_Tables_number   1
_chemical_formula_structural   NdDy5IrI10
_chemical_formula_sum   'Nd1 Dy5 Ir1 I10'
_cell_volume   677.32213974
_cell_formula_units_Z   1
loop_
 _symmetry_equiv_pos_site_id
 _symmetry_equiv_pos_as_xyz
  1  'x, y, z'
loop_
 _atom_site_type_symbol
 _atom_site_label
 _atom_site_symmetry_multiplicity
 _atom_site_fract_x
 _atom_site_fract_y
 _atom_site_fract_z
 _atom_site_occupancy
  Nd  Nd0  1  0.883053  0.239584  0.956437  1
  Dy  Dy1  1  0.653101  0.832826  0.875646  1
  Dy  Dy2  1  0.348005  0.165679  0.125168  1
  Dy  Dy3  1  0.029544  0.911817  0.713281  1
  Dy  Dy4  1  0.971461  0.085188  0.286681  1
  Dy  Dy5  1  0.113834  0.765685  0.042045  1
  Ir  Ir6  1  0.000346  0.999015  0.999782  1
  I  I7  1  0.647622  0.728834  0.550031  1
  I  I8  1  0.352089  0.271181  0.450142  1
  I  I9  1  0.220785  0.655093  0.745152  1
  I  I10  1  0.777337  0.344708  0.261804  1
  I  I11  1  0.449681  0.088699  0.816419  1
  I  I12  1  0.543908  0.907930  0.180974  1
  I  I13  1  0.263249  0.463538  0.089279  1
  I  I14  1  0.744649  0.543791  0.913650  1
  I  I15  1  0.085834  0.820835  0.371617  1
  I  I16  1  0.915501  0.175596  0.621890  1
