# generated using pymatgen
data_Sr2Pt3Rh
_symmetry_space_group_name_H-M   'P 1'
_cell_length_a   5.55489772
_cell_length_b   5.55217081
_cell_length_c   5.55217200
_cell_angle_alpha   59.99999292
_cell_angle_beta   60.01623048
_cell_angle_gamma   60.01622696
_symmetry_Int_Tables_number   1
_chemical_formula_structural   Sr2Pt3Rh
_chemical_formula_sum   'Sr2 Pt3 Rh1'
_cell_volume   121.11369766
_cell_formula_units_Z   1
loop_
 _symmetry_equiv_pos_site_id
 _symmetry_equiv_pos_as_xyz
  1  'x, y, z'
loop_
 _atom_site_type_symbol
 _atom_site_label
 _atom_site_symmetry_multiplicity
 _atom_site_fract_x
 _atom_site_fract_y
 _atom_site_fract_z
 _atom_site_occupancy
  Sr  Sr0  1  0.249778  0.250074  0.250074  1
  Sr  Sr1  1  0.000222  0.999926  0.999926  1
  Pt  Pt2  1  0.625000  0.125000  0.625000  1
  Pt  Pt3  1  0.625000  0.625000  0.125000  1
  Pt  Pt4  1  0.625000  0.625000  0.625000  1
  Rh  Rh5  1  0.125000  0.625000  0.625000  1
