# generated using pymatgen
data_PrDy5Y2(CdPt)2
_symmetry_space_group_name_H-M   'P 1'
_cell_length_a   9.73219999
_cell_length_b   9.74730020
_cell_length_c   9.74730068
_cell_angle_alpha   59.89753568
_cell_angle_beta   60.05123746
_cell_angle_gamma   60.05123560
_symmetry_Int_Tables_number   1
_chemical_formula_structural   PrDy5Y2(CdPt)2
_chemical_formula_sum   'Pr2 Dy10 Y4 Cd4 Pt4'
_cell_volume   653.82674163
_cell_formula_units_Z   2
loop_
 _symmetry_equiv_pos_site_id
 _symmetry_equiv_pos_as_xyz
  1  'x, y, z'
loop_
 _atom_site_type_symbol
 _atom_site_label
 _atom_site_symmetry_multiplicity
 _atom_site_fract_x
 _atom_site_fract_y
 _atom_site_fract_z
 _atom_site_occupancy
  Pr  Pr0  1  0.933524  0.566476  0.566476  1
  Pr  Pr1  1  0.566476  0.933524  0.933524  1
  Dy  Dy2  1  0.351636  0.351460  0.351460  1
  Dy  Dy3  1  0.351460  0.351636  0.945444  1
  Dy  Dy4  1  0.351460  0.945444  0.351636  1
  Dy  Dy5  1  0.945444  0.351460  0.351460  1
  Dy  Dy6  1  0.810520  0.189480  0.189480  1
  Dy  Dy7  1  0.189480  0.810520  0.810520  1
  Dy  Dy8  1  0.189459  0.810541  0.189459  1
  Dy  Dy9  1  0.810541  0.189459  0.810541  1
  Dy  Dy10  1  0.189459  0.189459  0.810541  1
  Dy  Dy11  1  0.810541  0.810541  0.189459  1
  Y  Y12  1  0.561271  0.938729  0.561271  1
  Y  Y13  1  0.938729  0.561271  0.938729  1
  Y  Y14  1  0.561271  0.561271  0.938729  1
  Y  Y15  1  0.938729  0.938729  0.561271  1
  Cd  Cd16  1  0.577946  0.582480  0.582480  1
  Cd  Cd17  1  0.582480  0.577946  0.257096  1
  Cd  Cd18  1  0.582480  0.257096  0.577946  1
  Cd  Cd19  1  0.257096  0.582480  0.582480  1
  Pt  Pt20  1  0.140802  0.144340  0.144340  1
  Pt  Pt21  1  0.144340  0.140802  0.570518  1
  Pt  Pt22  1  0.144340  0.570518  0.140802  1
  Pt  Pt23  1  0.570518  0.144340  0.144340  1
