# generated using pymatgen
data_NdLu5Co16(P6Ru)2
_symmetry_space_group_name_H-M   'P 1'
_cell_length_a   3.68785700
_cell_length_b   10.47956600
_cell_length_c   12.20398200
_cell_angle_alpha   90.00000000
_cell_angle_beta   90.00000000
_cell_angle_gamma   90.00000000
_symmetry_Int_Tables_number   1
_chemical_formula_structural   NdLu5Co16(P6Ru)2
_chemical_formula_sum   'Nd1 Lu5 Co16 P12 Ru2'
_cell_volume   471.64901104
_cell_formula_units_Z   1
loop_
 _symmetry_equiv_pos_site_id
 _symmetry_equiv_pos_as_xyz
  1  'x, y, z'
loop_
 _atom_site_type_symbol
 _atom_site_label
 _atom_site_symmetry_multiplicity
 _atom_site_fract_x
 _atom_site_fract_y
 _atom_site_fract_z
 _atom_site_occupancy
  Nd  Nd0  1  0.000000  0.500000  0.525520  1
  Lu  Lu1  1  0.500000  0.000000  0.474475  1
  Lu  Lu2  1  0.500000  0.818582  0.207033  1
  Lu  Lu3  1  0.500000  0.181418  0.207033  1
  Lu  Lu4  1  0.000000  0.682998  0.794351  1
  Lu  Lu5  1  0.000000  0.317002  0.794351  1
  Co  Co6  1  0.500000  0.500000  0.708389  1
  Co  Co7  1  0.000000  0.000000  0.295152  1
  Co  Co8  1  0.000000  0.500000  0.986922  1
  Co  Co9  1  0.500000  0.000000  0.013894  1
  Co  Co10  1  0.500000  0.331255  0.990158  1
  Co  Co11  1  0.500000  0.668745  0.990158  1
  Co  Co12  1  0.000000  0.167322  0.009922  1
  Co  Co13  1  0.000000  0.832678  0.009922  1
  Co  Co14  1  0.500000  0.292556  0.430158  1
  Co  Co15  1  0.500000  0.707444  0.430158  1
  Co  Co16  1  0.000000  0.198965  0.568933  1
  Co  Co17  1  0.000000  0.801035  0.568933  1
  Co  Co18  1  0.500000  0.879497  0.708551  1
  Co  Co19  1  0.500000  0.120503  0.708551  1
  Co  Co20  1  0.000000  0.623151  0.290178  1
  Co  Co21  1  0.000000  0.376849  0.290178  1
  P  P22  1  0.500000  0.500000  0.882814  1
  P  P23  1  0.000000  0.000000  0.118890  1
  P  P24  1  0.500000  0.500000  0.346745  1
  P  P25  1  0.000000  0.000000  0.647903  1
  P  P26  1  0.500000  0.307968  0.619280  1
  P  P27  1  0.500000  0.692032  0.619280  1
  P  P28  1  0.000000  0.186012  0.382665  1
  P  P29  1  0.000000  0.813988  0.382665  1
  P  P30  1  0.500000  0.846163  0.892314  1
  P  P31  1  0.500000  0.153837  0.892314  1
  P  P32  1  0.000000  0.655444  0.107279  1
  P  P33  1  0.000000  0.344556  0.107279  1
  Ru  Ru34  1  0.500000  0.500000  0.157798  1
  Ru  Ru35  1  0.000000  0.000000  0.839854  1
