# generated using pymatgen
data_Nd8TmLuRu4
_symmetry_space_group_name_H-M   'P 1'
_cell_length_a   6.54741350
_cell_length_b   7.31505941
_cell_length_c   8.76717028
_cell_angle_alpha   96.08516112
_cell_angle_beta   111.92577598
_cell_angle_gamma   89.99999763
_symmetry_Int_Tables_number   1
_chemical_formula_structural   Nd8TmLuRu4
_chemical_formula_sum   'Nd8 Tm1 Lu1 Ru4'
_cell_volume   386.97740616
_cell_formula_units_Z   1
loop_
 _symmetry_equiv_pos_site_id
 _symmetry_equiv_pos_as_xyz
  1  'x, y, z'
loop_
 _atom_site_type_symbol
 _atom_site_label
 _atom_site_symmetry_multiplicity
 _atom_site_fract_x
 _atom_site_fract_y
 _atom_site_fract_z
 _atom_site_occupancy
  Nd  Nd0  1  0.523643  0.083257  0.817653  1
  Nd  Nd1  1  0.476524  0.916268  0.182359  1
  Nd  Nd2  1  0.705990  0.416743  0.182347  1
  Nd  Nd3  1  0.294165  0.583732  0.817641  1
  Nd  Nd4  1  0.293381  0.311402  0.428978  1
  Nd  Nd5  1  0.706578  0.688816  0.571375  1
  Nd  Nd6  1  0.864404  0.188598  0.571022  1
  Nd  Nd7  1  0.135201  0.811184  0.428625  1
  Tm  Tm8  1  0.070913  0.250000  0.000000  1
  Lu  Lu9  1  0.929678  0.750000  0.000000  1
  Ru  Ru10  1  0.312245  0.572305  0.212869  1
  Ru  Ru11  1  0.687625  0.428441  0.787349  1
  Ru  Ru12  1  0.099378  0.927695  0.787131  1
  Ru  Ru13  1  0.900274  0.071559  0.212651  1
