# generated using pymatgen
data_ThTa6Cl18
_symmetry_space_group_name_H-M   'P 1'
_cell_length_a   10.28727267
_cell_length_b   10.28727239
_cell_length_c   10.28727351
_cell_angle_alpha   55.86653696
_cell_angle_beta   55.86653887
_cell_angle_gamma   55.86653450
_symmetry_Int_Tables_number   1
_chemical_formula_structural   ThTa6Cl18
_chemical_formula_sum   'Th1 Ta6 Cl18'
_cell_volume   696.05224066
_cell_formula_units_Z   1
loop_
 _symmetry_equiv_pos_site_id
 _symmetry_equiv_pos_as_xyz
  1  'x, y, z'
loop_
 _atom_site_type_symbol
 _atom_site_label
 _atom_site_symmetry_multiplicity
 _atom_site_fract_x
 _atom_site_fract_y
 _atom_site_fract_z
 _atom_site_occupancy
  Th  Th0  1  0.000000  0.000000  0.000000  1
  Ta  Ta1  1  0.412938  0.307564  0.644007  1
  Ta  Ta2  1  0.355993  0.587062  0.692436  1
  Ta  Ta3  1  0.692436  0.355993  0.587062  1
  Ta  Ta4  1  0.307564  0.644007  0.412938  1
  Ta  Ta5  1  0.644007  0.412938  0.307564  1
  Ta  Ta6  1  0.587062  0.692436  0.355993  1
  Cl  Cl7  1  0.568089  0.165322  0.441970  1
  Cl  Cl8  1  0.226314  0.371403  0.904346  1
  Cl  Cl9  1  0.904346  0.226314  0.371403  1
  Cl  Cl10  1  0.371403  0.904346  0.226314  1
  Cl  Cl11  1  0.773686  0.628597  0.095654  1
  Cl  Cl12  1  0.095654  0.773686  0.628597  1
  Cl  Cl13  1  0.702117  0.956309  0.161145  1
  Cl  Cl14  1  0.956309  0.161145  0.702117  1
  Cl  Cl15  1  0.161145  0.702117  0.956309  1
  Cl  Cl16  1  0.297883  0.043691  0.838855  1
  Cl  Cl17  1  0.043691  0.838855  0.297883  1
  Cl  Cl18  1  0.838855  0.297883  0.043691  1
  Cl  Cl19  1  0.558030  0.431911  0.834678  1
  Cl  Cl20  1  0.165322  0.441970  0.568089  1
  Cl  Cl21  1  0.441970  0.568089  0.165322  1
  Cl  Cl22  1  0.431911  0.834678  0.558030  1
  Cl  Cl23  1  0.834678  0.558030  0.431911  1
  Cl  Cl24  1  0.628597  0.095654  0.773686  1
