# generated using pymatgen
data_La2Pr(Al3Os)4
_symmetry_space_group_name_H-M   'P 1'
_cell_length_a   8.93489900
_cell_length_b   8.95012228
_cell_length_c   9.75301800
_cell_angle_alpha   90.00000000
_cell_angle_beta   90.00000000
_cell_angle_gamma   119.94376163
_symmetry_Int_Tables_number   1
_chemical_formula_structural   La2Pr(Al3Os)4
_chemical_formula_sum   'La4 Pr2 Al24 Os8'
_cell_volume   675.82477368
_cell_formula_units_Z   2
loop_
 _symmetry_equiv_pos_site_id
 _symmetry_equiv_pos_as_xyz
  1  'x, y, z'
loop_
 _atom_site_type_symbol
 _atom_site_label
 _atom_site_symmetry_multiplicity
 _atom_site_fract_x
 _atom_site_fract_y
 _atom_site_fract_z
 _atom_site_occupancy
  La  La0  1  0.613452  0.806948  0.250000  1
  La  La1  1  0.386548  0.193052  0.750000  1
  La  La2  1  0.193494  0.806948  0.250000  1
  La  La3  1  0.806506  0.193052  0.750000  1
  Pr  Pr4  1  0.191381  0.382763  0.250000  1
  Pr  Pr5  1  0.808619  0.617237  0.750000  1
  Al  Al6  1  0.332603  0.665208  0.005762  1
  Al  Al7  1  0.667397  0.334792  0.994238  1
  Al  Al8  1  0.667397  0.334792  0.505762  1
  Al  Al9  1  0.332603  0.665208  0.494238  1
  Al  Al10  1  0.163196  0.326393  0.573542  1
  Al  Al11  1  0.836804  0.673607  0.426458  1
  Al  Al12  1  0.673819  0.836501  0.573829  1
  Al  Al13  1  0.836804  0.673607  0.073542  1
  Al  Al14  1  0.326181  0.163499  0.426171  1
  Al  Al15  1  0.163196  0.326393  0.926458  1
  Al  Al16  1  0.162682  0.836501  0.573829  1
  Al  Al17  1  0.326181  0.163499  0.073829  1
  Al  Al18  1  0.837318  0.163499  0.426171  1
  Al  Al19  1  0.673819  0.836501  0.926171  1
  Al  Al20  1  0.837318  0.163499  0.073829  1
  Al  Al21  1  0.162682  0.836501  0.926171  1
  Al  Al22  1  0.563865  0.127731  0.250000  1
  Al  Al23  1  0.436135  0.872269  0.750000  1
  Al  Al24  1  0.874719  0.436988  0.250000  1
  Al  Al25  1  0.125281  0.563012  0.750000  1
  Al  Al26  1  0.562269  0.436988  0.250000  1
  Al  Al27  1  0.437731  0.563012  0.750000  1
  Al  Al28  1  0.000619  0.001237  0.250000  1
  Al  Al29  1  0.999381  0.998763  0.750000  1
  Os  Os30  1  0.500000  0.000000  0.000000  1
  Os  Os31  1  0.000000  0.500000  0.000000  1
  Os  Os32  1  0.500000  0.000000  0.500000  1
  Os  Os33  1  0.500000  0.500000  0.000000  1
  Os  Os34  1  0.000000  0.500000  0.500000  1
  Os  Os35  1  0.500000  0.500000  0.500000  1
  Os  Os36  1  0.000000  0.000000  0.000000  1
  Os  Os37  1  0.000000  0.000000  0.500000  1
