# generated using pymatgen
data_Tm3Ni8MoAs6
_symmetry_space_group_name_H-M   'P 1'
_cell_length_a   3.88356200
_cell_length_b   10.95634700
_cell_length_c   12.75678500
_cell_angle_alpha   90.00000000
_cell_angle_beta   90.00000000
_cell_angle_gamma   90.00000000
_symmetry_Int_Tables_number   1
_chemical_formula_structural   Tm3Ni8MoAs6
_chemical_formula_sum   'Tm6 Ni16 Mo2 As12'
_cell_volume   542.79677346
_cell_formula_units_Z   2
loop_
 _symmetry_equiv_pos_site_id
 _symmetry_equiv_pos_as_xyz
  1  'x, y, z'
loop_
 _atom_site_type_symbol
 _atom_site_label
 _atom_site_symmetry_multiplicity
 _atom_site_fract_x
 _atom_site_fract_y
 _atom_site_fract_z
 _atom_site_occupancy
  Tm  Tm0  1  0.000000  0.500000  0.525992  1
  Tm  Tm1  1  0.500000  0.000000  0.474008  1
  Tm  Tm2  1  0.500000  0.819447  0.208272  1
  Tm  Tm3  1  0.500000  0.180553  0.208272  1
  Tm  Tm4  1  0.000000  0.680553  0.791728  1
  Tm  Tm5  1  0.000000  0.319447  0.791728  1
  Ni  Ni6  1  0.500000  0.500000  0.698195  1
  Ni  Ni7  1  0.000000  0.000000  0.301805  1
  Ni  Ni8  1  0.000000  0.500000  0.983040  1
  Ni  Ni9  1  0.500000  0.000000  0.016960  1
  Ni  Ni10  1  0.500000  0.334074  0.990791  1
  Ni  Ni11  1  0.500000  0.665926  0.990791  1
  Ni  Ni12  1  0.000000  0.165926  0.009209  1
  Ni  Ni13  1  0.000000  0.834074  0.009209  1
  Ni  Ni14  1  0.500000  0.303310  0.427527  1
  Ni  Ni15  1  0.500000  0.696690  0.427527  1
  Ni  Ni16  1  0.000000  0.196690  0.572473  1
  Ni  Ni17  1  0.000000  0.803310  0.572473  1
  Ni  Ni18  1  0.500000  0.879733  0.708388  1
  Ni  Ni19  1  0.500000  0.120267  0.708388  1
  Ni  Ni20  1  0.000000  0.620267  0.291612  1
  Ni  Ni21  1  0.000000  0.379733  0.291612  1
  Mo  Mo22  1  0.500000  0.500000  0.151892  1
  Mo  Mo23  1  0.000000  0.000000  0.848108  1
  As  As24  1  0.500000  0.500000  0.876011  1
  As  As25  1  0.000000  0.000000  0.123989  1
  As  As26  1  0.500000  0.500000  0.350288  1
  As  As27  1  0.000000  0.000000  0.649712  1
  As  As28  1  0.500000  0.314190  0.614217  1
  As  As29  1  0.500000  0.685810  0.614217  1
  As  As30  1  0.000000  0.185810  0.385783  1
  As  As31  1  0.000000  0.814190  0.385783  1
  As  As32  1  0.500000  0.842831  0.890442  1
  As  As33  1  0.500000  0.157169  0.890442  1
  As  As34  1  0.000000  0.657169  0.109558  1
  As  As35  1  0.000000  0.342831  0.109558  1
