# generated using pymatgen
data_Ca3Tm(NbN3)2
_symmetry_space_group_name_H-M   'P 1'
_cell_length_a   5.67081580
_cell_length_b   5.67081587
_cell_length_c   5.89648062
_cell_angle_alpha   99.33034674
_cell_angle_beta   99.33035495
_cell_angle_gamma   119.89883958
_symmetry_Int_Tables_number   1
_chemical_formula_structural   Ca3Tm(NbN3)2
_chemical_formula_sum   'Ca3 Tm1 Nb2 N6'
_cell_volume   155.52912608
_cell_formula_units_Z   1
loop_
 _symmetry_equiv_pos_site_id
 _symmetry_equiv_pos_as_xyz
  1  'x, y, z'
loop_
 _atom_site_type_symbol
 _atom_site_label
 _atom_site_symmetry_multiplicity
 _atom_site_fract_x
 _atom_site_fract_y
 _atom_site_fract_z
 _atom_site_occupancy
  Ca  Ca0  1  0.834415  0.165585  0.500000  1
  Ca  Ca1  1  0.165585  0.834415  0.500000  1
  Ca  Ca2  1  0.500000  0.500000  0.500000  1
  Tm  Tm3  1  0.000000  0.000000  0.000000  1
  Nb  Nb4  1  0.332677  0.667323  0.000000  1
  Nb  Nb5  1  0.667323  0.332677  0.000000  1
  N  N6  1  0.422032  0.070855  0.214926  1
  N  N7  1  0.929145  0.577968  0.785074  1
  N  N8  1  0.577968  0.929145  0.785074  1
  N  N9  1  0.070855  0.422032  0.214926  1
  N  N10  1  0.720828  0.720828  0.214740  1
  N  N11  1  0.279172  0.279172  0.785260  1
