# generated using pymatgen
data_Ta3Zn2GaRh6
_symmetry_space_group_name_H-M   'P 1'
_cell_length_a   4.06547000
_cell_length_b   7.25849500
_cell_length_c   12.17741300
_cell_angle_alpha   90.00000000
_cell_angle_beta   90.00002350
_cell_angle_gamma   90.00000000
_symmetry_Int_Tables_number   1
_chemical_formula_structural   Ta3Zn2GaRh6
_chemical_formula_sum   'Ta6 Zn4 Ga2 Rh12'
_cell_volume   359.34563859
_cell_formula_units_Z   2
loop_
 _symmetry_equiv_pos_site_id
 _symmetry_equiv_pos_as_xyz
  1  'x, y, z'
loop_
 _atom_site_type_symbol
 _atom_site_label
 _atom_site_symmetry_multiplicity
 _atom_site_fract_x
 _atom_site_fract_y
 _atom_site_fract_z
 _atom_site_occupancy
  Ta  Ta0  1  0.000000  0.500000  0.997799  1
  Ta  Ta1  1  0.500002  0.000000  0.168882  1
  Ta  Ta2  1  0.000003  0.500000  0.335115  1
  Ta  Ta3  1  0.500001  0.000000  0.499699  1
  Ta  Ta4  1  0.000000  0.500000  0.666956  1
  Ta  Ta5  1  0.500000  0.000000  0.831532  1
  Zn  Zn6  1  0.000002  0.000000  0.333344  1
  Zn  Zn7  1  0.500000  0.500000  0.500376  1
  Zn  Zn8  1  0.999998  0.000000  0.666289  1
  Zn  Zn9  1  0.499998  0.500000  0.833342  1
  Ga  Ga10  1  0.000000  0.000000  0.000356  1
  Ga  Ga11  1  0.500003  0.500000  0.166243  1
  Rh  Rh12  1  0.500000  0.249271  0.000429  1
  Rh  Rh13  1  0.500000  0.750730  0.000429  1
  Rh  Rh14  1  0.000001  0.250720  0.166276  1
  Rh  Rh15  1  0.000001  0.749279  0.166276  1
  Rh  Rh16  1  0.500002  0.250717  0.332621  1
  Rh  Rh17  1  0.500002  0.749283  0.332621  1
  Rh  Rh18  1  0.999999  0.249679  0.499683  1
  Rh  Rh19  1  0.999999  0.750321  0.499683  1
  Rh  Rh20  1  0.499999  0.250337  0.666965  1
  Rh  Rh21  1  0.499999  0.749663  0.666965  1
  Rh  Rh22  1  0.999998  0.249286  0.834059  1
  Rh  Rh23  1  0.999998  0.750713  0.834059  1
