# generated using pymatgen
data_Ac2Ce2Zn7CuRu2
_symmetry_space_group_name_H-M   'P 1'
_cell_length_a   7.30504904
_cell_length_b   7.30504904
_cell_length_c   5.25216147
_cell_angle_alpha   90.15272136
_cell_angle_beta   90.15272136
_cell_angle_gamma   90.60124769
_symmetry_Int_Tables_number   1
_chemical_formula_structural   Ac2Ce2Zn7CuRu2
_chemical_formula_sum   'Ac2 Ce2 Zn7 Cu1 Ru2'
_cell_volume   280.25754336
_cell_formula_units_Z   1
loop_
 _symmetry_equiv_pos_site_id
 _symmetry_equiv_pos_as_xyz
  1  'x, y, z'
loop_
 _atom_site_type_symbol
 _atom_site_label
 _atom_site_symmetry_multiplicity
 _atom_site_fract_x
 _atom_site_fract_y
 _atom_site_fract_z
 _atom_site_occupancy
  Ac  Ac0  1  0.003700  0.503700  0.773453  1
  Ac  Ac1  1  0.495516  0.995516  0.224201  1
  Ce  Ce2  1  0.003283  0.997755  0.005806  1
  Ce  Ce3  1  0.497755  0.503283  0.005806  1
  Zn  Zn4  1  0.819159  0.686825  0.292215  1
  Zn  Zn5  1  0.812575  0.312575  0.290303  1
  Zn  Zn6  1  0.313507  0.186403  0.708307  1
  Zn  Zn7  1  0.186825  0.319159  0.292215  1
  Zn  Zn8  1  0.686945  0.186945  0.711440  1
  Zn  Zn9  1  0.686403  0.813507  0.708307  1
  Zn  Zn10  1  0.310395  0.810395  0.700631  1
  Cu  Cu11  1  0.182607  0.682607  0.286061  1
  Ru  Ru12  1  0.503512  0.497818  0.500628  1
  Ru  Ru13  1  0.997818  0.003512  0.500628  1
