# generated using pymatgen
data_Ho3Er17Sn16
_symmetry_space_group_name_H-M   'P 1'
_cell_length_a   7.99294155
_cell_length_b   8.11566359
_cell_length_c   15.34879409
_cell_angle_alpha   90.00410580
_cell_angle_beta   90.11658113
_cell_angle_gamma   89.96761549
_symmetry_Int_Tables_number   1
_chemical_formula_structural   Ho3Er17Sn16
_chemical_formula_sum   'Ho3 Er17 Sn16'
_cell_volume   995.64373226
_cell_formula_units_Z   1
loop_
 _symmetry_equiv_pos_site_id
 _symmetry_equiv_pos_as_xyz
  1  'x, y, z'
loop_
 _atom_site_type_symbol
 _atom_site_label
 _atom_site_symmetry_multiplicity
 _atom_site_fract_x
 _atom_site_fract_y
 _atom_site_fract_z
 _atom_site_occupancy
  Ho  Ho0  1  0.980404  0.820655  0.403465  1
  Ho  Ho1  1  0.519302  0.321236  0.596199  1
  Ho  Ho2  1  0.020189  0.178776  0.903590  1
  Er  Er3  1  0.367920  0.837572  0.877479  1
  Er  Er4  1  0.866715  0.663043  0.622903  1
  Er  Er5  1  0.633187  0.162344  0.376924  1
  Er  Er6  1  0.132435  0.337349  0.122498  1
  Er  Er7  1  0.631986  0.162362  0.122606  1
  Er  Er8  1  0.132836  0.337435  0.377169  1
  Er  Er9  1  0.367452  0.837547  0.622959  1
  Er  Er10  1  0.868634  0.662413  0.877309  1
  Er  Er11  1  0.521874  0.321314  0.902634  1
  Er  Er12  1  0.020975  0.179263  0.597007  1
  Er  Er13  1  0.479098  0.679197  0.403153  1
  Er  Er14  1  0.978310  0.820225  0.097299  1
  Er  Er15  1  0.478760  0.678649  0.096541  1
  Er  Er16  1  0.198699  0.503965  0.750250  1
  Er  Er17  1  0.698750  0.996647  0.750212  1
  Er  Er18  1  0.801740  0.496289  0.249661  1
  Er  Er19  1  0.301619  0.003544  0.249808  1
  Sn  Sn20  1  0.292498  0.035652  0.042192  1
  Sn  Sn21  1  0.792913  0.462550  0.458287  1
  Sn  Sn22  1  0.706315  0.962789  0.541702  1
  Sn  Sn23  1  0.207975  0.537199  0.958565  1
  Sn  Sn24  1  0.706219  0.961144  0.959144  1
  Sn  Sn25  1  0.204818  0.539128  0.541243  1
  Sn  Sn26  1  0.294777  0.038525  0.458946  1
  Sn  Sn27  1  0.792512  0.462574  0.041276  1
  Sn  Sn28  1  0.565011  0.619386  0.750174  1
  Sn  Sn29  1  0.065119  0.881380  0.750109  1
  Sn  Sn30  1  0.435847  0.382149  0.249947  1
  Sn  Sn31  1  0.935339  0.118480  0.249832  1
  Sn  Sn32  1  0.330980  0.149197  0.750108  1
  Sn  Sn33  1  0.830833  0.351353  0.749445  1
  Sn  Sn34  1  0.668447  0.850290  0.249836  1
  Sn  Sn35  1  0.169515  0.648380  0.249528  1
