# generated using pymatgen
data_YSi3NiRh4
_symmetry_space_group_name_H-M   'P 1'
_cell_length_a   3.86319900
_cell_length_b   10.93641600
_cell_length_c   12.58704600
_cell_angle_alpha   90.00000000
_cell_angle_beta   90.00000000
_cell_angle_gamma   90.00000000
_symmetry_Int_Tables_number   1
_chemical_formula_structural   YSi3NiRh4
_chemical_formula_sum   'Y4 Si12 Ni4 Rh16'
_cell_volume   531.79704638
_cell_formula_units_Z   4
loop_
 _symmetry_equiv_pos_site_id
 _symmetry_equiv_pos_as_xyz
  1  'x, y, z'
loop_
 _atom_site_type_symbol
 _atom_site_label
 _atom_site_symmetry_multiplicity
 _atom_site_fract_x
 _atom_site_fract_y
 _atom_site_fract_z
 _atom_site_occupancy
  Y  Y0  1  0.250000  0.912346  0.204062  1
  Y  Y1  1  0.750000  0.087654  0.795938  1
  Y  Y2  1  0.750000  0.412346  0.295938  1
  Y  Y3  1  0.250000  0.587654  0.704062  1
  Si  Si4  1  0.250000  0.086704  0.605056  1
  Si  Si5  1  0.750000  0.913296  0.394944  1
  Si  Si6  1  0.750000  0.586704  0.894944  1
  Si  Si7  1  0.250000  0.413296  0.105056  1
  Si  Si8  1  0.250000  0.223142  0.377811  1
  Si  Si9  1  0.750000  0.776858  0.622189  1
  Si  Si10  1  0.750000  0.723142  0.122189  1
  Si  Si11  1  0.250000  0.276858  0.877811  1
  Si  Si12  1  0.250000  0.898718  0.891103  1
  Si  Si13  1  0.750000  0.101282  0.108897  1
  Si  Si14  1  0.750000  0.398718  0.608897  1
  Si  Si15  1  0.250000  0.601282  0.391103  1
  Ni  Ni16  1  0.250000  0.027318  0.433006  1
  Ni  Ni17  1  0.750000  0.972682  0.566994  1
  Ni  Ni18  1  0.750000  0.527318  0.066994  1
  Ni  Ni19  1  0.250000  0.472682  0.933006  1
  Rh  Rh20  1  0.250000  0.790227  0.487857  1
  Rh  Rh21  1  0.750000  0.209773  0.512143  1
  Rh  Rh22  1  0.750000  0.290227  0.012143  1
  Rh  Rh23  1  0.250000  0.709773  0.987857  1
  Rh  Rh24  1  0.250000  0.094118  0.987258  1
  Rh  Rh25  1  0.750000  0.905882  0.012742  1
  Rh  Rh26  1  0.750000  0.594118  0.512742  1
  Rh  Rh27  1  0.250000  0.405882  0.487258  1
  Rh  Rh28  1  0.250000  0.278749  0.682415  1
  Rh  Rh29  1  0.750000  0.721251  0.317585  1
  Rh  Rh30  1  0.750000  0.778749  0.817585  1
  Rh  Rh31  1  0.250000  0.221251  0.182415  1
  Rh  Rh32  1  0.250000  0.606240  0.197230  1
  Rh  Rh33  1  0.750000  0.393760  0.802770  1
  Rh  Rh34  1  0.750000  0.106240  0.302770  1
  Rh  Rh35  1  0.250000  0.893760  0.697230  1
