# generated using pymatgen
data_Gd4HoGeSe4
_symmetry_space_group_name_H-M   'P 1'
_cell_length_a   7.24968119
_cell_length_b   7.24968116
_cell_length_c   7.24968100
_cell_angle_alpha   99.45834624
_cell_angle_beta   99.45835421
_cell_angle_gamma   132.17045787
_symmetry_Int_Tables_number   1
_chemical_formula_structural   Gd4HoGeSe4
_chemical_formula_sum   'Gd4 Ho1 Ge1 Se4'
_cell_volume   258.15503494
_cell_formula_units_Z   1
loop_
 _symmetry_equiv_pos_site_id
 _symmetry_equiv_pos_as_xyz
  1  'x, y, z'
loop_
 _atom_site_type_symbol
 _atom_site_label
 _atom_site_symmetry_multiplicity
 _atom_site_fract_x
 _atom_site_fract_y
 _atom_site_fract_z
 _atom_site_occupancy
  Gd  Gd0  1  0.399980  0.792141  0.192120  1
  Gd  Gd1  1  0.600020  0.207859  0.807880  1
  Gd  Gd2  1  0.207780  0.400015  0.607807  1
  Gd  Gd3  1  0.792220  0.599985  0.392193  1
  Ho  Ho4  1  0.000000  0.000000  0.000000  1
  Ge  Ge5  1  0.500000  0.500000  0.000000  1
  Se  Se6  1  0.097236  0.699280  0.796516  1
  Se  Se7  1  0.699239  0.902754  0.601993  1
  Se  Se8  1  0.300761  0.097246  0.398007  1
  Se  Se9  1  0.902764  0.300720  0.203484  1
