# generated using pymatgen
data_Eu3ErCu(Si2Pt)5
_symmetry_space_group_name_H-M   'P 1'
_cell_length_a   8.25870930
_cell_length_b   8.24844783
_cell_length_c   8.24332176
_cell_angle_alpha   137.53281211
_cell_angle_beta   104.80168545
_cell_angle_gamma   90.44467101
_symmetry_Int_Tables_number   1
_chemical_formula_structural   Eu3ErCu(Si2Pt)5
_chemical_formula_sum   'Eu3 Er1 Cu1 Si10 Pt5'
_cell_volume   349.60537962
_cell_formula_units_Z   1
loop_
 _symmetry_equiv_pos_site_id
 _symmetry_equiv_pos_as_xyz
  1  'x, y, z'
loop_
 _atom_site_type_symbol
 _atom_site_label
 _atom_site_symmetry_multiplicity
 _atom_site_fract_x
 _atom_site_fract_y
 _atom_site_fract_z
 _atom_site_occupancy
  Eu  Eu0  1  0.891899  0.127398  0.764453  1
  Eu  Eu1  1  0.636454  0.372081  0.263701  1
  Eu  Eu2  1  0.363779  0.627757  0.736129  1
  Er  Er3  1  0.106718  0.873748  0.234160  1
  Cu  Cu4  1  0.499044  0.751262  0.251105  1
  Si  Si5  1  0.999223  0.746128  0.746304  1
  Si  Si6  1  0.999701  0.252950  0.253028  1
  Si  Si7  1  0.273597  0.022597  0.750378  1
  Si  Si8  1  0.728430  0.477072  0.749093  1
  Si  Si9  1  0.731989  0.982051  0.251149  1
  Si  Si10  1  0.269721  0.518837  0.250938  1
  Si  Si11  1  0.761088  0.618450  0.151877  1
  Si  Si12  1  0.240263  0.394309  0.859339  1
  Si  Si13  1  0.460794  0.104737  0.344786  1
  Si  Si14  1  0.536735  0.882260  0.644455  1
  Pt  Pt15  1  0.496515  0.247106  0.746009  1
  Pt  Pt16  1  0.024508  0.640825  0.386711  1
  Pt  Pt17  1  0.979648  0.365160  0.617548  1
  Pt  Pt18  1  0.246336  0.132144  0.111250  1
  Pt  Pt19  1  0.753556  0.863130  0.887589  1
