# generated using pymatgen
data_Ho4Al16Si2PtRh5
_symmetry_space_group_name_H-M   'P 1'
_cell_length_a   7.53305177
_cell_length_b   7.53305280
_cell_length_c   9.34377507
_cell_angle_alpha   89.97972068
_cell_angle_beta   89.97972582
_cell_angle_gamma   119.44818908
_symmetry_Int_Tables_number   1
_chemical_formula_structural   Ho4Al16Si2PtRh5
_chemical_formula_sum   'Ho4 Al16 Si2 Pt1 Rh5'
_cell_volume   461.72454699
_cell_formula_units_Z   1
loop_
 _symmetry_equiv_pos_site_id
 _symmetry_equiv_pos_as_xyz
  1  'x, y, z'
loop_
 _atom_site_type_symbol
 _atom_site_label
 _atom_site_symmetry_multiplicity
 _atom_site_fract_x
 _atom_site_fract_y
 _atom_site_fract_z
 _atom_site_occupancy
  Ho  Ho0  1  0.994164  0.674492  0.250445  1
  Ho  Ho1  1  0.004433  0.324473  0.749785  1
  Ho  Ho2  1  0.675527  0.995567  0.250215  1
  Ho  Ho3  1  0.325508  0.005836  0.749555  1
  Al  Al4  1  0.005193  0.336455  0.076984  1
  Al  Al5  1  0.002353  0.667325  0.923145  1
  Al  Al6  1  0.999631  0.663410  0.575214  1
  Al  Al7  1  0.336590  0.000369  0.424786  1
  Al  Al8  1  0.001272  0.336290  0.424293  1
  Al  Al9  1  0.663710  0.998728  0.575707  1
  Al  Al10  1  0.663545  0.994807  0.923016  1
  Al  Al11  1  0.332675  0.997647  0.076855  1
  Al  Al12  1  0.334832  0.334774  0.556152  1
  Al  Al13  1  0.665226  0.665168  0.443848  1
  Al  Al14  1  0.664369  0.668119  0.058856  1
  Al  Al15  1  0.331881  0.335631  0.941144  1
  Al  Al16  1  0.335349  0.550249  0.250623  1
  Al  Al17  1  0.665186  0.453312  0.746422  1
  Al  Al18  1  0.546688  0.334814  0.253578  1
  Al  Al19  1  0.449751  0.664651  0.749377  1
  Si  Si20  1  0.128621  0.127698  0.250406  1
  Si  Si21  1  0.872302  0.871379  0.749594  1
  Pt  Pt22  1  0.671786  0.328214  0.000000  1
  Rh  Rh23  1  0.328341  0.671659  0.000000  1
  Rh  Rh24  1  0.328536  0.671464  0.500000  1
  Rh  Rh25  1  0.672284  0.327716  0.500000  1
  Rh  Rh26  1  0.999871  0.000129  0.000000  1
  Rh  Rh27  1  0.000375  0.999625  0.500000  1
