# generated using pymatgen
data_Nd4Dy4Tc3B24Os
_symmetry_space_group_name_H-M   'P 1'
_cell_length_a   3.73624600
_cell_length_b   9.24305276
_cell_length_c   11.69663104
_cell_angle_alpha   89.96062019
_cell_angle_beta   90.00000000
_cell_angle_gamma   90.00000000
_symmetry_Int_Tables_number   1
_chemical_formula_structural   Nd4Dy4Tc3B24Os
_chemical_formula_sum   'Nd4 Dy4 Tc3 B24 Os1'
_cell_volume   403.93509126
_cell_formula_units_Z   1
loop_
 _symmetry_equiv_pos_site_id
 _symmetry_equiv_pos_as_xyz
  1  'x, y, z'
loop_
 _atom_site_type_symbol
 _atom_site_label
 _atom_site_symmetry_multiplicity
 _atom_site_fract_x
 _atom_site_fract_y
 _atom_site_fract_z
 _atom_site_occupancy
  Nd  Nd0  1  0.000000  0.323166  0.413978  1
  Nd  Nd1  1  0.000000  0.675708  0.584375  1
  Nd  Nd2  1  0.000000  0.822817  0.087049  1
  Nd  Nd3  1  0.000000  0.177922  0.914882  1
  Dy  Dy4  1  0.000000  0.942317  0.369156  1
  Dy  Dy5  1  0.000000  0.058709  0.630820  1
  Dy  Dy6  1  0.000000  0.442687  0.131121  1
  Dy  Dy7  1  0.000000  0.557123  0.868589  1
  Tc  Tc8  1  0.000000  0.638999  0.319558  1
  Tc  Tc9  1  0.000000  0.361012  0.681029  1
  Tc  Tc10  1  0.000000  0.138365  0.179718  1
  B  B11  1  0.500000  0.554715  0.430580  1
  B  B12  1  0.500000  0.445183  0.569169  1
  B  B13  1  0.500000  0.054783  0.069315  1
  B  B14  1  0.500000  0.944746  0.930587  1
  B  B15  1  0.500000  0.749059  0.416120  1
  B  B16  1  0.500000  0.250802  0.583995  1
  B  B17  1  0.500000  0.249626  0.083828  1
  B  B18  1  0.500000  0.751067  0.915840  1
  B  B19  1  0.500000  0.790527  0.266269  1
  B  B20  1  0.500000  0.209832  0.734162  1
  B  B21  1  0.500000  0.290391  0.233805  1
  B  B22  1  0.500000  0.710267  0.766051  1
  B  B23  1  0.500000  0.629878  0.186546  1
  B  B24  1  0.500000  0.370070  0.813865  1
  B  B25  1  0.500000  0.129501  0.313202  1
  B  B26  1  0.500000  0.870167  0.686749  1
  B  B27  1  0.500000  0.983758  0.212884  1
  B  B28  1  0.500000  0.015174  0.787371  1
  B  B29  1  0.500000  0.484192  0.286878  1
  B  B30  1  0.500000  0.515532  0.712757  1
  B  B31  1  0.500000  0.597814  0.026836  1
  B  B32  1  0.500000  0.402972  0.972901  1
  B  B33  1  0.500000  0.097371  0.473217  1
  B  B34  1  0.500000  0.902738  0.527316  1
  Os  Os35  1  0.000000  0.861009  0.819483  1
