# generated using pymatgen
data_Dy3Sc2ZnPt3
_symmetry_space_group_name_H-M   'P 1'
_cell_length_a   7.24544134
_cell_length_b   7.09379639
_cell_length_c   4.31877800
_cell_angle_alpha   90.00000000
_cell_angle_beta   90.00000000
_cell_angle_gamma   119.31003049
_symmetry_Int_Tables_number   1
_chemical_formula_structural   Dy3Sc2ZnPt3
_chemical_formula_sum   'Dy3 Sc2 Zn1 Pt3'
_cell_volume   193.55872558
_cell_formula_units_Z   1
loop_
 _symmetry_equiv_pos_site_id
 _symmetry_equiv_pos_as_xyz
  1  'x, y, z'
loop_
 _atom_site_type_symbol
 _atom_site_label
 _atom_site_symmetry_multiplicity
 _atom_site_fract_x
 _atom_site_fract_y
 _atom_site_fract_z
 _atom_site_occupancy
  Dy  Dy0  1  0.392344  0.980996  0.000000  1
  Dy  Dy1  1  0.000000  0.434484  0.000000  1
  Dy  Dy2  1  0.607656  0.588652  0.000000  1
  Sc  Sc3  1  0.752945  0.994652  0.500000  1
  Sc  Sc4  1  0.247055  0.241706  0.500000  1
  Zn  Zn5  1  0.000000  0.755641  0.500000  1
  Pt  Pt6  1  0.000000  0.019396  0.000000  1
  Pt  Pt7  1  0.663665  0.324070  0.500000  1
  Pt  Pt8  1  0.336335  0.660403  0.500000  1
