# generated using pymatgen
data_Nd2Ga2Te
_symmetry_space_group_name_H-M   'P 1'
_cell_length_a   4.28293900
_cell_length_b   4.28293964
_cell_length_c   8.41272400
_cell_angle_alpha   90.00000000
_cell_angle_beta   90.00000000
_cell_angle_gamma   119.99998736
_symmetry_Int_Tables_number   1
_chemical_formula_structural   Nd2Ga2Te
_chemical_formula_sum   'Nd2 Ga2 Te1'
_cell_volume   133.64452461
_cell_formula_units_Z   1
loop_
 _symmetry_equiv_pos_site_id
 _symmetry_equiv_pos_as_xyz
  1  'x, y, z'
loop_
 _atom_site_type_symbol
 _atom_site_label
 _atom_site_symmetry_multiplicity
 _atom_site_fract_x
 _atom_site_fract_y
 _atom_site_fract_z
 _atom_site_occupancy
  Nd  Nd0  1  0.000000  0.000000  0.249085  1
  Nd  Nd1  1  0.000000  0.000000  0.750915  1
  Ga  Ga2  1  0.333333  0.666667  0.500000  1
  Ga  Ga3  1  0.666667  0.333333  0.500000  1
  Te  Te4  1  0.666667  0.333333  0.000000  1
