# generated using pymatgen
data_SrNd3(CoH5)4
_symmetry_space_group_name_H-M   'P 1'
_cell_length_a   4.51232250
_cell_length_b   6.29597241
_cell_length_c   8.26201436
_cell_angle_alpha   90.71977739
_cell_angle_beta   90.08430677
_cell_angle_gamma   89.96225477
_symmetry_Int_Tables_number   1
_chemical_formula_structural   SrNd3(CoH5)4
_chemical_formula_sum   'Sr1 Nd3 Co4 H20'
_cell_volume   234.70052681
_cell_formula_units_Z   1
loop_
 _symmetry_equiv_pos_site_id
 _symmetry_equiv_pos_as_xyz
  1  'x, y, z'
loop_
 _atom_site_type_symbol
 _atom_site_label
 _atom_site_symmetry_multiplicity
 _atom_site_fract_x
 _atom_site_fract_y
 _atom_site_fract_z
 _atom_site_occupancy
  Sr  Sr0  1  0.242776  0.144120  0.684428  1
  Nd  Nd1  1  0.245957  0.355556  0.185644  1
  Nd  Nd2  1  0.745089  0.644189  0.813250  1
  Nd  Nd3  1  0.746881  0.857094  0.313037  1
  Co  Co4  1  0.235800  0.648911  0.540693  1
  Co  Co5  1  0.732317  0.357301  0.447766  1
  Co  Co6  1  0.730487  0.147856  0.962591  1
  Co  Co7  1  0.236837  0.846987  0.050276  1
  H  H8  1  0.907179  0.556582  0.519471  1
  H  H9  1  0.402755  0.438791  0.481090  1
  H  H10  1  0.403414  0.053759  0.983240  1
  H  H11  1  0.911899  0.941207  0.014809  1
  H  H12  1  0.003699  0.664509  0.092915  1
  H  H13  1  0.509792  0.337952  0.920440  1
  H  H14  1  0.508864  0.169811  0.401904  1
  H  H15  1  0.002048  0.827963  0.584182  1
  H  H16  1  0.500593  0.683352  0.088744  1
  H  H17  1  0.984433  0.317763  0.924128  1
  H  H18  1  0.989383  0.190299  0.406031  1
  H  H19  1  0.503616  0.805627  0.580504  1
  H  H20  1  0.242632  0.774282  0.872558  1
  H  H21  1  0.738738  0.208392  0.142904  1
  H  H22  1  0.738924  0.291369  0.625606  1
  H  H23  1  0.241440  0.712034  0.361430  1
  H  H24  1  0.241207  0.967294  0.220438  1
  H  H25  1  0.738601  0.037499  0.790463  1
  H  H26  1  0.740024  0.472353  0.277898  1
  H  H27  1  0.242618  0.547149  0.713561  1
