# generated using pymatgen
data_TmFe2Ni2P3W
_symmetry_space_group_name_H-M   'P 1'
_cell_length_a   3.71088100
_cell_length_b   10.36320800
_cell_length_c   11.99350400
_cell_angle_alpha   90.00000000
_cell_angle_beta   90.00000000
_cell_angle_gamma   90.00000000
_symmetry_Int_Tables_number   1
_chemical_formula_structural   TmFe2Ni2P3W
_chemical_formula_sum   'Tm4 Fe8 Ni8 P12 W4'
_cell_volume   461.22976572
_cell_formula_units_Z   4
loop_
 _symmetry_equiv_pos_site_id
 _symmetry_equiv_pos_as_xyz
  1  'x, y, z'
loop_
 _atom_site_type_symbol
 _atom_site_label
 _atom_site_symmetry_multiplicity
 _atom_site_fract_x
 _atom_site_fract_y
 _atom_site_fract_z
 _atom_site_occupancy
  Tm  Tm0  1  0.250000  0.579998  0.708654  1
  Tm  Tm1  1  0.250000  0.920002  0.208654  1
  Tm  Tm2  1  0.750000  0.420002  0.291346  1
  Tm  Tm3  1  0.750000  0.079998  0.791346  1
  Fe  Fe4  1  0.250000  0.879136  0.700414  1
  Fe  Fe5  1  0.250000  0.620864  0.200414  1
  Fe  Fe6  1  0.750000  0.120864  0.299586  1
  Fe  Fe7  1  0.750000  0.379136  0.799586  1
  Fe  Fe8  1  0.250000  0.462737  0.934277  1
  Fe  Fe9  1  0.250000  0.037263  0.434277  1
  Fe  Fe10  1  0.750000  0.537263  0.065723  1
  Fe  Fe11  1  0.750000  0.962737  0.565723  1
  Ni  Ni12  1  0.250000  0.407073  0.486029  1
  Ni  Ni13  1  0.250000  0.092927  0.986029  1
  Ni  Ni14  1  0.750000  0.592927  0.513971  1
  Ni  Ni15  1  0.750000  0.907073  0.013971  1
  Ni  Ni16  1  0.250000  0.226331  0.175231  1
  Ni  Ni17  1  0.250000  0.273669  0.675231  1
  Ni  Ni18  1  0.750000  0.773669  0.824769  1
  Ni  Ni19  1  0.750000  0.726331  0.324769  1
  P  P20  1  0.250000  0.429707  0.113854  1
  P  P21  1  0.250000  0.070293  0.613854  1
  P  P22  1  0.750000  0.570293  0.886146  1
  P  P23  1  0.750000  0.929707  0.386146  1
  P  P24  1  0.250000  0.270100  0.862983  1
  P  P25  1  0.250000  0.229900  0.362983  1
  P  P26  1  0.750000  0.729900  0.137017  1
  P  P27  1  0.750000  0.770100  0.637017  1
  P  P28  1  0.250000  0.596647  0.386345  1
  P  P29  1  0.250000  0.903353  0.886345  1
  P  P30  1  0.750000  0.403353  0.613655  1
  P  P31  1  0.750000  0.096647  0.113655  1
  W  W32  1  0.250000  0.706524  0.987261  1
  W  W33  1  0.250000  0.793476  0.487261  1
  W  W34  1  0.750000  0.293476  0.012739  1
  W  W35  1  0.750000  0.206524  0.512739  1
