# generated using pymatgen
data_Ta2Be2Mo
_symmetry_space_group_name_H-M   'P 1'
_cell_length_a   6.40261200
_cell_length_b   6.40261200
_cell_length_c   3.31775400
_cell_angle_alpha   90.00000000
_cell_angle_beta   90.00000000
_cell_angle_gamma   90.00000000
_symmetry_Int_Tables_number   1
_chemical_formula_structural   Ta2Be2Mo
_chemical_formula_sum   'Ta4 Be4 Mo2'
_cell_volume   136.00615094
_cell_formula_units_Z   2
loop_
 _symmetry_equiv_pos_site_id
 _symmetry_equiv_pos_as_xyz
  1  'x, y, z'
loop_
 _atom_site_type_symbol
 _atom_site_label
 _atom_site_symmetry_multiplicity
 _atom_site_fract_x
 _atom_site_fract_y
 _atom_site_fract_z
 _atom_site_occupancy
  Ta  Ta0  1  0.180373  0.680374  0.500000  1
  Ta  Ta1  1  0.819627  0.319626  0.500000  1
  Ta  Ta2  1  0.680374  0.819627  0.500000  1
  Ta  Ta3  1  0.319626  0.180373  0.500000  1
  Be  Be4  1  0.615208  0.115210  0.000000  1
  Be  Be5  1  0.384791  0.884790  0.000000  1
  Be  Be6  1  0.115210  0.384791  0.000000  1
  Be  Be7  1  0.884790  0.615208  0.000000  1
  Mo  Mo8  1  0.000000  0.000000  0.000000  1
  Mo  Mo9  1  0.499999  0.499999  0.000000  1
