# generated using pymatgen
data_Hf3Tc3Ge2B
_symmetry_space_group_name_H-M   'P 1'
_cell_length_a   6.93647800
_cell_length_b   6.93647786
_cell_length_c   3.35075200
_cell_angle_alpha   90.00000000
_cell_angle_beta   90.00000000
_cell_angle_gamma   120.00000066
_symmetry_Int_Tables_number   1
_chemical_formula_structural   Hf3Tc3Ge2B
_chemical_formula_sum   'Hf3 Tc3 Ge2 B1'
_cell_volume   139.62106035
_cell_formula_units_Z   1
loop_
 _symmetry_equiv_pos_site_id
 _symmetry_equiv_pos_as_xyz
  1  'x, y, z'
loop_
 _atom_site_type_symbol
 _atom_site_label
 _atom_site_symmetry_multiplicity
 _atom_site_fract_x
 _atom_site_fract_y
 _atom_site_fract_z
 _atom_site_occupancy
  Hf  Hf0  1  0.000000  0.377557  0.500000  1
  Hf  Hf1  1  0.622443  0.622443  0.500000  1
  Hf  Hf2  1  0.377557  0.000000  0.500000  1
  Tc  Tc3  1  0.000000  0.762053  0.000000  1
  Tc  Tc4  1  0.237947  0.237947  0.000000  1
  Tc  Tc5  1  0.762053  0.000000  0.000000  1
  Ge  Ge6  1  0.333333  0.666667  0.000000  1
  Ge  Ge7  1  0.666667  0.333333  0.000000  1
  B  B8  1  0.000000  0.000000  0.500000  1
