# generated using pymatgen
data_Zr2GaH
_symmetry_space_group_name_H-M   'P 1'
_cell_length_a   5.54078889
_cell_length_b   5.54078768
_cell_length_c   5.54078860
_cell_angle_alpha   104.53571543
_cell_angle_beta   104.53570155
_cell_angle_gamma   119.86997682
_symmetry_Int_Tables_number   1
_chemical_formula_structural   Zr2GaH
_chemical_formula_sum   'Zr4 Ga2 H2'
_cell_volume   127.66109782
_cell_formula_units_Z   2
loop_
 _symmetry_equiv_pos_site_id
 _symmetry_equiv_pos_as_xyz
  1  'x, y, z'
loop_
 _atom_site_type_symbol
 _atom_site_label
 _atom_site_symmetry_multiplicity
 _atom_site_fract_x
 _atom_site_fract_y
 _atom_site_fract_z
 _atom_site_occupancy
  Zr  Zr0  1  0.161145  0.661145  0.822291  1
  Zr  Zr1  1  0.838855  0.338855  0.177709  1
  Zr  Zr2  1  0.338855  0.161145  0.500000  1
  Zr  Zr3  1  0.661145  0.838855  0.500000  1
  Ga  Ga4  1  0.250000  0.250000  0.000000  1
  Ga  Ga5  1  0.750000  0.750000  0.000000  1
  H  H6  1  0.750000  0.250000  0.500000  1
  H  H7  1  0.250000  0.750000  0.500000  1
