# generated using pymatgen
data_K8MnTl3S4(O4F3)4
_symmetry_space_group_name_H-M   'P 1'
_cell_length_a   11.02287500
_cell_length_b   7.40239475
_cell_length_c   8.61656500
_cell_angle_alpha   87.58202785
_cell_angle_beta   90.00000000
_cell_angle_gamma   90.00000000
_symmetry_Int_Tables_number   1
_chemical_formula_structural   K8MnTl3S4(O4F3)4
_chemical_formula_sum   'K8 Mn1 Tl3 S4 O16 F12'
_cell_volume   702.44842682
_cell_formula_units_Z   1
loop_
 _symmetry_equiv_pos_site_id
 _symmetry_equiv_pos_as_xyz
  1  'x, y, z'
loop_
 _atom_site_type_symbol
 _atom_site_label
 _atom_site_symmetry_multiplicity
 _atom_site_fract_x
 _atom_site_fract_y
 _atom_site_fract_z
 _atom_site_occupancy
  K  K0  1  0.811438  0.187110  0.665050  1
  K  K1  1  0.816196  0.684266  0.343688  1
  K  K2  1  0.300318  0.812736  0.836555  1
  K  K3  1  0.188562  0.812890  0.334950  1
  K  K4  1  0.183804  0.315734  0.656312  1
  K  K5  1  0.312192  0.317750  0.153840  1
  K  K6  1  0.687808  0.682250  0.846160  1
  K  K7  1  0.699682  0.187264  0.163445  1
  Mn  Mn8  1  0.000000  0.000000  0.000000  1
  Tl  Tl9  1  0.500000  0.000000  0.500000  1
  Tl  Tl10  1  0.000000  0.500000  0.000000  1
  Tl  Tl11  1  0.500000  0.500000  0.500000  1
  S  S12  1  0.502026  0.761119  0.175469  1
  S  S13  1  0.002699  0.243754  0.315116  1
  S  S14  1  0.497974  0.238881  0.824531  1
  S  S15  1  0.997301  0.756246  0.684884  1
  O  O16  1  0.589773  0.865789  0.082033  1
  O  O17  1  0.089850  0.140410  0.410797  1
  O  O18  1  0.410227  0.134211  0.917967  1
  O  O19  1  0.910150  0.859590  0.589203  1
  O  O20  1  0.415872  0.658501  0.084894  1
  O  O21  1  0.906304  0.328577  0.403579  1
  O  O22  1  0.584128  0.341499  0.915106  1
  O  O23  1  0.093696  0.671423  0.596421  1
  O  O24  1  0.575732  0.634685  0.284051  1
  O  O25  1  0.075099  0.390535  0.225107  1
  O  O26  1  0.424268  0.365315  0.715949  1
  O  O27  1  0.924901  0.609465  0.774893  1
  O  O28  1  0.943089  0.127014  0.196282  1
  O  O29  1  0.571911  0.117397  0.721267  1
  O  O30  1  0.428089  0.882603  0.278733  1
  O  O31  1  0.056911  0.872986  0.803718  1
  F  F32  1  0.837972  0.972596  0.949602  1
  F  F33  1  0.313515  0.018109  0.563669  1
  F  F34  1  0.162028  0.027404  0.050398  1
  F  F35  1  0.686485  0.981891  0.436331  1
  F  F36  1  0.998398  0.237739  0.868244  1
  F  F37  1  0.495968  0.744153  0.652244  1
  F  F38  1  0.001602  0.762261  0.131756  1
  F  F39  1  0.504032  0.255847  0.347756  1
  F  F40  1  0.187246  0.508823  0.928321  1
  F  F41  1  0.812754  0.491177  0.071679  1
  F  F42  1  0.313410  0.514806  0.429309  1
  F  F43  1  0.686590  0.485194  0.570691  1
