# generated using pymatgen
data_LaTlCu2(TeO6)2
_symmetry_space_group_name_H-M   'P 1'
_cell_length_a   5.20299500
_cell_length_b   5.20300816
_cell_length_c   10.07074400
_cell_angle_alpha   90.00006339
_cell_angle_beta   90.00086075
_cell_angle_gamma   120.00230675
_symmetry_Int_Tables_number   1
_chemical_formula_structural   LaTlCu2(TeO6)2
_chemical_formula_sum   'La1 Tl1 Cu2 Te2 O12'
_cell_volume   236.09674948
_cell_formula_units_Z   1
loop_
 _symmetry_equiv_pos_site_id
 _symmetry_equiv_pos_as_xyz
  1  'x, y, z'
loop_
 _atom_site_type_symbol
 _atom_site_label
 _atom_site_symmetry_multiplicity
 _atom_site_fract_x
 _atom_site_fract_y
 _atom_site_fract_z
 _atom_site_occupancy
  La  La0  1  0.000000  0.000000  0.000000  1
  Tl  Tl1  1  0.000000  0.000000  0.500000  1
  Cu  Cu2  1  0.333118  0.666686  0.257671  1
  Cu  Cu3  1  0.666882  0.333314  0.742329  1
  Te  Te4  1  0.666677  0.333321  0.259638  1
  Te  Te5  1  0.333323  0.666679  0.740362  1
  O  O6  1  0.630246  0.620556  0.148094  1
  O  O7  1  0.379438  0.009661  0.148103  1
  O  O8  1  0.990348  0.369772  0.148093  1
  O  O9  1  0.993387  0.633734  0.366188  1
  O  O10  1  0.366294  0.359632  0.366190  1
  O  O11  1  0.640378  0.006637  0.366191  1
  O  O12  1  0.006613  0.366266  0.633812  1
  O  O13  1  0.359622  0.993363  0.633809  1
  O  O14  1  0.633706  0.640368  0.633811  1
  O  O15  1  0.620564  0.990339  0.851896  1
  O  O16  1  0.369756  0.379444  0.851906  1
  O  O17  1  0.009654  0.630228  0.851907  1
