# generated using pymatgen
data_Zr6Al15ZnPt6Rh
_symmetry_space_group_name_H-M   'P 1'
_cell_length_a   8.78269527
_cell_length_b   8.78268832
_cell_length_c   8.77692357
_cell_angle_alpha   59.97822296
_cell_angle_beta   59.97821752
_cell_angle_gamma   59.99992169
_symmetry_Int_Tables_number   1
_chemical_formula_structural   Zr6Al15ZnPt6Rh
_chemical_formula_sum   'Zr6 Al15 Zn1 Pt6 Rh1'
_cell_volume   478.56319844
_cell_formula_units_Z   1
loop_
 _symmetry_equiv_pos_site_id
 _symmetry_equiv_pos_as_xyz
  1  'x, y, z'
loop_
 _atom_site_type_symbol
 _atom_site_label
 _atom_site_symmetry_multiplicity
 _atom_site_fract_x
 _atom_site_fract_y
 _atom_site_fract_z
 _atom_site_occupancy
  Zr  Zr0  1  0.686499  0.686499  0.314317  1
  Zr  Zr1  1  0.312683  0.686501  0.314315  1
  Zr  Zr2  1  0.686501  0.312683  0.314315  1
  Zr  Zr3  1  0.313861  0.313861  0.686148  1
  Zr  Zr4  1  0.686133  0.313859  0.686150  1
  Zr  Zr5  1  0.313860  0.686132  0.686149  1
  Al  Al6  1  0.881330  0.355518  0.881823  1
  Al  Al7  1  0.355517  0.881330  0.881823  1
  Al  Al8  1  0.881330  0.881330  0.881823  1
  Al  Al9  1  0.118772  0.118772  0.643683  1
  Al  Al10  1  0.116450  0.646566  0.120533  1
  Al  Al11  1  0.646565  0.116450  0.120533  1
  Al  Al12  1  0.116450  0.116451  0.120533  1
  Al  Al13  1  0.664507  0.664506  0.006479  1
  Al  Al14  1  0.666835  0.003969  0.662362  1
  Al  Al15  1  0.003970  0.666834  0.662362  1
  Al  Al16  1  0.666834  0.666834  0.662363  1
  Al  Al17  1  0.335064  0.335065  0.994807  1
  Al  Al18  1  0.336382  0.993215  0.334020  1
  Al  Al19  1  0.993215  0.336382  0.334020  1
  Al  Al20  1  0.336383  0.336383  0.334020  1
  Zn  Zn21  1  0.881345  0.881345  0.355962  1
  Pt  Pt22  1  0.001952  0.001952  0.504411  1
  Pt  Pt23  1  0.491685  0.001952  0.504411  1
  Pt  Pt24  1  0.001952  0.491685  0.504411  1
  Pt  Pt25  1  0.500392  0.500392  0.998691  1
  Pt  Pt26  1  0.000523  0.500393  0.998691  1
  Pt  Pt27  1  0.500393  0.000523  0.998691  1
  Rh  Rh28  1  0.002616  0.002618  0.992149  1
