# generated using pymatgen
data_PrGaAgPt3
_symmetry_space_group_name_H-M   'P 1'
_cell_length_a   5.55937527
_cell_length_b   5.26892583
_cell_length_c   5.55937600
_cell_angle_alpha   58.15908569
_cell_angle_beta   59.99999564
_cell_angle_gamma   58.15909094
_symmetry_Int_Tables_number   1
_chemical_formula_structural   PrGaAgPt3
_chemical_formula_sum   'Pr1 Ga1 Ag1 Pt3'
_cell_volume   111.83991325
_cell_formula_units_Z   1
loop_
 _symmetry_equiv_pos_site_id
 _symmetry_equiv_pos_as_xyz
  1  'x, y, z'
loop_
 _atom_site_type_symbol
 _atom_site_label
 _atom_site_symmetry_multiplicity
 _atom_site_fract_x
 _atom_site_fract_y
 _atom_site_fract_z
 _atom_site_occupancy
  Pr  Pr0  1  0.503845  0.488464  0.503845  1
  Ga  Ga1  1  0.122458  0.632626  0.122458  1
  Ag  Ag2  1  0.753505  0.739485  0.753505  1
  Pt  Pt3  1  0.121893  0.129809  0.626406  1
  Pt  Pt4  1  0.626406  0.129809  0.121893  1
  Pt  Pt5  1  0.121893  0.129809  0.121893  1
