# generated using pymatgen
data_Ho8Re3B24Ru
_symmetry_space_group_name_H-M   'P 1'
_cell_length_a   3.66787900
_cell_length_b   9.14722562
_cell_length_c   11.52548757
_cell_angle_alpha   90.10197645
_cell_angle_beta   90.00000000
_cell_angle_gamma   90.00000000
_symmetry_Int_Tables_number   1
_chemical_formula_structural   Ho8Re3B24Ru
_chemical_formula_sum   'Ho8 Re3 B24 Ru1'
_cell_volume   386.69006148
_cell_formula_units_Z   1
loop_
 _symmetry_equiv_pos_site_id
 _symmetry_equiv_pos_as_xyz
  1  'x, y, z'
loop_
 _atom_site_type_symbol
 _atom_site_label
 _atom_site_symmetry_multiplicity
 _atom_site_fract_x
 _atom_site_fract_y
 _atom_site_fract_z
 _atom_site_occupancy
  Ho  Ho0  1  0.000000  0.322537  0.414175  1
  Ho  Ho1  1  0.000000  0.677008  0.587332  1
  Ho  Ho2  1  0.000000  0.824471  0.084452  1
  Ho  Ho3  1  0.000000  0.176388  0.913731  1
  Ho  Ho4  1  0.000000  0.942253  0.369754  1
  Ho  Ho5  1  0.000000  0.056247  0.629473  1
  Ho  Ho6  1  0.000000  0.443341  0.130350  1
  Ho  Ho7  1  0.000000  0.556710  0.870813  1
  Re  Re8  1  0.000000  0.361862  0.678151  1
  Re  Re9  1  0.000000  0.138647  0.179623  1
  Re  Re10  1  0.000000  0.861387  0.820952  1
  B  B11  1  0.500000  0.554167  0.432736  1
  B  B12  1  0.500000  0.446752  0.566649  1
  B  B13  1  0.500000  0.053258  0.066745  1
  B  B14  1  0.500000  0.946649  0.933191  1
  B  B15  1  0.500000  0.748813  0.418668  1
  B  B16  1  0.500000  0.250357  0.580933  1
  B  B17  1  0.500000  0.249643  0.081052  1
  B  B18  1  0.500000  0.750832  0.918989  1
  B  B19  1  0.500000  0.791172  0.265587  1
  B  B20  1  0.500000  0.207586  0.734324  1
  B  B21  1  0.500000  0.292251  0.234805  1
  B  B22  1  0.500000  0.707529  0.765711  1
  B  B23  1  0.500000  0.631637  0.185822  1
  B  B24  1  0.500000  0.369046  0.814187  1
  B  B25  1  0.500000  0.131381  0.314881  1
  B  B26  1  0.500000  0.868583  0.685524  1
  B  B27  1  0.500000  0.982569  0.211910  1
  B  B28  1  0.500000  0.017441  0.787835  1
  B  B29  1  0.500000  0.483700  0.288175  1
  B  B30  1  0.500000  0.517841  0.712018  1
  B  B31  1  0.500000  0.601866  0.028791  1
  B  B32  1  0.500000  0.398574  0.972089  1
  B  B33  1  0.500000  0.100847  0.471494  1
  B  B34  1  0.500000  0.897980  0.528108  1
  Ru  Ru35  1  0.000000  0.638679  0.320975  1
