# generated using pymatgen
data_Pr2Re2I
_symmetry_space_group_name_H-M   'P 1'
_cell_length_a   4.22496200
_cell_length_b   4.22496337
_cell_length_c   18.48431300
_cell_angle_alpha   90.00000000
_cell_angle_beta   90.00000000
_cell_angle_gamma   119.99998930
_symmetry_Int_Tables_number   1
_chemical_formula_structural   Pr2Re2I
_chemical_formula_sum   'Pr4 Re4 I2'
_cell_volume   285.74572869
_cell_formula_units_Z   2
loop_
 _symmetry_equiv_pos_site_id
 _symmetry_equiv_pos_as_xyz
  1  'x, y, z'
loop_
 _atom_site_type_symbol
 _atom_site_label
 _atom_site_symmetry_multiplicity
 _atom_site_fract_x
 _atom_site_fract_y
 _atom_site_fract_z
 _atom_site_occupancy
  Pr  Pr0  1  0.000000  0.000000  0.113701  1
  Pr  Pr1  1  0.000000  0.000000  0.886299  1
  Pr  Pr2  1  0.000000  0.000000  0.613701  1
  Pr  Pr3  1  0.000000  0.000000  0.386299  1
  Re  Re4  1  0.333333  0.666667  0.515028  1
  Re  Re5  1  0.666667  0.333333  0.484972  1
  Re  Re6  1  0.666667  0.333333  0.015028  1
  Re  Re7  1  0.333333  0.666667  0.984972  1
  I  I8  1  0.333333  0.666667  0.250000  1
  I  I9  1  0.666667  0.333333  0.750000  1
