# generated using pymatgen
data_La3Nd2P12Ru16Rh3
_symmetry_space_group_name_H-M   'P 1'
_cell_length_a   12.67861900
_cell_length_b   12.67862000
_cell_length_c   4.03343100
_cell_angle_alpha   90.00000000
_cell_angle_beta   90.00000000
_cell_angle_gamma   120.00000001
_symmetry_Int_Tables_number   1
_chemical_formula_structural   La3Nd2P12Ru16Rh3
_chemical_formula_sum   'La3 Nd2 P12 Ru16 Rh3'
_cell_volume   561.49927530
_cell_formula_units_Z   1
loop_
 _symmetry_equiv_pos_site_id
 _symmetry_equiv_pos_as_xyz
  1  'x, y, z'
loop_
 _atom_site_type_symbol
 _atom_site_label
 _atom_site_symmetry_multiplicity
 _atom_site_fract_x
 _atom_site_fract_y
 _atom_site_fract_z
 _atom_site_occupancy
  La  La0  1  0.182822  0.182822  0.500000  1
  La  La1  1  0.817178  0.000000  0.500000  1
  La  La2  1  0.000000  0.817178  0.500000  1
  Nd  Nd3  1  0.333333  0.666667  0.000000  1
  Nd  Nd4  1  0.666667  0.333333  0.000000  1
  P  P5  1  0.809944  0.809944  0.000000  1
  P  P6  1  0.190056  0.000000  0.000000  1
  P  P7  1  0.000000  0.190056  0.000000  1
  P  P8  1  0.175915  0.476941  0.500000  1
  P  P9  1  0.523059  0.698973  0.500000  1
  P  P10  1  0.301027  0.824085  0.500000  1
  P  P11  1  0.698973  0.523059  0.500000  1
  P  P12  1  0.824085  0.301027  0.500000  1
  P  P13  1  0.476941  0.175915  0.500000  1
  P  P14  1  0.373700  0.373700  0.000000  1
  P  P15  1  0.626300  0.000000  0.000000  1
  P  P16  1  0.000000  0.626300  0.000000  1
  Ru  Ru17  1  0.711407  0.711407  0.500000  1
  Ru  Ru18  1  0.288593  0.000000  0.500000  1
  Ru  Ru19  1  0.000000  0.288593  0.500000  1
  Ru  Ru20  1  0.185678  0.379905  0.000000  1
  Ru  Ru21  1  0.620095  0.805773  0.000000  1
  Ru  Ru22  1  0.194227  0.814322  0.000000  1
  Ru  Ru23  1  0.805773  0.620095  0.000000  1
  Ru  Ru24  1  0.814322  0.194227  0.000000  1
  Ru  Ru25  1  0.379905  0.185678  0.000000  1
  Ru  Ru26  1  0.369331  0.492872  0.500000  1
  Ru  Ru27  1  0.507128  0.876460  0.500000  1
  Ru  Ru28  1  0.123540  0.630669  0.500000  1
  Ru  Ru29  1  0.876460  0.507128  0.500000  1
  Ru  Ru30  1  0.630669  0.123540  0.500000  1
  Ru  Ru31  1  0.492872  0.369331  0.500000  1
  Ru  Ru32  1  0.000000  0.000000  0.000000  1
  Rh  Rh33  1  0.553342  0.553342  0.000000  1
  Rh  Rh34  1  0.446658  0.000000  0.000000  1
  Rh  Rh35  1  0.000000  0.446658  0.000000  1
