# generated using pymatgen
data_DyYHo2(B6Ru)2
_symmetry_space_group_name_H-M   'P 1'
_cell_length_a   3.65372600
_cell_length_b   9.13288701
_cell_length_c   11.50674701
_cell_angle_alpha   89.99448109
_cell_angle_beta   90.00000000
_cell_angle_gamma   90.00000000
_symmetry_Int_Tables_number   1
_chemical_formula_structural   DyYHo2(B6Ru)2
_chemical_formula_sum   'Dy2 Y2 Ho4 B24 Ru4'
_cell_volume   383.96940710
_cell_formula_units_Z   2
loop_
 _symmetry_equiv_pos_site_id
 _symmetry_equiv_pos_as_xyz
  1  'x, y, z'
loop_
 _atom_site_type_symbol
 _atom_site_label
 _atom_site_symmetry_multiplicity
 _atom_site_fract_x
 _atom_site_fract_y
 _atom_site_fract_z
 _atom_site_occupancy
  Dy  Dy0  1  0.000000  0.822735  0.085995  1
  Dy  Dy1  1  0.000000  0.177265  0.914005  1
  Y  Y2  1  0.000000  0.322523  0.414019  1
  Y  Y3  1  0.000000  0.677477  0.585981  1
  Ho  Ho4  1  0.000000  0.943833  0.372220  1
  Ho  Ho5  1  0.000000  0.056167  0.627780  1
  Ho  Ho6  1  0.000000  0.443824  0.127687  1
  Ho  Ho7  1  0.000000  0.556176  0.872313  1
  B  B8  1  0.500000  0.554340  0.432776  1
  B  B9  1  0.500000  0.445660  0.567224  1
  B  B10  1  0.500000  0.054266  0.067108  1
  B  B11  1  0.500000  0.945734  0.932892  1
  B  B12  1  0.500000  0.748182  0.419525  1
  B  B13  1  0.500000  0.251818  0.580475  1
  B  B14  1  0.500000  0.248101  0.080279  1
  B  B15  1  0.500000  0.751899  0.919721  1
  B  B16  1  0.500000  0.791246  0.266297  1
  B  B17  1  0.500000  0.208754  0.733703  1
  B  B18  1  0.500000  0.291159  0.233511  1
  B  B19  1  0.500000  0.708841  0.766489  1
  B  B20  1  0.500000  0.631881  0.185062  1
  B  B21  1  0.500000  0.368119  0.814938  1
  B  B22  1  0.500000  0.131711  0.314784  1
  B  B23  1  0.500000  0.868289  0.685216  1
  B  B24  1  0.500000  0.983678  0.212955  1
  B  B25  1  0.500000  0.016322  0.787045  1
  B  B26  1  0.500000  0.483812  0.286892  1
  B  B27  1  0.500000  0.516188  0.713108  1
  B  B28  1  0.500000  0.608175  0.029821  1
  B  B29  1  0.500000  0.391825  0.970179  1
  B  B30  1  0.500000  0.108001  0.470212  1
  B  B31  1  0.500000  0.891999  0.529788  1
  Ru  Ru32  1  0.000000  0.638173  0.320830  1
  Ru  Ru33  1  0.000000  0.361827  0.679170  1
  Ru  Ru34  1  0.000000  0.137985  0.178894  1
  Ru  Ru35  1  0.000000  0.862015  0.821106  1
