# generated using pymatgen
data_TbHgO
_symmetry_space_group_name_H-M   'P 1'
_cell_length_a   3.91472200
_cell_length_b   3.91472200
_cell_length_c   7.90514500
_cell_angle_alpha   90.00000000
_cell_angle_beta   90.00000000
_cell_angle_gamma   90.00000000
_symmetry_Int_Tables_number   1
_chemical_formula_structural   TbHgO
_chemical_formula_sum   'Tb2 Hg2 O2'
_cell_volume   121.14672924
_cell_formula_units_Z   2
loop_
 _symmetry_equiv_pos_site_id
 _symmetry_equiv_pos_as_xyz
  1  'x, y, z'
loop_
 _atom_site_type_symbol
 _atom_site_label
 _atom_site_symmetry_multiplicity
 _atom_site_fract_x
 _atom_site_fract_y
 _atom_site_fract_z
 _atom_site_occupancy
  Tb  Tb0  1  0.500000  0.500000  0.359530  1
  Tb  Tb1  1  0.000000  0.000000  0.640471  1
  Hg  Hg2  1  0.000000  0.000000  0.095874  1
  Hg  Hg3  1  0.500000  0.500000  0.904124  1
  O  O4  1  0.500000  0.000000  0.499999  1
  O  O5  1  0.000000  0.500000  0.499999  1
