# generated using pymatgen
data_YbGd(TcB4)2
_symmetry_space_group_name_H-M   'P 1'
_cell_length_a   3.62410500
_cell_length_b   5.96073483
_cell_length_c   11.53244800
_cell_angle_alpha   90.09862123
_cell_angle_beta   90.00000000
_cell_angle_gamma   90.00000000
_symmetry_Int_Tables_number   1
_chemical_formula_structural   YbGd(TcB4)2
_chemical_formula_sum   'Yb2 Gd2 Tc4 B16'
_cell_volume   249.12736568
_cell_formula_units_Z   2
loop_
 _symmetry_equiv_pos_site_id
 _symmetry_equiv_pos_as_xyz
  1  'x, y, z'
loop_
 _atom_site_type_symbol
 _atom_site_label
 _atom_site_symmetry_multiplicity
 _atom_site_fract_x
 _atom_site_fract_y
 _atom_site_fract_z
 _atom_site_occupancy
  Yb  Yb0  1  0.000000  0.627407  0.851470  1
  Yb  Yb1  1  0.000000  0.372593  0.148530  1
  Gd  Gd2  1  0.000000  0.128424  0.652179  1
  Gd  Gd3  1  0.000000  0.871576  0.347821  1
  Tc  Tc4  1  0.000000  0.130450  0.916269  1
  Tc  Tc5  1  0.000000  0.869550  0.083731  1
  Tc  Tc6  1  0.000000  0.631779  0.585434  1
  Tc  Tc7  1  0.000000  0.368221  0.414566  1
  B  B8  1  0.500000  0.477453  0.693058  1
  B  B9  1  0.500000  0.522547  0.306942  1
  B  B10  1  0.500000  0.977445  0.808619  1
  B  B11  1  0.500000  0.022555  0.191381  1
  B  B12  1  0.500000  0.286174  0.816379  1
  B  B13  1  0.500000  0.713826  0.183621  1
  B  B14  1  0.500000  0.784536  0.685874  1
  B  B15  1  0.500000  0.215464  0.314126  1
  B  B16  1  0.500000  0.365009  0.967953  1
  B  B17  1  0.500000  0.634991  0.032047  1
  B  B18  1  0.500000  0.863320  0.532102  1
  B  B19  1  0.500000  0.136680  0.467898  1
  B  B20  1  0.500000  0.387623  0.547412  1
  B  B21  1  0.500000  0.612377  0.452588  1
  B  B22  1  0.500000  0.885981  0.953024  1
  B  B23  1  0.500000  0.114019  0.046976  1
