# generated using pymatgen
data_Sr4Pa2TlInO12
_symmetry_space_group_name_H-M   'P 1'
_cell_length_a   6.11796977
_cell_length_b   5.98044699
_cell_length_c   10.40137580
_cell_angle_alpha   55.21524636
_cell_angle_beta   89.92270403
_cell_angle_gamma   90.03902389
_symmetry_Int_Tables_number   1
_chemical_formula_structural   Sr4Pa2TlInO12
_chemical_formula_sum   'Sr4 Pa2 Tl1 In1 O12'
_cell_volume   312.55975870
_cell_formula_units_Z   1
loop_
 _symmetry_equiv_pos_site_id
 _symmetry_equiv_pos_as_xyz
  1  'x, y, z'
loop_
 _atom_site_type_symbol
 _atom_site_label
 _atom_site_symmetry_multiplicity
 _atom_site_fract_x
 _atom_site_fract_y
 _atom_site_fract_z
 _atom_site_occupancy
  Sr  Sr0  1  0.044003  0.240621  0.247913  1
  Sr  Sr1  1  0.546534  0.767517  0.245244  1
  Sr  Sr2  1  0.453466  0.232483  0.754756  1
  Sr  Sr3  1  0.955997  0.759379  0.752087  1
  Pa  Pa4  1  0.500000  0.500000  0.000000  1
  Pa  Pa5  1  0.000000  0.500000  0.500000  1
  Tl  Tl6  1  0.500000  0.000000  0.500000  1
  In  In7  1  0.000000  0.000000  0.000000  1
  O  O8  1  0.538202  0.640995  0.758112  1
  O  O9  1  0.035803  0.347807  0.748330  1
  O  O10  1  0.461798  0.359005  0.241888  1
  O  O11  1  0.964197  0.652193  0.251670  1
  O  O12  1  0.805825  0.844917  0.448460  1
  O  O13  1  0.295173  0.159546  0.047986  1
  O  O14  1  0.194175  0.155083  0.551540  1
  O  O15  1  0.704827  0.840454  0.952014  1
  O  O16  1  0.210240  0.756941  0.947313  1
  O  O17  1  0.709723  0.251176  0.556224  1
  O  O18  1  0.789760  0.243059  0.052687  1
  O  O19  1  0.290277  0.748824  0.443776  1
