# generated using pymatgen
data_AlFe2NiAgAu3O8
_symmetry_space_group_name_H-M   'P 1'
_cell_length_a   5.24813284
_cell_length_b   6.11958243
_cell_length_c   7.08042200
_cell_angle_alpha   64.37411894
_cell_angle_beta   75.81799224
_cell_angle_gamma   89.92076410
_symmetry_Int_Tables_number   1
_chemical_formula_structural   AlFe2NiAgAu3O8
_chemical_formula_sum   'Al1 Fe2 Ni1 Ag1 Au3 O8'
_cell_volume   197.35361071
_cell_formula_units_Z   1
loop_
 _symmetry_equiv_pos_site_id
 _symmetry_equiv_pos_as_xyz
  1  'x, y, z'
loop_
 _atom_site_type_symbol
 _atom_site_label
 _atom_site_symmetry_multiplicity
 _atom_site_fract_x
 _atom_site_fract_y
 _atom_site_fract_z
 _atom_site_occupancy
  Al  Al0  1  0.499992  0.250010  0.999994  1
  Fe  Fe1  1  0.003480  0.500168  0.999958  1
  Fe  Fe2  1  0.996543  0.999850  0.000004  1
  Ni  Ni3  1  0.499977  0.750078  0.000049  1
  Ag  Ag4  1  0.499996  0.749948  0.500006  1
  Au  Au5  1  0.010023  0.999799  0.497775  1
  Au  Au6  1  0.989981  0.500204  0.502217  1
  Au  Au7  1  0.500013  0.249971  0.499994  1
  O  O8  1  0.900620  0.834252  0.829109  1
  O  O9  1  0.871388  0.334333  0.836144  1
  O  O10  1  0.389689  0.560289  0.843650  1
  O  O11  1  0.389900  0.100051  0.834601  1
  O  O12  1  0.128612  0.165654  0.163844  1
  O  O13  1  0.099374  0.665756  0.170886  1
  O  O14  1  0.610317  0.939706  0.156363  1
  O  O15  1  0.610097  0.399930  0.165404  1
