# generated using pymatgen
data_Ti3NbSn6
_symmetry_space_group_name_H-M   'P 1'
_cell_length_a   10.51406658
_cell_length_b   10.51950800
_cell_length_c   7.04904535
_cell_angle_alpha   89.84046227
_cell_angle_beta   90.20410482
_cell_angle_gamma   146.63485389
_symmetry_Int_Tables_number   1
_chemical_formula_structural   Ti3NbSn6
_chemical_formula_sum   'Ti6 Nb2 Sn12'
_cell_volume   428.78035093
_cell_formula_units_Z   2
loop_
 _symmetry_equiv_pos_site_id
 _symmetry_equiv_pos_as_xyz
  1  'x, y, z'
loop_
 _atom_site_type_symbol
 _atom_site_label
 _atom_site_symmetry_multiplicity
 _atom_site_fract_x
 _atom_site_fract_y
 _atom_site_fract_z
 _atom_site_occupancy
  Ti  Ti0  1  0.913154  0.585783  0.249619  1
  Ti  Ti1  1  0.413030  0.087780  0.249309  1
  Ti  Ti2  1  0.580798  0.419377  0.545491  1
  Ti  Ti3  1  0.086702  0.413086  0.749983  1
  Ti  Ti4  1  0.919268  0.080267  0.045329  1
  Ti  Ti5  1  0.420319  0.580595  0.454007  1
  Nb  Nb6  1  0.080546  0.919344  0.955220  1
  Nb  Nb7  1  0.586031  0.914845  0.750020  1
  Sn  Sn8  1  0.223911  0.774771  0.927314  1
  Sn  Sn9  1  0.881558  0.124481  0.422837  1
  Sn  Sn10  1  0.723914  0.277237  0.573914  1
  Sn  Sn11  1  0.273413  0.721284  0.426484  1
  Sn  Sn12  1  0.769306  0.728525  0.252906  1
  Sn  Sn13  1  0.122592  0.878770  0.571651  1
  Sn  Sn14  1  0.375907  0.617825  0.076784  1
  Sn  Sn15  1  0.727882  0.769152  0.749826  1
  Sn  Sn16  1  0.778210  0.226639  0.073058  1
  Sn  Sn17  1  0.271642  0.230603  0.253033  1
  Sn  Sn18  1  0.229844  0.272414  0.750042  1
  Sn  Sn19  1  0.621973  0.377221  0.923173  1
