# generated using pymatgen
data_CsNaCdO2
_symmetry_space_group_name_H-M   'P 1'
_cell_length_a   7.29212914
_cell_length_b   7.47170300
_cell_length_c   7.29213262
_cell_angle_alpha   90.00006986
_cell_angle_beta   90.73754916
_cell_angle_gamma   90.00006726
_symmetry_Int_Tables_number   1
_chemical_formula_structural   CsNaCdO2
_chemical_formula_sum   'Cs4 Na4 Cd4 O8'
_cell_volume   397.27618044
_cell_formula_units_Z   4
loop_
 _symmetry_equiv_pos_site_id
 _symmetry_equiv_pos_as_xyz
  1  'x, y, z'
loop_
 _atom_site_type_symbol
 _atom_site_label
 _atom_site_symmetry_multiplicity
 _atom_site_fract_x
 _atom_site_fract_y
 _atom_site_fract_z
 _atom_site_occupancy
  Cs  Cs0  1  0.499994  0.999999  0.999996  1
  Cs  Cs1  1  0.999996  0.500000  0.499997  1
  Cs  Cs2  1  0.000001  0.250001  0.000000  1
  Cs  Cs3  1  0.000001  0.750000  0.000000  1
  Na  Na4  1  0.643743  0.249999  0.643743  1
  Na  Na5  1  0.356263  0.250000  0.356264  1
  Na  Na6  1  0.643744  0.750001  0.643743  1
  Na  Na7  1  0.356263  0.750000  0.356264  1
  Cd  Cd8  1  0.622517  0.499999  0.161917  1
  Cd  Cd9  1  0.161916  0.000000  0.622518  1
  Cd  Cd10  1  0.377475  0.500000  0.838076  1
  Cd  Cd11  1  0.838075  0.000000  0.377473  1
  O  O12  1  0.681905  0.749997  0.318099  1
  O  O13  1  0.681906  0.250004  0.318099  1
  O  O14  1  0.318099  0.249997  0.681909  1
  O  O15  1  0.318099  0.750005  0.681907  1
  O  O16  1  0.692718  0.500000  0.855604  1
  O  O17  1  0.307281  0.500000  0.144397  1
  O  O18  1  0.855604  0.000000  0.692716  1
  O  O19  1  0.144397  0.999999  0.307281  1
