# generated using pymatgen
data_Nd8Cd2CoOs
_symmetry_space_group_name_H-M   'P 1'
_cell_length_a   9.88091907
_cell_length_b   9.88091919
_cell_length_c   9.81220600
_cell_angle_alpha   60.22977535
_cell_angle_beta   60.22977497
_cell_angle_gamma   60.51209737
_symmetry_Int_Tables_number   1
_chemical_formula_structural   Nd8Cd2CoOs
_chemical_formula_sum   'Nd16 Cd4 Co2 Os2'
_cell_volume   682.35490249
_cell_formula_units_Z   2
loop_
 _symmetry_equiv_pos_site_id
 _symmetry_equiv_pos_as_xyz
  1  'x, y, z'
loop_
 _atom_site_type_symbol
 _atom_site_label
 _atom_site_symmetry_multiplicity
 _atom_site_fract_x
 _atom_site_fract_y
 _atom_site_fract_z
 _atom_site_occupancy
  Nd  Nd0  1  0.563384  0.941188  0.555943  1
  Nd  Nd1  1  0.190498  0.190498  0.809502  1
  Nd  Nd2  1  0.558079  0.558079  0.941921  1
  Nd  Nd3  1  0.960658  0.342349  0.348497  1
  Nd  Nd4  1  0.813245  0.191246  0.805573  1
  Nd  Nd5  1  0.191246  0.813245  0.189937  1
  Nd  Nd6  1  0.344165  0.344165  0.960595  1
  Nd  Nd7  1  0.342349  0.960658  0.348497  1
  Nd  Nd8  1  0.938093  0.938093  0.561907  1
  Nd  Nd9  1  0.941188  0.563384  0.555943  1
  Nd  Nd10  1  0.344165  0.344165  0.351075  1
  Nd  Nd11  1  0.808824  0.808824  0.191176  1
  Nd  Nd12  1  0.813245  0.191246  0.189937  1
  Nd  Nd13  1  0.563384  0.941188  0.939484  1
  Nd  Nd14  1  0.941188  0.563384  0.939484  1
  Nd  Nd15  1  0.191246  0.813245  0.805573  1
  Cd  Cd16  1  0.579029  0.579029  0.579270  1
  Cd  Cd17  1  0.579717  0.261051  0.579617  1
  Cd  Cd18  1  0.579029  0.579029  0.262674  1
  Cd  Cd19  1  0.261051  0.579717  0.579617  1
  Co  Co20  1  0.138344  0.138344  0.582398  1
  Co  Co21  1  0.138344  0.138344  0.140915  1
  Os  Os22  1  0.137490  0.582043  0.140235  1
  Os  Os23  1  0.582043  0.137490  0.140235  1
