# generated using pymatgen
data_Nd16MgCo(HgIr)3
_symmetry_space_group_name_H-M   'P 1'
_cell_length_a   9.91178588
_cell_length_b   9.91173144
_cell_length_c   9.91177237
_cell_angle_alpha   60.48014050
_cell_angle_beta   60.48091269
_cell_angle_gamma   60.48021822
_symmetry_Int_Tables_number   1
_chemical_formula_structural   Nd16MgCo(HgIr)3
_chemical_formula_sum   'Nd16 Mg1 Co1 Hg3 Ir3'
_cell_volume   696.03055413
_cell_formula_units_Z   1
loop_
 _symmetry_equiv_pos_site_id
 _symmetry_equiv_pos_as_xyz
  1  'x, y, z'
loop_
 _atom_site_type_symbol
 _atom_site_label
 _atom_site_symmetry_multiplicity
 _atom_site_fract_x
 _atom_site_fract_y
 _atom_site_fract_z
 _atom_site_occupancy
  Nd  Nd0  1  0.654746  0.041961  0.654744  1
  Nd  Nd1  1  0.808653  0.185988  0.808653  1
  Nd  Nd2  1  0.185989  0.808654  0.808656  1
  Nd  Nd3  1  0.060054  0.439652  0.439652  1
  Nd  Nd4  1  0.061020  0.061026  0.438195  1
  Nd  Nd5  1  0.439647  0.060064  0.439648  1
  Nd  Nd6  1  0.811382  0.189316  0.189319  1
  Nd  Nd7  1  0.438196  0.061026  0.061020  1
  Nd  Nd8  1  0.189327  0.811373  0.189330  1
  Nd  Nd9  1  0.439651  0.439653  0.060054  1
  Nd  Nd10  1  0.808656  0.808653  0.185990  1
  Nd  Nd11  1  0.189317  0.189317  0.811381  1
  Nd  Nd12  1  0.041958  0.654749  0.654744  1
  Nd  Nd13  1  0.649336  0.649325  0.649334  1
  Nd  Nd14  1  0.061024  0.438202  0.061025  1
  Nd  Nd15  1  0.654745  0.654749  0.041959  1
  Mg  Mg16  1  0.430326  0.430325  0.430327  1
  Co  Co17  1  0.858323  0.858320  0.858322  1
  Hg  Hg18  1  0.412507  0.412508  0.755373  1
  Hg  Hg19  1  0.755373  0.412508  0.412507  1
  Hg  Hg20  1  0.412509  0.755372  0.412509  1
  Ir  Ir21  1  0.856629  0.424002  0.856628  1
  Ir  Ir22  1  0.856632  0.856628  0.424002  1
  Ir  Ir23  1  0.424002  0.856628  0.856631  1
