# generated using pymatgen
data_Ho14Er6CoNi2Bi8Os
_symmetry_space_group_name_H-M   'P 1'
_cell_length_a   7.95941440
_cell_length_b   8.92912807
_cell_length_c   12.37581802
_cell_angle_alpha   89.98340783
_cell_angle_beta   89.77448605
_cell_angle_gamma   90.02961635
_symmetry_Int_Tables_number   1
_chemical_formula_structural   Ho14Er6CoNi2Bi8Os
_chemical_formula_sum   'Ho14 Er6 Co1 Ni2 Bi8 Os1'
_cell_volume   879.55022246
_cell_formula_units_Z   1
loop_
 _symmetry_equiv_pos_site_id
 _symmetry_equiv_pos_as_xyz
  1  'x, y, z'
loop_
 _atom_site_type_symbol
 _atom_site_label
 _atom_site_symmetry_multiplicity
 _atom_site_fract_x
 _atom_site_fract_y
 _atom_site_fract_z
 _atom_site_occupancy
  Ho  Ho0  1  0.345681  0.750008  0.702181  1
  Ho  Ho1  1  0.654579  0.249945  0.297584  1
  Ho  Ho2  1  0.846398  0.250271  0.797759  1
  Ho  Ho3  1  0.155085  0.749775  0.206463  1
  Ho  Ho4  1  0.879645  0.749563  0.804900  1
  Ho  Ho5  1  0.118597  0.250569  0.192221  1
  Ho  Ho6  1  0.380906  0.249827  0.691190  1
  Ho  Ho7  1  0.615903  0.750149  0.312099  1
  Ho  Ho8  1  0.824282  0.958283  0.063869  1
  Ho  Ho9  1  0.178052  0.040472  0.934347  1
  Ho  Ho10  1  0.052443  0.749982  0.498550  1
  Ho  Ho11  1  0.949560  0.249998  0.501382  1
  Ho  Ho12  1  0.551467  0.250390  0.002100  1
  Ho  Ho13  1  0.445146  0.749508  0.997674  1
  Er  Er14  1  0.674457  0.541374  0.563711  1
  Er  Er15  1  0.324151  0.463679  0.436372  1
  Er  Er16  1  0.177176  0.459066  0.934428  1
  Er  Er17  1  0.324091  0.036309  0.436413  1
  Er  Er18  1  0.825280  0.542100  0.063864  1
  Er  Er19  1  0.674478  0.958614  0.563676  1
  Co  Co20  1  0.433560  0.749995  0.492903  1
  Ni  Ni21  1  0.929944  0.250534  0.009822  1
  Ni  Ni22  1  0.565190  0.250102  0.508813  1
  Bi  Bi23  1  0.571304  0.508138  0.825936  1
  Bi  Bi24  1  0.430565  0.490714  0.173860  1
  Bi  Bi25  1  0.071380  0.489874  0.671627  1
  Bi  Bi26  1  0.429767  0.009402  0.173743  1
  Bi  Bi27  1  0.927544  0.508786  0.327653  1
  Bi  Bi28  1  0.571966  0.991706  0.826029  1
  Bi  Bi29  1  0.927878  0.991345  0.327601  1
  Bi  Bi30  1  0.071059  0.010019  0.671636  1
  Os  Os31  1  0.072465  0.749502  0.989596  1
