# generated using pymatgen
data_La2Dy3Er(RuO7)2
_symmetry_space_group_name_H-M   'P 1'
_cell_length_a   6.46505790
_cell_length_b   6.46440060
_cell_length_c   7.52742500
_cell_angle_alpha   90.00000000
_cell_angle_beta   90.00000000
_cell_angle_gamma   109.90714237
_symmetry_Int_Tables_number   1
_chemical_formula_structural   La2Dy3Er(RuO7)2
_chemical_formula_sum   'La2 Dy3 Er1 Ru2 O14'
_cell_volume   295.79339240
_cell_formula_units_Z   1
loop_
 _symmetry_equiv_pos_site_id
 _symmetry_equiv_pos_as_xyz
  1  'x, y, z'
loop_
 _atom_site_type_symbol
 _atom_site_label
 _atom_site_symmetry_multiplicity
 _atom_site_fract_x
 _atom_site_fract_y
 _atom_site_fract_z
 _atom_site_occupancy
  La  La0  1  0.000028  0.999568  0.500433  1
  La  La1  1  0.000028  0.999568  0.999567  1
  Dy  Dy2  1  0.518388  0.070504  0.250000  1
  Dy  Dy3  1  0.930129  0.481576  0.750000  1
  Dy  Dy4  1  0.070492  0.518252  0.250000  1
  Er  Er5  1  0.482641  0.932480  0.750000  1
  Ru  Ru6  1  0.499687  0.500169  0.500613  1
  Ru  Ru7  1  0.499687  0.500169  0.999387  1
  O  O8  1  0.589370  0.591188  0.750000  1
  O  O9  1  0.410672  0.410192  0.250000  1
  O  O10  1  0.834613  0.116712  0.750000  1
  O  O11  1  0.163402  0.882279  0.250000  1
  O  O12  1  0.121486  0.836354  0.750000  1
  O  O13  1  0.882089  0.162858  0.250000  1
  O  O14  1  0.444363  0.183235  0.961426  1
  O  O15  1  0.554923  0.817032  0.464431  1
  O  O16  1  0.182539  0.442053  0.962741  1
  O  O17  1  0.816819  0.556745  0.462846  1
  O  O18  1  0.444363  0.183235  0.538574  1
  O  O19  1  0.554923  0.817032  0.035569  1
  O  O20  1  0.816819  0.556745  0.037154  1
  O  O21  1  0.182539  0.442053  0.537259  1
