# generated using pymatgen
data_BiSb4
_symmetry_space_group_name_H-M   'P 1'
_cell_length_a   18.97503202
_cell_length_b   18.97503204
_cell_length_c   18.97503281
_cell_angle_alpha   13.69793078
_cell_angle_beta   13.69793153
_cell_angle_gamma   13.69793099
_symmetry_Int_Tables_number   1
_chemical_formula_structural   BiSb4
_chemical_formula_sum   'Bi2 Sb8'
_cell_volume   333.36220636
_cell_formula_units_Z   2
loop_
 _symmetry_equiv_pos_site_id
 _symmetry_equiv_pos_as_xyz
  1  'x, y, z'
loop_
 _atom_site_type_symbol
 _atom_site_label
 _atom_site_symmetry_multiplicity
 _atom_site_fract_x
 _atom_site_fract_y
 _atom_site_fract_z
 _atom_site_occupancy
  Bi  Bi0  1  0.706153  0.706153  0.706153  1
  Bi  Bi1  1  0.994246  0.994246  0.994246  1
  Sb  Sb2  1  0.504404  0.504404  0.504404  1
  Sb  Sb3  1  0.105693  0.105693  0.105693  1
  Sb  Sb4  1  0.301737  0.301737  0.301737  1
  Sb  Sb5  1  0.903613  0.903613  0.903613  1
  Sb  Sb6  1  0.594214  0.594214  0.594214  1
  Sb  Sb7  1  0.195050  0.195050  0.195050  1
  Sb  Sb8  1  0.796203  0.796203  0.796203  1
  Sb  Sb9  1  0.398686  0.398686  0.398686  1
