# generated using pymatgen
data_Tb5TmCrCo17P12
_symmetry_space_group_name_H-M   'P 1'
_cell_length_a   3.68654400
_cell_length_b   10.50840404
_cell_length_c   12.18468205
_cell_angle_alpha   89.98965789
_cell_angle_beta   89.99996565
_cell_angle_gamma   89.99999455
_symmetry_Int_Tables_number   1
_chemical_formula_structural   Tb5TmCrCo17P12
_chemical_formula_sum   'Tb5 Tm1 Cr1 Co17 P12'
_cell_volume   472.03084486
_cell_formula_units_Z   1
loop_
 _symmetry_equiv_pos_site_id
 _symmetry_equiv_pos_as_xyz
  1  'x, y, z'
loop_
 _atom_site_type_symbol
 _atom_site_label
 _atom_site_symmetry_multiplicity
 _atom_site_fract_x
 _atom_site_fract_y
 _atom_site_fract_z
 _atom_site_occupancy
  Tb  Tb0  1  0.000000  0.499919  0.523133  1
  Tb  Tb1  1  0.499998  0.000127  0.477417  1
  Tb  Tb2  1  0.499999  0.818099  0.206264  1
  Tb  Tb3  1  0.000000  0.682497  0.795711  1
  Tb  Tb4  1  0.000001  0.317564  0.795407  1
  Tm  Tm5  1  0.499999  0.182432  0.206372  1
  Cr  Cr6  1  0.500005  0.499558  0.155285  1
  Co  Co7  1  0.999996  0.000103  0.839895  1
  Co  Co8  1  0.499999  0.499853  0.703357  1
  Co  Co9  1  0.000000  0.001391  0.295671  1
  Co  Co10  1  0.000000  0.499365  0.988502  1
  Co  Co11  1  0.500000  0.000602  0.014949  1
  Co  Co12  1  0.500001  0.332000  0.994367  1
  Co  Co13  1  0.500000  0.667415  0.993795  1
  Co  Co14  1  0.000001  0.166729  0.006439  1
  Co  Co15  1  0.000000  0.833975  0.005808  1
  Co  Co16  1  0.500000  0.296408  0.429538  1
  Co  Co17  1  0.500000  0.703357  0.430409  1
  Co  Co18  1  0.000000  0.203192  0.568525  1
  Co  Co19  1  0.000000  0.796898  0.569121  1
  Co  Co20  1  0.500000  0.879553  0.708880  1
  Co  Co21  1  0.499999  0.120469  0.708682  1
  Co  Co22  1  0.000001  0.619715  0.290901  1
  Co  Co23  1  0.000001  0.378774  0.290097  1
  P  P24  1  0.500000  0.499751  0.883280  1
  P  P25  1  0.000001  0.001224  0.117377  1
  P  P26  1  0.500000  0.500018  0.346094  1
  P  P27  1  0.000000  0.999987  0.656265  1
  P  P28  1  0.500000  0.310209  0.615648  1
  P  P29  1  0.500000  0.689601  0.616071  1
  P  P30  1  0.000000  0.189107  0.382963  1
  P  P31  1  0.000000  0.811106  0.384463  1
  P  P32  1  0.499999  0.849709  0.892743  1
  P  P33  1  0.500000  0.150523  0.892351  1
  P  P34  1  0.000000  0.653941  0.106644  1
  P  P35  1  0.000001  0.344830  0.107570  1
