# generated using pymatgen
data_Rh(SeBr3)3
_symmetry_space_group_name_H-M   'P 1'
_cell_length_a   8.12803753
_cell_length_b   8.79448680
_cell_length_c   14.24559285
_cell_angle_alpha   82.42380067
_cell_angle_beta   87.61610332
_cell_angle_gamma   68.85224315
_symmetry_Int_Tables_number   1
_chemical_formula_structural   Rh(SeBr3)3
_chemical_formula_sum   'Rh2 Se6 Br18'
_cell_volume   941.41251244
_cell_formula_units_Z   2
loop_
 _symmetry_equiv_pos_site_id
 _symmetry_equiv_pos_as_xyz
  1  'x, y, z'
loop_
 _atom_site_type_symbol
 _atom_site_label
 _atom_site_symmetry_multiplicity
 _atom_site_fract_x
 _atom_site_fract_y
 _atom_site_fract_z
 _atom_site_occupancy
  Rh  Rh0  1  0.718045  0.785031  0.746705  1
  Rh  Rh1  1  0.281955  0.214969  0.253295  1
  Se  Se2  1  0.855050  0.922483  0.627823  1
  Se  Se3  1  0.144950  0.077517  0.372177  1
  Se  Se4  1  0.849407  0.853652  0.876232  1
  Se  Se5  1  0.150593  0.146348  0.123768  1
  Se  Se6  1  0.941064  0.511656  0.750622  1
  Se  Se7  1  0.058936  0.488344  0.249378  1
  Br  Br8  1  0.419843  0.011935  0.736451  1
  Br  Br9  1  0.580157  0.988065  0.263549  1
  Br  Br10  1  0.637391  0.608828  0.887638  1
  Br  Br11  1  0.362609  0.391172  0.112362  1
  Br  Br12  1  0.628520  0.622649  0.634620  1
  Br  Br13  1  0.371480  0.377351  0.365380  1
  Br  Br14  1  0.739461  0.939431  0.474631  1
  Br  Br15  1  0.260539  0.060569  0.525369  1
  Br  Br16  1  0.738829  0.207527  0.644538  1
  Br  Br17  1  0.261171  0.792473  0.355462  1
  Br  Br18  1  0.102488  0.916558  0.813044  1
  Br  Br19  1  0.897512  0.083442  0.186956  1
  Br  Br20  1  0.670771  0.108456  0.924113  1
  Br  Br21  1  0.329229  0.891544  0.075887  1
  Br  Br22  1  0.134149  0.523111  0.620492  1
  Br  Br23  1  0.865851  0.476889  0.379508  1
  Br  Br24  1  0.147323  0.461566  0.879432  1
  Br  Br25  1  0.852677  0.538434  0.120568  1
