# generated using pymatgen
data_Ca2Er2Tc3B16W
_symmetry_space_group_name_H-M   'P 1'
_cell_length_a   3.57339900
_cell_length_b   6.00008021
_cell_length_c   11.59399772
_cell_angle_alpha   89.86600067
_cell_angle_beta   90.00000000
_cell_angle_gamma   90.00000000
_symmetry_Int_Tables_number   1
_chemical_formula_structural   Ca2Er2Tc3B16W
_chemical_formula_sum   'Ca2 Er2 Tc3 B16 W1'
_cell_volume   248.58252226
_cell_formula_units_Z   1
loop_
 _symmetry_equiv_pos_site_id
 _symmetry_equiv_pos_as_xyz
  1  'x, y, z'
loop_
 _atom_site_type_symbol
 _atom_site_label
 _atom_site_symmetry_multiplicity
 _atom_site_fract_x
 _atom_site_fract_y
 _atom_site_fract_z
 _atom_site_occupancy
  Ca  Ca0  1  0.000000  0.625398  0.349364  1
  Ca  Ca1  1  0.000000  0.372163  0.650028  1
  Er  Er2  1  0.000000  0.128375  0.151390  1
  Er  Er3  1  0.000000  0.872036  0.850113  1
  Tc  Tc4  1  0.000000  0.632531  0.084445  1
  Tc  Tc5  1  0.000000  0.367578  0.916655  1
  Tc  Tc6  1  0.000000  0.128974  0.414723  1
  B  B7  1  0.500000  0.785446  0.184868  1
  B  B8  1  0.500000  0.215313  0.816323  1
  B  B9  1  0.500000  0.285696  0.314267  1
  B  B10  1  0.500000  0.710876  0.687765  1
  B  B11  1  0.500000  0.864353  0.031557  1
  B  B12  1  0.500000  0.135949  0.969214  1
  B  B13  1  0.500000  0.365274  0.466182  1
  B  B14  1  0.500000  0.631628  0.531132  1
  B  B15  1  0.500000  0.887950  0.450589  1
  B  B16  1  0.500000  0.117425  0.545667  1
  B  B17  1  0.500000  0.387148  0.047888  1
  B  B18  1  0.500000  0.613325  0.952800  1
  B  B19  1  0.500000  0.979224  0.305734  1
  B  B20  1  0.500000  0.024818  0.694761  1
  B  B21  1  0.500000  0.476395  0.191964  1
  B  B22  1  0.500000  0.522796  0.808772  1
  W  W23  1  0.000000  0.869328  0.583797  1
