# generated using pymatgen
data_ScTiFe3P7Ru9
_symmetry_space_group_name_H-M   'P 1'
_cell_length_a   9.22878500
_cell_length_b   9.22878403
_cell_length_c   3.79603900
_cell_angle_alpha   90.00000000
_cell_angle_beta   90.00000000
_cell_angle_gamma   119.99999894
_symmetry_Int_Tables_number   1
_chemical_formula_structural   ScTiFe3P7Ru9
_chemical_formula_sum   'Sc1 Ti1 Fe3 P7 Ru9'
_cell_volume   279.99502401
_cell_formula_units_Z   1
loop_
 _symmetry_equiv_pos_site_id
 _symmetry_equiv_pos_as_xyz
  1  'x, y, z'
loop_
 _atom_site_type_symbol
 _atom_site_label
 _atom_site_symmetry_multiplicity
 _atom_site_fract_x
 _atom_site_fract_y
 _atom_site_fract_z
 _atom_site_occupancy
  Sc  Sc0  1  0.333333  0.666667  0.000000  1
  Ti  Ti1  1  0.666667  0.333333  0.500000  1
  Fe  Fe2  1  0.728472  0.887232  0.000000  1
  Fe  Fe3  1  0.112768  0.841239  0.000000  1
  Fe  Fe4  1  0.158761  0.271528  0.000000  1
  P  P5  1  0.600484  0.720869  0.500000  1
  P  P6  1  0.000000  0.000000  0.000000  1
  P  P7  1  0.279131  0.879615  0.500000  1
  P  P8  1  0.120385  0.399516  0.500000  1
  P  P9  1  0.889277  0.582785  0.000000  1
  P  P10  1  0.417215  0.306492  0.000000  1
  P  P11  1  0.693508  0.110723  0.000000  1
  Ru  Ru12  1  0.558428  0.947888  0.500000  1
  Ru  Ru13  1  0.389461  0.441572  0.500000  1
  Ru  Ru14  1  0.911838  0.117274  0.500000  1
  Ru  Ru15  1  0.205436  0.088162  0.500000  1
  Ru  Ru16  1  0.882726  0.794564  0.500000  1
  Ru  Ru17  1  0.426711  0.069673  0.000000  1
  Ru  Ru18  1  0.930327  0.357039  0.000000  1
  Ru  Ru19  1  0.642961  0.573289  0.000000  1
  Ru  Ru20  1  0.052112  0.610539  0.500000  1
