# generated using pymatgen
data_Tm6Lu4Ru3Rh
_symmetry_space_group_name_H-M   'P 1'
_cell_length_a   6.22485852
_cell_length_b   7.24084831
_cell_length_c   8.30181822
_cell_angle_alpha   96.85018827
_cell_angle_beta   112.01399790
_cell_angle_gamma   90.09012561
_symmetry_Int_Tables_number   1
_chemical_formula_structural   Tm6Lu4Ru3Rh
_chemical_formula_sum   'Tm6 Lu4 Ru3 Rh1'
_cell_volume   343.99657622
_cell_formula_units_Z   1
loop_
 _symmetry_equiv_pos_site_id
 _symmetry_equiv_pos_as_xyz
  1  'x, y, z'
loop_
 _atom_site_type_symbol
 _atom_site_label
 _atom_site_symmetry_multiplicity
 _atom_site_fract_x
 _atom_site_fract_y
 _atom_site_fract_z
 _atom_site_occupancy
  Tm  Tm0  1  0.524982  0.084319  0.814887  1
  Tm  Tm1  1  0.475701  0.917812  0.183644  1
  Tm  Tm2  1  0.710276  0.415434  0.183796  1
  Tm  Tm3  1  0.288990  0.583447  0.810649  1
  Tm  Tm4  1  0.292782  0.313354  0.436740  1
  Tm  Tm5  1  0.708716  0.684153  0.566404  1
  Lu  Lu6  1  0.855490  0.182609  0.563916  1
  Lu  Lu7  1  0.141317  0.819855  0.437533  1
  Lu  Lu8  1  0.080355  0.248124  0.998052  1
  Lu  Lu9  1  0.918553  0.750956  0.000162  1
  Ru  Ru10  1  0.677726  0.424238  0.780918  1
  Ru  Ru11  1  0.105754  0.922338  0.781245  1
  Ru  Ru12  1  0.897136  0.076776  0.219526  1
  Rh  Rh13  1  0.322222  0.576587  0.222529  1
