# generated using pymatgen
data_Tb10In8Pt3Rh
_symmetry_space_group_name_H-M   'P 1'
_cell_length_a   3.66087200
_cell_length_b   8.16603627
_cell_length_c   18.31508261
_cell_angle_alpha   90.02967265
_cell_angle_beta   90.00000000
_cell_angle_gamma   90.00000000
_symmetry_Int_Tables_number   1
_chemical_formula_structural   Tb10In8Pt3Rh
_chemical_formula_sum   'Tb10 In8 Pt3 Rh1'
_cell_volume   547.52590639
_cell_formula_units_Z   1
loop_
 _symmetry_equiv_pos_site_id
 _symmetry_equiv_pos_as_xyz
  1  'x, y, z'
loop_
 _atom_site_type_symbol
 _atom_site_label
 _atom_site_symmetry_multiplicity
 _atom_site_fract_x
 _atom_site_fract_y
 _atom_site_fract_z
 _atom_site_occupancy
  Tb  Tb0  1  0.000000  0.114554  0.412402  1
  Tb  Tb1  1  0.000000  0.883312  0.585063  1
  Tb  Tb2  1  0.000000  0.383624  0.914855  1
  Tb  Tb3  1  0.000000  0.616486  0.085692  1
  Tb  Tb4  1  0.000000  0.239803  0.220906  1
  Tb  Tb5  1  0.000000  0.757250  0.780273  1
  Tb  Tb6  1  0.000000  0.257050  0.720023  1
  Tb  Tb7  1  0.000000  0.749383  0.280079  1
  Tb  Tb8  1  0.000000  0.999902  0.000079  1
  Tb  Tb9  1  0.000000  0.500216  0.499877  1
  In  In10  1  0.500000  0.423054  0.351390  1
  In  In11  1  0.500000  0.576123  0.648635  1
  In  In12  1  0.500000  0.076150  0.851353  1
  In  In13  1  0.500000  0.926069  0.149695  1
  In  In14  1  0.500000  0.291488  0.066712  1
  In  In15  1  0.500000  0.708019  0.933331  1
  In  In16  1  0.500000  0.208107  0.566688  1
  In  In17  1  0.500000  0.793008  0.431870  1
  Pt  Pt18  1  0.500000  0.974818  0.696695  1
  Pt  Pt19  1  0.500000  0.475008  0.803154  1
  Pt  Pt20  1  0.500000  0.523545  0.197084  1
  Rh  Rh21  1  0.500000  0.023032  0.304146  1
