# generated using pymatgen
data_Th2IrCl2
_symmetry_space_group_name_H-M   'P 1'
_cell_length_a   4.14499200
_cell_length_b   4.14499168
_cell_length_c   11.99491600
_cell_angle_alpha   90.00000000
_cell_angle_beta   90.00000000
_cell_angle_gamma   120.00000256
_symmetry_Int_Tables_number   1
_chemical_formula_structural   Th2IrCl2
_chemical_formula_sum   'Th2 Ir1 Cl2'
_cell_volume   178.47409614
_cell_formula_units_Z   1
loop_
 _symmetry_equiv_pos_site_id
 _symmetry_equiv_pos_as_xyz
  1  'x, y, z'
loop_
 _atom_site_type_symbol
 _atom_site_label
 _atom_site_symmetry_multiplicity
 _atom_site_fract_x
 _atom_site_fract_y
 _atom_site_fract_z
 _atom_site_occupancy
  Th  Th0  1  0.666667  0.333333  0.630655  1
  Th  Th1  1  0.333333  0.666667  0.369345  1
  Ir  Ir2  1  0.000000  0.000000  0.500000  1
  Cl  Cl3  1  0.666667  0.333333  0.213500  1
  Cl  Cl4  1  0.333333  0.666667  0.786500  1
