# generated using pymatgen
data_Ac5PrAl3Zn(Si3Au)2
_symmetry_space_group_name_H-M   'P 1'
_cell_length_a   4.29587700
_cell_length_b   4.29587722
_cell_length_c   27.51923200
_cell_angle_alpha   90.00000000
_cell_angle_beta   90.00000000
_cell_angle_gamma   120.00002142
_symmetry_Int_Tables_number   1
_chemical_formula_structural   Ac5PrAl3Zn(Si3Au)2
_chemical_formula_sum   'Ac5 Pr1 Al3 Zn1 Si6 Au2'
_cell_volume   439.81551530
_cell_formula_units_Z   1
loop_
 _symmetry_equiv_pos_site_id
 _symmetry_equiv_pos_as_xyz
  1  'x, y, z'
loop_
 _atom_site_type_symbol
 _atom_site_label
 _atom_site_symmetry_multiplicity
 _atom_site_fract_x
 _atom_site_fract_y
 _atom_site_fract_z
 _atom_site_occupancy
  Ac  Ac0  1  0.000000  0.000000  0.337592  1
  Ac  Ac1  1  0.000000  0.000000  0.826710  1
  Ac  Ac2  1  0.000000  0.000000  0.167376  1
  Ac  Ac3  1  0.000000  0.000000  0.997603  1
  Ac  Ac4  1  0.000000  0.000000  0.505242  1
  Pr  Pr5  1  0.000000  0.000000  0.666208  1
  Al  Al6  1  0.666667  0.333333  0.910801  1
  Al  Al7  1  0.666667  0.333333  0.741186  1
  Al  Al8  1  0.666667  0.333333  0.590409  1
  Zn  Zn9  1  0.333333  0.666667  0.420780  1
  Si  Si10  1  0.333333  0.666667  0.587464  1
  Si  Si11  1  0.333333  0.666667  0.914748  1
  Si  Si12  1  0.333333  0.666667  0.743682  1
  Si  Si13  1  0.666667  0.333333  0.251238  1
  Si  Si14  1  0.666667  0.333333  0.084011  1
  Si  Si15  1  0.666667  0.333333  0.420916  1
  Au  Au16  1  0.333333  0.666667  0.253092  1
  Au  Au17  1  0.333333  0.666667  0.080938  1
