# generated using pymatgen
data_Y3Er13In4Pd3Rh
_symmetry_space_group_name_H-M   'P 1'
_cell_length_a   9.66439811
_cell_length_b   9.66770257
_cell_length_c   9.65425768
_cell_angle_alpha   59.78773441
_cell_angle_beta   59.82335439
_cell_angle_gamma   59.97397002
_symmetry_Int_Tables_number   1
_chemical_formula_structural   Y3Er13In4Pd3Rh
_chemical_formula_sum   'Y3 Er13 In4 Pd3 Rh1'
_cell_volume   635.81994323
_cell_formula_units_Z   1
loop_
 _symmetry_equiv_pos_site_id
 _symmetry_equiv_pos_as_xyz
  1  'x, y, z'
loop_
 _atom_site_type_symbol
 _atom_site_label
 _atom_site_symmetry_multiplicity
 _atom_site_fract_x
 _atom_site_fract_y
 _atom_site_fract_z
 _atom_site_occupancy
  Y  Y0  1  0.190121  0.190655  0.809516  1
  Y  Y1  1  0.440355  0.062356  0.062562  1
  Y  Y2  1  0.435883  0.065456  0.435591  1
  Er  Er3  1  0.062079  0.440826  0.062836  1
  Er  Er4  1  0.650460  0.055420  0.649929  1
  Er  Er5  1  0.184396  0.810366  0.811552  1
  Er  Er6  1  0.062007  0.062650  0.440179  1
  Er  Er7  1  0.809704  0.190224  0.190216  1
  Er  Er8  1  0.811699  0.810516  0.184364  1
  Er  Er9  1  0.650291  0.650086  0.055449  1
  Er  Er10  1  0.647693  0.647145  0.647346  1
  Er  Er11  1  0.065025  0.436555  0.435237  1
  Er  Er12  1  0.055569  0.650048  0.649742  1
  Er  Er13  1  0.811043  0.184416  0.811071  1
  Er  Er14  1  0.435777  0.436800  0.064958  1
  Er  Er15  1  0.190034  0.809063  0.190459  1
  In  In16  1  0.416412  0.750102  0.416537  1
  In  In17  1  0.416390  0.416482  0.750279  1
  In  In18  1  0.750369  0.416381  0.416443  1
  In  In19  1  0.415664  0.415835  0.415594  1
  Pd  Pd20  1  0.854287  0.432114  0.856218  1
  Pd  Pd21  1  0.856330  0.855934  0.430991  1
  Pd  Pd22  1  0.431875  0.853985  0.856391  1
  Rh  Rh23  1  0.856539  0.856586  0.856542  1
