# generated using pymatgen
data_ZrTi(NbSe2)8
_symmetry_space_group_name_H-M   'P 1'
_cell_length_a   7.00569600
_cell_length_b   7.00569452
_cell_length_c   13.25450900
_cell_angle_alpha   90.00000000
_cell_angle_beta   90.00000000
_cell_angle_gamma   120.00000698
_symmetry_Int_Tables_number   1
_chemical_formula_structural   ZrTi(NbSe2)8
_chemical_formula_sum   'Zr1 Ti1 Nb8 Se16'
_cell_volume   563.37390858
_cell_formula_units_Z   1
loop_
 _symmetry_equiv_pos_site_id
 _symmetry_equiv_pos_as_xyz
  1  'x, y, z'
loop_
 _atom_site_type_symbol
 _atom_site_label
 _atom_site_symmetry_multiplicity
 _atom_site_fract_x
 _atom_site_fract_y
 _atom_site_fract_z
 _atom_site_occupancy
  Zr  Zr0  1  0.000000  0.000000  0.500000  1
  Ti  Ti1  1  0.000000  0.000000  0.000000  1
  Nb  Nb2  1  0.000000  0.000000  0.243964  1
  Nb  Nb3  1  0.000000  0.000000  0.756036  1
  Nb  Nb4  1  0.506634  0.013266  0.242714  1
  Nb  Nb5  1  0.986734  0.493366  0.242714  1
  Nb  Nb6  1  0.506634  0.493366  0.242714  1
  Nb  Nb7  1  0.493366  0.986734  0.757286  1
  Nb  Nb8  1  0.013266  0.506634  0.757286  1
  Nb  Nb9  1  0.493366  0.506634  0.757286  1
  Se  Se10  1  0.333333  0.666667  0.886938  1
  Se  Se11  1  0.666667  0.333333  0.113062  1
  Se  Se12  1  0.666667  0.333333  0.372801  1
  Se  Se13  1  0.333333  0.666667  0.627199  1
  Se  Se14  1  0.169851  0.830149  0.369868  1
  Se  Se15  1  0.169851  0.339702  0.369868  1
  Se  Se16  1  0.660298  0.830149  0.369868  1
  Se  Se17  1  0.830149  0.169851  0.630132  1
  Se  Se18  1  0.830149  0.660298  0.630132  1
  Se  Se19  1  0.339702  0.169851  0.630132  1
  Se  Se20  1  0.832251  0.167749  0.882566  1
  Se  Se21  1  0.832251  0.664502  0.882566  1
  Se  Se22  1  0.335498  0.167749  0.882566  1
  Se  Se23  1  0.167749  0.832251  0.117434  1
  Se  Se24  1  0.167749  0.335498  0.117434  1
  Se  Se25  1  0.664502  0.832251  0.117434  1
