# generated using pymatgen
data_Nd10GaSI15
_symmetry_space_group_name_H-M   'P 1'
_cell_length_a   9.98382295
_cell_length_b   10.77860630
_cell_length_c   11.78689300
_cell_angle_alpha   91.20082890
_cell_angle_beta   114.59899816
_cell_angle_gamma   110.68090010
_symmetry_Int_Tables_number   1
_chemical_formula_structural   Nd10GaSI15
_chemical_formula_sum   'Nd10 Ga1 S1 I15'
_cell_volume   1057.73215372
_cell_formula_units_Z   1
loop_
 _symmetry_equiv_pos_site_id
 _symmetry_equiv_pos_as_xyz
  1  'x, y, z'
loop_
 _atom_site_type_symbol
 _atom_site_label
 _atom_site_symmetry_multiplicity
 _atom_site_fract_x
 _atom_site_fract_y
 _atom_site_fract_z
 _atom_site_occupancy
  Nd  Nd0  1  0.788161  0.405124  0.270228  1
  Nd  Nd1  1  0.195252  0.584532  0.717400  1
  Nd  Nd2  1  0.677389  0.743331  0.818472  1
  Nd  Nd3  1  0.335853  0.258455  0.174680  1
  Nd  Nd4  1  0.526578  0.690079  0.100977  1
  Nd  Nd5  1  0.477851  0.299957  0.914842  1
  Nd  Nd6  1  0.583390  0.047006  0.321426  1
  Nd  Nd7  1  0.411690  0.961522  0.666523  1
  Nd  Nd8  1  0.728078  0.083864  0.055802  1
  Nd  Nd9  1  0.275239  0.932731  0.956892  1
  Ga  Ga10  1  0.469062  0.825318  0.883180  1
  S  S11  1  0.531407  0.169876  0.116524  1
  I  I12  1  0.999535  0.002172  0.002850  1
  I  I13  1  0.638866  0.882863  0.578809  1
  I  I14  1  0.358627  0.119446  0.413230  1
  I  I15  1  0.884474  0.297425  0.528284  1
  I  I16  1  0.110118  0.697215  0.464345  1
  I  I17  1  0.289951  0.762361  0.179139  1
  I  I18  1  0.709983  0.239486  0.822824  1
  I  I19  1  0.061177  0.345588  0.229011  1
  I  I20  1  0.165406  0.060195  0.705256  1
  I  I21  1  0.834087  0.942910  0.297235  1
  I  I22  1  0.222196  0.405532  0.939346  1
  I  I23  1  0.776669  0.590473  0.057172  1
  I  I24  1  0.409156  0.455850  0.659479  1
  I  I25  1  0.595625  0.538580  0.352081  1
  I  I26  1  0.944179  0.658110  0.773991  1
