# generated using pymatgen
data_TiHgF6
_symmetry_space_group_name_H-M   'P 1'
_cell_length_a   5.87547976
_cell_length_b   5.87548042
_cell_length_c   5.87548003
_cell_angle_alpha   54.83622576
_cell_angle_beta   54.83622681
_cell_angle_gamma   54.83623179
_symmetry_Int_Tables_number   1
_chemical_formula_structural   TiHgF6
_chemical_formula_sum   'Ti1 Hg1 F6'
_cell_volume   126.17884128
_cell_formula_units_Z   1
loop_
 _symmetry_equiv_pos_site_id
 _symmetry_equiv_pos_as_xyz
  1  'x, y, z'
loop_
 _atom_site_type_symbol
 _atom_site_label
 _atom_site_symmetry_multiplicity
 _atom_site_fract_x
 _atom_site_fract_y
 _atom_site_fract_z
 _atom_site_occupancy
  Ti  Ti0  1  0.000000  0.000000  0.000000  1
  Hg  Hg1  1  0.500000  0.500000  0.500000  1
  F  F2  1  0.904152  0.221545  0.653554  1
  F  F3  1  0.221545  0.653554  0.904152  1
  F  F4  1  0.346446  0.095848  0.778455  1
  F  F5  1  0.778455  0.346446  0.095848  1
  F  F6  1  0.095848  0.778455  0.346446  1
  F  F7  1  0.653554  0.904152  0.221545  1
