# generated using pymatgen
data_TbMn2Fe2MoP3
_symmetry_space_group_name_H-M   'P 1'
_cell_length_a   3.69683300
_cell_length_b   10.55045000
_cell_length_c   12.20609700
_cell_angle_alpha   90.00000000
_cell_angle_beta   90.00000000
_cell_angle_gamma   90.00000000
_symmetry_Int_Tables_number   1
_chemical_formula_structural   TbMn2Fe2MoP3
_chemical_formula_sum   'Tb4 Mn8 Fe8 Mo4 P12'
_cell_volume   476.07747387
_cell_formula_units_Z   4
loop_
 _symmetry_equiv_pos_site_id
 _symmetry_equiv_pos_as_xyz
  1  'x, y, z'
loop_
 _atom_site_type_symbol
 _atom_site_label
 _atom_site_symmetry_multiplicity
 _atom_site_fract_x
 _atom_site_fract_y
 _atom_site_fract_z
 _atom_site_occupancy
  Tb  Tb0  1  0.250000  0.582831  0.710065  1
  Tb  Tb1  1  0.250000  0.917169  0.210065  1
  Tb  Tb2  1  0.750000  0.417169  0.289935  1
  Tb  Tb3  1  0.750000  0.082831  0.789935  1
  Mn  Mn4  1  0.250000  0.408746  0.493230  1
  Mn  Mn5  1  0.250000  0.091254  0.993230  1
  Mn  Mn6  1  0.750000  0.591254  0.506770  1
  Mn  Mn7  1  0.750000  0.908746  0.006770  1
  Mn  Mn8  1  0.250000  0.216768  0.177078  1
  Mn  Mn9  1  0.250000  0.283232  0.677078  1
  Mn  Mn10  1  0.750000  0.783232  0.822922  1
  Mn  Mn11  1  0.750000  0.716768  0.322922  1
  Fe  Fe12  1  0.250000  0.876518  0.699184  1
  Fe  Fe13  1  0.250000  0.623482  0.199184  1
  Fe  Fe14  1  0.750000  0.123482  0.300816  1
  Fe  Fe15  1  0.750000  0.376518  0.800816  1
  Fe  Fe16  1  0.250000  0.463472  0.933929  1
  Fe  Fe17  1  0.250000  0.036528  0.433929  1
  Fe  Fe18  1  0.750000  0.536528  0.066071  1
  Fe  Fe19  1  0.750000  0.963472  0.566071  1
  Mo  Mo20  1  0.250000  0.706101  0.987443  1
  Mo  Mo21  1  0.250000  0.793899  0.487443  1
  Mo  Mo22  1  0.750000  0.293899  0.012557  1
  Mo  Mo23  1  0.750000  0.206101  0.512557  1
  P  P24  1  0.250000  0.428908  0.112314  1
  P  P25  1  0.250000  0.071092  0.612314  1
  P  P26  1  0.750000  0.571092  0.887686  1
  P  P27  1  0.750000  0.928908  0.387686  1
  P  P28  1  0.250000  0.268302  0.867701  1
  P  P29  1  0.250000  0.231698  0.367701  1
  P  P30  1  0.750000  0.731698  0.132299  1
  P  P31  1  0.750000  0.768302  0.632299  1
  P  P32  1  0.250000  0.592993  0.385274  1
  P  P33  1  0.250000  0.907007  0.885274  1
  P  P34  1  0.750000  0.407007  0.614726  1
  P  P35  1  0.750000  0.092993  0.114726  1
