# generated using pymatgen
data_YbLu2(Si3Os)4
_symmetry_space_group_name_H-M   'P 1'
_cell_length_a   10.12046112
_cell_length_b   10.12046056
_cell_length_c   8.13588700
_cell_angle_alpha   90.00000000
_cell_angle_beta   90.00000000
_cell_angle_gamma   132.56478145
_symmetry_Int_Tables_number   1
_chemical_formula_structural   YbLu2(Si3Os)4
_chemical_formula_sum   'Yb2 Lu4 Si24 Os8'
_cell_volume   613.74209100
_cell_formula_units_Z   2
loop_
 _symmetry_equiv_pos_site_id
 _symmetry_equiv_pos_as_xyz
  1  'x, y, z'
loop_
 _atom_site_type_symbol
 _atom_site_label
 _atom_site_symmetry_multiplicity
 _atom_site_fract_x
 _atom_site_fract_y
 _atom_site_fract_z
 _atom_site_occupancy
  Yb  Yb0  1  0.501138  0.001138  0.250000  1
  Yb  Yb1  1  0.998862  0.498862  0.750000  1
  Lu  Lu2  1  0.502555  0.002555  0.750000  1
  Lu  Lu3  1  0.997445  0.497445  0.250000  1
  Lu  Lu4  1  0.999906  0.000094  0.000000  1
  Lu  Lu5  1  0.500094  0.499906  0.500000  1
  Si  Si6  1  0.794560  0.205440  0.500000  1
  Si  Si7  1  0.705440  0.294560  0.000000  1
  Si  Si8  1  0.204692  0.795308  0.500000  1
  Si  Si9  1  0.295308  0.704692  0.000000  1
  Si  Si10  1  0.673777  0.661511  0.167239  1
  Si  Si11  1  0.161511  0.173777  0.332761  1
  Si  Si12  1  0.826223  0.838489  0.667239  1
  Si  Si13  1  0.338489  0.326223  0.832761  1
  Si  Si14  1  0.845269  0.610254  0.997280  1
  Si  Si15  1  0.110254  0.345269  0.502720  1
  Si  Si16  1  0.654731  0.889746  0.497280  1
  Si  Si17  1  0.389746  0.154731  0.002720  1
  Si  Si18  1  0.154048  0.387679  0.008464  1
  Si  Si19  1  0.887679  0.654048  0.491536  1
  Si  Si20  1  0.126023  0.891713  0.728906  1
  Si  Si21  1  0.391713  0.626023  0.771094  1
  Si  Si22  1  0.373977  0.608287  0.228906  1
  Si  Si23  1  0.108287  0.873977  0.271094  1
  Si  Si24  1  0.878950  0.113864  0.272134  1
  Si  Si25  1  0.613864  0.378950  0.227866  1
  Si  Si26  1  0.621050  0.386136  0.772134  1
  Si  Si27  1  0.886136  0.121050  0.727866  1
  Si  Si28  1  0.612321  0.845952  0.991536  1
  Si  Si29  1  0.345952  0.112321  0.508464  1
  Os  Os30  1  0.626426  0.627749  0.872499  1
  Os  Os31  1  0.127749  0.126426  0.627501  1
  Os  Os32  1  0.372251  0.373574  0.127501  1
  Os  Os33  1  0.873574  0.872251  0.372499  1
  Os  Os34  1  0.170209  0.829791  0.000000  1
  Os  Os35  1  0.329791  0.670209  0.500000  1
  Os  Os36  1  0.831456  0.168544  0.000000  1
  Os  Os37  1  0.668544  0.331456  0.500000  1
