# generated using pymatgen
data_Hf2V3Co
_symmetry_space_group_name_H-M   'P 1'
_cell_length_a   5.09841756
_cell_length_b   5.09841797
_cell_length_c   5.09949506
_cell_angle_alpha   60.00699033
_cell_angle_beta   60.00698580
_cell_angle_gamma   60.00000447
_symmetry_Int_Tables_number   1
_chemical_formula_structural   Hf2V3Co
_chemical_formula_sum   'Hf2 V3 Co1'
_cell_volume   93.74085130
_cell_formula_units_Z   1
loop_
 _symmetry_equiv_pos_site_id
 _symmetry_equiv_pos_as_xyz
  1  'x, y, z'
loop_
 _atom_site_type_symbol
 _atom_site_label
 _atom_site_symmetry_multiplicity
 _atom_site_fract_x
 _atom_site_fract_y
 _atom_site_fract_z
 _atom_site_occupancy
  Hf  Hf0  1  0.250798  0.250798  0.247605  1
  Hf  Hf1  1  0.999202  0.999202  0.002395  1
  V  V2  1  0.625000  0.125000  0.625000  1
  V  V3  1  0.125000  0.625000  0.625000  1
  V  V4  1  0.625000  0.625000  0.625000  1
  Co  Co5  1  0.625000  0.625000  0.125000  1
