# generated using pymatgen
data_Ho2Hf3Si4
_symmetry_space_group_name_H-M   'P 1'
_cell_length_a   7.26464100
_cell_length_b   7.26464100
_cell_length_c   13.33646500
_cell_angle_alpha   90.00000000
_cell_angle_beta   90.00000000
_cell_angle_gamma   90.00000000
_symmetry_Int_Tables_number   1
_chemical_formula_structural   Ho2Hf3Si4
_chemical_formula_sum   'Ho8 Hf12 Si16'
_cell_volume   703.83205852
_cell_formula_units_Z   4
loop_
 _symmetry_equiv_pos_site_id
 _symmetry_equiv_pos_as_xyz
  1  'x, y, z'
loop_
 _atom_site_type_symbol
 _atom_site_label
 _atom_site_symmetry_multiplicity
 _atom_site_fract_x
 _atom_site_fract_y
 _atom_site_fract_z
 _atom_site_occupancy
  Ho  Ho0  1  0.495482  0.153511  0.534884  1
  Ho  Ho1  1  0.504518  0.846489  0.034884  1
  Ho  Ho2  1  0.653511  0.004518  0.284884  1
  Ho  Ho3  1  0.346489  0.995482  0.784884  1
  Ho  Ho4  1  0.846489  0.504518  0.965116  1
  Ho  Ho5  1  0.153511  0.495482  0.465116  1
  Ho  Ho6  1  0.004518  0.653511  0.715116  1
  Ho  Ho7  1  0.995482  0.346489  0.215116  1
  Hf  Hf8  1  0.676140  0.323860  0.750000  1
  Hf  Hf9  1  0.323860  0.676140  0.250000  1
  Hf  Hf10  1  0.823860  0.823860  0.500000  1
  Hf  Hf11  1  0.176140  0.176140  0.000000  1
  Hf  Hf12  1  0.496269  0.352884  0.125194  1
  Hf  Hf13  1  0.503731  0.647116  0.625194  1
  Hf  Hf14  1  0.852884  0.003731  0.875194  1
  Hf  Hf15  1  0.147116  0.996269  0.375194  1
  Hf  Hf16  1  0.647116  0.503731  0.374806  1
  Hf  Hf17  1  0.352884  0.496269  0.874806  1
  Hf  Hf18  1  0.003731  0.852884  0.124806  1
  Hf  Hf19  1  0.996269  0.147116  0.624806  1
  Si  Si20  1  0.795501  0.140517  0.067898  1
  Si  Si21  1  0.204499  0.859483  0.567898  1
  Si  Si22  1  0.640517  0.704499  0.817898  1
  Si  Si23  1  0.359483  0.295501  0.317898  1
  Si  Si24  1  0.859483  0.204499  0.432102  1
  Si  Si25  1  0.140517  0.795501  0.932102  1
  Si  Si26  1  0.704499  0.640517  0.182102  1
  Si  Si27  1  0.295501  0.359483  0.682102  1
  Si  Si28  1  0.550598  0.205338  0.935955  1
  Si  Si29  1  0.449402  0.794662  0.435955  1
  Si  Si30  1  0.705338  0.949402  0.685955  1
  Si  Si31  1  0.294662  0.050598  0.185955  1
  Si  Si32  1  0.794662  0.449402  0.564045  1
  Si  Si33  1  0.205338  0.550598  0.064045  1
  Si  Si34  1  0.949402  0.705338  0.314045  1
  Si  Si35  1  0.050598  0.294662  0.814045  1
