# generated using pymatgen
data_Lu6PaFe22
_symmetry_space_group_name_H-M   'P 1'
_cell_length_a   8.42327402
_cell_length_b   8.42379311
_cell_length_c   8.42327400
_cell_angle_alpha   119.99884114
_cell_angle_beta   90.00344185
_cell_angle_gamma   119.99884103
_symmetry_Int_Tables_number   1
_chemical_formula_structural   Lu6PaFe22
_chemical_formula_sum   'Lu6 Pa1 Fe22'
_cell_volume   422.62649560
_cell_formula_units_Z   1
loop_
 _symmetry_equiv_pos_site_id
 _symmetry_equiv_pos_as_xyz
  1  'x, y, z'
loop_
 _atom_site_type_symbol
 _atom_site_label
 _atom_site_symmetry_multiplicity
 _atom_site_fract_x
 _atom_site_fract_y
 _atom_site_fract_z
 _atom_site_occupancy
  Lu  Lu0  1  0.706174  0.000033  0.293818  1
  Lu  Lu1  1  0.293882  0.000079  0.293882  1
  Lu  Lu2  1  0.293782  0.587560  0.293782  1
  Lu  Lu3  1  0.706198  0.999990  0.706198  1
  Lu  Lu4  1  0.293818  0.000033  0.706174  1
  Lu  Lu5  1  0.706099  0.412287  0.706099  1
  Pa  Pa6  1  0.000207  0.000438  0.000207  1
  Fe  Fe7  1  0.500034  0.000060  0.000054  1
  Fe  Fe8  1  0.000000  0.499950  0.000000  1
  Fe  Fe9  1  0.499914  0.499940  0.999941  1
  Fe  Fe10  1  0.673933  0.347813  0.021737  1
  Fe  Fe11  1  0.371657  0.247836  0.123923  1
  Fe  Fe12  1  0.876204  0.247790  0.123904  1
  Fe  Fe13  1  0.876070  0.752188  0.123864  1
  Fe  Fe14  1  0.673915  0.347818  0.326107  1
  Fe  Fe15  1  0.673864  0.652138  0.326096  1
  Fe  Fe16  1  0.978279  0.652134  0.326073  1
  Fe  Fe17  1  0.123923  0.247836  0.371657  1
  Fe  Fe18  1  0.000054  0.000060  0.500034  1
  Fe  Fe19  1  0.999941  0.499940  0.499914  1
  Fe  Fe20  1  0.499950  0.499910  0.499950  1
  Fe  Fe21  1  0.876073  0.752136  0.628245  1
  Fe  Fe22  1  0.021737  0.347813  0.673933  1
  Fe  Fe23  1  0.326107  0.347818  0.673915  1
  Fe  Fe24  1  0.326096  0.652138  0.673864  1
  Fe  Fe25  1  0.123904  0.247790  0.876204  1
  Fe  Fe26  1  0.123864  0.752188  0.876070  1
  Fe  Fe27  1  0.628245  0.752136  0.876073  1
  Fe  Fe28  1  0.326073  0.652134  0.978279  1
