# generated using pymatgen
data_TaNb(B3Mo)2
_symmetry_space_group_name_H-M   'P 1'
_cell_length_a   9.73662954
_cell_length_b   9.73663061
_cell_length_c   3.09866900
_cell_angle_alpha   90.00000000
_cell_angle_beta   90.00000000
_cell_angle_gamma   160.54418859
_symmetry_Int_Tables_number   1
_chemical_formula_structural   TaNb(B3Mo)2
_chemical_formula_sum   'Ta1 Nb1 B6 Mo2'
_cell_volume   97.84548067
_cell_formula_units_Z   1
loop_
 _symmetry_equiv_pos_site_id
 _symmetry_equiv_pos_as_xyz
  1  'x, y, z'
loop_
 _atom_site_type_symbol
 _atom_site_label
 _atom_site_symmetry_multiplicity
 _atom_site_fract_x
 _atom_site_fract_y
 _atom_site_fract_z
 _atom_site_occupancy
  Ta  Ta0  1  0.071112  0.928885  0.749999  1
  Nb  Nb1  1  0.929262  0.070735  0.250001  1
  B  B2  1  0.617991  0.382006  0.250001  1
  B  B3  1  0.523848  0.476149  0.250001  1
  B  B4  1  0.330826  0.669171  0.250001  1
  B  B5  1  0.668622  0.331375  0.749999  1
  B  B6  1  0.476668  0.523329  0.749999  1
  B  B7  1  0.381634  0.618363  0.749999  1
  Mo  Mo8  1  0.202010  0.797987  0.250001  1
  Mo  Mo9  1  0.798013  0.201984  0.749999  1
