# generated using pymatgen
data_Ti6ReP4
_symmetry_space_group_name_H-M   'P 1'
_cell_length_a   7.41168724
_cell_length_b   7.41168789
_cell_length_c   13.46770221
_cell_angle_alpha   76.08010028
_cell_angle_beta   76.08009886
_cell_angle_gamma   26.64042199
_symmetry_Int_Tables_number   1
_chemical_formula_structural   Ti6ReP4
_chemical_formula_sum   'Ti12 Re2 P8'
_cell_volume   321.43227204
_cell_formula_units_Z   2
loop_
 _symmetry_equiv_pos_site_id
 _symmetry_equiv_pos_as_xyz
  1  'x, y, z'
loop_
 _atom_site_type_symbol
 _atom_site_label
 _atom_site_symmetry_multiplicity
 _atom_site_fract_x
 _atom_site_fract_y
 _atom_site_fract_z
 _atom_site_occupancy
  Ti  Ti0  1  0.431119  0.431119  0.168835  1
  Ti  Ti1  1  0.568881  0.568881  0.831165  1
  Ti  Ti2  1  0.196247  0.196247  0.691137  1
  Ti  Ti3  1  0.803753  0.803753  0.308863  1
  Ti  Ti4  1  0.208032  0.208032  0.205222  1
  Ti  Ti5  1  0.791968  0.791968  0.794778  1
  Ti  Ti6  1  0.341980  0.341980  0.967646  1
  Ti  Ti7  1  0.658020  0.658020  0.032354  1
  Ti  Ti8  1  0.003076  0.003076  0.339028  1
  Ti  Ti9  1  0.996924  0.996924  0.660972  1
  Ti  Ti10  1  0.176261  0.176261  0.459396  1
  Ti  Ti11  1  0.823739  0.823739  0.540604  1
  Re  Re12  1  0.000000  0.000000  0.000000  1
  Re  Re13  1  0.500000  0.500000  0.500000  1
  P  P14  1  0.176874  0.176874  0.890448  1
  P  P15  1  0.823126  0.823126  0.109552  1
  P  P16  1  0.371777  0.371777  0.396896  1
  P  P17  1  0.628223  0.628223  0.603104  1
  P  P18  1  0.370026  0.370026  0.659961  1
  P  P19  1  0.629974  0.629974  0.340039  1
  P  P20  1  0.061610  0.061610  0.151627  1
  P  P21  1  0.938390  0.938390  0.848373  1
