# generated using pymatgen
data_Hf5ZrTa4Ga2(Si2N)2
_symmetry_space_group_name_H-M   'P 1'
_cell_length_a   7.74711800
_cell_length_b   7.73468312
_cell_length_c   5.41903400
_cell_angle_alpha   90.00000000
_cell_angle_beta   90.00000000
_cell_angle_gamma   120.05320440
_symmetry_Int_Tables_number   1
_chemical_formula_structural   Hf5ZrTa4Ga2(Si2N)2
_chemical_formula_sum   'Hf5 Zr1 Ta4 Ga2 Si4 N2'
_cell_volume   281.06199161
_cell_formula_units_Z   1
loop_
 _symmetry_equiv_pos_site_id
 _symmetry_equiv_pos_as_xyz
  1  'x, y, z'
loop_
 _atom_site_type_symbol
 _atom_site_label
 _atom_site_symmetry_multiplicity
 _atom_site_fract_x
 _atom_site_fract_y
 _atom_site_fract_z
 _atom_site_occupancy
  Hf  Hf0  1  0.762679  0.999948  0.750000  1
  Hf  Hf1  1  0.003494  0.237443  0.250000  1
  Hf  Hf2  1  0.999104  0.764266  0.750000  1
  Hf  Hf3  1  0.763245  0.762727  0.250000  1
  Hf  Hf4  1  0.235381  0.236219  0.750000  1
  Zr  Zr5  1  0.240538  0.002909  0.250000  1
  Ta  Ta6  1  0.334255  0.663779  0.998311  1
  Ta  Ta7  1  0.665068  0.334378  0.998253  1
  Ta  Ta8  1  0.665068  0.334378  0.501747  1
  Ta  Ta9  1  0.334255  0.663779  0.501689  1
  Ga  Ga10  1  0.594380  0.000257  0.250000  1
  Ga  Ga11  1  0.000285  0.591944  0.250000  1
  Si  Si12  1  0.406958  0.998491  0.750000  1
  Si  Si13  1  0.998750  0.407650  0.750000  1
  Si  Si14  1  0.408986  0.409074  0.250000  1
  Si  Si15  1  0.593178  0.592944  0.750000  1
  N  N16  1  0.997187  0.999908  0.998623  1
  N  N17  1  0.997187  0.999908  0.501377  1
