# generated using pymatgen
data_Tb2Al3Tc14C3
_symmetry_space_group_name_H-M   'P 1'
_cell_length_a   6.95224572
_cell_length_b   6.95224496
_cell_length_c   6.95224502
_cell_angle_alpha   82.14683461
_cell_angle_beta   82.14683201
_cell_angle_gamma   82.14683255
_symmetry_Int_Tables_number   1
_chemical_formula_structural   Tb2Al3Tc14C3
_chemical_formula_sum   'Tb2 Al3 Tc14 C3'
_cell_volume   327.36327910
_cell_formula_units_Z   1
loop_
 _symmetry_equiv_pos_site_id
 _symmetry_equiv_pos_as_xyz
  1  'x, y, z'
loop_
 _atom_site_type_symbol
 _atom_site_label
 _atom_site_symmetry_multiplicity
 _atom_site_fract_x
 _atom_site_fract_y
 _atom_site_fract_z
 _atom_site_occupancy
  Tb  Tb0  1  0.659128  0.659128  0.659128  1
  Tb  Tb1  1  0.340872  0.340872  0.340872  1
  Al  Al2  1  0.000000  0.000000  0.500000  1
  Al  Al3  1  0.500000  0.000000  0.000000  1
  Al  Al4  1  0.000000  0.500000  0.000000  1
  Tc  Tc5  1  0.722893  0.277107  0.000000  1
  Tc  Tc6  1  0.000000  0.722893  0.277107  1
  Tc  Tc7  1  0.277107  0.000000  0.722893  1
  Tc  Tc8  1  0.000000  0.277107  0.722893  1
  Tc  Tc9  1  0.722893  0.000000  0.277107  1
  Tc  Tc10  1  0.277107  0.722893  0.000000  1
  Tc  Tc11  1  0.351715  0.351715  0.849280  1
  Tc  Tc12  1  0.849280  0.351715  0.351715  1
  Tc  Tc13  1  0.351715  0.849280  0.351715  1
  Tc  Tc14  1  0.648285  0.648285  0.150720  1
  Tc  Tc15  1  0.150720  0.648285  0.648285  1
  Tc  Tc16  1  0.648285  0.150720  0.648285  1
  Tc  Tc17  1  0.904261  0.904261  0.904261  1
  Tc  Tc18  1  0.095739  0.095739  0.095739  1
  C  C19  1  0.500000  0.500000  0.000000  1
  C  C20  1  0.000000  0.500000  0.500000  1
  C  C21  1  0.500000  0.000000  0.500000  1
