# generated using pymatgen
data_V3Cd2O8
_symmetry_space_group_name_H-M   'P 1'
_cell_length_a   6.35716088
_cell_length_b   6.35716112
_cell_length_c   4.99008356
_cell_angle_alpha   72.10794157
_cell_angle_beta   72.10794420
_cell_angle_gamma   58.33492563
_symmetry_Int_Tables_number   1
_chemical_formula_structural   V3Cd2O8
_chemical_formula_sum   'V3 Cd2 O8'
_cell_volume   160.67002708
_cell_formula_units_Z   1
loop_
 _symmetry_equiv_pos_site_id
 _symmetry_equiv_pos_as_xyz
  1  'x, y, z'
loop_
 _atom_site_type_symbol
 _atom_site_label
 _atom_site_symmetry_multiplicity
 _atom_site_fract_x
 _atom_site_fract_y
 _atom_site_fract_z
 _atom_site_occupancy
  V  V0  1  0.000000  0.000000  0.500000  1
  V  V1  1  0.733172  0.266828  0.000000  1
  V  V2  1  0.266828  0.733172  0.000000  1
  Cd  Cd3  1  0.720397  0.720397  0.339375  1
  Cd  Cd4  1  0.279603  0.279603  0.660625  1
  O  O5  1  0.399660  0.399660  0.939641  1
  O  O6  1  0.600340  0.600340  0.060359  1
  O  O7  1  0.901750  0.901750  0.891682  1
  O  O8  1  0.098250  0.098250  0.108318  1
  O  O9  1  0.326669  0.887612  0.613976  1
  O  O10  1  0.887612  0.326669  0.613976  1
  O  O11  1  0.112388  0.673331  0.386024  1
  O  O12  1  0.673331  0.112388  0.386024  1
