# generated using pymatgen
data_Tm12TlFe2TcAu
_symmetry_space_group_name_H-M   'P 1'
_cell_length_a   8.18783050
_cell_length_b   8.18801565
_cell_length_c   8.18783245
_cell_angle_alpha   110.59815336
_cell_angle_beta   107.61808314
_cell_angle_gamma   110.21246296
_symmetry_Int_Tables_number   1
_chemical_formula_structural   Tm12TlFe2TcAu
_chemical_formula_sum   'Tm12 Tl1 Fe2 Tc1 Au1'
_cell_volume   422.23586947
_cell_formula_units_Z   1
loop_
 _symmetry_equiv_pos_site_id
 _symmetry_equiv_pos_as_xyz
  1  'x, y, z'
loop_
 _atom_site_type_symbol
 _atom_site_label
 _atom_site_symmetry_multiplicity
 _atom_site_fract_x
 _atom_site_fract_y
 _atom_site_fract_z
 _atom_site_occupancy
  Tm  Tm0  1  0.193035  0.446879  0.253844  1
  Tm  Tm1  1  0.806965  0.553121  0.746156  1
  Tm  Tm2  1  0.193053  0.939218  0.746164  1
  Tm  Tm3  1  0.960068  0.191610  0.768446  1
  Tm  Tm4  1  0.806947  0.060782  0.253836  1
  Tm  Tm5  1  0.039932  0.808390  0.231554  1
  Tm  Tm6  1  0.423163  0.191610  0.231543  1
  Tm  Tm7  1  0.576837  0.808390  0.768457  1
  Tm  Tm8  1  0.307814  0.309382  0.617221  1
  Tm  Tm9  1  0.692186  0.690618  0.382779  1
  Tm  Tm10  1  0.692161  0.309382  0.001568  1
  Tm  Tm11  1  0.307839  0.690618  0.998432  1
  Tl  Tl12  1  0.500000  0.000000  0.500000  1
  Fe  Fe13  1  0.382257  0.382234  0.999977  1
  Fe  Fe14  1  0.617743  0.617766  0.000023  1
  Tc  Tc15  1  0.000000  0.000000  0.000000  1
  Au  Au16  1  0.000000  0.500000  0.500000  1
