# generated using pymatgen
data_Tb4HoTm11(Ga3Co)2
_symmetry_space_group_name_H-M   'P 1'
_cell_length_a   9.89709500
_cell_length_b   9.89535955
_cell_length_c   6.91927000
_cell_angle_alpha   89.99678407
_cell_angle_beta   90.00000000
_cell_angle_gamma   120.00579834
_symmetry_Int_Tables_number   1
_chemical_formula_structural   Tb4HoTm11(Ga3Co)2
_chemical_formula_sum   'Tb4 Ho1 Tm11 Ga6 Co2'
_cell_volume   586.81992166
_cell_formula_units_Z   1
loop_
 _symmetry_equiv_pos_site_id
 _symmetry_equiv_pos_as_xyz
  1  'x, y, z'
loop_
 _atom_site_type_symbol
 _atom_site_label
 _atom_site_symmetry_multiplicity
 _atom_site_fract_x
 _atom_site_fract_y
 _atom_site_fract_z
 _atom_site_occupancy
  Tb  Tb0  1  0.071261  0.535707  0.291680  1
  Tb  Tb1  1  0.464446  0.535707  0.291680  1
  Tb  Tb2  1  0.000028  0.000056  0.769110  1
  Tb  Tb3  1  0.000000  0.999999  0.269337  1
  Ho  Ho4  1  0.464296  0.928593  0.291826  1
  Tm  Tm5  1  0.826025  0.652050  0.490074  1
  Tm  Tm6  1  0.347992  0.173845  0.489941  1
  Tm  Tm7  1  0.825853  0.173845  0.489941  1
  Tm  Tm8  1  0.173658  0.347315  0.986287  1
  Tm  Tm9  1  0.652476  0.826329  0.986429  1
  Tm  Tm10  1  0.173854  0.826329  0.986429  1
  Tm  Tm11  1  0.666592  0.333184  0.172396  1
  Tm  Tm12  1  0.333420  0.666842  0.674149  1
  Tm  Tm13  1  0.537241  0.074482  0.792583  1
  Tm  Tm14  1  0.925407  0.462711  0.792572  1
  Tm  Tm15  1  0.537304  0.462711  0.792572  1
  Ga  Ga16  1  0.835778  0.671557  0.040607  1
  Ga  Ga17  1  0.328446  0.164195  0.040704  1
  Ga  Ga18  1  0.835747  0.164195  0.040704  1
  Ga  Ga19  1  0.163530  0.327060  0.542625  1
  Ga  Ga20  1  0.672813  0.836512  0.542467  1
  Ga  Ga21  1  0.163701  0.836512  0.542467  1
  Co  Co22  1  0.666657  0.333312  0.555878  1
  Co  Co23  1  0.333475  0.666950  0.053616  1
