# generated using pymatgen
data_Dy3YZn4Ir3Pd
_symmetry_space_group_name_H-M   'P 1'
_cell_length_a   4.09238300
_cell_length_b   6.99802217
_cell_length_c   8.13361600
_cell_angle_alpha   90.13475346
_cell_angle_beta   90.00000000
_cell_angle_gamma   90.00000000
_symmetry_Int_Tables_number   1
_chemical_formula_structural   Dy3YZn4Ir3Pd
_chemical_formula_sum   'Dy3 Y1 Zn4 Ir3 Pd1'
_cell_volume   232.93462508
_cell_formula_units_Z   1
loop_
 _symmetry_equiv_pos_site_id
 _symmetry_equiv_pos_as_xyz
  1  'x, y, z'
loop_
 _atom_site_type_symbol
 _atom_site_label
 _atom_site_symmetry_multiplicity
 _atom_site_fract_x
 _atom_site_fract_y
 _atom_site_fract_z
 _atom_site_occupancy
  Dy  Dy0  1  0.250000  0.029226  0.323173  1
  Dy  Dy1  1  0.750000  0.964273  0.683756  1
  Dy  Dy2  1  0.750000  0.469885  0.809236  1
  Y  Y3  1  0.250000  0.544500  0.185052  1
  Zn  Zn4  1  0.250000  0.640431  0.566099  1
  Zn  Zn5  1  0.250000  0.138177  0.932162  1
  Zn  Zn6  1  0.750000  0.359649  0.435970  1
  Zn  Zn7  1  0.750000  0.857798  0.066266  1
  Ir  Ir8  1  0.250000  0.256151  0.620649  1
  Ir  Ir9  1  0.250000  0.757909  0.880264  1
  Ir  Ir10  1  0.750000  0.742416  0.379234  1
  Pd  Pd11  1  0.750000  0.239582  0.118140  1
