# generated using pymatgen
data_YbPr17(YIr6)2
_symmetry_space_group_name_H-M   'P 1'
_cell_length_a   11.31038200
_cell_length_b   11.31038200
_cell_length_c   6.55931700
_cell_angle_alpha   90.00000000
_cell_angle_beta   90.00000000
_cell_angle_gamma   90.00000000
_symmetry_Int_Tables_number   1
_chemical_formula_structural   YbPr17(YIr6)2
_chemical_formula_sum   'Yb1 Pr17 Y2 Ir12'
_cell_volume   839.09892827
_cell_formula_units_Z   1
loop_
 _symmetry_equiv_pos_site_id
 _symmetry_equiv_pos_as_xyz
  1  'x, y, z'
loop_
 _atom_site_type_symbol
 _atom_site_label
 _atom_site_symmetry_multiplicity
 _atom_site_fract_x
 _atom_site_fract_y
 _atom_site_fract_z
 _atom_site_occupancy
  Yb  Yb0  1  0.000000  0.000000  0.000000  1
  Pr  Pr1  1  0.290785  0.088591  0.384171  1
  Pr  Pr2  1  0.288456  0.912483  0.884107  1
  Pr  Pr3  1  0.711544  0.087517  0.884107  1
  Pr  Pr4  1  0.709215  0.911409  0.384171  1
  Pr  Pr5  1  0.588130  0.789029  0.883028  1
  Pr  Pr6  1  0.588772  0.211638  0.383292  1
  Pr  Pr7  1  0.411228  0.788362  0.383292  1
  Pr  Pr8  1  0.411870  0.210971  0.883028  1
  Pr  Pr9  1  0.211638  0.411228  0.616708  1
  Pr  Pr10  1  0.210971  0.588130  0.116972  1
  Pr  Pr11  1  0.789029  0.411870  0.116972  1
  Pr  Pr12  1  0.788362  0.588772  0.616708  1
  Pr  Pr13  1  0.912483  0.711544  0.115893  1
  Pr  Pr14  1  0.911409  0.290785  0.615829  1
  Pr  Pr15  1  0.088591  0.709215  0.615829  1
  Pr  Pr16  1  0.087517  0.288456  0.115893  1
  Pr  Pr17  1  0.000000  0.000000  0.500000  1
  Y  Y18  1  0.500000  0.500000  0.000000  1
  Y  Y19  1  0.500000  0.500000  0.500000  1
  Ir  Ir20  1  0.845648  0.155091  0.250729  1
  Ir  Ir21  1  0.844909  0.845648  0.749271  1
  Ir  Ir22  1  0.155091  0.154352  0.749271  1
  Ir  Ir23  1  0.154352  0.844909  0.250729  1
  Ir  Ir24  1  0.649142  0.351082  0.750404  1
  Ir  Ir25  1  0.648918  0.649142  0.249596  1
  Ir  Ir26  1  0.351082  0.350858  0.249596  1
  Ir  Ir27  1  0.350858  0.648918  0.750404  1
  Ir  Ir28  1  0.500000  0.000000  0.118139  1
  Ir  Ir29  1  0.500000  0.000000  0.618430  1
  Ir  Ir30  1  0.000000  0.500000  0.881861  1
  Ir  Ir31  1  0.000000  0.500000  0.381570  1
