# generated using pymatgen
data_Th6FeTcAu6
_symmetry_space_group_name_H-M   'P 1'
_cell_length_a   8.22129510
_cell_length_b   8.22129567
_cell_length_c   8.22129716
_cell_angle_alpha   114.06041658
_cell_angle_beta   114.06040087
_cell_angle_gamma   114.06038431
_symmetry_Int_Tables_number   1
_chemical_formula_structural   Th6FeTcAu6
_chemical_formula_sum   'Th6 Fe1 Tc1 Au6'
_cell_volume   336.08404852
_cell_formula_units_Z   1
loop_
 _symmetry_equiv_pos_site_id
 _symmetry_equiv_pos_as_xyz
  1  'x, y, z'
loop_
 _atom_site_type_symbol
 _atom_site_label
 _atom_site_symmetry_multiplicity
 _atom_site_fract_x
 _atom_site_fract_y
 _atom_site_fract_z
 _atom_site_occupancy
  Th  Th0  1  0.045465  0.383400  0.276549  1
  Th  Th1  1  0.383400  0.276549  0.045465  1
  Th  Th2  1  0.723451  0.954535  0.616600  1
  Th  Th3  1  0.276549  0.045465  0.383400  1
  Th  Th4  1  0.616600  0.723451  0.954535  1
  Th  Th5  1  0.954535  0.616600  0.723451  1
  Fe  Fe6  1  0.000000  0.000000  0.000000  1
  Tc  Tc7  1  0.500000  0.500000  0.500000  1
  Au  Au8  1  0.420516  0.929152  0.764118  1
  Au  Au9  1  0.929152  0.764118  0.420516  1
  Au  Au10  1  0.235882  0.579484  0.070848  1
  Au  Au11  1  0.764118  0.420516  0.929152  1
  Au  Au12  1  0.070848  0.235882  0.579484  1
  Au  Au13  1  0.579484  0.070848  0.235882  1
