# generated using pymatgen
data_Hf4GaSiRh10
_symmetry_space_group_name_H-M   'P 1'
_cell_length_a   4.07729900
_cell_length_b   5.53959388
_cell_length_c   10.90013821
_cell_angle_alpha   89.61825562
_cell_angle_beta   90.00000000
_cell_angle_gamma   90.00000000
_symmetry_Int_Tables_number   1
_chemical_formula_structural   Hf4GaSiRh10
_chemical_formula_sum   'Hf4 Ga1 Si1 Rh10'
_cell_volume   246.19138552
_cell_formula_units_Z   1
loop_
 _symmetry_equiv_pos_site_id
 _symmetry_equiv_pos_as_xyz
  1  'x, y, z'
loop_
 _atom_site_type_symbol
 _atom_site_label
 _atom_site_symmetry_multiplicity
 _atom_site_fract_x
 _atom_site_fract_y
 _atom_site_fract_z
 _atom_site_occupancy
  Hf  Hf0  1  0.500000  0.182309  0.639366  1
  Hf  Hf1  1  0.500000  0.817691  0.360634  1
  Hf  Hf2  1  0.500000  0.676736  0.859717  1
  Hf  Hf3  1  0.500000  0.323264  0.140283  1
  Ga  Ga4  1  0.000000  0.500000  0.500000  1
  Si  Si5  1  0.000000  0.000000  0.000000  1
  Rh  Rh6  1  0.500000  0.179331  0.897478  1
  Rh  Rh7  1  0.500000  0.820669  0.102522  1
  Rh  Rh8  1  0.500000  0.690866  0.609716  1
  Rh  Rh9  1  0.500000  0.309134  0.390284  1
  Rh  Rh10  1  0.000000  0.431273  0.746486  1
  Rh  Rh11  1  0.000000  0.568727  0.253514  1
  Rh  Rh12  1  0.000000  0.000000  0.500000  1
  Rh  Rh13  1  0.000000  0.500000  0.000000  1
  Rh  Rh14  1  0.000000  0.066896  0.240770  1
  Rh  Rh15  1  0.000000  0.933104  0.759230  1
