# generated using pymatgen
data_Ba8DyUSe12
_symmetry_space_group_name_H-M   'P 1'
_cell_length_a   9.06320740
_cell_length_b   9.06320763
_cell_length_c   9.06320801
_cell_angle_alpha   89.51287987
_cell_angle_beta   89.51287419
_cell_angle_gamma   89.51287876
_symmetry_Int_Tables_number   1
_chemical_formula_structural   Ba8DyUSe12
_chemical_formula_sum   'Ba8 Dy1 U1 Se12'
_cell_volume   744.38732699
_cell_formula_units_Z   1
loop_
 _symmetry_equiv_pos_site_id
 _symmetry_equiv_pos_as_xyz
  1  'x, y, z'
loop_
 _atom_site_type_symbol
 _atom_site_label
 _atom_site_symmetry_multiplicity
 _atom_site_fract_x
 _atom_site_fract_y
 _atom_site_fract_z
 _atom_site_occupancy
  Ba  Ba0  1  0.870998  0.621842  0.256804  1
  Ba  Ba1  1  0.256804  0.870998  0.621842  1
  Ba  Ba2  1  0.621842  0.256804  0.870998  1
  Ba  Ba3  1  0.743196  0.129002  0.378158  1
  Ba  Ba4  1  0.378158  0.743196  0.129002  1
  Ba  Ba5  1  0.129002  0.378158  0.743196  1
  Ba  Ba6  1  0.254939  0.254939  0.254939  1
  Ba  Ba7  1  0.745061  0.745061  0.745061  1
  Dy  Dy8  1  0.500000  0.500000  0.500000  1
  U  U9  1  0.000000  0.000000  0.000000  1
  Se  Se10  1  0.198719  0.564288  0.420673  1
  Se  Se11  1  0.420673  0.198719  0.564288  1
  Se  Se12  1  0.564288  0.420673  0.198719  1
  Se  Se13  1  0.927060  0.058596  0.708010  1
  Se  Se14  1  0.708010  0.927060  0.058596  1
  Se  Se15  1  0.058596  0.708010  0.927060  1
  Se  Se16  1  0.801281  0.435712  0.579327  1
  Se  Se17  1  0.579327  0.801281  0.435712  1
  Se  Se18  1  0.435712  0.579327  0.801281  1
  Se  Se19  1  0.072940  0.941404  0.291990  1
  Se  Se20  1  0.291990  0.072940  0.941404  1
  Se  Se21  1  0.941404  0.291990  0.072940  1
