# generated using pymatgen
data_TbGd4Sn3
_symmetry_space_group_name_H-M   'P 1'
_cell_length_a   9.26468780
_cell_length_b   9.26468807
_cell_length_c   9.26468800
_cell_angle_alpha   96.20539747
_cell_angle_beta   96.20539765
_cell_angle_gamma   141.61112132
_symmetry_Int_Tables_number   1
_chemical_formula_structural   TbGd4Sn3
_chemical_formula_sum   'Tb2 Gd8 Sn6'
_cell_volume   466.38086999
_cell_formula_units_Z   2
loop_
 _symmetry_equiv_pos_site_id
 _symmetry_equiv_pos_as_xyz
  1  'x, y, z'
loop_
 _atom_site_type_symbol
 _atom_site_label
 _atom_site_symmetry_multiplicity
 _atom_site_fract_x
 _atom_site_fract_y
 _atom_site_fract_z
 _atom_site_occupancy
  Tb  Tb0  1  0.750000  0.250000  0.500000  1
  Tb  Tb1  1  0.250000  0.750000  0.500000  1
  Gd  Gd2  1  0.917134  0.217585  0.134719  1
  Gd  Gd3  1  0.217585  0.082866  0.300452  1
  Gd  Gd4  1  0.782415  0.917134  0.699548  1
  Gd  Gd5  1  0.082866  0.782415  0.865281  1
  Gd  Gd6  1  0.717585  0.417134  0.134719  1
  Gd  Gd7  1  0.282415  0.582866  0.865281  1
  Gd  Gd8  1  0.582866  0.717585  0.300452  1
  Gd  Gd9  1  0.417134  0.282415  0.699548  1
  Sn  Sn10  1  0.750000  0.750000  0.000000  1
  Sn  Sn11  1  0.250000  0.250000  0.000000  1
  Sn  Sn12  1  0.839790  0.660210  0.500000  1
  Sn  Sn13  1  0.660210  0.160210  0.820420  1
  Sn  Sn14  1  0.339790  0.839790  0.179580  1
  Sn  Sn15  1  0.160210  0.339790  0.500000  1
