# generated using pymatgen
data_La6Cd22AsPd
_symmetry_space_group_name_H-M   'P 1'
_cell_length_a   10.12199182
_cell_length_b   10.12199200
_cell_length_c   10.12199200
_cell_angle_alpha   59.99999999
_cell_angle_beta   59.99999941
_cell_angle_gamma   60.00000208
_symmetry_Int_Tables_number   1
_chemical_formula_structural   La6Cd22AsPd
_chemical_formula_sum   'La6 Cd22 As1 Pd1'
_cell_volume   733.30216691
_cell_formula_units_Z   1
loop_
 _symmetry_equiv_pos_site_id
 _symmetry_equiv_pos_as_xyz
  1  'x, y, z'
loop_
 _atom_site_type_symbol
 _atom_site_label
 _atom_site_symmetry_multiplicity
 _atom_site_fract_x
 _atom_site_fract_y
 _atom_site_fract_z
 _atom_site_occupancy
  La  La0  1  0.791060  0.791048  0.208797  1
  La  La1  1  0.208974  0.791155  0.208971  1
  La  La2  1  0.791189  0.208994  0.208948  1
  La  La3  1  0.208940  0.208952  0.791203  1
  La  La4  1  0.791026  0.208845  0.791029  1
  La  La5  1  0.208811  0.791006  0.791052  1
  Cd  Cd6  1  0.831103  0.831092  0.506666  1
  Cd  Cd7  1  0.831095  0.506664  0.831105  1
  Cd  Cd8  1  0.506667  0.831081  0.831102  1
  Cd  Cd9  1  0.831456  0.831424  0.831447  1
  Cd  Cd10  1  0.168897  0.168908  0.493334  1
  Cd  Cd11  1  0.168905  0.493336  0.168895  1
  Cd  Cd12  1  0.493333  0.168919  0.168898  1
  Cd  Cd13  1  0.168544  0.168576  0.168553  1
  Cd  Cd14  1  0.616051  0.616031  0.152354  1
  Cd  Cd15  1  0.616058  0.152348  0.616040  1
  Cd  Cd16  1  0.152349  0.616051  0.616050  1
  Cd  Cd17  1  0.615703  0.615709  0.615710  1
  Cd  Cd18  1  0.383949  0.383969  0.847646  1
  Cd  Cd19  1  0.383942  0.847652  0.383960  1
  Cd  Cd20  1  0.847651  0.383949  0.383950  1
  Cd  Cd21  1  0.384297  0.384291  0.384290  1
  Cd  Cd22  1  0.000000  0.000000  0.500000  1
  Cd  Cd23  1  0.500000  0.000000  0.500000  1
  Cd  Cd24  1  0.000000  0.500000  0.500000  1
  Cd  Cd25  1  0.500000  0.500000  0.000000  1
  Cd  Cd26  1  0.000000  0.500000  0.000000  1
  Cd  Cd27  1  0.500000  0.000000  0.000000  1
  As  As28  1  0.000000  0.000000  0.000000  1
  Pd  Pd29  1  0.500000  0.500000  0.500000  1
