# generated using pymatgen
data_Y3ErTm4(CdPt)2
_symmetry_space_group_name_H-M   'P 1'
_cell_length_a   9.62292740
_cell_length_b   9.62292780
_cell_length_c   9.62267800
_cell_angle_alpha   60.00085184
_cell_angle_beta   60.00085045
_cell_angle_gamma   60.00113846
_symmetry_Int_Tables_number   1
_chemical_formula_structural   Y3ErTm4(CdPt)2
_chemical_formula_sum   'Y6 Er2 Tm8 Cd4 Pt4'
_cell_volume   630.09308850
_cell_formula_units_Z   2
loop_
 _symmetry_equiv_pos_site_id
 _symmetry_equiv_pos_as_xyz
  1  'x, y, z'
loop_
 _atom_site_type_symbol
 _atom_site_label
 _atom_site_symmetry_multiplicity
 _atom_site_fract_x
 _atom_site_fract_y
 _atom_site_fract_z
 _atom_site_occupancy
  Y  Y0  1  0.936956  0.563008  0.563030  1
  Y  Y1  1  0.563008  0.936956  0.937006  1
  Y  Y2  1  0.563008  0.936956  0.563030  1
  Y  Y3  1  0.936956  0.563008  0.937006  1
  Y  Y4  1  0.563046  0.563046  0.936954  1
  Y  Y5  1  0.937010  0.937010  0.562990  1
  Er  Er6  1  0.352121  0.352121  0.352151  1
  Er  Er7  1  0.352121  0.352121  0.943605  1
  Tm  Tm8  1  0.352070  0.943826  0.352052  1
  Tm  Tm9  1  0.943826  0.352070  0.352052  1
  Tm  Tm10  1  0.811542  0.188494  0.188486  1
  Tm  Tm11  1  0.188494  0.811542  0.811478  1
  Tm  Tm12  1  0.188494  0.811542  0.188486  1
  Tm  Tm13  1  0.811542  0.188494  0.811478  1
  Tm  Tm14  1  0.188451  0.188451  0.811549  1
  Tm  Tm15  1  0.811470  0.811470  0.188530  1
  Cd  Cd16  1  0.581483  0.581483  0.581380  1
  Cd  Cd17  1  0.581483  0.581483  0.255655  1
  Cd  Cd18  1  0.581526  0.255639  0.581418  1
  Cd  Cd19  1  0.255639  0.581526  0.581418  1
  Pt  Pt20  1  0.143082  0.143082  0.143367  1
  Pt  Pt21  1  0.143082  0.143082  0.570471  1
  Pt  Pt22  1  0.142913  0.570679  0.143204  1
  Pt  Pt23  1  0.570679  0.142913  0.143204  1
