# generated using pymatgen
data_Pr2Ho5Tm3(In2Pt)4
_symmetry_space_group_name_H-M   'P 1'
_cell_length_a   3.62426800
_cell_length_b   8.21012987
_cell_length_c   18.31971004
_cell_angle_alpha   90.05332607
_cell_angle_beta   90.00000000
_cell_angle_gamma   90.00000000
_symmetry_Int_Tables_number   1
_chemical_formula_structural   Pr2Ho5Tm3(In2Pt)4
_chemical_formula_sum   'Pr2 Ho5 Tm3 In8 Pt4'
_cell_volume   545.11576039
_cell_formula_units_Z   1
loop_
 _symmetry_equiv_pos_site_id
 _symmetry_equiv_pos_as_xyz
  1  'x, y, z'
loop_
 _atom_site_type_symbol
 _atom_site_label
 _atom_site_symmetry_multiplicity
 _atom_site_fract_x
 _atom_site_fract_y
 _atom_site_fract_z
 _atom_site_occupancy
  Pr  Pr0  1  0.000000  0.999970  0.999793  1
  Pr  Pr1  1  0.000000  0.499976  0.500191  1
  Ho  Ho2  1  0.000000  0.620772  0.086075  1
  Ho  Ho3  1  0.000000  0.241559  0.219207  1
  Ho  Ho4  1  0.000000  0.758689  0.781023  1
  Ho  Ho5  1  0.000000  0.258621  0.718724  1
  Ho  Ho6  1  0.000000  0.741210  0.281263  1
  Tm  Tm7  1  0.000000  0.120236  0.413298  1
  Tm  Tm8  1  0.000000  0.879725  0.586855  1
  Tm  Tm9  1  0.000000  0.379867  0.912973  1
  In  In10  1  0.500000  0.419392  0.347772  1
  In  In11  1  0.500000  0.580583  0.652616  1
  In  In12  1  0.500000  0.080096  0.847277  1
  In  In13  1  0.500000  0.921087  0.152865  1
  In  In14  1  0.500000  0.301953  0.067061  1
  In  In15  1  0.500000  0.697193  0.932418  1
  In  In16  1  0.500000  0.196607  0.566618  1
  In  In17  1  0.500000  0.803160  0.433506  1
  Pt  Pt18  1  0.500000  0.025676  0.304415  1
  Pt  Pt19  1  0.500000  0.974658  0.695662  1
  Pt  Pt20  1  0.500000  0.474292  0.804024  1
  Pt  Pt21  1  0.500000  0.524677  0.196364  1
