# generated using pymatgen
data_TbYb3(Al3Pt4)2
_symmetry_space_group_name_H-M   'P 1'
_cell_length_a   8.17091248
_cell_length_b   8.17091133
_cell_length_c   7.45387643
_cell_angle_alpha   90.37228848
_cell_angle_beta   89.62771222
_cell_angle_gamma   139.67065276
_symmetry_Int_Tables_number   1
_chemical_formula_structural   TbYb3(Al3Pt4)2
_chemical_formula_sum   'Tb1 Yb3 Al6 Pt8'
_cell_volume   322.06101306
_cell_formula_units_Z   1
loop_
 _symmetry_equiv_pos_site_id
 _symmetry_equiv_pos_as_xyz
  1  'x, y, z'
loop_
 _atom_site_type_symbol
 _atom_site_label
 _atom_site_symmetry_multiplicity
 _atom_site_fract_x
 _atom_site_fract_y
 _atom_site_fract_z
 _atom_site_occupancy
  Tb  Tb0  1  0.605642  0.394358  0.089430  1
  Yb  Yb1  1  0.103016  0.896984  0.408435  1
  Yb  Yb2  1  0.897193  0.102807  0.591089  1
  Yb  Yb3  1  0.393633  0.606367  0.910726  1
  Al  Al4  1  0.999518  0.000482  0.000178  1
  Al  Al5  1  0.501610  0.498390  0.497950  1
  Al  Al6  1  0.020066  0.479328  0.254584  1
  Al  Al7  1  0.480479  0.020071  0.746033  1
  Al  Al8  1  0.979929  0.519521  0.746033  1
  Al  Al9  1  0.520672  0.979934  0.254584  1
  Pt  Pt10  1  0.187717  0.313613  0.248693  1
  Pt  Pt11  1  0.313810  0.186824  0.751061  1
  Pt  Pt12  1  0.813176  0.686190  0.751061  1
  Pt  Pt13  1  0.686387  0.812283  0.248693  1
  Pt  Pt14  1  0.184388  0.815612  0.028308  1
  Pt  Pt15  1  0.814183  0.185817  0.975344  1
  Pt  Pt16  1  0.320763  0.679237  0.525716  1
  Pt  Pt17  1  0.677818  0.322182  0.472082  1
