# generated using pymatgen
data_CsRb2NaLi2(BO3)2
_symmetry_space_group_name_H-M   'P 1'
_cell_length_a   6.64450566
_cell_length_b   7.23259153
_cell_length_c   10.13740800
_cell_angle_alpha   96.60860114
_cell_angle_beta   101.48875978
_cell_angle_gamma   103.86844177
_symmetry_Int_Tables_number   1
_chemical_formula_structural   CsRb2NaLi2(BO3)2
_chemical_formula_sum   'Cs2 Rb4 Na2 Li4 B4 O12'
_cell_volume   456.65652826
_cell_formula_units_Z   2
loop_
 _symmetry_equiv_pos_site_id
 _symmetry_equiv_pos_as_xyz
  1  'x, y, z'
loop_
 _atom_site_type_symbol
 _atom_site_label
 _atom_site_symmetry_multiplicity
 _atom_site_fract_x
 _atom_site_fract_y
 _atom_site_fract_z
 _atom_site_occupancy
  Cs  Cs0  1  0.781299  0.767664  0.872077  1
  Cs  Cs1  1  0.218701  0.232336  0.127923  1
  Rb  Rb2  1  0.641024  0.262476  0.922350  1
  Rb  Rb3  1  0.806086  0.690445  0.513957  1
  Rb  Rb4  1  0.358976  0.737524  0.077650  1
  Rb  Rb5  1  0.193914  0.309555  0.486043  1
  Na  Na6  1  0.327025  0.824208  0.414614  1
  Na  Na7  1  0.672975  0.175792  0.585386  1
  Li  Li8  1  0.199945  0.088884  0.767479  1
  Li  Li9  1  0.228796  0.599414  0.761549  1
  Li  Li10  1  0.771204  0.400586  0.238451  1
  Li  Li11  1  0.800055  0.911116  0.232521  1
  B  B12  1  0.349915  0.868986  0.685961  1
  B  B13  1  0.030978  0.316133  0.786022  1
  B  B14  1  0.650085  0.131014  0.314039  1
  B  B15  1  0.969022  0.683867  0.213978  1
  O  O16  1  0.251939  0.373122  0.844409  1
  O  O17  1  0.319583  0.878992  0.820936  1
  O  O18  1  0.077467  0.878545  0.230078  1
  O  O19  1  0.680417  0.121008  0.179064  1
  O  O20  1  0.337362  0.026553  0.620909  1
  O  O21  1  0.377162  0.698392  0.623043  1
  O  O22  1  0.748061  0.626878  0.155591  1
  O  O23  1  0.662638  0.973447  0.379091  1
  O  O24  1  0.929858  0.451697  0.738701  1
  O  O25  1  0.922533  0.121455  0.769922  1
  O  O26  1  0.622838  0.301608  0.376957  1
  O  O27  1  0.070142  0.548303  0.261299  1
