# generated using pymatgen
data_LaNdGa2(SiAu2)2
_symmetry_space_group_name_H-M   'P 1'
_cell_length_a   4.38738000
_cell_length_b   4.38738000
_cell_length_c   10.60796700
_cell_angle_alpha   90.00000000
_cell_angle_beta   90.00000000
_cell_angle_gamma   90.00000000
_symmetry_Int_Tables_number   1
_chemical_formula_structural   LaNdGa2(SiAu2)2
_chemical_formula_sum   'La1 Nd1 Ga2 Si2 Au4'
_cell_volume   204.19385221
_cell_formula_units_Z   1
loop_
 _symmetry_equiv_pos_site_id
 _symmetry_equiv_pos_as_xyz
  1  'x, y, z'
loop_
 _atom_site_type_symbol
 _atom_site_label
 _atom_site_symmetry_multiplicity
 _atom_site_fract_x
 _atom_site_fract_y
 _atom_site_fract_z
 _atom_site_occupancy
  La  La0  1  0.000000  0.500000  0.244840  1
  Nd  Nd1  1  0.500000  0.000000  0.758489  1
  Ga  Ga2  1  0.000000  0.000000  0.500950  1
  Ga  Ga3  1  0.500000  0.500000  0.500950  1
  Si  Si4  1  0.000000  0.500000  0.866278  1
  Si  Si5  1  0.500000  0.000000  0.131081  1
  Au  Au6  1  0.000000  0.000000  0.998624  1
  Au  Au7  1  0.500000  0.500000  0.998624  1
  Au  Au8  1  0.000000  0.500000  0.638607  1
  Au  Au9  1  0.500000  0.000000  0.361557  1
