# generated using pymatgen
data_Y9TmAl4(GaC4)2
_symmetry_space_group_name_H-M   'P 1'
_cell_length_a   10.86333990
_cell_length_b   10.86090290
_cell_length_c   3.51408900
_cell_angle_alpha   90.00000000
_cell_angle_beta   90.00000000
_cell_angle_gamma   90.04677187
_symmetry_Int_Tables_number   1
_chemical_formula_structural   Y9TmAl4(GaC4)2
_chemical_formula_sum   'Y9 Tm1 Al4 Ga2 C8'
_cell_volume   414.61204185
_cell_formula_units_Z   1
loop_
 _symmetry_equiv_pos_site_id
 _symmetry_equiv_pos_as_xyz
  1  'x, y, z'
loop_
 _atom_site_type_symbol
 _atom_site_label
 _atom_site_symmetry_multiplicity
 _atom_site_fract_x
 _atom_site_fract_y
 _atom_site_fract_z
 _atom_site_occupancy
  Y  Y0  1  0.449606  0.272153  0.500000  1
  Y  Y1  1  0.050449  0.772289  0.500000  1
  Y  Y2  1  0.949429  0.227716  0.500000  1
  Y  Y3  1  0.272492  0.550857  0.500000  1
  Y  Y4  1  0.727798  0.449782  0.500000  1
  Y  Y5  1  0.227936  0.050270  0.500000  1
  Y  Y6  1  0.771792  0.948996  0.500000  1
  Y  Y7  1  0.499894  0.999739  0.000000  1
  Y  Y8  1  0.000008  0.500041  0.000000  1
  Tm  Tm9  1  0.550353  0.730408  0.500000  1
  Al  Al10  1  0.704105  0.203636  0.000000  1
  Al  Al11  1  0.296608  0.795831  0.000000  1
  Al  Al12  1  0.203783  0.296011  0.000000  1
  Al  Al13  1  0.795563  0.703633  0.000000  1
  Ga  Ga14  1  0.500402  0.501847  0.000000  1
  Ga  Ga15  1  0.999863  0.999924  0.000000  1
  C  C16  1  0.633288  0.133343  0.500000  1
  C  C17  1  0.368391  0.865330  0.500000  1
  C  C18  1  0.133567  0.366589  0.500000  1
  C  C19  1  0.866570  0.633406  0.500000  1
  C  C20  1  0.162724  0.662526  0.000000  1
  C  C21  1  0.837397  0.337560  0.000000  1
  C  C22  1  0.660489  0.835552  0.000000  1
  C  C23  1  0.337492  0.162562  0.000000  1
