# generated using pymatgen
data_Li4CaNd2YSi6
_symmetry_space_group_name_H-M   'P 1'
_cell_length_a   9.46363152
_cell_length_b   9.46363090
_cell_length_c   6.87219200
_cell_angle_alpha   90.00000000
_cell_angle_beta   90.00000000
_cell_angle_gamma   153.58823782
_symmetry_Int_Tables_number   1
_chemical_formula_structural   Li4CaNd2YSi6
_chemical_formula_sum   'Li4 Ca1 Nd2 Y1 Si6'
_cell_volume   273.77530921
_cell_formula_units_Z   1
loop_
 _symmetry_equiv_pos_site_id
 _symmetry_equiv_pos_as_xyz
  1  'x, y, z'
loop_
 _atom_site_type_symbol
 _atom_site_label
 _atom_site_symmetry_multiplicity
 _atom_site_fract_x
 _atom_site_fract_y
 _atom_site_fract_z
 _atom_site_occupancy
  Li  Li0  1  0.189315  0.810685  0.059376  1
  Li  Li1  1  0.189315  0.810685  0.440624  1
  Li  Li2  1  0.810398  0.189602  0.943521  1
  Li  Li3  1  0.810398  0.189602  0.556479  1
  Ca  Ca4  1  0.341564  0.658436  0.250000  1
  Nd  Nd5  1  0.553049  0.446951  0.250000  1
  Nd  Nd6  1  0.447100  0.552900  0.750000  1
  Y  Y7  1  0.657784  0.342216  0.750000  1
  Si  Si8  1  0.718273  0.281727  0.250000  1
  Si  Si9  1  0.275284  0.724716  0.750000  1
  Si  Si10  1  0.059673  0.940327  0.922830  1
  Si  Si11  1  0.944087  0.055913  0.075738  1
  Si  Si12  1  0.944087  0.055913  0.424262  1
  Si  Si13  1  0.059673  0.940327  0.577170  1
