# generated using pymatgen
data_Pr3TlCd2Ag2Ir
_symmetry_space_group_name_H-M   'P 1'
_cell_length_a   8.14715492
_cell_length_b   8.17315945
_cell_length_c   3.92644100
_cell_angle_alpha   90.00000000
_cell_angle_beta   90.00000000
_cell_angle_gamma   119.88493224
_symmetry_Int_Tables_number   1
_chemical_formula_structural   Pr3TlCd2Ag2Ir
_chemical_formula_sum   'Pr3 Tl1 Cd2 Ag2 Ir1'
_cell_volume   226.68774958
_cell_formula_units_Z   1
loop_
 _symmetry_equiv_pos_site_id
 _symmetry_equiv_pos_as_xyz
  1  'x, y, z'
loop_
 _atom_site_type_symbol
 _atom_site_label
 _atom_site_symmetry_multiplicity
 _atom_site_fract_x
 _atom_site_fract_y
 _atom_site_fract_z
 _atom_site_occupancy
  Pr  Pr0  1  0.423743  0.393963  0.500000  1
  Pr  Pr1  1  0.605213  0.030813  0.500000  1
  Pr  Pr2  1  0.967859  0.575897  0.500000  1
  Tl  Tl3  1  0.007972  0.266866  0.000000  1
  Cd  Cd4  1  0.731330  0.738352  0.000000  1
  Cd  Cd5  1  0.261419  0.994669  0.000000  1
  Ag  Ag6  1  0.339029  0.671908  0.000000  1
  Ag  Ag7  1  0.998309  0.991640  0.500000  1
  Ir  Ir8  1  0.665125  0.335892  0.000000  1
