# generated using pymatgen
data_SmHo5Co8(P6Rh5)2
_symmetry_space_group_name_H-M   'P 1'
_cell_length_a   3.78745500
_cell_length_b   10.93845900
_cell_length_c   12.56595100
_cell_angle_alpha   90.00000000
_cell_angle_beta   90.00000000
_cell_angle_gamma   90.00000000
_symmetry_Int_Tables_number   1
_chemical_formula_structural   SmHo5Co8(P6Rh5)2
_chemical_formula_sum   'Sm1 Ho5 Co8 P12 Rh10'
_cell_volume   520.59379418
_cell_formula_units_Z   1
loop_
 _symmetry_equiv_pos_site_id
 _symmetry_equiv_pos_as_xyz
  1  'x, y, z'
loop_
 _atom_site_type_symbol
 _atom_site_label
 _atom_site_symmetry_multiplicity
 _atom_site_fract_x
 _atom_site_fract_y
 _atom_site_fract_z
 _atom_site_occupancy
  Sm  Sm0  1  0.500000  0.000000  0.475531  1
  Ho  Ho1  1  0.000000  0.500000  0.518043  1
  Ho  Ho2  1  0.500000  0.815624  0.197511  1
  Ho  Ho3  1  0.500000  0.184376  0.197511  1
  Ho  Ho4  1  0.000000  0.680218  0.803934  1
  Ho  Ho5  1  0.000000  0.319782  0.803934  1
  Co  Co6  1  0.000000  0.500000  0.992299  1
  Co  Co7  1  0.500000  0.000000  0.011522  1
  Co  Co8  1  0.000000  0.620468  0.283711  1
  Co  Co9  1  0.000000  0.379532  0.283711  1
  Co  Co10  1  0.500000  0.334321  0.997353  1
  Co  Co11  1  0.500000  0.665679  0.997353  1
  Co  Co12  1  0.000000  0.168485  0.007175  1
  Co  Co13  1  0.000000  0.831515  0.007175  1
  P  P14  1  0.500000  0.317041  0.619387  1
  P  P15  1  0.500000  0.682959  0.619387  1
  P  P16  1  0.000000  0.193703  0.371597  1
  P  P17  1  0.000000  0.806297  0.371597  1
  P  P18  1  0.500000  0.500000  0.894602  1
  P  P19  1  0.000000  0.000000  0.106615  1
  P  P20  1  0.500000  0.840149  0.904996  1
  P  P21  1  0.500000  0.159851  0.904996  1
  P  P22  1  0.000000  0.656601  0.104059  1
  P  P23  1  0.000000  0.343399  0.104059  1
  P  P24  1  0.500000  0.500000  0.341172  1
  P  P25  1  0.000000  0.000000  0.654764  1
  Rh  Rh26  1  0.500000  0.302083  0.425988  1
  Rh  Rh27  1  0.500000  0.697917  0.425988  1
  Rh  Rh28  1  0.000000  0.207249  0.569783  1
  Rh  Rh29  1  0.000000  0.792751  0.569783  1
  Rh  Rh30  1  0.500000  0.872304  0.717013  1
  Rh  Rh31  1  0.500000  0.127696  0.717013  1
  Rh  Rh32  1  0.500000  0.500000  0.157503  1
  Rh  Rh33  1  0.000000  0.000000  0.843584  1
  Rh  Rh34  1  0.500000  0.500000  0.708847  1
  Rh  Rh35  1  0.000000  0.000000  0.290503  1
