# generated using pymatgen
data_CaTbHo(Si3Pd10)2
_symmetry_space_group_name_H-M   'P 1'
_cell_length_a   8.72148649
_cell_length_b   8.72148718
_cell_length_c   8.72148700
_cell_angle_alpha   60.00000449
_cell_angle_beta   60.00000186
_cell_angle_gamma   60.00000606
_symmetry_Int_Tables_number   1
_chemical_formula_structural   CaTbHo(Si3Pd10)2
_chemical_formula_sum   'Ca1 Tb1 Ho1 Si6 Pd20'
_cell_volume   469.09050238
_cell_formula_units_Z   1
loop_
 _symmetry_equiv_pos_site_id
 _symmetry_equiv_pos_as_xyz
  1  'x, y, z'
loop_
 _atom_site_type_symbol
 _atom_site_label
 _atom_site_symmetry_multiplicity
 _atom_site_fract_x
 _atom_site_fract_y
 _atom_site_fract_z
 _atom_site_occupancy
  Ca  Ca0  1  0.250000  0.250000  0.250000  1
  Tb  Tb1  1  0.750000  0.750000  0.750000  1
  Ho  Ho2  1  0.000000  0.000000  0.000000  1
  Si  Si3  1  0.731954  0.268046  0.268046  1
  Si  Si4  1  0.268046  0.731954  0.731954  1
  Si  Si5  1  0.268046  0.731954  0.268046  1
  Si  Si6  1  0.731954  0.268046  0.731954  1
  Si  Si7  1  0.268046  0.268046  0.731954  1
  Si  Si8  1  0.731954  0.731954  0.268046  1
  Pd  Pd9  1  0.384478  0.384478  0.384478  1
  Pd  Pd10  1  0.616870  0.616870  0.616870  1
  Pd  Pd11  1  0.384478  0.384478  0.846567  1
  Pd  Pd12  1  0.384478  0.846567  0.384478  1
  Pd  Pd13  1  0.616870  0.616870  0.149389  1
  Pd  Pd14  1  0.616870  0.149389  0.616870  1
  Pd  Pd15  1  0.846567  0.384478  0.384478  1
  Pd  Pd16  1  0.149389  0.616870  0.616870  1
  Pd  Pd17  1  0.345680  0.998784  0.998784  1
  Pd  Pd18  1  0.656753  0.998784  0.998784  1
  Pd  Pd19  1  0.998784  0.345680  0.656753  1
  Pd  Pd20  1  0.998784  0.656753  0.345680  1
  Pd  Pd21  1  0.998784  0.345680  0.998784  1
  Pd  Pd22  1  0.656753  0.998784  0.345680  1
  Pd  Pd23  1  0.998784  0.656753  0.998784  1
  Pd  Pd24  1  0.345680  0.998784  0.656753  1
  Pd  Pd25  1  0.998784  0.998784  0.345680  1
  Pd  Pd26  1  0.998784  0.998784  0.656753  1
  Pd  Pd27  1  0.656753  0.345680  0.998784  1
  Pd  Pd28  1  0.345680  0.656753  0.998784  1
