# generated using pymatgen
data_KBaMoN3
_symmetry_space_group_name_H-M   'P 1'
_cell_length_a   6.73244383
_cell_length_b   6.73244339
_cell_length_c   13.36577681
_cell_angle_alpha   89.96069404
_cell_angle_beta   89.96069762
_cell_angle_gamma   125.75775439
_symmetry_Int_Tables_number   1
_chemical_formula_structural   KBaMoN3
_chemical_formula_sum   'K4 Ba4 Mo4 N12'
_cell_volume   491.61481045
_cell_formula_units_Z   4
loop_
 _symmetry_equiv_pos_site_id
 _symmetry_equiv_pos_as_xyz
  1  'x, y, z'
loop_
 _atom_site_type_symbol
 _atom_site_label
 _atom_site_symmetry_multiplicity
 _atom_site_fract_x
 _atom_site_fract_y
 _atom_site_fract_z
 _atom_site_occupancy
  K  K0  1  0.957418  0.552703  0.362429  1
  K  K1  1  0.447297  0.042582  0.137571  1
  K  K2  1  0.042582  0.447297  0.637571  1
  K  K3  1  0.552703  0.957418  0.862429  1
  Ba  Ba4  1  0.138755  0.352036  0.082123  1
  Ba  Ba5  1  0.647964  0.861245  0.417877  1
  Ba  Ba6  1  0.861245  0.647964  0.917877  1
  Ba  Ba7  1  0.352036  0.138755  0.582123  1
  Mo  Mo8  1  0.769283  0.726710  0.167204  1
  Mo  Mo9  1  0.273290  0.230717  0.332796  1
  Mo  Mo10  1  0.230717  0.273290  0.832796  1
  Mo  Mo11  1  0.726710  0.769283  0.667204  1
  N  N12  1  0.481873  0.518127  0.250000  1
  N  N13  1  0.518127  0.481873  0.750000  1
  N  N14  1  0.905493  0.574823  0.123331  1
  N  N15  1  0.425177  0.094507  0.376669  1
  N  N16  1  0.094507  0.425177  0.876669  1
  N  N17  1  0.574823  0.905493  0.623331  1
  N  N18  1  0.825343  0.687952  0.557307  1
  N  N19  1  0.312048  0.174657  0.942693  1
  N  N20  1  0.174657  0.312048  0.442693  1
  N  N21  1  0.687952  0.825343  0.057307  1
  N  N22  1  0.992112  0.007888  0.250000  1
  N  N23  1  0.007888  0.992112  0.750000  1
