# generated using pymatgen
data_Tb9Ce(Al2Ru3)2
_symmetry_space_group_name_H-M   'P 1'
_cell_length_a   8.44162683
_cell_length_b   8.44162676
_cell_length_c   8.32262930
_cell_angle_alpha   110.21523524
_cell_angle_beta   109.17880213
_cell_angle_gamma   109.59912208
_symmetry_Int_Tables_number   1
_chemical_formula_structural   Tb9Ce(Al2Ru3)2
_chemical_formula_sum   'Tb9 Ce1 Al4 Ru6'
_cell_volume   453.23008858
_cell_formula_units_Z   1
loop_
 _symmetry_equiv_pos_site_id
 _symmetry_equiv_pos_as_xyz
  1  'x, y, z'
loop_
 _atom_site_type_symbol
 _atom_site_label
 _atom_site_symmetry_multiplicity
 _atom_site_fract_x
 _atom_site_fract_y
 _atom_site_fract_z
 _atom_site_occupancy
  Tb  Tb0  1  0.781096  0.786934  0.785433  1
  Tb  Tb1  1  0.316759  0.566759  0.750000  1
  Tb  Tb2  1  0.752598  0.318448  0.567859  1
  Tb  Tb3  1  0.568950  0.748722  0.316569  1
  Tb  Tb4  1  0.716029  0.499592  0.998045  1
  Tb  Tb5  1  0.001547  0.717984  0.501955  1
  Tb  Tb6  1  0.501501  0.995663  0.714567  1
  Tb  Tb7  1  0.250589  0.184739  0.932141  1
  Tb  Tb8  1  0.932153  0.252381  0.183431  1
  Ce  Ce9  1  0.194904  0.944904  0.250000  1
  Al  Al10  1  0.412002  0.414066  0.407597  1
  Al  Al11  1  0.091882  0.497749  0.003368  1
  Al  Al12  1  0.994380  0.088514  0.496632  1
  Al  Al13  1  0.506469  0.004406  0.092403  1
  Ru  Ru14  1  0.875675  0.125675  0.750000  1
  Ru  Ru15  1  0.741604  0.871652  0.120152  1
  Ru  Ru16  1  0.130529  0.764059  0.909004  1
  Ru  Ru17  1  0.251501  0.621452  0.379848  1
  Ru  Ru18  1  0.355055  0.221526  0.590996  1
  Ru  Ru19  1  0.624775  0.374775  0.250000  1
