# generated using pymatgen
data_Yb3Zr(Ir2O7)2
_symmetry_space_group_name_H-M   'P 1'
_cell_length_a   7.15996887
_cell_length_b   7.18919449
_cell_length_c   7.18919500
_cell_angle_alpha   60.00000226
_cell_angle_beta   59.86488505
_cell_angle_gamma   59.86488697
_symmetry_Int_Tables_number   1
_chemical_formula_structural   Yb3Zr(Ir2O7)2
_chemical_formula_sum   'Yb3 Zr1 Ir4 O14'
_cell_volume   261.13595829
_cell_formula_units_Z   1
loop_
 _symmetry_equiv_pos_site_id
 _symmetry_equiv_pos_as_xyz
  1  'x, y, z'
loop_
 _atom_site_type_symbol
 _atom_site_label
 _atom_site_symmetry_multiplicity
 _atom_site_fract_x
 _atom_site_fract_y
 _atom_site_fract_z
 _atom_site_occupancy
  Yb  Yb0  1  0.125000  0.625000  0.125000  1
  Yb  Yb1  1  0.125000  0.125000  0.625000  1
  Yb  Yb2  1  0.125000  0.125000  0.125000  1
  Zr  Zr3  1  0.625000  0.125000  0.125000  1
  Ir  Ir4  1  0.125000  0.625000  0.625000  1
  Ir  Ir5  1  0.625000  0.125000  0.625000  1
  Ir  Ir6  1  0.625000  0.625000  0.125000  1
  Ir  Ir7  1  0.625000  0.625000  0.625000  1
  O  O8  1  0.690526  0.726869  0.291303  1
  O  O9  1  0.294182  0.290946  0.707437  1
  O  O10  1  0.690526  0.291303  0.726869  1
  O  O11  1  0.294182  0.707437  0.290946  1
  O  O12  1  0.294182  0.707437  0.707437  1
  O  O13  1  0.690526  0.291303  0.291303  1
  O  O14  1  0.559474  0.523131  0.958697  1
  O  O15  1  0.955818  0.959054  0.542563  1
  O  O16  1  0.559474  0.958697  0.523131  1
  O  O17  1  0.955818  0.542563  0.959054  1
  O  O18  1  0.955818  0.542563  0.542563  1
  O  O19  1  0.559474  0.958697  0.958697  1
  O  O20  1  0.276202  0.241266  0.241266  1
  O  O21  1  0.973798  0.008734  0.008734  1
