# generated using pymatgen
data_Dy3Y4HoPt4
_symmetry_space_group_name_H-M   'P 1'
_cell_length_a   4.76821600
_cell_length_b   7.18137466
_cell_length_c   8.81923729
_cell_angle_alpha   89.96075854
_cell_angle_beta   90.00000000
_cell_angle_gamma   90.00000000
_symmetry_Int_Tables_number   1
_chemical_formula_structural   Dy3Y4HoPt4
_chemical_formula_sum   'Dy3 Y4 Ho1 Pt4'
_cell_volume   301.99129997
_cell_formula_units_Z   1
loop_
 _symmetry_equiv_pos_site_id
 _symmetry_equiv_pos_as_xyz
  1  'x, y, z'
loop_
 _atom_site_type_symbol
 _atom_site_label
 _atom_site_symmetry_multiplicity
 _atom_site_fract_x
 _atom_site_fract_y
 _atom_site_fract_z
 _atom_site_occupancy
  Dy  Dy0  1  0.250000  0.855386  0.919959  1
  Dy  Dy1  1  0.250000  0.355380  0.579859  1
  Dy  Dy2  1  0.750000  0.144797  0.080130  1
  Y  Y3  1  0.250000  0.989741  0.331651  1
  Y  Y4  1  0.250000  0.490057  0.168477  1
  Y  Y5  1  0.750000  0.009954  0.668847  1
  Y  Y6  1  0.750000  0.510332  0.831224  1
  Ho  Ho7  1  0.750000  0.644882  0.419957  1
  Pt  Pt8  1  0.250000  0.257150  0.906267  1
  Pt  Pt9  1  0.250000  0.756995  0.593899  1
  Pt  Pt10  1  0.750000  0.742906  0.093458  1
  Pt  Pt11  1  0.750000  0.242420  0.406272  1
