# generated using pymatgen
data_Er2(ThRu)3
_symmetry_space_group_name_H-M   'P 1'
_cell_length_a   6.46385200
_cell_length_b   8.28216151
_cell_length_c   8.28331305
_cell_angle_alpha   119.99540402
_cell_angle_beta   90.00000000
_cell_angle_gamma   90.00000000
_symmetry_Int_Tables_number   1
_chemical_formula_structural   Er2(ThRu)3
_chemical_formula_sum   'Er4 Th6 Ru6'
_cell_volume   384.05189912
_cell_formula_units_Z   2
loop_
 _symmetry_equiv_pos_site_id
 _symmetry_equiv_pos_as_xyz
  1  'x, y, z'
loop_
 _atom_site_type_symbol
 _atom_site_label
 _atom_site_symmetry_multiplicity
 _atom_site_fract_x
 _atom_site_fract_y
 _atom_site_fract_z
 _atom_site_occupancy
  Er  Er0  1  0.499994  0.333228  0.666522  1
  Er  Er1  1  0.499994  0.666707  0.333478  1
  Er  Er2  1  0.999994  0.666772  0.333478  1
  Er  Er3  1  0.999994  0.333294  0.666522  1
  Th  Th4  1  0.750001  0.254047  0.000000  1
  Th  Th5  1  0.749996  0.745967  0.745992  1
  Th  Th6  1  0.749996  0.999974  0.254008  1
  Th  Th7  1  0.250001  0.745953  0.000000  1
  Th  Th8  1  0.249996  0.254033  0.254008  1
  Th  Th9  1  0.249996  0.000026  0.745992  1
  Ru  Ru10  1  0.750026  0.626018  0.000000  1
  Ru  Ru11  1  0.749996  0.373983  0.373970  1
  Ru  Ru12  1  0.749996  0.000013  0.626030  1
  Ru  Ru13  1  0.250026  0.373982  0.000000  1
  Ru  Ru14  1  0.249996  0.626017  0.626030  1
  Ru  Ru15  1  0.249996  0.999987  0.373970  1
