# generated using pymatgen
data_Zr6Ti2Nb2Al12Co7
_symmetry_space_group_name_H-M   'P 1'
_cell_length_a   8.60980743
_cell_length_b   8.60980674
_cell_length_c   8.61546200
_cell_angle_alpha   59.97826186
_cell_angle_beta   59.97826454
_cell_angle_gamma   59.90521249
_symmetry_Int_Tables_number   1
_chemical_formula_structural   Zr6Ti2Nb2Al12Co7
_chemical_formula_sum   'Zr6 Ti2 Nb2 Al12 Co7'
_cell_volume   451.12383859
_cell_formula_units_Z   1
loop_
 _symmetry_equiv_pos_site_id
 _symmetry_equiv_pos_as_xyz
  1  'x, y, z'
loop_
 _atom_site_type_symbol
 _atom_site_label
 _atom_site_symmetry_multiplicity
 _atom_site_fract_x
 _atom_site_fract_y
 _atom_site_fract_z
 _atom_site_occupancy
  Zr  Zr0  1  0.691875  0.309116  0.308213  1
  Zr  Zr1  1  0.691875  0.309116  0.690796  1
  Zr  Zr2  1  0.692680  0.692680  0.307320  1
  Zr  Zr3  1  0.309116  0.691875  0.690796  1
  Zr  Zr4  1  0.309116  0.691875  0.308213  1
  Zr  Zr5  1  0.306207  0.306207  0.693793  1
  Ti  Ti6  1  0.117840  0.117840  0.645634  1
  Ti  Ti7  1  0.117840  0.117840  0.118687  1
  Nb  Nb8  1  0.643279  0.119050  0.118836  1
  Nb  Nb9  1  0.119050  0.643279  0.118836  1
  Al  Al10  1  0.360604  0.882400  0.878498  1
  Al  Al11  1  0.882400  0.360604  0.878498  1
  Al  Al12  1  0.881151  0.881151  0.360980  1
  Al  Al13  1  0.881151  0.881151  0.876716  1
  Al  Al14  1  0.995980  0.331738  0.336142  1
  Al  Al15  1  0.331738  0.995980  0.336142  1
  Al  Al16  1  0.333480  0.333480  0.993595  1
  Al  Al17  1  0.333480  0.333480  0.339446  1
  Al  Al18  1  0.004000  0.664878  0.665561  1
  Al  Al19  1  0.664878  0.004000  0.665561  1
  Al  Al20  1  0.665733  0.665733  0.002886  1
  Al  Al21  1  0.665733  0.665733  0.665647  1
  Co  Co22  1  0.000745  0.000745  0.999255  1
  Co  Co23  1  0.498700  0.002373  0.003776  1
  Co  Co24  1  0.498700  0.002373  0.495151  1
  Co  Co25  1  0.495676  0.495676  0.004324  1
  Co  Co26  1  0.002373  0.498700  0.495151  1
  Co  Co27  1  0.002373  0.498700  0.003776  1
  Co  Co28  1  0.002229  0.002229  0.497771  1
