# generated using pymatgen
data_Sr6SiGeI4
_symmetry_space_group_name_H-M   'P 1'
_cell_length_a   15.79317205
_cell_length_b   15.05903598
_cell_length_c   8.36780282
_cell_angle_alpha   79.16617672
_cell_angle_beta   69.47520665
_cell_angle_gamma   31.35862527
_symmetry_Int_Tables_number   1
_chemical_formula_structural   Sr6SiGeI4
_chemical_formula_sum   'Sr12 Si2 Ge2 I8'
_cell_volume   944.20498365
_cell_formula_units_Z   2
loop_
 _symmetry_equiv_pos_site_id
 _symmetry_equiv_pos_as_xyz
  1  'x, y, z'
loop_
 _atom_site_type_symbol
 _atom_site_label
 _atom_site_symmetry_multiplicity
 _atom_site_fract_x
 _atom_site_fract_y
 _atom_site_fract_z
 _atom_site_occupancy
  Sr  Sr0  1  0.363812  0.951688  0.588793  1
  Sr  Sr1  1  0.588793  0.095710  0.363812  1
  Sr  Sr2  1  0.298822  0.885843  0.155515  1
  Sr  Sr3  1  0.951688  0.363812  0.095710  1
  Sr  Sr4  1  0.450457  0.049543  0.049543  1
  Sr  Sr5  1  0.885843  0.298822  0.659818  1
  Sr  Sr6  1  0.095710  0.588793  0.951688  1
  Sr  Sr7  1  0.659818  0.155515  0.885843  1
  Sr  Sr8  1  0.798501  0.201499  0.201499  1
  Sr  Sr9  1  0.201499  0.798501  0.798501  1
  Sr  Sr10  1  0.155515  0.659818  0.298822  1
  Sr  Sr11  1  0.049543  0.450457  0.450457  1
  Si  Si12  1  0.165985  0.165985  0.334015  1
  Si  Si13  1  0.334015  0.334015  0.165985  1
  Ge  Ge14  1  0.083878  0.083878  0.916122  1
  Ge  Ge15  1  0.916122  0.916122  0.083878  1
  I  I16  1  0.672643  0.672643  0.827357  1
  I  I17  1  0.745142  0.745142  0.254858  1
  I  I18  1  0.254858  0.254858  0.745142  1
  I  I19  1  0.577217  0.577217  0.422783  1
  I  I20  1  0.994983  0.994983  0.505017  1
  I  I21  1  0.827357  0.827357  0.672643  1
  I  I22  1  0.422783  0.422783  0.577217  1
  I  I23  1  0.505017  0.505017  0.994983  1
