# generated using pymatgen
data_Sr4SiHgPd4
_symmetry_space_group_name_H-M   'P 1'
_cell_length_a   5.95545512
_cell_length_b   5.95545418
_cell_length_c   8.27749927
_cell_angle_alpha   78.66685362
_cell_angle_beta   78.66685328
_cell_angle_gamma   60.61089197
_symmetry_Int_Tables_number   1
_chemical_formula_structural   Sr4SiHgPd4
_chemical_formula_sum   'Sr4 Si1 Hg1 Pd4'
_cell_volume   249.08521884
_cell_formula_units_Z   1
loop_
 _symmetry_equiv_pos_site_id
 _symmetry_equiv_pos_as_xyz
  1  'x, y, z'
loop_
 _atom_site_type_symbol
 _atom_site_label
 _atom_site_symmetry_multiplicity
 _atom_site_fract_x
 _atom_site_fract_y
 _atom_site_fract_z
 _atom_site_occupancy
  Sr  Sr0  1  0.509640  0.790966  0.354288  1
  Sr  Sr1  1  0.209034  0.490360  0.145712  1
  Sr  Sr2  1  0.486266  0.217781  0.651188  1
  Sr  Sr3  1  0.782219  0.513734  0.848812  1
  Si  Si4  1  0.114730  0.885270  0.750000  1
  Hg  Hg5  1  0.851090  0.148910  0.250000  1
  Pd  Pd6  1  0.750281  0.987134  0.982220  1
  Pd  Pd7  1  0.012866  0.249719  0.517780  1
  Pd  Pd8  1  0.264986  0.981111  0.975278  1
  Pd  Pd9  1  0.018889  0.735014  0.524722  1
