# generated using pymatgen
data_Ca6Si24Os3Rh5
_symmetry_space_group_name_H-M   'P 1'
_cell_length_a   10.16656216
_cell_length_b   10.16656288
_cell_length_c   8.18557200
_cell_angle_alpha   89.98990645
_cell_angle_beta   89.98991208
_cell_angle_gamma   132.48183490
_symmetry_Int_Tables_number   1
_chemical_formula_structural   Ca6Si24Os3Rh5
_chemical_formula_sum   'Ca6 Si24 Os3 Rh5'
_cell_volume   623.95644595
_cell_formula_units_Z   1
loop_
 _symmetry_equiv_pos_site_id
 _symmetry_equiv_pos_as_xyz
  1  'x, y, z'
loop_
 _atom_site_type_symbol
 _atom_site_label
 _atom_site_symmetry_multiplicity
 _atom_site_fract_x
 _atom_site_fract_y
 _atom_site_fract_z
 _atom_site_occupancy
  Ca  Ca0  1  0.500158  0.499842  0.500000  1
  Ca  Ca1  1  0.999340  0.000660  0.000000  1
  Ca  Ca2  1  0.500989  0.001010  0.749679  1
  Ca  Ca3  1  0.998990  0.499011  0.250321  1
  Ca  Ca4  1  0.498620  0.998639  0.250486  1
  Ca  Ca5  1  0.001361  0.501380  0.749514  1
  Si  Si6  1  0.793660  0.206340  0.500000  1
  Si  Si7  1  0.293636  0.706364  0.000000  1
  Si  Si8  1  0.205414  0.794586  0.500000  1
  Si  Si9  1  0.703792  0.296208  0.000000  1
  Si  Si10  1  0.333856  0.329562  0.833028  1
  Si  Si11  1  0.670438  0.666144  0.166972  1
  Si  Si12  1  0.166803  0.166519  0.331453  1
  Si  Si13  1  0.833481  0.833197  0.668547  1
  Si  Si14  1  0.118806  0.885025  0.728019  1
  Si  Si15  1  0.114975  0.881194  0.271981  1
  Si  Si16  1  0.615005  0.380246  0.227909  1
  Si  Si17  1  0.619754  0.384995  0.772091  1
  Si  Si18  1  0.882220  0.115729  0.275316  1
  Si  Si19  1  0.884271  0.117780  0.724684  1
  Si  Si20  1  0.386311  0.620911  0.771385  1
  Si  Si21  1  0.379089  0.613689  0.228615  1
  Si  Si22  1  0.344687  0.110235  0.501295  1
  Si  Si23  1  0.889765  0.655313  0.498705  1
  Si  Si24  1  0.388135  0.154959  0.999866  1
  Si  Si25  1  0.845041  0.611865  0.000134  1
  Si  Si26  1  0.654498  0.888552  0.498542  1
  Si  Si27  1  0.111448  0.345502  0.501458  1
  Si  Si28  1  0.608178  0.841214  0.000182  1
  Si  Si29  1  0.158786  0.391822  0.999818  1
  Os  Os30  1  0.668293  0.331707  0.500000  1
  Os  Os31  1  0.168493  0.831507  0.000000  1
  Os  Os32  1  0.331113  0.668887  0.500000  1
  Rh  Rh33  1  0.832120  0.167880  0.000000  1
  Rh  Rh34  1  0.126992  0.127284  0.625379  1
  Rh  Rh35  1  0.872716  0.873008  0.374621  1
  Rh  Rh36  1  0.373999  0.375227  0.127127  1
  Rh  Rh37  1  0.624773  0.626001  0.872873  1
