# generated using pymatgen
data_Dy16MgIn3(IrRh)2
_symmetry_space_group_name_H-M   'P 1'
_cell_length_a   9.67728250
_cell_length_b   9.66070326
_cell_length_c   9.67783626
_cell_angle_alpha   60.00909924
_cell_angle_beta   60.00190104
_cell_angle_gamma   59.94321706
_symmetry_Int_Tables_number   1
_chemical_formula_structural   Dy16MgIn3(IrRh)2
_chemical_formula_sum   'Dy16 Mg1 In3 Ir2 Rh2'
_cell_volume   639.55040866
_cell_formula_units_Z   1
loop_
 _symmetry_equiv_pos_site_id
 _symmetry_equiv_pos_as_xyz
  1  'x, y, z'
loop_
 _atom_site_type_symbol
 _atom_site_label
 _atom_site_symmetry_multiplicity
 _atom_site_fract_x
 _atom_site_fract_y
 _atom_site_fract_z
 _atom_site_occupancy
  Dy  Dy0  1  0.688003  0.311676  0.312319  1
  Dy  Dy1  1  0.687770  0.688259  0.314030  1
  Dy  Dy2  1  0.309941  0.688259  0.314030  1
  Dy  Dy3  1  0.936250  0.938004  0.562378  1
  Dy  Dy4  1  0.150820  0.149658  0.548702  1
  Dy  Dy5  1  0.563368  0.938004  0.562378  1
  Dy  Dy6  1  0.153016  0.151501  0.151403  1
  Dy  Dy7  1  0.307942  0.310728  0.690958  1
  Dy  Dy8  1  0.938995  0.561337  0.560674  1
  Dy  Dy9  1  0.562162  0.561963  0.938330  1
  Dy  Dy10  1  0.563780  0.937301  0.935138  1
  Dy  Dy11  1  0.937545  0.561963  0.938330  1
  Dy  Dy12  1  0.151753  0.546164  0.150329  1
  Dy  Dy13  1  0.309406  0.690238  0.690949  1
  Dy  Dy14  1  0.690371  0.310728  0.690958  1
  Dy  Dy15  1  0.544080  0.151501  0.151403  1
  Mg  Mg16  1  0.922384  0.923428  0.231803  1
  In  In17  1  0.248092  0.917030  0.918251  1
  In  In18  1  0.916777  0.247645  0.918800  1
  In  In19  1  0.916625  0.917030  0.918251  1
  Ir  Ir20  1  0.358088  0.357225  0.358504  1
  Ir  Ir21  1  0.926184  0.357225  0.358504  1
  Rh  Rh22  1  0.358703  0.357728  0.924866  1
  Rh  Rh23  1  0.357944  0.925405  0.358707  1
