# generated using pymatgen
data_LiLa5(P2Ru3)6
_symmetry_space_group_name_H-M   'P 1'
_cell_length_a   12.79721167
_cell_length_b   12.61805950
_cell_length_c   4.03261300
_cell_angle_alpha   90.00000000
_cell_angle_beta   90.00000000
_cell_angle_gamma   119.53798194
_symmetry_Int_Tables_number   1
_chemical_formula_structural   LiLa5(P2Ru3)6
_chemical_formula_sum   'Li1 La5 P12 Ru18'
_cell_volume   566.53694331
_cell_formula_units_Z   1
loop_
 _symmetry_equiv_pos_site_id
 _symmetry_equiv_pos_as_xyz
  1  'x, y, z'
loop_
 _atom_site_type_symbol
 _atom_site_label
 _atom_site_symmetry_multiplicity
 _atom_site_fract_x
 _atom_site_fract_y
 _atom_site_fract_z
 _atom_site_occupancy
  Li  Li0  1  0.000000  0.562327  0.000000  1
  La  La1  1  0.000000  0.181670  0.500000  1
  La  La2  1  0.818127  0.815317  0.500000  1
  La  La3  1  0.181873  0.997190  0.500000  1
  La  La4  1  0.658760  0.328900  0.000000  1
  La  La5  1  0.341240  0.670141  0.000000  1
  P  P6  1  0.000000  0.802332  0.000000  1
  P  P7  1  0.185598  0.187535  0.000000  1
  P  P8  1  0.814402  0.001937  0.000000  1
  P  P9  1  0.692713  0.170875  0.500000  1
  P  P10  1  0.819188  0.521279  0.500000  1
  P  P11  1  0.470331  0.304708  0.500000  1
  P  P12  1  0.180812  0.702091  0.500000  1
  P  P13  1  0.529669  0.834377  0.500000  1
  P  P14  1  0.307287  0.478162  0.500000  1
  P  P15  1  0.000000  0.371368  0.000000  1
  P  P16  1  0.621781  0.622343  0.000000  1
  P  P17  1  0.378219  0.000562  0.000000  1
  Ru  Ru18  1  0.442817  0.444683  0.000000  1
  Ru  Ru19  1  0.557183  0.001866  0.000000  1
  Ru  Ru20  1  0.000000  0.706776  0.500000  1
  Ru  Ru21  1  0.282494  0.285678  0.500000  1
  Ru  Ru22  1  0.717506  0.003184  0.500000  1
  Ru  Ru23  1  0.804668  0.186858  0.000000  1
  Ru  Ru24  1  0.812776  0.617001  0.000000  1
  Ru  Ru25  1  0.373667  0.191285  0.000000  1
  Ru  Ru26  1  0.187224  0.804225  0.000000  1
  Ru  Ru27  1  0.626333  0.817617  0.000000  1
  Ru  Ru28  1  0.195332  0.382190  0.000000  1
  Ru  Ru29  1  0.878134  0.369014  0.500000  1
  Ru  Ru30  1  0.629187  0.509115  0.500000  1
  Ru  Ru31  1  0.490357  0.126017  0.500000  1
  Ru  Ru32  1  0.370813  0.879928  0.500000  1
  Ru  Ru33  1  0.509643  0.635660  0.500000  1
  Ru  Ru34  1  0.121866  0.490881  0.500000  1
  Ru  Ru35  1  0.000000  0.994911  0.000000  1
