# generated using pymatgen
data_La2Er3GaSi3
_symmetry_space_group_name_H-M   'P 1'
_cell_length_a   7.55214400
_cell_length_b   7.84945300
_cell_length_c   14.94724500
_cell_angle_alpha   90.00000000
_cell_angle_beta   90.00000000
_cell_angle_gamma   90.00000000
_symmetry_Int_Tables_number   1
_chemical_formula_structural   La2Er3GaSi3
_chemical_formula_sum   'La8 Er12 Ga4 Si12'
_cell_volume   886.07566374
_cell_formula_units_Z   4
loop_
 _symmetry_equiv_pos_site_id
 _symmetry_equiv_pos_as_xyz
  1  'x, y, z'
loop_
 _atom_site_type_symbol
 _atom_site_label
 _atom_site_symmetry_multiplicity
 _atom_site_fract_x
 _atom_site_fract_y
 _atom_site_fract_z
 _atom_site_occupancy
  La  La0  1  0.978980  0.820345  0.099531  1
  La  La1  1  0.478980  0.679655  0.400469  1
  La  La2  1  0.521020  0.320345  0.900469  1
  La  La3  1  0.021020  0.179655  0.599531  1
  La  La4  1  0.024737  0.177187  0.900173  1
  La  La5  1  0.524737  0.322813  0.599827  1
  La  La6  1  0.475263  0.677187  0.099827  1
  La  La7  1  0.975263  0.822813  0.400173  1
  Er  Er8  1  0.651295  0.993054  0.251673  1
  Er  Er9  1  0.151295  0.506946  0.248327  1
  Er  Er10  1  0.848705  0.493054  0.748327  1
  Er  Er11  1  0.348705  0.006946  0.751673  1
  Er  Er12  1  0.679726  0.824048  0.874896  1
  Er  Er13  1  0.179726  0.675952  0.625104  1
  Er  Er14  1  0.820274  0.324048  0.125104  1
  Er  Er15  1  0.320274  0.175952  0.374896  1
  Er  Er16  1  0.319318  0.176013  0.123618  1
  Er  Er17  1  0.819318  0.323987  0.376382  1
  Er  Er18  1  0.180682  0.676013  0.876382  1
  Er  Er19  1  0.680682  0.823987  0.623618  1
  Ga  Ga20  1  0.849710  0.535256  0.960406  1
  Ga  Ga21  1  0.349710  0.964744  0.539594  1
  Ga  Ga22  1  0.650290  0.035256  0.039594  1
  Ga  Ga23  1  0.150290  0.464744  0.460406  1
  Si  Si24  1  0.771952  0.619634  0.249646  1
  Si  Si25  1  0.271952  0.880366  0.250354  1
  Si  Si26  1  0.728048  0.119634  0.750354  1
  Si  Si27  1  0.228048  0.380366  0.749646  1
  Si  Si28  1  0.023866  0.115552  0.249052  1
  Si  Si29  1  0.523866  0.384448  0.250948  1
  Si  Si30  1  0.476134  0.615552  0.750948  1
  Si  Si31  1  0.976134  0.884448  0.749052  1
  Si  Si32  1  0.146558  0.465393  0.039779  1
  Si  Si33  1  0.646558  0.034607  0.460221  1
  Si  Si34  1  0.353442  0.965393  0.960221  1
  Si  Si35  1  0.853442  0.534607  0.539779  1
