# generated using pymatgen
data_CaLa4U3O14
_symmetry_space_group_name_H-M   'P 1'
_cell_length_a   7.79328139
_cell_length_b   7.79328115
_cell_length_c   7.79328110
_cell_angle_alpha   61.61245988
_cell_angle_beta   61.61246582
_cell_angle_gamma   61.61246598
_symmetry_Int_Tables_number   1
_chemical_formula_structural   CaLa4U3O14
_chemical_formula_sum   'Ca1 La4 U3 O14'
_cell_volume   346.79739294
_cell_formula_units_Z   1
loop_
 _symmetry_equiv_pos_site_id
 _symmetry_equiv_pos_as_xyz
  1  'x, y, z'
loop_
 _atom_site_type_symbol
 _atom_site_label
 _atom_site_symmetry_multiplicity
 _atom_site_fract_x
 _atom_site_fract_y
 _atom_site_fract_z
 _atom_site_occupancy
  Ca  Ca0  1  0.625000  0.625000  0.625000  1
  La  La1  1  0.625000  0.125000  0.125000  1
  La  La2  1  0.125000  0.125000  0.125000  1
  La  La3  1  0.125000  0.625000  0.125000  1
  La  La4  1  0.125000  0.125000  0.625000  1
  U  U5  1  0.625000  0.625000  0.125000  1
  U  U6  1  0.625000  0.125000  0.625000  1
  U  U7  1  0.125000  0.625000  0.625000  1
  O  O8  1  0.721881  0.284864  0.284864  1
  O  O9  1  0.720309  0.720309  0.265957  1
  O  O10  1  0.284864  0.721881  0.284864  1
  O  O11  1  0.999310  0.999310  0.999310  1
  O  O12  1  0.720309  0.265957  0.720309  1
  O  O13  1  0.984043  0.529691  0.529691  1
  O  O14  1  0.265957  0.720309  0.720309  1
  O  O15  1  0.529691  0.984043  0.529691  1
  O  O16  1  0.250690  0.250690  0.250690  1
  O  O17  1  0.965136  0.528119  0.965136  1
  O  O18  1  0.529691  0.529691  0.984043  1
  O  O19  1  0.965136  0.965136  0.528119  1
  O  O20  1  0.528119  0.965136  0.965136  1
  O  O21  1  0.284864  0.284864  0.721881  1
