# generated using pymatgen
data_Zr10InGa2Sb5
_symmetry_space_group_name_H-M   'P 1'
_cell_length_a   8.70412978
_cell_length_b   8.70413112
_cell_length_c   5.89080700
_cell_angle_alpha   90.00000000
_cell_angle_beta   90.00000000
_cell_angle_gamma   120.15098078
_symmetry_Int_Tables_number   1
_chemical_formula_structural   Zr10InGa2Sb5
_chemical_formula_sum   'Zr10 In1 Ga2 Sb5'
_cell_volume   385.91660742
_cell_formula_units_Z   1
loop_
 _symmetry_equiv_pos_site_id
 _symmetry_equiv_pos_as_xyz
  1  'x, y, z'
loop_
 _atom_site_type_symbol
 _atom_site_label
 _atom_site_symmetry_multiplicity
 _atom_site_fract_x
 _atom_site_fract_y
 _atom_site_fract_z
 _atom_site_occupancy
  Zr  Zr0  1  0.000173  0.266732  0.250000  1
  Zr  Zr1  1  0.731856  0.001145  0.750000  1
  Zr  Zr2  1  0.734258  0.734258  0.250000  1
  Zr  Zr3  1  0.667099  0.331927  0.500660  1
  Zr  Zr4  1  0.001145  0.731856  0.750000  1
  Zr  Zr5  1  0.266977  0.266977  0.750000  1
  Zr  Zr6  1  0.331927  0.667099  0.999340  1
  Zr  Zr7  1  0.667099  0.331927  0.999340  1
  Zr  Zr8  1  0.331927  0.667099  0.500660  1
  Zr  Zr9  1  0.266732  0.000173  0.250000  1
  In  In10  1  0.613726  0.613726  0.750000  1
  Ga  Ga11  1  0.998578  0.998578  0.997771  1
  Ga  Ga12  1  0.998578  0.998578  0.502229  1
  Sb  Sb13  1  0.610606  0.998986  0.250000  1
  Sb  Sb14  1  0.388450  0.999695  0.750000  1
  Sb  Sb15  1  0.392188  0.392188  0.250000  1
  Sb  Sb16  1  0.998986  0.610606  0.250000  1
  Sb  Sb17  1  0.999695  0.388450  0.750000  1
