# generated using pymatgen
data_CsRb4Eu3Br12
_symmetry_space_group_name_H-M   'P 1'
_cell_length_a   14.33610300
_cell_length_b   14.33610328
_cell_length_c   4.62754400
_cell_angle_alpha   90.00000000
_cell_angle_beta   90.00000000
_cell_angle_gamma   120.00000105
_symmetry_Int_Tables_number   1
_chemical_formula_structural   CsRb4Eu3Br12
_chemical_formula_sum   'Cs1 Rb4 Eu3 Br12'
_cell_volume   823.65135567
_cell_formula_units_Z   1
loop_
 _symmetry_equiv_pos_site_id
 _symmetry_equiv_pos_as_xyz
  1  'x, y, z'
loop_
 _atom_site_type_symbol
 _atom_site_label
 _atom_site_symmetry_multiplicity
 _atom_site_fract_x
 _atom_site_fract_y
 _atom_site_fract_z
 _atom_site_occupancy
  Cs  Cs0  1  0.333333  0.666667  0.000000  1
  Rb  Rb1  1  0.666667  0.333333  0.000000  1
  Rb  Rb2  1  0.712557  0.000873  0.000000  1
  Rb  Rb3  1  0.999127  0.711684  0.000000  1
  Rb  Rb4  1  0.288316  0.287443  0.000000  1
  Eu  Eu5  1  0.327675  0.001519  0.500000  1
  Eu  Eu6  1  0.998481  0.326155  0.500000  1
  Eu  Eu7  1  0.673845  0.672325  0.500000  1
  Br  Br8  1  0.189478  0.000535  0.000000  1
  Br  Br9  1  0.999465  0.188943  0.000000  1
  Br  Br10  1  0.811057  0.810522  0.000000  1
  Br  Br11  1  0.461671  0.000037  0.000000  1
  Br  Br12  1  0.999963  0.461634  0.000000  1
  Br  Br13  1  0.538366  0.538329  0.000000  1
  Br  Br14  1  0.235691  0.435238  0.500000  1
  Br  Br15  1  0.564762  0.800454  0.500000  1
  Br  Br16  1  0.443716  0.238965  0.500000  1
  Br  Br17  1  0.199546  0.764309  0.500000  1
  Br  Br18  1  0.795250  0.556284  0.500000  1
  Br  Br19  1  0.761035  0.204750  0.500000  1
