# generated using pymatgen
data_LaFeSiAu
_symmetry_space_group_name_H-M   'P 1'
_cell_length_a   9.09890700
_cell_length_b   9.09890924
_cell_length_c   4.13271100
_cell_angle_alpha   90.00000000
_cell_angle_beta   90.00000000
_cell_angle_gamma   154.09756974
_symmetry_Int_Tables_number   1
_chemical_formula_structural   LaFeSiAu
_chemical_formula_sum   'La2 Fe2 Si2 Au2'
_cell_volume   149.46377183
_cell_formula_units_Z   2
loop_
 _symmetry_equiv_pos_site_id
 _symmetry_equiv_pos_as_xyz
  1  'x, y, z'
loop_
 _atom_site_type_symbol
 _atom_site_label
 _atom_site_symmetry_multiplicity
 _atom_site_fract_x
 _atom_site_fract_y
 _atom_site_fract_z
 _atom_site_occupancy
  La  La0  1  0.618057  0.381943  0.250000  1
  La  La1  1  0.381943  0.618057  0.750000  1
  Fe  Fe2  1  0.250322  0.749678  0.250000  1
  Fe  Fe3  1  0.749678  0.250322  0.750000  1
  Si  Si4  1  0.806350  0.193650  0.250000  1
  Si  Si5  1  0.193650  0.806350  0.750000  1
  Au  Au6  1  0.949533  0.050467  0.250000  1
  Au  Au7  1  0.050467  0.949533  0.750000  1
