# generated using pymatgen
data_DyHo9(RuRh)2
_symmetry_space_group_name_H-M   'P 1'
_cell_length_a   6.34282541
_cell_length_b   7.23902204
_cell_length_c   8.47803203
_cell_angle_alpha   96.71653532
_cell_angle_beta   111.91961754
_cell_angle_gamma   90.00471230
_symmetry_Int_Tables_number   1
_chemical_formula_structural   DyHo9(RuRh)2
_chemical_formula_sum   'Dy1 Ho9 Ru2 Rh2'
_cell_volume   358.25177244
_cell_formula_units_Z   1
loop_
 _symmetry_equiv_pos_site_id
 _symmetry_equiv_pos_as_xyz
  1  'x, y, z'
loop_
 _atom_site_type_symbol
 _atom_site_label
 _atom_site_symmetry_multiplicity
 _atom_site_fract_x
 _atom_site_fract_y
 _atom_site_fract_z
 _atom_site_occupancy
  Dy  Dy0  1  0.980900  0.917847  0.188237  1
  Ho  Ho1  1  0.792891  0.582292  0.811899  1
  Ho  Ho2  1  0.023301  0.085064  0.813947  1
  Ho  Ho3  1  0.209256  0.414857  0.185745  1
  Ho  Ho4  1  0.641829  0.815601  0.434521  1
  Ho  Ho5  1  0.207331  0.684549  0.565567  1
  Ho  Ho6  1  0.355993  0.187453  0.563409  1
  Ho  Ho7  1  0.792832  0.312625  0.436954  1
  Ho  Ho8  1  0.419451  0.749862  0.999851  1
  Ho  Ho9  1  0.577711  0.250040  0.999881  1
  Ru  Ru10  1  0.176713  0.425349  0.779147  1
  Ru  Ru11  1  0.397593  0.075024  0.220423  1
  Rh  Rh12  1  0.822648  0.575901  0.221661  1
  Rh  Rh13  1  0.601550  0.923535  0.778757  1
