# generated using pymatgen
data_Tm2Al8GaPtRh2
_symmetry_space_group_name_H-M   'P 1'
_cell_length_a   7.53533600
_cell_length_b   7.53533546
_cell_length_c   9.44302201
_cell_angle_alpha   89.94060238
_cell_angle_beta   89.94060070
_cell_angle_gamma   119.31714020
_symmetry_Int_Tables_number   1
_chemical_formula_structural   Tm2Al8GaPtRh2
_chemical_formula_sum   'Tm4 Al16 Ga2 Pt2 Rh4'
_cell_volume   467.51263384
_cell_formula_units_Z   2
loop_
 _symmetry_equiv_pos_site_id
 _symmetry_equiv_pos_as_xyz
  1  'x, y, z'
loop_
 _atom_site_type_symbol
 _atom_site_label
 _atom_site_symmetry_multiplicity
 _atom_site_fract_x
 _atom_site_fract_y
 _atom_site_fract_z
 _atom_site_occupancy
  Tm  Tm0  1  0.995163  0.674089  0.250490  1
  Tm  Tm1  1  0.004837  0.325911  0.749510  1
  Tm  Tm2  1  0.674089  0.995163  0.250490  1
  Tm  Tm3  1  0.325911  0.004837  0.749510  1
  Al  Al4  1  0.001162  0.332332  0.078139  1
  Al  Al5  1  0.998838  0.667668  0.921861  1
  Al  Al6  1  0.000120  0.663966  0.575241  1
  Al  Al7  1  0.336034  0.999880  0.424759  1
  Al  Al8  1  0.999880  0.336034  0.424759  1
  Al  Al9  1  0.663966  0.000120  0.575241  1
  Al  Al10  1  0.667668  0.998838  0.921861  1
  Al  Al11  1  0.332332  0.001162  0.078139  1
  Al  Al12  1  0.332057  0.332057  0.553697  1
  Al  Al13  1  0.667943  0.667943  0.446303  1
  Al  Al14  1  0.669438  0.669438  0.059341  1
  Al  Al15  1  0.330562  0.330562  0.940659  1
  Al  Al16  1  0.339310  0.550052  0.253751  1
  Al  Al17  1  0.660690  0.449948  0.746249  1
  Al  Al18  1  0.550052  0.339310  0.253751  1
  Al  Al19  1  0.449948  0.660690  0.746249  1
  Ga  Ga20  1  0.131984  0.131984  0.250682  1
  Ga  Ga21  1  0.868016  0.868016  0.749318  1
  Pt  Pt22  1  0.672108  0.327892  0.000000  1
  Pt  Pt23  1  0.327892  0.672108  0.000000  1
  Rh  Rh24  1  0.328175  0.671825  0.500000  1
  Rh  Rh25  1  0.671825  0.328175  0.500000  1
  Rh  Rh26  1  0.000000  0.000000  0.000000  1
  Rh  Rh27  1  0.000000  0.000000  0.500000  1
