# generated using pymatgen
data_Rb8Ba4ZrSnAs8
_symmetry_space_group_name_H-M   'P 1'
_cell_length_a   10.91506143
_cell_length_b   10.93587433
_cell_length_c   8.21194018
_cell_angle_alpha   88.29855816
_cell_angle_beta   88.29198768
_cell_angle_gamma   119.48148955
_symmetry_Int_Tables_number   1
_chemical_formula_structural   Rb8Ba4ZrSnAs8
_chemical_formula_sum   'Rb8 Ba4 Zr1 Sn1 As8'
_cell_volume   851.81146509
_cell_formula_units_Z   1
loop_
 _symmetry_equiv_pos_site_id
 _symmetry_equiv_pos_as_xyz
  1  'x, y, z'
loop_
 _atom_site_type_symbol
 _atom_site_label
 _atom_site_symmetry_multiplicity
 _atom_site_fract_x
 _atom_site_fract_y
 _atom_site_fract_z
 _atom_site_occupancy
  Rb  Rb0  1  0.474609  0.944385  0.386046  1
  Rb  Rb1  1  0.942938  0.474362  0.884363  1
  Rb  Rb2  1  0.865925  0.722149  0.172670  1
  Rb  Rb3  1  0.268195  0.128090  0.233120  1
  Rb  Rb4  1  0.855960  0.140283  0.199117  1
  Rb  Rb5  1  0.128301  0.269083  0.733375  1
  Rb  Rb6  1  0.721530  0.865189  0.673693  1
  Rb  Rb7  1  0.139785  0.855549  0.699709  1
  Ba  Ba8  1  0.064339  0.531920  0.395727  1
  Ba  Ba9  1  0.476937  0.530491  0.379631  1
  Ba  Ba10  1  0.533760  0.068046  0.889731  1
  Ba  Ba11  1  0.533499  0.476083  0.876461  1
  Zr  Zr12  1  0.334182  0.664428  0.988701  1
  Sn  Sn13  1  0.664597  0.333811  0.492280  1
  As  As14  1  0.643818  0.329950  0.163993  1
  As  As15  1  0.329129  0.642783  0.665666  1
  As  As16  1  0.211709  0.407848  0.126629  1
  As  As17  1  0.598763  0.794116  0.075306  1
  As  As18  1  0.209519  0.801060  0.095425  1
  As  As19  1  0.797717  0.605461  0.577156  1
  As  As20  1  0.399831  0.208242  0.629010  1
  As  As21  1  0.804763  0.206478  0.597528  1
