# generated using pymatgen
data_Er17Tm3(Zn3Ru)2
_symmetry_space_group_name_H-M   'P 1'
_cell_length_a   9.32782300
_cell_length_b   9.32782353
_cell_length_c   9.55427000
_cell_angle_alpha   90.00000000
_cell_angle_beta   90.00000000
_cell_angle_gamma   120.00000168
_symmetry_Int_Tables_number   1
_chemical_formula_structural   Er17Tm3(Zn3Ru)2
_chemical_formula_sum   'Er17 Tm3 Zn6 Ru2'
_cell_volume   719.92748162
_cell_formula_units_Z   1
loop_
 _symmetry_equiv_pos_site_id
 _symmetry_equiv_pos_as_xyz
  1  'x, y, z'
loop_
 _atom_site_type_symbol
 _atom_site_label
 _atom_site_symmetry_multiplicity
 _atom_site_fract_x
 _atom_site_fract_y
 _atom_site_fract_z
 _atom_site_occupancy
  Er  Er0  1  0.000000  0.000000  0.499886  1
  Er  Er1  1  0.000000  0.000000  0.999935  1
  Er  Er2  1  0.792326  0.207674  0.557585  1
  Er  Er3  1  0.792326  0.584652  0.557585  1
  Er  Er4  1  0.415348  0.207674  0.557585  1
  Er  Er5  1  0.792281  0.207719  0.942321  1
  Er  Er6  1  0.792281  0.584563  0.942321  1
  Er  Er7  1  0.415437  0.207719  0.942321  1
  Er  Er8  1  0.207797  0.792203  0.057832  1
  Er  Er9  1  0.207797  0.415593  0.057832  1
  Er  Er10  1  0.584407  0.792203  0.057832  1
  Er  Er11  1  0.541014  0.458986  0.250185  1
  Er  Er12  1  0.541014  0.082028  0.250185  1
  Er  Er13  1  0.917972  0.458986  0.250185  1
  Er  Er14  1  0.458743  0.541257  0.749708  1
  Er  Er15  1  0.458743  0.917486  0.749708  1
  Er  Er16  1  0.082514  0.541257  0.749708  1
  Tm  Tm17  1  0.207990  0.792010  0.442279  1
  Tm  Tm18  1  0.207990  0.415980  0.442279  1
  Tm  Tm19  1  0.584020  0.792010  0.442279  1
  Zn  Zn20  1  0.885810  0.114190  0.250048  1
  Zn  Zn21  1  0.885810  0.771622  0.250048  1
  Zn  Zn22  1  0.228378  0.114190  0.250048  1
  Zn  Zn23  1  0.114201  0.885799  0.749884  1
  Zn  Zn24  1  0.114201  0.228400  0.749884  1
  Zn  Zn25  1  0.771600  0.885799  0.749884  1
  Ru  Ru26  1  0.333333  0.666667  0.250596  1
  Ru  Ru27  1  0.666667  0.333333  0.750055  1
