# generated using pymatgen
data_YbEu3Tl3InPd4
_symmetry_space_group_name_H-M   'P 1'
_cell_length_a   4.49318900
_cell_length_b   7.47309664
_cell_length_c   8.72654722
_cell_angle_alpha   90.68595276
_cell_angle_beta   90.00000000
_cell_angle_gamma   90.00000000
_symmetry_Int_Tables_number   1
_chemical_formula_structural   YbEu3Tl3InPd4
_chemical_formula_sum   'Yb1 Eu3 Tl3 In1 Pd4'
_cell_volume   292.99931421
_cell_formula_units_Z   1
loop_
 _symmetry_equiv_pos_site_id
 _symmetry_equiv_pos_as_xyz
  1  'x, y, z'
loop_
 _atom_site_type_symbol
 _atom_site_label
 _atom_site_symmetry_multiplicity
 _atom_site_fract_x
 _atom_site_fract_y
 _atom_site_fract_z
 _atom_site_occupancy
  Yb  Yb0  1  0.250000  0.534001  0.183914  1
  Eu  Eu1  1  0.750000  0.467396  0.820070  1
  Eu  Eu2  1  0.250000  0.031424  0.317126  1
  Eu  Eu3  1  0.750000  0.967597  0.681709  1
  Tl  Tl4  1  0.250000  0.151593  0.937752  1
  Tl  Tl5  1  0.750000  0.350235  0.434683  1
  Tl  Tl6  1  0.250000  0.653315  0.562821  1
  In  In7  1  0.750000  0.849475  0.062331  1
  Pd  Pd8  1  0.750000  0.240475  0.124510  1
  Pd  Pd9  1  0.250000  0.261158  0.626609  1
  Pd  Pd10  1  0.750000  0.734412  0.361988  1
  Pd  Pd11  1  0.250000  0.758920  0.886486  1
