# generated using pymatgen
data_Ba8TmTl3(FeO5)4
_symmetry_space_group_name_H-M   'P 1'
_cell_length_a   6.09276023
_cell_length_b   8.09657044
_cell_length_c   12.77578500
_cell_angle_alpha   91.64947425
_cell_angle_beta   89.98414500
_cell_angle_gamma   89.92797127
_symmetry_Int_Tables_number   1
_chemical_formula_structural   Ba8TmTl3(FeO5)4
_chemical_formula_sum   'Ba8 Tm1 Tl3 Fe4 O20'
_cell_volume   629.97370369
_cell_formula_units_Z   1
loop_
 _symmetry_equiv_pos_site_id
 _symmetry_equiv_pos_as_xyz
  1  'x, y, z'
loop_
 _atom_site_type_symbol
 _atom_site_label
 _atom_site_symmetry_multiplicity
 _atom_site_fract_x
 _atom_site_fract_y
 _atom_site_fract_z
 _atom_site_occupancy
  Ba  Ba0  1  0.765833  0.484584  0.344081  1
  Ba  Ba1  1  0.740718  0.986616  0.845571  1
  Ba  Ba2  1  0.231461  0.511376  0.653485  1
  Ba  Ba3  1  0.265703  0.014931  0.154244  1
  Ba  Ba4  1  0.763015  0.992211  0.377408  1
  Ba  Ba5  1  0.743344  0.491566  0.878914  1
  Ba  Ba6  1  0.235342  0.008969  0.622588  1
  Ba  Ba7  1  0.263248  0.507664  0.122025  1
  Tm  Tm8  1  0.252891  0.234743  0.872870  1
  Tl  Tl9  1  0.747141  0.266715  0.628705  1
  Tl  Tl10  1  0.750368  0.767662  0.124609  1
  Tl  Tl11  1  0.250209  0.731960  0.375349  1
  Fe  Fe12  1  0.735174  0.742404  0.583591  1
  Fe  Fe13  1  0.767333  0.241823  0.080074  1
  Fe  Fe14  1  0.265365  0.257148  0.417211  1
  Fe  Fe15  1  0.236452  0.755606  0.915139  1
  O  O16  1  0.775617  0.961472  0.634278  1
  O  O17  1  0.726664  0.461576  0.132706  1
  O  O18  1  0.225373  0.037650  0.366442  1
  O  O19  1  0.267332  0.527504  0.870442  1
  O  O20  1  0.727675  0.072121  0.177404  1
  O  O21  1  0.773306  0.575327  0.681106  1
  O  O22  1  0.264703  0.944511  0.830656  1
  O  O23  1  0.227338  0.426649  0.320697  1
  O  O24  1  0.539049  0.746728  0.275762  1
  O  O25  1  0.965149  0.247783  0.772805  1
  O  O26  1  0.453825  0.252141  0.728696  1
  O  O27  1  0.040355  0.754090  0.223431  1
  O  O28  1  0.553962  0.221378  0.970196  1
  O  O29  1  0.944640  0.717910  0.472037  1
  O  O30  1  0.445738  0.778658  0.026132  1
  O  O31  1  0.055187  0.280155  0.527742  1
  O  O32  1  0.055015  0.233427  0.019090  1
  O  O33  1  0.442706  0.733620  0.529378  1
  O  O34  1  0.946258  0.764721  0.971074  1
  O  O35  1  0.556514  0.266605  0.474060  1
