# generated using pymatgen
data_Dy6Ta4Al12Os7
_symmetry_space_group_name_H-M   'P 1'
_cell_length_a   9.04441076
_cell_length_b   9.04787214
_cell_length_c   9.04787271
_cell_angle_alpha   60.01517801
_cell_angle_beta   60.01175657
_cell_angle_gamma   60.01175030
_symmetry_Int_Tables_number   1
_chemical_formula_structural   Dy6Ta4Al12Os7
_chemical_formula_sum   'Dy6 Ta4 Al12 Os7'
_cell_volume   523.70311554
_cell_formula_units_Z   1
loop_
 _symmetry_equiv_pos_site_id
 _symmetry_equiv_pos_as_xyz
  1  'x, y, z'
loop_
 _atom_site_type_symbol
 _atom_site_label
 _atom_site_symmetry_multiplicity
 _atom_site_fract_x
 _atom_site_fract_y
 _atom_site_fract_z
 _atom_site_occupancy
  Dy  Dy0  1  0.706066  0.705840  0.293933  1
  Dy  Dy1  1  0.294162  0.705839  0.293929  1
  Dy  Dy2  1  0.706960  0.293037  0.293037  1
  Dy  Dy3  1  0.294162  0.293929  0.705839  1
  Dy  Dy4  1  0.706066  0.293933  0.705840  1
  Dy  Dy5  1  0.293068  0.706934  0.706934  1
  Ta  Ta6  1  0.879508  0.879215  0.361767  1
  Ta  Ta7  1  0.879508  0.361767  0.879215  1
  Ta  Ta8  1  0.361683  0.879452  0.879452  1
  Ta  Ta9  1  0.879413  0.879454  0.879454  1
  Al  Al10  1  0.119979  0.121006  0.639038  1
  Al  Al11  1  0.119979  0.639038  0.121006  1
  Al  Al12  1  0.638734  0.120312  0.120312  1
  Al  Al13  1  0.120643  0.120310  0.120310  1
  Al  Al14  1  0.666664  0.666440  0.000231  1
  Al  Al15  1  0.666664  0.000231  0.666440  1
  Al  Al16  1  0.000638  0.666584  0.666584  1
  Al  Al17  1  0.666192  0.666586  0.666586  1
  Al  Al18  1  0.330812  0.331090  0.007295  1
  Al  Al19  1  0.330812  0.007295  0.331090  1
  Al  Al20  1  0.007300  0.330766  0.330766  1
  Al  Al21  1  0.331169  0.330764  0.330764  1
  Os  Os22  1  0.999911  0.000090  0.000090  1
  Os  Os23  1  0.995366  0.995460  0.504668  1
  Os  Os24  1  0.504504  0.995467  0.504662  1
  Os  Os25  1  0.995515  0.504485  0.504485  1
  Os  Os26  1  0.504504  0.504662  0.995467  1
  Os  Os27  1  0.995366  0.504668  0.995460  1
  Os  Os28  1  0.504651  0.995351  0.995351  1
