# generated using pymatgen
data_P2OsCl15
_symmetry_space_group_name_H-M   'P 1'
_cell_length_a   8.69762957
_cell_length_b   8.69762912
_cell_length_c   10.25601704
_cell_angle_alpha   62.55877323
_cell_angle_beta   62.55877466
_cell_angle_gamma   56.61534882
_symmetry_Int_Tables_number   1
_chemical_formula_structural   P2OsCl15
_chemical_formula_sum   'P2 Os1 Cl15'
_cell_volume   551.99854057
_cell_formula_units_Z   1
loop_
 _symmetry_equiv_pos_site_id
 _symmetry_equiv_pos_as_xyz
  1  'x, y, z'
loop_
 _atom_site_type_symbol
 _atom_site_label
 _atom_site_symmetry_multiplicity
 _atom_site_fract_x
 _atom_site_fract_y
 _atom_site_fract_z
 _atom_site_occupancy
  P  P0  1  0.277010  0.277010  0.188647  1
  P  P1  1  0.722990  0.722990  0.811353  1
  Os  Os2  1  0.500000  0.500000  0.500000  1
  Cl  Cl3  1  0.326252  0.326252  0.586571  1
  Cl  Cl4  1  0.671165  0.275212  0.678324  1
  Cl  Cl5  1  0.169750  0.169750  0.406790  1
  Cl  Cl6  1  0.559601  0.165405  0.137181  1
  Cl  Cl7  1  0.673748  0.673748  0.413429  1
  Cl  Cl8  1  0.724788  0.328835  0.321676  1
  Cl  Cl9  1  0.275212  0.671165  0.678324  1
  Cl  Cl10  1  0.789880  0.789880  0.931629  1
  Cl  Cl11  1  0.440399  0.834595  0.862819  1
  Cl  Cl12  1  0.210120  0.210120  0.068371  1
  Cl  Cl13  1  0.830250  0.830250  0.593210  1
  Cl  Cl14  1  0.328835  0.724788  0.321676  1
  Cl  Cl15  1  0.165405  0.559601  0.137181  1
  Cl  Cl16  1  0.000000  0.000000  0.000000  1
  Cl  Cl17  1  0.834595  0.440399  0.862819  1
