# generated using pymatgen
data_Zr2Ni4P3
_symmetry_space_group_name_H-M   'P 1'
_cell_length_a   12.22185700
_cell_length_b   12.22185792
_cell_length_c   3.69362000
_cell_angle_alpha   90.00000000
_cell_angle_beta   90.00000000
_cell_angle_gamma   119.99999479
_symmetry_Int_Tables_number   1
_chemical_formula_structural   Zr2Ni4P3
_chemical_formula_sum   'Zr8 Ni16 P12'
_cell_volume   477.81226834
_cell_formula_units_Z   4
loop_
 _symmetry_equiv_pos_site_id
 _symmetry_equiv_pos_as_xyz
  1  'x, y, z'
loop_
 _atom_site_type_symbol
 _atom_site_label
 _atom_site_symmetry_multiplicity
 _atom_site_fract_x
 _atom_site_fract_y
 _atom_site_fract_z
 _atom_site_occupancy
  Zr  Zr0  1  0.444065  0.444065  0.000000  1
  Zr  Zr1  1  0.555935  0.000000  0.000000  1
  Zr  Zr2  1  0.000000  0.555935  0.000000  1
  Zr  Zr3  1  0.666667  0.333333  0.000000  1
  Zr  Zr4  1  0.333333  0.666667  0.000000  1
  Zr  Zr5  1  0.822539  0.822539  0.500000  1
  Zr  Zr6  1  0.177461  0.000000  0.500000  1
  Zr  Zr7  1  0.000000  0.177461  0.500000  1
  Ni  Ni8  1  0.189142  0.370478  0.000000  1
  Ni  Ni9  1  0.181336  0.810858  0.000000  1
  Ni  Ni10  1  0.818664  0.629522  0.000000  1
  Ni  Ni11  1  0.810858  0.181336  0.000000  1
  Ni  Ni12  1  0.370478  0.189142  0.000000  1
  Ni  Ni13  1  0.125122  0.479306  0.500000  1
  Ni  Ni14  1  0.354184  0.874878  0.500000  1
  Ni  Ni15  1  0.520694  0.645816  0.500000  1
  Ni  Ni16  1  0.645816  0.520694  0.500000  1
  Ni  Ni17  1  0.874878  0.354184  0.500000  1
  Ni  Ni18  1  0.479306  0.125122  0.500000  1
  Ni  Ni19  1  0.000000  0.000000  0.000000  1
  Ni  Ni20  1  0.727194  0.000000  0.500000  1
  Ni  Ni21  1  0.000000  0.727194  0.500000  1
  Ni  Ni22  1  0.629522  0.818664  0.000000  1
  Ni  Ni23  1  0.272806  0.272806  0.500000  1
  P  P24  1  0.650084  0.650084  0.000000  1
  P  P25  1  0.349916  0.000000  0.000000  1
  P  P26  1  0.000000  0.349916  0.000000  1
  P  P27  1  0.484047  0.311035  0.500000  1
  P  P28  1  0.688965  0.173012  0.500000  1
  P  P29  1  0.826988  0.515953  0.500000  1
  P  P30  1  0.515953  0.826988  0.500000  1
  P  P31  1  0.173012  0.688965  0.500000  1
  P  P32  1  0.823850  0.000000  0.000000  1
  P  P33  1  0.000000  0.823850  0.000000  1
  P  P34  1  0.311035  0.484047  0.500000  1
  P  P35  1  0.176150  0.176150  0.000000  1
