# generated using pymatgen
data_Np4Ga7FeGe5
_symmetry_space_group_name_H-M   'P 1'
_cell_length_a   7.41975819
_cell_length_b   7.41975717
_cell_length_c   7.42472468
_cell_angle_alpha   109.48778104
_cell_angle_beta   108.91990920
_cell_angle_gamma   109.98095788
_symmetry_Int_Tables_number   1
_chemical_formula_structural   Np4Ga7FeGe5
_chemical_formula_sum   'Np4 Ga7 Fe1 Ge5'
_cell_volume   314.73419878
_cell_formula_units_Z   1
loop_
 _symmetry_equiv_pos_site_id
 _symmetry_equiv_pos_as_xyz
  1  'x, y, z'
loop_
 _atom_site_type_symbol
 _atom_site_label
 _atom_site_symmetry_multiplicity
 _atom_site_fract_x
 _atom_site_fract_y
 _atom_site_fract_z
 _atom_site_occupancy
  Np  Np0  1  0.499857  0.003858  0.009507  1
  Np  Np1  1  0.005649  0.509650  0.009507  1
  Np  Np2  1  0.989001  0.987451  0.487019  1
  Np  Np3  1  0.499568  0.498018  0.487019  1
  Ga  Ga4  1  0.003022  0.285095  0.288116  1
  Ga  Ga5  1  0.757452  0.254014  0.509738  1
  Ga  Ga6  1  0.255724  0.752286  0.509738  1
  Ga  Ga7  1  0.718799  0.006413  0.725211  1
  Ga  Ga8  1  0.003682  0.715124  0.718806  1
  Ga  Ga9  1  0.499511  0.248935  0.748446  1
  Ga  Ga10  1  0.247681  0.496766  0.744448  1
  Fe  Fe11  1  0.004715  0.000335  0.005050  1
  Ge  Ge12  1  0.269308  0.272106  0.982294  1
  Ge  Ge13  1  0.710188  0.712985  0.982294  1
  Ge  Ge14  1  0.753694  0.496896  0.250590  1
  Ge  Ge15  1  0.499258  0.752250  0.251508  1
  Ge  Ge16  1  0.282890  0.007817  0.290707  1
