# generated using pymatgen
data_Sm2Co9Tc3P7
_symmetry_space_group_name_H-M   'P 1'
_cell_length_a   3.72661700
_cell_length_b   9.08354275
_cell_length_c   9.08354400
_cell_angle_alpha   119.99999725
_cell_angle_beta   90.00000000
_cell_angle_gamma   90.00000000
_symmetry_Int_Tables_number   1
_chemical_formula_structural   Sm2Co9Tc3P7
_chemical_formula_sum   'Sm2 Co9 Tc3 P7'
_cell_volume   266.29069640
_cell_formula_units_Z   1
loop_
 _symmetry_equiv_pos_site_id
 _symmetry_equiv_pos_as_xyz
  1  'x, y, z'
loop_
 _atom_site_type_symbol
 _atom_site_label
 _atom_site_symmetry_multiplicity
 _atom_site_fract_x
 _atom_site_fract_y
 _atom_site_fract_z
 _atom_site_occupancy
  Sm  Sm0  1  0.000000  0.666667  0.333333  1
  Sm  Sm1  1  0.500000  0.333333  0.666667  1
  Co  Co2  1  0.000000  0.567860  0.940249  1
  Co  Co3  1  0.000000  0.372388  0.432140  1
  Co  Co4  1  0.000000  0.059751  0.627612  1
  Co  Co5  1  0.000000  0.877720  0.156635  1
  Co  Co6  1  0.000000  0.278914  0.122280  1
  Co  Co7  1  0.000000  0.843365  0.721086  1
  Co  Co8  1  0.500000  0.946781  0.382563  1
  Co  Co9  1  0.500000  0.435780  0.053219  1
  Co  Co10  1  0.500000  0.617437  0.564220  1
  Tc  Tc11  1  0.500000  0.781281  0.901978  1
  Tc  Tc12  1  0.500000  0.120697  0.218719  1
  Tc  Tc13  1  0.500000  0.098022  0.879303  1
  P  P14  1  0.000000  0.000000  0.000000  1
  P  P15  1  0.500000  0.707353  0.113035  1
  P  P16  1  0.500000  0.405683  0.292647  1
  P  P17  1  0.500000  0.886965  0.594317  1
  P  P18  1  0.000000  0.591333  0.700296  1
  P  P19  1  0.000000  0.108963  0.408667  1
  P  P20  1  0.000000  0.299704  0.891037  1
