# generated using pymatgen
data_KZrRhSe4
_symmetry_space_group_name_H-M   'P 1'
_cell_length_a   3.82648100
_cell_length_b   8.40650581
_cell_length_c   6.21372792
_cell_angle_alpha   73.36435703
_cell_angle_beta   90.00000000
_cell_angle_gamma   90.00000000
_symmetry_Int_Tables_number   1
_chemical_formula_structural   KZrRhSe4
_chemical_formula_sum   'K1 Zr1 Rh1 Se4'
_cell_volume   191.51306087
_cell_formula_units_Z   1
loop_
 _symmetry_equiv_pos_site_id
 _symmetry_equiv_pos_as_xyz
  1  'x, y, z'
loop_
 _atom_site_type_symbol
 _atom_site_label
 _atom_site_symmetry_multiplicity
 _atom_site_fract_x
 _atom_site_fract_y
 _atom_site_fract_z
 _atom_site_occupancy
  K  K0  1  0.500000  0.502645  0.649386  1
  Zr  Zr1  1  0.000000  0.993490  0.960250  1
  Rh  Rh2  1  0.500000  0.004531  0.530543  1
  Se  Se3  1  0.000000  0.842580  0.426000  1
  Se  Se4  1  0.500000  0.782583  0.921221  1
  Se  Se5  1  0.000000  0.203201  0.563577  1
  Se  Se6  1  0.500000  0.170090  0.115981  1
