# generated using pymatgen
data_Nb12Ga9Pd3N4
_symmetry_space_group_name_H-M   'P 1'
_cell_length_a   8.35172360
_cell_length_b   8.34570734
_cell_length_c   8.34570800
_cell_angle_alpha   60.00000532
_cell_angle_beta   60.02383182
_cell_angle_gamma   60.02383112
_symmetry_Int_Tables_number   1
_chemical_formula_structural   Nb12Ga9Pd3N4
_chemical_formula_sum   'Nb12 Ga9 Pd3 N4'
_cell_volume   411.47534120
_cell_formula_units_Z   1
loop_
 _symmetry_equiv_pos_site_id
 _symmetry_equiv_pos_as_xyz
  1  'x, y, z'
loop_
 _atom_site_type_symbol
 _atom_site_label
 _atom_site_symmetry_multiplicity
 _atom_site_fract_x
 _atom_site_fract_y
 _atom_site_fract_z
 _atom_site_occupancy
  Nb  Nb0  1  0.822061  0.817767  0.180085  1
  Nb  Nb1  1  0.182359  0.195892  0.810875  1
  Nb  Nb2  1  0.822061  0.180085  0.817767  1
  Nb  Nb3  1  0.182359  0.810875  0.195892  1
  Nb  Nb4  1  0.182359  0.810875  0.810875  1
  Nb  Nb5  1  0.822061  0.180085  0.180085  1
  Nb  Nb6  1  0.427939  0.432233  0.069915  1
  Nb  Nb7  1  0.067641  0.054108  0.439125  1
  Nb  Nb8  1  0.427939  0.069915  0.432233  1
  Nb  Nb9  1  0.067641  0.439125  0.054108  1
  Nb  Nb10  1  0.067641  0.439125  0.439125  1
  Nb  Nb11  1  0.427939  0.069915  0.069915  1
  Ga  Ga12  1  0.125000  0.625000  0.625000  1
  Ga  Ga13  1  0.768175  0.410609  0.410609  1
  Ga  Ga14  1  0.422009  0.758502  0.409745  1
  Ga  Ga15  1  0.422009  0.409745  0.758502  1
  Ga  Ga16  1  0.422009  0.409745  0.409745  1
  Ga  Ga17  1  0.481825  0.839391  0.839391  1
  Ga  Ga18  1  0.827991  0.491498  0.840255  1
  Ga  Ga19  1  0.827991  0.840255  0.491498  1
  Ga  Ga20  1  0.827991  0.840255  0.840255  1
  Pd  Pd21  1  0.625000  0.125000  0.625000  1
  Pd  Pd22  1  0.625000  0.625000  0.125000  1
  Pd  Pd23  1  0.625000  0.625000  0.625000  1
  N  N24  1  0.625000  0.125000  0.125000  1
  N  N25  1  0.125000  0.625000  0.125000  1
  N  N26  1  0.125000  0.125000  0.625000  1
  N  N27  1  0.125000  0.125000  0.125000  1
