# generated using pymatgen
data_Tm7Th(Si4Mo3)4
_symmetry_space_group_name_H-M   'P 1'
_cell_length_a   6.75745831
_cell_length_b   6.93612211
_cell_length_c   12.92525998
_cell_angle_alpha   90.10075374
_cell_angle_beta   90.03634784
_cell_angle_gamma   89.99774990
_symmetry_Int_Tables_number   1
_chemical_formula_structural   Tm7Th(Si4Mo3)4
_chemical_formula_sum   'Tm7 Th1 Si16 Mo12'
_cell_volume   605.81306267
_cell_formula_units_Z   1
loop_
 _symmetry_equiv_pos_site_id
 _symmetry_equiv_pos_as_xyz
  1  'x, y, z'
loop_
 _atom_site_type_symbol
 _atom_site_label
 _atom_site_symmetry_multiplicity
 _atom_site_fract_x
 _atom_site_fract_y
 _atom_site_fract_z
 _atom_site_occupancy
  Tm  Tm0  1  0.495729  0.332749  0.093659  1
  Tm  Tm1  1  0.996507  0.167340  0.406580  1
  Tm  Tm2  1  0.502994  0.667697  0.594188  1
  Tm  Tm3  1  0.003620  0.832890  0.903548  1
  Tm  Tm4  1  0.503862  0.667359  0.903931  1
  Tm  Tm5  1  0.003009  0.832209  0.594086  1
  Tm  Tm6  1  0.496710  0.333259  0.408654  1
  Th  Th7  1  0.997513  0.166451  0.093438  1
  Si  Si8  1  0.659506  0.040765  0.547325  1
  Si  Si9  1  0.161960  0.463097  0.950858  1
  Si  Si10  1  0.347211  0.953326  0.045489  1
  Si  Si11  1  0.841225  0.540397  0.453228  1
  Si  Si12  1  0.339971  0.959079  0.453615  1
  Si  Si13  1  0.836689  0.549277  0.045101  1
  Si  Si14  1  0.657532  0.040702  0.950090  1
  Si  Si15  1  0.159594  0.458934  0.547395  1
  Si  Si16  1  0.534351  0.366521  0.749185  1
  Si  Si17  1  0.034865  0.133610  0.749230  1
  Si  Si18  1  0.465930  0.633264  0.250348  1
  Si  Si19  1  0.964410  0.861033  0.253467  1
  Si  Si20  1  0.801881  0.631400  0.748827  1
  Si  Si21  1  0.302786  0.869167  0.749119  1
  Si  Si22  1  0.202045  0.373062  0.253739  1
  Si  Si23  1  0.690612  0.130367  0.253556  1
  Mo  Mo24  1  0.831353  0.335161  0.624500  1
  Mo  Mo25  1  0.331060  0.164601  0.874523  1
  Mo  Mo26  1  0.169208  0.663660  0.125556  1
  Mo  Mo27  1  0.667969  0.833427  0.376325  1
  Mo  Mo28  1  0.170469  0.664548  0.376703  1
  Mo  Mo29  1  0.669587  0.836261  0.126234  1
  Mo  Mo30  1  0.830837  0.336083  0.874298  1
  Mo  Mo31  1  0.330140  0.165106  0.624571  1
  Mo  Mo32  1  0.666206  0.997166  0.748995  1
  Mo  Mo33  1  0.165616  0.503689  0.749745  1
  Mo  Mo34  1  0.332983  0.001815  0.250434  1
  Mo  Mo35  1  0.834060  0.494530  0.249462  1
