# generated using pymatgen
data_Li3Sm5(Ni4P3)4
_symmetry_space_group_name_H-M   'P 1'
_cell_length_a   12.18709000
_cell_length_b   12.18709090
_cell_length_c   3.83340700
_cell_angle_alpha   90.00000000
_cell_angle_beta   90.00000000
_cell_angle_gamma   120.00000299
_symmetry_Int_Tables_number   1
_chemical_formula_structural   Li3Sm5(Ni4P3)4
_chemical_formula_sum   'Li3 Sm5 Ni16 P12'
_cell_volume   493.07799229
_cell_formula_units_Z   1
loop_
 _symmetry_equiv_pos_site_id
 _symmetry_equiv_pos_as_xyz
  1  'x, y, z'
loop_
 _atom_site_type_symbol
 _atom_site_label
 _atom_site_symmetry_multiplicity
 _atom_site_fract_x
 _atom_site_fract_y
 _atom_site_fract_z
 _atom_site_occupancy
  Li  Li0  1  0.566442  0.566442  0.000000  1
  Li  Li1  1  0.433558  0.000000  0.000000  1
  Li  Li2  1  0.000000  0.433558  0.000000  1
  Sm  Sm3  1  0.190186  0.190186  0.500000  1
  Sm  Sm4  1  0.809814  0.000000  0.500000  1
  Sm  Sm5  1  0.000000  0.809814  0.500000  1
  Sm  Sm6  1  0.333333  0.666667  0.000000  1
  Sm  Sm7  1  0.666667  0.333333  0.000000  1
  Ni  Ni8  1  0.719401  0.719401  0.500000  1
  Ni  Ni9  1  0.280599  0.000000  0.500000  1
  Ni  Ni10  1  0.000000  0.280599  0.500000  1
  Ni  Ni11  1  0.184530  0.381109  0.000000  1
  Ni  Ni12  1  0.618891  0.803421  0.000000  1
  Ni  Ni13  1  0.196579  0.815470  0.000000  1
  Ni  Ni14  1  0.803421  0.618891  0.000000  1
  Ni  Ni15  1  0.815470  0.196579  0.000000  1
  Ni  Ni16  1  0.381109  0.184530  0.000000  1
  Ni  Ni17  1  0.363659  0.485135  0.500000  1
  Ni  Ni18  1  0.514865  0.878525  0.500000  1
  Ni  Ni19  1  0.121475  0.636341  0.500000  1
  Ni  Ni20  1  0.878525  0.514865  0.500000  1
  Ni  Ni21  1  0.636341  0.121475  0.500000  1
  Ni  Ni22  1  0.485135  0.363659  0.500000  1
  Ni  Ni23  1  0.000000  0.000000  0.000000  1
  P  P24  1  0.820372  0.820372  0.000000  1
  P  P25  1  0.179628  0.000000  0.000000  1
  P  P26  1  0.000000  0.179628  0.000000  1
  P  P27  1  0.169557  0.474788  0.500000  1
  P  P28  1  0.525212  0.694768  0.500000  1
  P  P29  1  0.305232  0.830443  0.500000  1
  P  P30  1  0.694768  0.525212  0.500000  1
  P  P31  1  0.830443  0.305232  0.500000  1
  P  P32  1  0.474788  0.169557  0.500000  1
  P  P33  1  0.368748  0.368748  0.000000  1
  P  P34  1  0.631252  0.000000  0.000000  1
  P  P35  1  0.000000  0.631252  0.000000  1
