# generated using pymatgen
data_La5Pr3(MgIr)2
_symmetry_space_group_name_H-M   'P 1'
_cell_length_a   10.15344225
_cell_length_b   10.15344301
_cell_length_c   10.15344300
_cell_angle_alpha   60.00000330
_cell_angle_beta   60.00000082
_cell_angle_gamma   60.00000490
_symmetry_Int_Tables_number   1
_chemical_formula_structural   La5Pr3(MgIr)2
_chemical_formula_sum   'La10 Pr6 Mg4 Ir4'
_cell_volume   740.15896807
_cell_formula_units_Z   2
loop_
 _symmetry_equiv_pos_site_id
 _symmetry_equiv_pos_as_xyz
  1  'x, y, z'
loop_
 _atom_site_type_symbol
 _atom_site_label
 _atom_site_symmetry_multiplicity
 _atom_site_fract_x
 _atom_site_fract_y
 _atom_site_fract_z
 _atom_site_occupancy
  La  La0  1  0.345396  0.345396  0.345396  1
  La  La1  1  0.345396  0.345396  0.963814  1
  La  La2  1  0.345396  0.963814  0.345396  1
  La  La3  1  0.963814  0.345396  0.345396  1
  La  La4  1  0.811445  0.188555  0.188555  1
  La  La5  1  0.188555  0.811445  0.811445  1
  La  La6  1  0.188555  0.811445  0.188555  1
  La  La7  1  0.811445  0.188555  0.811445  1
  La  La8  1  0.188555  0.188555  0.811445  1
  La  La9  1  0.811445  0.811445  0.188555  1
  Pr  Pr10  1  0.937201  0.562799  0.562799  1
  Pr  Pr11  1  0.562799  0.937201  0.937201  1
  Pr  Pr12  1  0.562799  0.937201  0.562799  1
  Pr  Pr13  1  0.937201  0.562799  0.937201  1
  Pr  Pr14  1  0.562799  0.562799  0.937201  1
  Pr  Pr15  1  0.937201  0.937201  0.562799  1
  Mg  Mg16  1  0.578995  0.578995  0.578995  1
  Mg  Mg17  1  0.578995  0.578995  0.263015  1
  Mg  Mg18  1  0.578995  0.263015  0.578995  1
  Mg  Mg19  1  0.263015  0.578995  0.578995  1
  Ir  Ir20  1  0.140946  0.140946  0.140946  1
  Ir  Ir21  1  0.140946  0.140946  0.577161  1
  Ir  Ir22  1  0.140946  0.577161  0.140946  1
  Ir  Ir23  1  0.577161  0.140946  0.140946  1
