# generated using pymatgen
data_CaPrAl20RuRh3
_symmetry_space_group_name_H-M   'P 1'
_cell_length_a   6.88923817
_cell_length_b   6.88927763
_cell_length_c   9.17204019
_cell_angle_alpha   89.94242615
_cell_angle_beta   89.92924424
_cell_angle_gamma   97.14472540
_symmetry_Int_Tables_number   1
_chemical_formula_structural   CaPrAl20RuRh3
_chemical_formula_sum   'Ca1 Pr1 Al20 Ru1 Rh3'
_cell_volume   431.94138531
_cell_formula_units_Z   1
loop_
 _symmetry_equiv_pos_site_id
 _symmetry_equiv_pos_as_xyz
  1  'x, y, z'
loop_
 _atom_site_type_symbol
 _atom_site_label
 _atom_site_symmetry_multiplicity
 _atom_site_fract_x
 _atom_site_fract_y
 _atom_site_fract_z
 _atom_site_occupancy
  Ca  Ca0  1  0.874005  0.127950  0.749941  1
  Pr  Pr1  1  0.123603  0.874754  0.249731  1
  Al  Al2  1  0.412376  0.143258  0.749547  1
  Al  Al3  1  0.140551  0.408818  0.250865  1
  Al  Al4  1  0.591142  0.858736  0.250490  1
  Al  Al5  1  0.857741  0.587435  0.749112  1
  Al  Al6  1  0.520542  0.776005  0.750007  1
  Al  Al7  1  0.775623  0.517780  0.253094  1
  Al  Al8  1  0.481728  0.226026  0.250105  1
  Al  Al9  1  0.222198  0.479609  0.747088  1
  Al  Al10  1  0.842206  0.159610  0.399377  1
  Al  Al11  1  0.158925  0.839617  0.602962  1
  Al  Al12  1  0.840728  0.158940  0.102342  1
  Al  Al13  1  0.160146  0.840237  0.895337  1
  Al  Al14  1  0.623737  0.379288  0.550343  1
  Al  Al15  1  0.377770  0.619334  0.449797  1
  Al  Al16  1  0.621838  0.378726  0.948091  1
  Al  Al17  1  0.379512  0.619795  0.051750  1
  Al  Al18  1  0.774098  0.774730  0.998925  1
  Al  Al19  1  0.775527  0.774966  0.500273  1
  Al  Al20  1  0.224945  0.226622  0.998559  1
  Al  Al21  1  0.222791  0.225749  0.502059  1
  Ru  Ru22  1  0.000361  0.501193  0.499998  1
  Rh  Rh23  1  0.498876  0.999885  0.000113  1
  Rh  Rh24  1  0.999931  0.500941  0.999912  1
  Rh  Rh25  1  0.499102  0.999996  0.500181  1
