# generated using pymatgen
data_Dy(AlB14)2
_symmetry_space_group_name_H-M   'P 1'
_cell_length_a   7.22158206
_cell_length_b   7.22158173
_cell_length_c   5.82789612
_cell_angle_alpha   66.42416184
_cell_angle_beta   66.42416180
_cell_angle_gamma   92.26621032
_symmetry_Int_Tables_number   1
_chemical_formula_structural   Dy(AlB14)2
_chemical_formula_sum   'Dy1 Al2 B28'
_cell_volume   248.00650357
_cell_formula_units_Z   1
loop_
 _symmetry_equiv_pos_site_id
 _symmetry_equiv_pos_as_xyz
  1  'x, y, z'
loop_
 _atom_site_type_symbol
 _atom_site_label
 _atom_site_symmetry_multiplicity
 _atom_site_fract_x
 _atom_site_fract_y
 _atom_site_fract_z
 _atom_site_occupancy
  Dy  Dy0  1  0.891029  0.891029  0.356553  1
  Al  Al1  1  0.498470  0.498470  0.504733  1
  Al  Al2  1  0.157987  0.157987  0.501346  1
  B  B3  1  0.417238  0.736663  0.171422  1
  B  B4  1  0.583600  0.258285  0.834347  1
  B  B5  1  0.258285  0.583600  0.834347  1
  B  B6  1  0.736663  0.417238  0.171422  1
  B  B7  1  0.694536  0.860872  0.973055  1
  B  B8  1  0.305180  0.134958  0.035101  1
  B  B9  1  0.134958  0.305180  0.035101  1
  B  B10  1  0.860872  0.694536  0.973055  1
  B  B11  1  0.533882  0.872537  0.299458  1
  B  B12  1  0.469525  0.124267  0.205164  1
  B  B13  1  0.124267  0.469525  0.205164  1
  B  B14  1  0.872537  0.533882  0.299458  1
  B  B15  1  0.462381  0.121664  0.711622  1
  B  B16  1  0.532125  0.870436  0.800919  1
  B  B17  1  0.870436  0.532125  0.800919  1
  B  B18  1  0.121664  0.462381  0.711622  1
  B  B19  1  0.723138  0.100125  0.999595  1
  B  B20  1  0.279493  0.893531  0.325711  1
  B  B21  1  0.893531  0.279493  0.325711  1
  B  B22  1  0.100125  0.723138  0.999595  1
  B  B23  1  0.277019  0.895844  0.008232  1
  B  B24  1  0.720147  0.100794  0.684724  1
  B  B25  1  0.100794  0.720147  0.684724  1
  B  B26  1  0.895844  0.277019  0.008232  1
  B  B27  1  0.271798  0.473688  0.379040  1
  B  B28  1  0.716840  0.521946  0.640293  1
  B  B29  1  0.521946  0.716840  0.640293  1
  B  B30  1  0.473688  0.271798  0.379040  1
