# generated using pymatgen
data_TbYb2Dy(NiB4)4
_symmetry_space_group_name_H-M   'P 1'
_cell_length_a   6.82049240
_cell_length_b   6.82049230
_cell_length_c   6.82049220
_cell_angle_alpha   112.84151495
_cell_angle_beta   112.84152238
_cell_angle_gamma   102.92251117
_symmetry_Int_Tables_number   1
_chemical_formula_structural   TbYb2Dy(NiB4)4
_chemical_formula_sum   'Tb1 Yb2 Dy1 Ni4 B16'
_cell_volume   241.88941472
_cell_formula_units_Z   1
loop_
 _symmetry_equiv_pos_site_id
 _symmetry_equiv_pos_as_xyz
  1  'x, y, z'
loop_
 _atom_site_type_symbol
 _atom_site_label
 _atom_site_symmetry_multiplicity
 _atom_site_fract_x
 _atom_site_fract_y
 _atom_site_fract_z
 _atom_site_occupancy
  Tb  Tb0  1  0.750000  0.250000  0.500000  1
  Yb  Yb1  1  0.795893  0.795893  0.000000  1
  Yb  Yb2  1  0.204107  0.204107  0.000000  1
  Dy  Dy3  1  0.250000  0.750000  0.500000  1
  Ni  Ni4  1  0.273185  0.499775  0.773409  1
  Ni  Ni5  1  0.726366  0.499775  0.226591  1
  Ni  Ni6  1  0.500225  0.726815  0.226591  1
  Ni  Ni7  1  0.500225  0.273634  0.773409  1
  B  B8  1  0.276273  0.112214  0.388636  1
  B  B9  1  0.723578  0.887637  0.611364  1
  B  B10  1  0.276273  0.887637  0.164059  1
  B  B11  1  0.723578  0.112214  0.835941  1
  B  B12  1  0.112363  0.723727  0.835941  1
  B  B13  1  0.887786  0.276422  0.164059  1
  B  B14  1  0.112363  0.276422  0.388636  1
  B  B15  1  0.887786  0.723727  0.611364  1
  B  B16  1  0.113064  0.113344  0.530278  1
  B  B17  1  0.583064  0.582784  0.469722  1
  B  B18  1  0.113064  0.582784  0.999720  1
  B  B19  1  0.583064  0.113344  0.000280  1
  B  B20  1  0.886656  0.886936  0.469722  1
  B  B21  1  0.417216  0.416936  0.530278  1
  B  B22  1  0.886656  0.416936  0.999720  1
  B  B23  1  0.417216  0.886936  0.000280  1
