# generated using pymatgen
data_Pr3NCl6
_symmetry_space_group_name_H-M   'P 1'
_cell_length_a   7.40914508
_cell_length_b   8.46889653
_cell_length_c   10.10176943
_cell_angle_alpha   75.04432708
_cell_angle_beta   70.90289813
_cell_angle_gamma   65.19570228
_symmetry_Int_Tables_number   1
_chemical_formula_structural   Pr3NCl6
_chemical_formula_sum   'Pr6 N2 Cl12'
_cell_volume   538.29655626
_cell_formula_units_Z   2
loop_
 _symmetry_equiv_pos_site_id
 _symmetry_equiv_pos_as_xyz
  1  'x, y, z'
loop_
 _atom_site_type_symbol
 _atom_site_label
 _atom_site_symmetry_multiplicity
 _atom_site_fract_x
 _atom_site_fract_y
 _atom_site_fract_z
 _atom_site_occupancy
  Pr  Pr0  1  0.586646  0.083777  0.688427  1
  Pr  Pr1  1  0.719945  0.429734  0.778851  1
  Pr  Pr2  1  0.257614  0.584386  0.625806  1
  Pr  Pr3  1  0.280055  0.570266  0.221149  1
  Pr  Pr4  1  0.413354  0.916223  0.311573  1
  Pr  Pr5  1  0.742386  0.415614  0.374194  1
  N  N6  1  0.408358  0.632876  0.377013  1
  N  N7  1  0.591642  0.367124  0.622987  1
  Cl  Cl8  1  0.305262  0.583041  0.908792  1
  Cl  Cl9  1  0.287853  0.897382  0.087429  1
  Cl  Cl10  1  0.000000  0.000000  0.500000  1
  Cl  Cl11  1  0.824731  0.718660  0.795900  1
  Cl  Cl12  1  0.165006  0.263011  0.787976  1
  Cl  Cl13  1  0.712147  0.102618  0.912571  1
  Cl  Cl14  1  0.531482  0.179631  0.396313  1
  Cl  Cl15  1  0.175269  0.281340  0.204100  1
  Cl  Cl16  1  0.468518  0.820369  0.603687  1
  Cl  Cl17  1  0.694738  0.416959  0.091208  1
  Cl  Cl18  1  0.834994  0.736989  0.212024  1
  Cl  Cl19  1  0.000000  0.500000  0.500000  1
