# generated using pymatgen
data_PrHo4Ni19
_symmetry_space_group_name_H-M   'P 1'
_cell_length_a   4.94657319
_cell_length_b   4.94657376
_cell_length_c   16.34523137
_cell_angle_alpha   81.29682602
_cell_angle_beta   81.29682404
_cell_angle_gamma   60.00000347
_symmetry_Int_Tables_number   1
_chemical_formula_structural   PrHo4Ni19
_chemical_formula_sum   'Pr1 Ho4 Ni19'
_cell_volume   341.03437828
_cell_formula_units_Z   1
loop_
 _symmetry_equiv_pos_site_id
 _symmetry_equiv_pos_as_xyz
  1  'x, y, z'
loop_
 _atom_site_type_symbol
 _atom_site_label
 _atom_site_symmetry_multiplicity
 _atom_site_fract_x
 _atom_site_fract_y
 _atom_site_fract_z
 _atom_site_occupancy
  Pr  Pr0  1  0.000000  0.000000  0.000000  1
  Ho  Ho1  1  0.921339  0.921339  0.235984  1
  Ho  Ho2  1  0.078661  0.078661  0.764016  1
  Ho  Ho3  1  0.848165  0.848165  0.455506  1
  Ho  Ho4  1  0.151835  0.151835  0.544494  1
  Ni  Ni5  1  0.500000  0.500000  0.500000  1
  Ni  Ni6  1  0.749401  0.749402  0.751796  1
  Ni  Ni7  1  0.250598  0.250598  0.248205  1
  Ni  Ni8  1  0.666768  0.666768  0.999696  1
  Ni  Ni9  1  0.333232  0.333232  0.000304  1
  Ni  Ni10  1  0.584102  0.584102  0.247695  1
  Ni  Ni11  1  0.415898  0.415898  0.752305  1
  Ni  Ni12  1  0.375899  0.375899  0.371035  1
  Ni  Ni13  1  0.877165  0.375899  0.371035  1
  Ni  Ni14  1  0.375899  0.877165  0.371035  1
  Ni  Ni15  1  0.624101  0.624101  0.628965  1
  Ni  Ni16  1  0.122835  0.624101  0.628965  1
  Ni  Ni17  1  0.624101  0.122835  0.628965  1
  Ni  Ni18  1  0.458506  0.458506  0.124217  1
  Ni  Ni19  1  0.958770  0.458506  0.124217  1
  Ni  Ni20  1  0.458506  0.958770  0.124217  1
  Ni  Ni21  1  0.541494  0.541494  0.875783  1
  Ni  Ni22  1  0.041230  0.541494  0.875783  1
  Ni  Ni23  1  0.541494  0.041230  0.875783  1
