# generated using pymatgen
data_ErTm3(ZrPt)4
_symmetry_space_group_name_H-M   'P 1'
_cell_length_a   4.68469500
_cell_length_b   7.04278519
_cell_length_c   8.22540595
_cell_angle_alpha   89.94202083
_cell_angle_beta   90.00000000
_cell_angle_gamma   90.00000000
_symmetry_Int_Tables_number   1
_chemical_formula_structural   ErTm3(ZrPt)4
_chemical_formula_sum   'Er1 Tm3 Zr4 Pt4'
_cell_volume   271.38315181
_cell_formula_units_Z   1
loop_
 _symmetry_equiv_pos_site_id
 _symmetry_equiv_pos_as_xyz
  1  'x, y, z'
loop_
 _atom_site_type_symbol
 _atom_site_label
 _atom_site_symmetry_multiplicity
 _atom_site_fract_x
 _atom_site_fract_y
 _atom_site_fract_z
 _atom_site_occupancy
  Er  Er0  1  0.750000  0.484386  0.821586  1
  Tm  Tm1  1  0.250000  0.016169  0.321280  1
  Tm  Tm2  1  0.250000  0.516111  0.178655  1
  Tm  Tm3  1  0.750000  0.983888  0.678237  1
  Zr  Zr4  1  0.250000  0.649932  0.579545  1
  Zr  Zr5  1  0.250000  0.149869  0.920186  1
  Zr  Zr6  1  0.750000  0.350061  0.419957  1
  Zr  Zr7  1  0.750000  0.850120  0.080059  1
  Pt  Pt8  1  0.250000  0.267732  0.593956  1
  Pt  Pt9  1  0.250000  0.768644  0.905561  1
  Pt  Pt10  1  0.750000  0.731827  0.405662  1
  Pt  Pt11  1  0.750000  0.231262  0.095316  1
