# generated using pymatgen
data_CeSm4U7Se20
_symmetry_space_group_name_H-M   'P 1'
_cell_length_a   7.80932660
_cell_length_b   8.35018812
_cell_length_c   12.40868528
_cell_angle_alpha   89.98813303
_cell_angle_beta   90.07052404
_cell_angle_gamma   89.98665566
_symmetry_Int_Tables_number   1
_chemical_formula_structural   CeSm4U7Se20
_chemical_formula_sum   'Ce1 Sm4 U7 Se20'
_cell_volume   809.16160254
_cell_formula_units_Z   1
loop_
 _symmetry_equiv_pos_site_id
 _symmetry_equiv_pos_as_xyz
  1  'x, y, z'
loop_
 _atom_site_type_symbol
 _atom_site_label
 _atom_site_symmetry_multiplicity
 _atom_site_fract_x
 _atom_site_fract_y
 _atom_site_fract_z
 _atom_site_occupancy
  Ce  Ce0  1  0.578391  0.249721  0.992696  1
  Sm  Sm1  1  0.022922  0.502335  0.820305  1
  Sm  Sm2  1  0.978301  0.001956  0.179502  1
  Sm  Sm3  1  0.522020  0.002732  0.679904  1
  Sm  Sm4  1  0.476803  0.502495  0.321164  1
  U  U5  1  0.922570  0.248726  0.490521  1
  U  U6  1  0.425114  0.748579  0.007119  1
  U  U7  1  0.076466  0.748907  0.508427  1
  U  U8  1  0.479074  0.998724  0.320674  1
  U  U9  1  0.519884  0.499749  0.679819  1
  U  U10  1  0.980139  0.499359  0.179239  1
  U  U11  1  0.019931  0.000233  0.819852  1
  Se  Se12  1  0.335660  0.039811  0.102046  1
  Se  Se13  1  0.167011  0.453019  0.596376  1
  Se  Se14  1  0.662747  0.546474  0.898110  1
  Se  Se15  1  0.832423  0.951840  0.402660  1
  Se  Se16  1  0.669063  0.950156  0.901166  1
  Se  Se17  1  0.837857  0.544206  0.400157  1
  Se  Se18  1  0.331110  0.456408  0.100273  1
  Se  Se19  1  0.161460  0.043577  0.598894  1
  Se  Se20  1  0.964915  0.252160  0.000403  1
  Se  Se21  1  0.538949  0.251247  0.500697  1
  Se  Se22  1  0.040212  0.750992  0.999345  1
  Se  Se23  1  0.460666  0.751991  0.499899  1
  Se  Se24  1  0.325013  0.250032  0.811998  1
  Se  Se25  1  0.171524  0.250583  0.315038  1
  Se  Se26  1  0.672007  0.749983  0.185067  1
  Se  Se27  1  0.828511  0.749916  0.683910  1
  Se  Se28  1  0.700811  0.250141  0.220969  1
  Se  Se29  1  0.801129  0.251338  0.715768  1
  Se  Se30  1  0.299291  0.751461  0.783231  1
  Se  Se31  1  0.198028  0.751148  0.284771  1
