# generated using pymatgen
data_Ta2CoSi2Ir
_symmetry_space_group_name_H-M   'P 1'
_cell_length_a   3.72662000
_cell_length_b   6.34183300
_cell_length_c   7.20297300
_cell_angle_alpha   90.00000000
_cell_angle_beta   90.00000000
_cell_angle_gamma   90.00000000
_symmetry_Int_Tables_number   1
_chemical_formula_structural   Ta2CoSi2Ir
_chemical_formula_sum   'Ta4 Co2 Si4 Ir2'
_cell_volume   170.23219490
_cell_formula_units_Z   2
loop_
 _symmetry_equiv_pos_site_id
 _symmetry_equiv_pos_as_xyz
  1  'x, y, z'
loop_
 _atom_site_type_symbol
 _atom_site_label
 _atom_site_symmetry_multiplicity
 _atom_site_fract_x
 _atom_site_fract_y
 _atom_site_fract_z
 _atom_site_occupancy
  Ta  Ta0  1  0.750000  0.523926  0.822105  1
  Ta  Ta1  1  0.250000  0.976744  0.328388  1
  Ta  Ta2  1  0.750000  0.023926  0.677895  1
  Ta  Ta3  1  0.250000  0.476744  0.171612  1
  Co  Co4  1  0.250000  0.856454  0.937001  1
  Co  Co5  1  0.250000  0.356454  0.562999  1
  Si  Si6  1  0.250000  0.230599  0.866662  1
  Si  Si7  1  0.250000  0.730599  0.633338  1
  Si  Si8  1  0.750000  0.769593  0.113824  1
  Si  Si9  1  0.750000  0.269593  0.386176  1
  Ir  Ir10  1  0.750000  0.642683  0.436637  1
  Ir  Ir11  1  0.750000  0.142683  0.063363  1
