# generated using pymatgen
data_Pr10Bi3Pb3S2
_symmetry_space_group_name_H-M   'P 1'
_cell_length_a   9.57927900
_cell_length_b   9.57927842
_cell_length_c   6.89117000
_cell_angle_alpha   90.00000000
_cell_angle_beta   90.00000000
_cell_angle_gamma   120.00000547
_symmetry_Int_Tables_number   1
_chemical_formula_structural   Pr10Bi3Pb3S2
_chemical_formula_sum   'Pr10 Bi3 Pb3 S2'
_cell_volume   547.63246952
_cell_formula_units_Z   1
loop_
 _symmetry_equiv_pos_site_id
 _symmetry_equiv_pos_as_xyz
  1  'x, y, z'
loop_
 _atom_site_type_symbol
 _atom_site_label
 _atom_site_symmetry_multiplicity
 _atom_site_fract_x
 _atom_site_fract_y
 _atom_site_fract_z
 _atom_site_occupancy
  Pr  Pr0  1  0.756209  0.756209  0.750000  1
  Pr  Pr1  1  0.243791  0.000000  0.750000  1
  Pr  Pr2  1  0.000000  0.243791  0.750000  1
  Pr  Pr3  1  0.244104  0.244104  0.250000  1
  Pr  Pr4  1  0.755896  0.000000  0.250000  1
  Pr  Pr5  1  0.000000  0.755896  0.250000  1
  Pr  Pr6  1  0.666667  0.333333  0.000805  1
  Pr  Pr7  1  0.333333  0.666667  0.000805  1
  Pr  Pr8  1  0.333333  0.666667  0.499195  1
  Pr  Pr9  1  0.666667  0.333333  0.499195  1
  Bi  Bi10  1  0.394488  0.394488  0.750000  1
  Bi  Bi11  1  0.605512  0.000000  0.750000  1
  Bi  Bi12  1  0.000000  0.605512  0.750000  1
  Pb  Pb13  1  0.605220  0.605220  0.250000  1
  Pb  Pb14  1  0.394780  0.000000  0.250000  1
  Pb  Pb15  1  0.000000  0.394780  0.250000  1
  S  S16  1  0.000000  0.000000  0.000359  1
  S  S17  1  0.000000  0.000000  0.499641  1
