# generated using pymatgen
data_CdHg5F18
_symmetry_space_group_name_H-M   'P 1'
_cell_length_a   8.29424062
_cell_length_b   8.30006441
_cell_length_c   8.55693858
_cell_angle_alpha   89.13631595
_cell_angle_beta   89.33679944
_cell_angle_gamma   116.98601223
_symmetry_Int_Tables_number   1
_chemical_formula_structural   CdHg5F18
_chemical_formula_sum   'Cd1 Hg5 F18'
_cell_volume   524.77034373
_cell_formula_units_Z   1
loop_
 _symmetry_equiv_pos_site_id
 _symmetry_equiv_pos_as_xyz
  1  'x, y, z'
loop_
 _atom_site_type_symbol
 _atom_site_label
 _atom_site_symmetry_multiplicity
 _atom_site_fract_x
 _atom_site_fract_y
 _atom_site_fract_z
 _atom_site_occupancy
  Cd  Cd0  1  0.500000  0.500000  0.000000  1
  Hg  Hg1  1  0.000000  0.500000  0.500000  1
  Hg  Hg2  1  0.000000  0.500000  0.000000  1
  Hg  Hg3  1  0.500000  0.000000  0.500000  1
  Hg  Hg4  1  0.500000  0.000000  0.000000  1
  Hg  Hg5  1  0.500000  0.500000  0.500000  1
  F  F6  1  0.791631  0.571381  0.040677  1
  F  F7  1  0.208369  0.428619  0.959323  1
  F  F8  1  0.206535  0.426668  0.536821  1
  F  F9  1  0.793465  0.573332  0.463179  1
  F  F10  1  0.576253  0.791941  0.964973  1
  F  F11  1  0.423747  0.208059  0.035027  1
  F  F12  1  0.416712  0.194191  0.458036  1
  F  F13  1  0.583288  0.805809  0.541964  1
  F  F14  1  0.809175  0.241582  0.547552  1
  F  F15  1  0.190825  0.758418  0.452448  1
  F  F16  1  0.240468  0.808313  0.050305  1
  F  F17  1  0.759532  0.191687  0.949695  1
  F  F18  1  0.991735  0.427024  0.230123  1
  F  F19  1  0.008265  0.572976  0.769877  1
  F  F20  1  0.425674  0.990819  0.727744  1
  F  F21  1  0.574326  0.009181  0.272256  1
  F  F22  1  0.528225  0.469214  0.741188  1
  F  F23  1  0.471775  0.530786  0.258812  1
