# generated using pymatgen
data_Ba4YGa2BiSe10
_symmetry_space_group_name_H-M   'P 1'
_cell_length_a   7.40420519
_cell_length_b   8.89152645
_cell_length_c   9.60795968
_cell_angle_alpha   103.78007747
_cell_angle_beta   102.62539778
_cell_angle_gamma   107.61879952
_symmetry_Int_Tables_number   1
_chemical_formula_structural   Ba4YGa2BiSe10
_chemical_formula_sum   'Ba4 Y1 Ga2 Bi1 Se10'
_cell_volume   555.89639173
_cell_formula_units_Z   1
loop_
 _symmetry_equiv_pos_site_id
 _symmetry_equiv_pos_as_xyz
  1  'x, y, z'
loop_
 _atom_site_type_symbol
 _atom_site_label
 _atom_site_symmetry_multiplicity
 _atom_site_fract_x
 _atom_site_fract_y
 _atom_site_fract_z
 _atom_site_occupancy
  Ba  Ba0  1  0.630287  0.978874  0.287732  1
  Ba  Ba1  1  0.364966  0.020490  0.707911  1
  Ba  Ba2  1  0.343080  0.512632  0.703276  1
  Ba  Ba3  1  0.660563  0.489528  0.300133  1
  Y  Y4  1  0.001557  0.263467  0.001612  1
  Ga  Ga5  1  0.807016  0.874199  0.690128  1
  Ga  Ga6  1  0.193401  0.129446  0.309608  1
  Bi  Bi7  1  0.998673  0.716013  0.999479  1
  Se  Se8  1  0.988314  0.684742  0.680105  1
  Se  Se9  1  0.009267  0.315022  0.313218  1
  Se  Se10  1  0.988012  0.153649  0.690087  1
  Se  Se11  1  0.014027  0.851277  0.315260  1
  Se  Se12  1  0.707154  0.915347  0.923471  1
  Se  Se13  1  0.293668  0.103286  0.076619  1
  Se  Se14  1  0.702444  0.407370  0.951397  1
  Se  Se15  1  0.297560  0.582982  0.049981  1
  Se  Se16  1  0.493639  0.744300  0.492613  1
  Se  Se17  1  0.506371  0.257375  0.507368  1
