# generated using pymatgen
data_CaNdZn21Pd
_symmetry_space_group_name_H-M   'P 1'
_cell_length_a   8.28104047
_cell_length_b   8.31571901
_cell_length_c   8.31571177
_cell_angle_alpha   99.74873432
_cell_angle_beta   100.15030018
_cell_angle_gamma   131.14152441
_symmetry_Int_Tables_number   1
_chemical_formula_structural   CaNdZn21Pd
_chemical_formula_sum   'Ca1 Nd1 Zn21 Pd1'
_cell_volume   391.80879932
_cell_formula_units_Z   1
loop_
 _symmetry_equiv_pos_site_id
 _symmetry_equiv_pos_as_xyz
  1  'x, y, z'
loop_
 _atom_site_type_symbol
 _atom_site_label
 _atom_site_symmetry_multiplicity
 _atom_site_fract_x
 _atom_site_fract_y
 _atom_site_fract_z
 _atom_site_occupancy
  Ca  Ca0  1  0.748452  0.247513  0.500939  1
  Nd  Nd1  1  0.497198  0.500708  0.996491  1
  Zn  Zn2  1  0.924161  0.598555  0.916986  1
  Zn  Zn3  1  0.844084  0.430838  0.170810  1
  Zn  Zn4  1  0.257461  0.673619  0.826585  1
  Zn  Zn5  1  0.682902  0.009901  0.084568  1
  Zn  Zn6  1  0.404423  0.076871  0.086451  1
  Zn  Zn7  1  0.992103  0.317570  0.916223  1
  Zn  Zn8  1  0.569044  0.153857  0.829270  1
  Zn  Zn9  1  0.326765  0.742659  0.172887  1
  Zn  Zn10  1  0.326765  0.153878  0.584106  1
  Zn  Zn11  1  0.404423  0.317972  0.327552  1
  Zn  Zn12  1  0.992103  0.075881  0.674532  1
  Zn  Zn13  1  0.569044  0.739771  0.415185  1
  Zn  Zn14  1  0.844084  0.673274  0.413246  1
  Zn  Zn15  1  0.257461  0.430876  0.583841  1
  Zn  Zn16  1  0.682902  0.598334  0.673001  1
  Zn  Zn17  1  0.924161  0.007174  0.325606  1
  Zn  Zn18  1  0.126455  0.376706  0.250564  1
  Zn  Zn19  1  0.126455  0.875891  0.749749  1
  Zn  Zn20  1  0.622783  0.873480  0.749303  1
  Zn  Zn21  1  0.248045  0.753444  0.494601  1
  Zn  Zn22  1  0.002146  0.996589  0.005556  1
  Pd  Pd23  1  0.126584  0.874637  0.251949  1
