# generated using pymatgen
data_NaPrDy5CoBr12
_symmetry_space_group_name_H-M   'P 1'
_cell_length_a   9.29061735
_cell_length_b   9.25387576
_cell_length_c   9.18743736
_cell_angle_alpha   106.25089692
_cell_angle_beta   106.65232711
_cell_angle_gamma   107.46388718
_symmetry_Int_Tables_number   1
_chemical_formula_structural   NaPrDy5CoBr12
_chemical_formula_sum   'Na1 Pr1 Dy5 Co1 Br12'
_cell_volume   661.51125412
_cell_formula_units_Z   1
loop_
 _symmetry_equiv_pos_site_id
 _symmetry_equiv_pos_as_xyz
  1  'x, y, z'
loop_
 _atom_site_type_symbol
 _atom_site_label
 _atom_site_symmetry_multiplicity
 _atom_site_fract_x
 _atom_site_fract_y
 _atom_site_fract_z
 _atom_site_occupancy
  Na  Na0  1  0.499784  0.501338  0.497712  1
  Pr  Pr1  1  0.893695  0.686448  0.974625  1
  Dy  Dy2  1  0.103524  0.300767  0.025626  1
  Dy  Dy3  1  0.318127  0.027949  0.108790  1
  Dy  Dy4  1  0.026800  0.104555  0.304307  1
  Dy  Dy5  1  0.974695  0.900332  0.697346  1
  Dy  Dy6  1  0.681244  0.968650  0.891988  1
  Co  Co7  1  0.999736  0.997920  0.001260  1
  Br  Br8  1  0.230468  0.684436  0.078483  1
  Br  Br9  1  0.446236  0.364615  0.142525  1
  Br  Br10  1  0.682528  0.075261  0.218969  1
  Br  Br11  1  0.929621  0.791687  0.331812  1
  Br  Br12  1  0.143968  0.444458  0.362251  1
  Br  Br13  1  0.365102  0.145977  0.447494  1
  Br  Br14  1  0.636031  0.858839  0.554539  1
  Br  Br15  1  0.853925  0.556218  0.622947  1
  Br  Br16  1  0.074923  0.220741  0.684717  1
  Br  Br17  1  0.318761  0.929217  0.782973  1
  Br  Br18  1  0.539506  0.631618  0.848128  1
  Br  Br19  1  0.781331  0.308976  0.923511  1
