# generated using pymatgen
data_Tm15Sc5(GaBi5)2
_symmetry_space_group_name_H-M   'P 1'
_cell_length_a   7.96958748
_cell_length_b   9.23555783
_cell_length_c   11.72304385
_cell_angle_alpha   89.94604848
_cell_angle_beta   89.49523985
_cell_angle_gamma   89.88657784
_symmetry_Int_Tables_number   1
_chemical_formula_structural   Tm15Sc5(GaBi5)2
_chemical_formula_sum   'Tm15 Sc5 Ga2 Bi10'
_cell_volume   862.82252376
_cell_formula_units_Z   1
loop_
 _symmetry_equiv_pos_site_id
 _symmetry_equiv_pos_as_xyz
  1  'x, y, z'
loop_
 _atom_site_type_symbol
 _atom_site_label
 _atom_site_symmetry_multiplicity
 _atom_site_fract_x
 _atom_site_fract_y
 _atom_site_fract_z
 _atom_site_occupancy
  Tm  Tm0  1  0.349337  0.248677  0.294253  1
  Tm  Tm1  1  0.648613  0.749309  0.704518  1
  Tm  Tm2  1  0.147221  0.748587  0.784082  1
  Tm  Tm3  1  0.852828  0.250015  0.215824  1
  Tm  Tm4  1  0.193423  0.249931  0.775423  1
  Tm  Tm5  1  0.805226  0.749176  0.224591  1
  Tm  Tm6  1  0.328142  0.750272  0.288892  1
  Tm  Tm7  1  0.671616  0.249327  0.711855  1
  Tm  Tm8  1  0.804737  0.933756  0.939006  1
  Tm  Tm9  1  0.313843  0.942123  0.554642  1
  Tm  Tm10  1  0.806908  0.566678  0.940640  1
  Tm  Tm11  1  0.685602  0.057747  0.444989  1
  Tm  Tm12  1  0.194952  0.435054  0.060306  1
  Tm  Tm13  1  0.684886  0.441308  0.445760  1
  Tm  Tm14  1  0.314678  0.557917  0.554702  1
  Sc  Sc15  1  0.034946  0.249807  0.509534  1
  Sc  Sc16  1  0.964976  0.749640  0.489099  1
  Sc  Sc17  1  0.475794  0.750450  0.012931  1
  Sc  Sc18  1  0.522794  0.248199  0.988193  1
  Sc  Sc19  1  0.197003  0.069520  0.060121  1
  Ga  Ga20  1  0.401947  0.249867  0.539868  1
  Ga  Ga21  1  0.598291  0.749775  0.459725  1
  Bi  Bi22  1  0.100473  0.758075  0.047297  1
  Bi  Bi23  1  0.906062  0.247745  0.955480  1
  Bi  Bi24  1  0.061887  0.001325  0.326990  1
  Bi  Bi25  1  0.938346  0.998278  0.670533  1
  Bi  Bi26  1  0.435359  0.994818  0.829760  1
  Bi  Bi27  1  0.937982  0.500773  0.670827  1
  Bi  Bi28  1  0.560157  0.005210  0.170627  1
  Bi  Bi29  1  0.061746  0.498413  0.328747  1
  Bi  Bi30  1  0.562853  0.493790  0.171048  1
  Bi  Bi31  1  0.437372  0.504437  0.829739  1
