# generated using pymatgen
data_Yb7HfP6
_symmetry_space_group_name_H-M   'P 1'
_cell_length_a   7.41309254
_cell_length_b   7.41309195
_cell_length_c   7.29480400
_cell_angle_alpha   109.14831081
_cell_angle_beta   109.14830924
_cell_angle_gamma   109.79218662
_symmetry_Int_Tables_number   1
_chemical_formula_structural   Yb7HfP6
_chemical_formula_sum   'Yb7 Hf1 P6'
_cell_volume   309.81739959
_cell_formula_units_Z   1
loop_
 _symmetry_equiv_pos_site_id
 _symmetry_equiv_pos_as_xyz
  1  'x, y, z'
loop_
 _atom_site_type_symbol
 _atom_site_label
 _atom_site_symmetry_multiplicity
 _atom_site_fract_x
 _atom_site_fract_y
 _atom_site_fract_z
 _atom_site_occupancy
  Yb  Yb0  1  0.642201  0.643741  0.641727  1
  Yb  Yb1  1  0.006348  0.368377  0.500275  1
  Yb  Yb2  1  0.362029  0.493652  0.993927  1
  Yb  Yb3  1  0.001540  0.857799  0.499526  1
  Yb  Yb4  1  0.856259  0.498460  0.997986  1
  Yb  Yb5  1  0.500000  0.000000  0.867901  1
  Yb  Yb6  1  0.131623  0.137971  0.131898  1
  Hf  Hf7  1  0.500000  0.000000  0.373120  1
  P  P8  1  0.854549  0.119618  0.725117  1
  P  P9  1  0.380382  0.234931  0.605498  1
  P  P10  1  0.139168  0.760374  0.897333  1
  P  P11  1  0.739626  0.878794  0.136958  1
  P  P12  1  0.265069  0.645451  0.370569  1
  P  P13  1  0.621206  0.360832  0.258165  1
