# generated using pymatgen
data_Zn12RuAu
_symmetry_space_group_name_H-M   'P 1'
_cell_length_a   6.74309610
_cell_length_b   6.74309603
_cell_length_c   5.11499263
_cell_angle_alpha   80.87165399
_cell_angle_beta   80.87165031
_cell_angle_gamma   70.89823518
_symmetry_Int_Tables_number   1
_chemical_formula_structural   Zn12RuAu
_chemical_formula_sum   'Zn12 Ru1 Au1'
_cell_volume   215.56169499
_cell_formula_units_Z   1
loop_
 _symmetry_equiv_pos_site_id
 _symmetry_equiv_pos_as_xyz
  1  'x, y, z'
loop_
 _atom_site_type_symbol
 _atom_site_label
 _atom_site_symmetry_multiplicity
 _atom_site_fract_x
 _atom_site_fract_y
 _atom_site_fract_z
 _atom_site_occupancy
  Zn  Zn0  1  0.999656  0.999656  0.998850  1
  Zn  Zn1  1  0.618663  0.618663  0.059468  1
  Zn  Zn2  1  0.773224  0.773224  0.377571  1
  Zn  Zn3  1  0.223435  0.223435  0.624150  1
  Zn  Zn4  1  0.212997  0.637440  0.313449  1
  Zn  Zn5  1  0.367560  0.784566  0.687604  1
  Zn  Zn6  1  0.784566  0.367560  0.687604  1
  Zn  Zn7  1  0.637440  0.212997  0.313449  1
  Zn  Zn8  1  0.001614  0.642066  0.800576  1
  Zn  Zn9  1  0.359143  0.994346  0.197993  1
  Zn  Zn10  1  0.994346  0.359143  0.197993  1
  Zn  Zn11  1  0.642066  0.001614  0.800576  1
  Ru  Ru12  1  0.000192  0.000192  0.498278  1
  Au  Au13  1  0.385098  0.385098  0.942439  1
