# generated using pymatgen
data_La3Ce(Nd3Ru2)2
_symmetry_space_group_name_H-M   'P 1'
_cell_length_a   9.05374058
_cell_length_b   9.04126264
_cell_length_c   7.31969755
_cell_angle_alpha   84.24358388
_cell_angle_beta   85.21130183
_cell_angle_gamma   42.70924242
_symmetry_Int_Tables_number   1
_chemical_formula_structural   La3Ce(Nd3Ru2)2
_chemical_formula_sum   'La3 Ce1 Nd6 Ru4'
_cell_volume   404.31230328
_cell_formula_units_Z   1
loop_
 _symmetry_equiv_pos_site_id
 _symmetry_equiv_pos_as_xyz
  1  'x, y, z'
loop_
 _atom_site_type_symbol
 _atom_site_label
 _atom_site_symmetry_multiplicity
 _atom_site_fract_x
 _atom_site_fract_y
 _atom_site_fract_z
 _atom_site_occupancy
  La  La0  1  0.016986  0.798287  0.906572  1
  La  La1  1  0.199668  0.985583  0.590719  1
  La  La2  1  0.986617  0.202817  0.091147  1
  Ce  Ce3  1  0.810010  0.999551  0.398422  1
  Nd  Nd4  1  0.354768  0.213595  0.822847  1
  Nd  Nd5  1  0.780000  0.649339  0.678427  1
  Nd  Nd6  1  0.644905  0.784250  0.178950  1
  Nd  Nd7  1  0.213820  0.355869  0.325434  1
  Nd  Nd8  1  0.574366  0.424023  0.745587  1
  Nd  Nd9  1  0.431926  0.569506  0.248867  1
  Ru  Ru10  1  0.138960  0.642467  0.573367  1
  Ru  Ru11  1  0.387262  0.834934  0.914606  1
  Ru  Ru12  1  0.832962  0.387421  0.416259  1
  Ru  Ru13  1  0.627750  0.152358  0.108797  1
