# generated using pymatgen
data_Tb2Hf10Zr6Ta2Si15Ge
_symmetry_space_group_name_H-M   'P 1'
_cell_length_a   7.11597535
_cell_length_b   7.13349776
_cell_length_c   13.01878806
_cell_angle_alpha   89.94893309
_cell_angle_beta   89.99936223
_cell_angle_gamma   90.17549147
_symmetry_Int_Tables_number   1
_chemical_formula_structural   Tb2Hf10Zr6Ta2Si15Ge
_chemical_formula_sum   'Tb2 Hf10 Zr6 Ta2 Si15 Ge1'
_cell_volume   660.85367806
_cell_formula_units_Z   1
loop_
 _symmetry_equiv_pos_site_id
 _symmetry_equiv_pos_as_xyz
  1  'x, y, z'
loop_
 _atom_site_type_symbol
 _atom_site_label
 _atom_site_symmetry_multiplicity
 _atom_site_fract_x
 _atom_site_fract_y
 _atom_site_fract_z
 _atom_site_occupancy
  Tb  Tb0  1  0.344336  0.994288  0.783259  1
  Tb  Tb1  1  0.656601  0.005036  0.282958  1
  Hf  Hf2  1  0.323341  0.677155  0.248798  1
  Hf  Hf3  1  0.676742  0.324807  0.749505  1
  Hf  Hf4  1  0.144083  0.995832  0.376297  1
  Hf  Hf5  1  0.855100  0.002580  0.876527  1
  Hf  Hf6  1  0.504953  0.648175  0.625327  1
  Hf  Hf7  1  0.351708  0.497707  0.875181  1
  Hf  Hf8  1  0.494685  0.351715  0.124143  1
  Hf  Hf9  1  0.651135  0.504842  0.375902  1
  Hf  Hf10  1  0.998950  0.147365  0.623599  1
  Hf  Hf11  1  0.000202  0.852384  0.122835  1
  Zr  Zr12  1  0.997820  0.348748  0.213970  1
  Zr  Zr13  1  0.999583  0.651803  0.714939  1
  Zr  Zr14  1  0.149775  0.503401  0.467944  1
  Zr  Zr15  1  0.500344  0.847206  0.034886  1
  Zr  Zr16  1  0.847667  0.499192  0.966217  1
  Zr  Zr17  1  0.501924  0.151172  0.536744  1
  Ta  Ta18  1  0.173601  0.178574  0.000031  1
  Ta  Ta19  1  0.826397  0.821945  0.500352  1
  Si  Si20  1  0.648371  0.700708  0.821840  1
  Si  Si21  1  0.200819  0.854106  0.569546  1
  Si  Si22  1  0.140781  0.791953  0.931691  1
  Si  Si23  1  0.798776  0.146386  0.069010  1
  Si  Si24  1  0.859459  0.208062  0.432027  1
  Si  Si25  1  0.294074  0.360012  0.676260  1
  Si  Si26  1  0.705469  0.639326  0.176070  1
  Si  Si27  1  0.293478  0.049489  0.181851  1
  Si  Si28  1  0.707170  0.946883  0.684251  1
  Si  Si29  1  0.450811  0.799189  0.437270  1
  Si  Si30  1  0.197838  0.546358  0.064384  1
  Si  Si31  1  0.548917  0.200882  0.936919  1
  Si  Si32  1  0.801355  0.453097  0.564905  1
  Si  Si33  1  0.048808  0.301481  0.815148  1
  Si  Si34  1  0.952069  0.698337  0.314805  1
  Ge  Ge35  1  0.352857  0.299808  0.324611  1
