# generated using pymatgen
data_Sm4BBr5
_symmetry_space_group_name_H-M   'P 1'
_cell_length_a   9.35387417
_cell_length_b   9.35387351
_cell_length_c   8.30396528
_cell_angle_alpha   102.84788240
_cell_angle_beta   102.84788212
_cell_angle_gamma   24.95620070
_symmetry_Int_Tables_number   1
_chemical_formula_structural   Sm4BBr5
_chemical_formula_sum   'Sm4 B1 Br5'
_cell_volume   298.49619090
_cell_formula_units_Z   1
loop_
 _symmetry_equiv_pos_site_id
 _symmetry_equiv_pos_as_xyz
  1  'x, y, z'
loop_
 _atom_site_type_symbol
 _atom_site_label
 _atom_site_symmetry_multiplicity
 _atom_site_fract_x
 _atom_site_fract_y
 _atom_site_fract_z
 _atom_site_occupancy
  Sm  Sm0  1  0.644142  0.644142  0.079515  1
  Sm  Sm1  1  0.998792  0.998792  0.209555  1
  Sm  Sm2  1  0.001208  0.001208  0.790445  1
  Sm  Sm3  1  0.355858  0.355858  0.920485  1
  B  B4  1  0.500000  0.500000  0.000000  1
  Br  Br5  1  0.828861  0.828861  0.167297  1
  Br  Br6  1  0.164287  0.164287  0.344128  1
  Br  Br7  1  0.500000  0.500000  0.500000  1
  Br  Br8  1  0.835713  0.835713  0.655872  1
  Br  Br9  1  0.171139  0.171139  0.832703  1
