# generated using pymatgen
data_Lu2Al7Ga2Ir2Pt
_symmetry_space_group_name_H-M   'P 1'
_cell_length_a   7.53298844
_cell_length_b   7.53502564
_cell_length_c   9.45119700
_cell_angle_alpha   90.00000000
_cell_angle_beta   90.00000000
_cell_angle_gamma   119.69889375
_symmetry_Int_Tables_number   1
_chemical_formula_structural   Lu2Al7Ga2Ir2Pt
_chemical_formula_sum   'Lu4 Al14 Ga4 Ir4 Pt2'
_cell_volume   465.99280935
_cell_formula_units_Z   2
loop_
 _symmetry_equiv_pos_site_id
 _symmetry_equiv_pos_as_xyz
  1  'x, y, z'
loop_
 _atom_site_type_symbol
 _atom_site_label
 _atom_site_symmetry_multiplicity
 _atom_site_fract_x
 _atom_site_fract_y
 _atom_site_fract_z
 _atom_site_occupancy
  Lu  Lu0  1  0.997759  0.672391  0.250000  1
  Lu  Lu1  1  0.002241  0.327609  0.750000  1
  Lu  Lu2  1  0.669411  0.994877  0.250000  1
  Lu  Lu3  1  0.330589  0.005123  0.750000  1
  Al  Al4  1  0.000148  0.337827  0.076492  1
  Al  Al5  1  0.999852  0.662173  0.923508  1
  Al  Al6  1  0.999852  0.662173  0.576492  1
  Al  Al7  1  0.338101  0.000482  0.423666  1
  Al  Al8  1  0.000148  0.337827  0.423508  1
  Al  Al9  1  0.661899  0.999518  0.576334  1
  Al  Al10  1  0.661899  0.999518  0.923666  1
  Al  Al11  1  0.338101  0.000482  0.076334  1
  Al  Al12  1  0.336303  0.336505  0.560662  1
  Al  Al13  1  0.663697  0.663495  0.439338  1
  Al  Al14  1  0.663697  0.663495  0.060662  1
  Al  Al15  1  0.336303  0.336505  0.939338  1
  Al  Al16  1  0.551118  0.337753  0.250000  1
  Al  Al17  1  0.448882  0.662247  0.750000  1
  Ga  Ga18  1  0.132727  0.133528  0.250000  1
  Ga  Ga19  1  0.867273  0.866472  0.750000  1
  Ga  Ga20  1  0.337726  0.547665  0.250000  1
  Ga  Ga21  1  0.662274  0.452335  0.750000  1
  Ir  Ir22  1  0.671689  0.327741  0.002372  1
  Ir  Ir23  1  0.328311  0.672259  0.997628  1
  Ir  Ir24  1  0.328311  0.672259  0.502372  1
  Ir  Ir25  1  0.671689  0.327741  0.497628  1
  Pt  Pt26  1  0.000000  0.000000  0.000000  1
  Pt  Pt27  1  0.000000  0.000000  0.500000  1
