# generated using pymatgen
data_La8Y5Ho7Pt16
_symmetry_space_group_name_H-M   'P 1'
_cell_length_a   7.69745741
_cell_length_b   7.83268519
_cell_length_c   14.92046200
_cell_angle_alpha   90.03552876
_cell_angle_beta   90.01858634
_cell_angle_gamma   90.04745525
_symmetry_Int_Tables_number   1
_chemical_formula_structural   La8Y5Ho7Pt16
_chemical_formula_sum   'La8 Y5 Ho7 Pt16'
_cell_volume   899.58039464
_cell_formula_units_Z   1
loop_
 _symmetry_equiv_pos_site_id
 _symmetry_equiv_pos_as_xyz
  1  'x, y, z'
loop_
 _atom_site_type_symbol
 _atom_site_label
 _atom_site_symmetry_multiplicity
 _atom_site_fract_x
 _atom_site_fract_y
 _atom_site_fract_z
 _atom_site_occupancy
  La  La0  1  0.494743  0.325030  0.901309  1
  La  La1  1  0.994678  0.175680  0.597904  1
  La  La2  1  0.505176  0.675845  0.402236  1
  La  La3  1  0.006040  0.823204  0.097984  1
  La  La4  1  0.506109  0.677317  0.098347  1
  La  La5  1  0.005816  0.822024  0.402211  1
  La  La6  1  0.494030  0.321823  0.598110  1
  La  La7  1  0.993945  0.178362  0.901634  1
  Y  Y8  1  0.337948  0.833354  0.877569  1
  Y  Y9  1  0.837162  0.667061  0.622838  1
  Y  Y10  1  0.662170  0.167236  0.376995  1
  Y  Y11  1  0.162038  0.332247  0.122650  1
  Y  Y12  1  0.661326  0.168085  0.122389  1
  Ho  Ho13  1  0.161501  0.331597  0.377273  1
  Ho  Ho14  1  0.338894  0.831683  0.622848  1
  Ho  Ho15  1  0.839066  0.668878  0.877150  1
  Ho  Ho16  1  0.173651  0.495793  0.749628  1
  Ho  Ho17  1  0.673930  0.004854  0.750094  1
  Ho  Ho18  1  0.826497  0.505242  0.250220  1
  Ho  Ho19  1  0.325676  0.994754  0.250363  1
  Pt  Pt20  1  0.325496  0.034271  0.045254  1
  Pt  Pt21  1  0.826837  0.464825  0.454550  1
  Pt  Pt22  1  0.673005  0.964899  0.545537  1
  Pt  Pt23  1  0.173057  0.535599  0.954568  1
  Pt  Pt24  1  0.674924  0.965953  0.953786  1
  Pt  Pt25  1  0.174276  0.533486  0.545459  1
  Pt  Pt26  1  0.325404  0.033385  0.454760  1
  Pt  Pt27  1  0.826415  0.467610  0.044344  1
  Pt  Pt28  1  0.541292  0.630220  0.750455  1
  Pt  Pt29  1  0.041708  0.870168  0.749745  1
  Pt  Pt30  1  0.457960  0.371583  0.250613  1
  Pt  Pt31  1  0.959682  0.129095  0.250599  1
  Pt  Pt32  1  0.305329  0.136676  0.749423  1
  Pt  Pt33  1  0.805142  0.363781  0.750376  1
  Pt  Pt34  1  0.694274  0.862350  0.250007  1
  Pt  Pt35  1  0.194799  0.636031  0.250770  1
