# generated using pymatgen
data_Tb17Ho2MgIr12
_symmetry_space_group_name_H-M   'P 1'
_cell_length_a   10.90680100
_cell_length_b   10.90680100
_cell_length_c   6.32700400
_cell_angle_alpha   90.00000000
_cell_angle_beta   90.00000000
_cell_angle_gamma   90.00000000
_symmetry_Int_Tables_number   1
_chemical_formula_structural   Tb17Ho2MgIr12
_chemical_formula_sum   'Tb17 Ho2 Mg1 Ir12'
_cell_volume   752.64969089
_cell_formula_units_Z   1
loop_
 _symmetry_equiv_pos_site_id
 _symmetry_equiv_pos_as_xyz
  1  'x, y, z'
loop_
 _atom_site_type_symbol
 _atom_site_label
 _atom_site_symmetry_multiplicity
 _atom_site_fract_x
 _atom_site_fract_y
 _atom_site_fract_z
 _atom_site_occupancy
  Tb  Tb0  1  0.284232  0.085010  0.379233  1
  Tb  Tb1  1  0.290279  0.911872  0.879277  1
  Tb  Tb2  1  0.709721  0.088128  0.879277  1
  Tb  Tb3  1  0.715768  0.914990  0.379233  1
  Tb  Tb4  1  0.588779  0.791424  0.879631  1
  Tb  Tb5  1  0.587893  0.208380  0.377786  1
  Tb  Tb6  1  0.412107  0.791620  0.377786  1
  Tb  Tb7  1  0.411221  0.208576  0.879631  1
  Tb  Tb8  1  0.208380  0.412107  0.622214  1
  Tb  Tb9  1  0.208576  0.588779  0.120369  1
  Tb  Tb10  1  0.791424  0.411221  0.120369  1
  Tb  Tb11  1  0.791620  0.587893  0.622214  1
  Tb  Tb12  1  0.911872  0.709721  0.120723  1
  Tb  Tb13  1  0.914990  0.284232  0.620767  1
  Tb  Tb14  1  0.085010  0.715768  0.620767  1
  Tb  Tb15  1  0.088128  0.290279  0.120723  1
  Tb  Tb16  1  0.000000  0.000000  0.000000  1
  Ho  Ho17  1  0.500000  0.500000  0.000000  1
  Ho  Ho18  1  0.500000  0.500000  0.500000  1
  Mg  Mg19  1  0.000000  0.000000  0.500000  1
  Ir  Ir20  1  0.846451  0.153983  0.248349  1
  Ir  Ir21  1  0.846017  0.846451  0.751651  1
  Ir  Ir22  1  0.153983  0.153549  0.751651  1
  Ir  Ir23  1  0.153549  0.846017  0.248349  1
  Ir  Ir24  1  0.653722  0.346737  0.748435  1
  Ir  Ir25  1  0.653263  0.653722  0.251565  1
  Ir  Ir26  1  0.346737  0.346278  0.251565  1
  Ir  Ir27  1  0.346278  0.653263  0.748435  1
  Ir  Ir28  1  0.500000  0.000000  0.123382  1
  Ir  Ir29  1  0.500000  0.000000  0.620162  1
  Ir  Ir30  1  0.000000  0.500000  0.876618  1
  Ir  Ir31  1  0.000000  0.500000  0.379838  1
