# generated using pymatgen
data_La3PrSn4(BRh6)2
_symmetry_space_group_name_H-M   'P 1'
_cell_length_a   5.92662400
_cell_length_b   5.92662268
_cell_length_c   13.58148200
_cell_angle_alpha   90.00000000
_cell_angle_beta   90.00000000
_cell_angle_gamma   119.99999618
_symmetry_Int_Tables_number   1
_chemical_formula_structural   La3PrSn4(BRh6)2
_chemical_formula_sum   'La3 Pr1 Sn4 B2 Rh12'
_cell_volume   413.13545275
_cell_formula_units_Z   1
loop_
 _symmetry_equiv_pos_site_id
 _symmetry_equiv_pos_as_xyz
  1  'x, y, z'
loop_
 _atom_site_type_symbol
 _atom_site_label
 _atom_site_symmetry_multiplicity
 _atom_site_fract_x
 _atom_site_fract_y
 _atom_site_fract_z
 _atom_site_occupancy
  La  La0  1  0.666667  0.333333  0.902414  1
  La  La1  1  0.666667  0.333333  0.596179  1
  La  La2  1  0.333333  0.666667  0.098294  1
  Pr  Pr3  1  0.333333  0.666667  0.405078  1
  Sn  Sn4  1  0.000000  0.000000  0.750094  1
  Sn  Sn5  1  0.000000  0.000000  0.250333  1
  Sn  Sn6  1  0.333333  0.666667  0.749712  1
  Sn  Sn7  1  0.666667  0.333333  0.250055  1
  B  B8  1  0.000000  0.000000  0.499200  1
  B  B9  1  0.000000  0.000000  0.999883  1
  Rh  Rh10  1  0.336480  0.168240  0.407618  1
  Rh  Rh11  1  0.831760  0.168240  0.407618  1
  Rh  Rh12  1  0.831760  0.663520  0.407618  1
  Rh  Rh13  1  0.168134  0.336267  0.907772  1
  Rh  Rh14  1  0.664099  0.832049  0.591973  1
  Rh  Rh15  1  0.663733  0.831866  0.907772  1
  Rh  Rh16  1  0.335879  0.167940  0.092223  1
  Rh  Rh17  1  0.167951  0.335901  0.591973  1
  Rh  Rh18  1  0.167951  0.832049  0.591973  1
  Rh  Rh19  1  0.832060  0.167940  0.092223  1
  Rh  Rh20  1  0.832060  0.664121  0.092223  1
  Rh  Rh21  1  0.168134  0.831866  0.907772  1
