# generated using pymatgen
data_Sm2Ho3Ta3(Co4P3)4
_symmetry_space_group_name_H-M   'P 1'
_cell_length_a   12.20158400
_cell_length_b   12.20158388
_cell_length_c   3.70758700
_cell_angle_alpha   90.00000000
_cell_angle_beta   90.00000000
_cell_angle_gamma   120.00000573
_symmetry_Int_Tables_number   1
_chemical_formula_structural   Sm2Ho3Ta3(Co4P3)4
_chemical_formula_sum   'Sm2 Ho3 Ta3 Co16 P12'
_cell_volume   478.02915101
_cell_formula_units_Z   1
loop_
 _symmetry_equiv_pos_site_id
 _symmetry_equiv_pos_as_xyz
  1  'x, y, z'
loop_
 _atom_site_type_symbol
 _atom_site_label
 _atom_site_symmetry_multiplicity
 _atom_site_fract_x
 _atom_site_fract_y
 _atom_site_fract_z
 _atom_site_occupancy
  Sm  Sm0  1  0.666667  0.333333  0.000000  1
  Sm  Sm1  1  0.333333  0.666667  0.000000  1
  Ho  Ho2  1  0.816380  0.816380  0.500000  1
  Ho  Ho3  1  0.183620  0.000000  0.500000  1
  Ho  Ho4  1  0.000000  0.183620  0.500000  1
  Ta  Ta5  1  0.443289  0.443289  0.000000  1
  Ta  Ta6  1  0.556711  0.000000  0.000000  1
  Ta  Ta7  1  0.000000  0.556711  0.000000  1
  Co  Co8  1  0.875012  0.354898  0.500000  1
  Co  Co9  1  0.645102  0.520114  0.500000  1
  Co  Co10  1  0.479886  0.124988  0.500000  1
  Co  Co11  1  0.354898  0.875012  0.500000  1
  Co  Co12  1  0.520114  0.645102  0.500000  1
  Co  Co13  1  0.124988  0.479886  0.500000  1
  Co  Co14  1  0.803064  0.176122  0.000000  1
  Co  Co15  1  0.823878  0.626941  0.000000  1
  Co  Co16  1  0.373059  0.196936  0.000000  1
  Co  Co17  1  0.176122  0.803064  0.000000  1
  Co  Co18  1  0.626941  0.823878  0.000000  1
  Co  Co19  1  0.196936  0.373059  0.000000  1
  Co  Co20  1  0.279313  0.279313  0.500000  1
  Co  Co21  1  0.720687  0.000000  0.500000  1
  Co  Co22  1  0.000000  0.720687  0.500000  1
  Co  Co23  1  0.000000  0.000000  0.000000  1
  P  P24  1  0.689196  0.166633  0.500000  1
  P  P25  1  0.833367  0.522562  0.500000  1
  P  P26  1  0.477438  0.310804  0.500000  1
  P  P27  1  0.166633  0.689196  0.500000  1
  P  P28  1  0.522562  0.833367  0.500000  1
  P  P29  1  0.310804  0.477438  0.500000  1
  P  P30  1  0.177081  0.177081  0.000000  1
  P  P31  1  0.822919  0.000000  0.000000  1
  P  P32  1  0.000000  0.822919  0.000000  1
  P  P33  1  0.644448  0.644448  0.000000  1
  P  P34  1  0.355552  0.000000  0.000000  1
  P  P35  1  0.000000  0.355552  0.000000  1
