# generated using pymatgen
data_CaHfTh2Sb5
_symmetry_space_group_name_H-M   'P 1'
_cell_length_a   9.33524900
_cell_length_b   9.50813825
_cell_length_c   6.42329200
_cell_angle_alpha   90.00000000
_cell_angle_beta   90.00000000
_cell_angle_gamma   119.40029909
_symmetry_Int_Tables_number   1
_chemical_formula_structural   CaHfTh2Sb5
_chemical_formula_sum   'Ca2 Hf2 Th4 Sb10'
_cell_volume   496.70957724
_cell_formula_units_Z   2
loop_
 _symmetry_equiv_pos_site_id
 _symmetry_equiv_pos_as_xyz
  1  'x, y, z'
loop_
 _atom_site_type_symbol
 _atom_site_label
 _atom_site_symmetry_multiplicity
 _atom_site_fract_x
 _atom_site_fract_y
 _atom_site_fract_z
 _atom_site_occupancy
  Ca  Ca0  1  0.613052  0.000000  0.250000  1
  Ca  Ca1  1  0.386948  0.000000  0.750000  1
  Hf  Hf2  1  0.000000  0.000000  0.000000  1
  Hf  Hf3  1  0.000000  0.000000  0.500000  1
  Th  Th4  1  0.007644  0.622392  0.250000  1
  Th  Th5  1  0.992356  0.377608  0.750000  1
  Th  Th6  1  0.385252  0.377608  0.250000  1
  Th  Th7  1  0.614748  0.622392  0.750000  1
  Sb  Sb8  1  0.264016  0.000000  0.250000  1
  Sb  Sb9  1  0.735984  0.000000  0.750000  1
  Sb  Sb10  1  0.997096  0.261207  0.250000  1
  Sb  Sb11  1  0.002904  0.738793  0.750000  1
  Sb  Sb12  1  0.735889  0.738793  0.250000  1
  Sb  Sb13  1  0.264111  0.261207  0.750000  1
  Sb  Sb14  1  0.327267  0.654533  0.000000  1
  Sb  Sb15  1  0.672733  0.345467  0.000000  1
  Sb  Sb16  1  0.672733  0.345467  0.500000  1
  Sb  Sb17  1  0.327267  0.654533  0.500000  1
