# generated using pymatgen
data_Pr2Ho3Tl4
_symmetry_space_group_name_H-M   'P 1'
_cell_length_a   8.09274400
_cell_length_b   8.33122100
_cell_length_c   16.07286200
_cell_angle_alpha   90.00000000
_cell_angle_beta   90.00000000
_cell_angle_gamma   90.00000000
_symmetry_Int_Tables_number   1
_chemical_formula_structural   Pr2Ho3Tl4
_chemical_formula_sum   'Pr8 Ho12 Tl16'
_cell_volume   1083.67155390
_cell_formula_units_Z   4
loop_
 _symmetry_equiv_pos_site_id
 _symmetry_equiv_pos_as_xyz
  1  'x, y, z'
loop_
 _atom_site_type_symbol
 _atom_site_label
 _atom_site_symmetry_multiplicity
 _atom_site_fract_x
 _atom_site_fract_y
 _atom_site_fract_z
 _atom_site_occupancy
  Pr  Pr0  1  0.492133  0.684206  0.596049  1
  Pr  Pr1  1  0.992133  0.815794  0.903951  1
  Pr  Pr2  1  0.507867  0.315794  0.096049  1
  Pr  Pr3  1  0.007867  0.184206  0.403951  1
  Pr  Pr4  1  0.507867  0.315794  0.403951  1
  Pr  Pr5  1  0.007867  0.184206  0.096049  1
  Pr  Pr6  1  0.492133  0.684206  0.903951  1
  Pr  Pr7  1  0.992133  0.815794  0.596049  1
  Ho  Ho8  1  0.648964  0.158770  0.623932  1
  Ho  Ho9  1  0.148964  0.341230  0.876068  1
  Ho  Ho10  1  0.351036  0.841230  0.123932  1
  Ho  Ho11  1  0.851036  0.658770  0.376068  1
  Ho  Ho12  1  0.351036  0.841230  0.376068  1
  Ho  Ho13  1  0.851036  0.658770  0.123932  1
  Ho  Ho14  1  0.648964  0.158770  0.876068  1
  Ho  Ho15  1  0.148964  0.341230  0.623932  1
  Ho  Ho16  1  0.811094  0.495090  0.750000  1
  Ho  Ho17  1  0.311094  0.004910  0.750000  1
  Ho  Ho18  1  0.188906  0.504910  0.250000  1
  Ho  Ho19  1  0.688906  0.995090  0.250000  1
  Tl  Tl20  1  0.688351  0.959215  0.459542  1
  Tl  Tl21  1  0.188351  0.540785  0.040458  1
  Tl  Tl22  1  0.311649  0.040785  0.959542  1
  Tl  Tl23  1  0.811649  0.459215  0.540458  1
  Tl  Tl24  1  0.311649  0.040785  0.540458  1
  Tl  Tl25  1  0.811649  0.459215  0.959542  1
  Tl  Tl26  1  0.688351  0.959215  0.040458  1
  Tl  Tl27  1  0.188351  0.540785  0.459542  1
  Tl  Tl28  1  0.450821  0.377543  0.750000  1
  Tl  Tl29  1  0.950821  0.122457  0.750000  1
  Tl  Tl30  1  0.549179  0.622457  0.250000  1
  Tl  Tl31  1  0.049179  0.877543  0.250000  1
  Tl  Tl32  1  0.688350  0.858407  0.750000  1
  Tl  Tl33  1  0.188350  0.641593  0.750000  1
  Tl  Tl34  1  0.311650  0.141593  0.250000  1
  Tl  Tl35  1  0.811650  0.358407  0.250000  1
