# generated using pymatgen
data_Mn3CdAs(PN2)6
_symmetry_space_group_name_H-M   'P 1'
_cell_length_a   7.28948340
_cell_length_b   7.28948296
_cell_length_c   7.28948395
_cell_angle_alpha   109.37174571
_cell_angle_beta   109.37174699
_cell_angle_gamma   109.37175185
_symmetry_Int_Tables_number   1
_chemical_formula_structural   Mn3CdAs(PN2)6
_chemical_formula_sum   'Mn3 Cd1 As1 P6 N12'
_cell_volume   299.26613280
_cell_formula_units_Z   1
loop_
 _symmetry_equiv_pos_site_id
 _symmetry_equiv_pos_as_xyz
  1  'x, y, z'
loop_
 _atom_site_type_symbol
 _atom_site_label
 _atom_site_symmetry_multiplicity
 _atom_site_fract_x
 _atom_site_fract_y
 _atom_site_fract_z
 _atom_site_occupancy
  Mn  Mn0  1  0.645941  0.001624  0.001624  1
  Mn  Mn1  1  0.001624  0.001624  0.645941  1
  Mn  Mn2  1  0.001624  0.645941  0.001624  1
  Cd  Cd3  1  0.300407  0.300407  0.300407  1
  As  As4  1  0.953962  0.953962  0.953962  1
  P  P5  1  0.255332  0.754969  0.505703  1
  P  P6  1  0.754969  0.255332  0.505703  1
  P  P7  1  0.754969  0.505703  0.255332  1
  P  P8  1  0.255332  0.505703  0.754969  1
  P  P9  1  0.505703  0.754969  0.255332  1
  P  P10  1  0.505703  0.255332  0.754969  1
  N  N11  1  0.722471  0.283866  0.283866  1
  N  N12  1  0.283866  0.722471  0.283866  1
  N  N13  1  0.290381  0.571328  0.571328  1
  N  N14  1  0.571328  0.571328  0.290381  1
  N  N15  1  0.438059  0.727838  0.004699  1
  N  N16  1  0.004699  0.727838  0.438059  1
  N  N17  1  0.571328  0.290381  0.571328  1
  N  N18  1  0.727838  0.004699  0.438059  1
  N  N19  1  0.438059  0.004699  0.727838  1
  N  N20  1  0.727838  0.438059  0.004699  1
  N  N21  1  0.283866  0.283866  0.722471  1
  N  N22  1  0.004699  0.438059  0.727838  1
