# generated using pymatgen
data_SmFe2(B2Ru)2
_symmetry_space_group_name_H-M   'P 1'
_cell_length_a   7.26732700
_cell_length_b   7.26732700
_cell_length_c   3.91630200
_cell_angle_alpha   90.00000000
_cell_angle_beta   90.00000000
_cell_angle_gamma   90.00000000
_symmetry_Int_Tables_number   1
_chemical_formula_structural   SmFe2(B2Ru)2
_chemical_formula_sum   'Sm2 Fe4 B8 Ru4'
_cell_volume   206.83573724
_cell_formula_units_Z   2
loop_
 _symmetry_equiv_pos_site_id
 _symmetry_equiv_pos_as_xyz
  1  'x, y, z'
loop_
 _atom_site_type_symbol
 _atom_site_label
 _atom_site_symmetry_multiplicity
 _atom_site_fract_x
 _atom_site_fract_y
 _atom_site_fract_z
 _atom_site_occupancy
  Sm  Sm0  1  0.000000  0.000000  0.915966  1
  Sm  Sm1  1  0.500000  0.500000  0.415966  1
  Fe  Fe2  1  0.115011  0.380877  0.622323  1
  Fe  Fe3  1  0.884989  0.619123  0.622323  1
  Fe  Fe4  1  0.119123  0.615011  0.122323  1
  Fe  Fe5  1  0.880877  0.384989  0.122323  1
  B  B6  1  0.818907  0.659554  0.121208  1
  B  B7  1  0.181093  0.340446  0.121208  1
  B  B8  1  0.840446  0.318907  0.621208  1
  B  B9  1  0.159554  0.681093  0.621208  1
  B  B10  1  0.729025  0.824035  0.401703  1
  B  B11  1  0.270975  0.175965  0.401703  1
  B  B12  1  0.675965  0.229025  0.901703  1
  B  B13  1  0.324035  0.770975  0.901703  1
  Ru  Ru14  1  0.391781  0.157506  0.896784  1
  Ru  Ru15  1  0.608219  0.842494  0.896784  1
  Ru  Ru16  1  0.342494  0.891781  0.396784  1
  Ru  Ru17  1  0.657506  0.108219  0.396784  1
