# generated using pymatgen
data_Dy3Ni4B2Ir3
_symmetry_space_group_name_H-M   'P 1'
_cell_length_a   5.22646931
_cell_length_b   5.18889108
_cell_length_c   14.79252043
_cell_angle_alpha   89.39829578
_cell_angle_beta   90.85665111
_cell_angle_gamma   119.00075659
_symmetry_Int_Tables_number   1
_chemical_formula_structural   Dy3Ni4B2Ir3
_chemical_formula_sum   'Dy6 Ni8 B4 Ir6'
_cell_volume   350.82430047
_cell_formula_units_Z   2
loop_
 _symmetry_equiv_pos_site_id
 _symmetry_equiv_pos_as_xyz
  1  'x, y, z'
loop_
 _atom_site_type_symbol
 _atom_site_label
 _atom_site_symmetry_multiplicity
 _atom_site_fract_x
 _atom_site_fract_y
 _atom_site_fract_z
 _atom_site_occupancy
  Dy  Dy0  1  0.331787  0.664045  0.466155  1
  Dy  Dy1  1  0.666154  0.334896  0.967200  1
  Dy  Dy2  1  0.666602  0.329927  0.536094  1
  Dy  Dy3  1  0.328999  0.669363  0.031051  1
  Dy  Dy4  1  0.666242  0.333144  0.752286  1
  Dy  Dy5  1  0.332549  0.668347  0.247998  1
  Ni  Ni6  1  0.164582  0.330262  0.656952  1
  Ni  Ni7  1  0.832771  0.670155  0.148270  1
  Ni  Ni8  1  0.325891  0.164614  0.149009  1
  Ni  Ni9  1  0.674120  0.834636  0.847802  1
  Ni  Ni10  1  0.165575  0.326563  0.847510  1
  Ni  Ni11  1  0.165299  0.837216  0.655742  1
  Ni  Ni12  1  0.166409  0.831826  0.846726  1
  Ni  Ni13  1  0.836049  0.166935  0.349016  1
  B  B14  1  0.668014  0.334008  0.246418  1
  B  B15  1  0.327952  0.662129  0.753087  1
  B  B16  1  0.004743  0.002049  0.753089  1
  B  B17  1  0.997909  0.998278  0.246987  1
  Ir  Ir18  1  0.834198  0.668682  0.351247  1
  Ir  Ir19  1  0.332876  0.167882  0.348789  1
  Ir  Ir20  1  0.004578  0.995826  0.995533  1
  Ir  Ir21  1  0.007369  0.007648  0.503812  1
  Ir  Ir22  1  0.830663  0.166671  0.144922  1
  Ir  Ir23  1  0.668671  0.834900  0.654305  1
