# generated using pymatgen
data_Ho6TiAl23Os3Ru5
_symmetry_space_group_name_H-M   'P 1'
_cell_length_a   8.80248868
_cell_length_b   8.83088218
_cell_length_c   9.56759341
_cell_angle_alpha   90.02475580
_cell_angle_beta   90.01315435
_cell_angle_gamma   120.03419156
_symmetry_Int_Tables_number   1
_chemical_formula_structural   Ho6TiAl23Os3Ru5
_chemical_formula_sum   'Ho6 Ti1 Al23 Os3 Ru5'
_cell_volume   643.86241838
_cell_formula_units_Z   1
loop_
 _symmetry_equiv_pos_site_id
 _symmetry_equiv_pos_as_xyz
  1  'x, y, z'
loop_
 _atom_site_type_symbol
 _atom_site_label
 _atom_site_symmetry_multiplicity
 _atom_site_fract_x
 _atom_site_fract_y
 _atom_site_fract_z
 _atom_site_occupancy
  Ho  Ho0  1  0.193004  0.384829  0.248635  1
  Ho  Ho1  1  0.807605  0.615672  0.750191  1
  Ho  Ho2  1  0.611406  0.808469  0.248005  1
  Ho  Ho3  1  0.387251  0.192678  0.749323  1
  Ho  Ho4  1  0.196441  0.810662  0.250066  1
  Ho  Ho5  1  0.804132  0.191121  0.749550  1
  Ti  Ti6  1  0.330315  0.663627  0.994359  1
  Al  Al7  1  0.666983  0.333330  0.980688  1
  Al  Al8  1  0.667585  0.334667  0.520886  1
  Al  Al9  1  0.333171  0.665561  0.478672  1
  Al  Al10  1  0.162017  0.323963  0.576708  1
  Al  Al11  1  0.837136  0.674565  0.422830  1
  Al  Al12  1  0.675087  0.836925  0.574921  1
  Al  Al13  1  0.836903  0.674698  0.079588  1
  Al  Al14  1  0.326881  0.163868  0.424598  1
  Al  Al15  1  0.159282  0.317326  0.922558  1
  Al  Al16  1  0.162668  0.836573  0.575133  1
  Al  Al17  1  0.326204  0.163773  0.078372  1
  Al  Al18  1  0.837970  0.162906  0.424396  1
  Al  Al19  1  0.679987  0.839497  0.924616  1
  Al  Al20  1  0.837619  0.163129  0.078257  1
  Al  Al21  1  0.159648  0.841658  0.924820  1
  Al  Al22  1  0.563507  0.126746  0.252783  1
  Al  Al23  1  0.438460  0.878159  0.750566  1
  Al  Al24  1  0.879093  0.440301  0.252261  1
  Al  Al25  1  0.117706  0.558740  0.749378  1
  Al  Al26  1  0.561564  0.439907  0.252861  1
  Al  Al27  1  0.440431  0.558962  0.749536  1
  Al  Al28  1  0.998319  0.000307  0.250533  1
  Al  Al29  1  0.999482  0.000664  0.750335  1
  Os  Os30  1  0.498038  0.995851  0.003620  1
  Os  Os31  1  0.500406  0.998966  0.501970  1
  Os  Os32  1  0.498569  0.500827  0.001269  1
  Ru  Ru33  1  0.003650  0.501573  0.002071  1
  Ru  Ru34  1  0.001496  0.499696  0.501371  1
  Ru  Ru35  1  0.499609  0.500637  0.503110  1
  Ru  Ru36  1  0.999636  0.999725  0.002061  1
  Ru  Ru37  1  0.000741  0.999444  0.499104  1
