# generated using pymatgen
data_PrNd(P2Rh3)2
_symmetry_space_group_name_H-M   'P 1'
_cell_length_a   3.97547000
_cell_length_b   11.32671206
_cell_length_c   12.95878207
_cell_angle_alpha   90.01156436
_cell_angle_beta   90.00000000
_cell_angle_gamma   90.00000000
_symmetry_Int_Tables_number   1
_chemical_formula_structural   PrNd(P2Rh3)2
_chemical_formula_sum   'Pr3 Nd3 P12 Rh18'
_cell_volume   583.52103739
_cell_formula_units_Z   3
loop_
 _symmetry_equiv_pos_site_id
 _symmetry_equiv_pos_as_xyz
  1  'x, y, z'
loop_
 _atom_site_type_symbol
 _atom_site_label
 _atom_site_symmetry_multiplicity
 _atom_site_fract_x
 _atom_site_fract_y
 _atom_site_fract_z
 _atom_site_occupancy
  Pr  Pr0  1  0.000000  0.500036  0.519927  1
  Pr  Pr1  1  0.500000  0.000012  0.480295  1
  Pr  Pr2  1  0.500000  0.816044  0.204485  1
  Nd  Nd3  1  0.500000  0.184365  0.204385  1
  Nd  Nd4  1  0.000000  0.684099  0.795593  1
  Nd  Nd5  1  0.000000  0.315823  0.795584  1
  P  P6  1  0.500000  0.499873  0.882372  1
  P  P7  1  0.000000  0.000433  0.117276  1
  P  P8  1  0.500000  0.500064  0.346685  1
  P  P9  1  0.000000  0.999967  0.653581  1
  P  P10  1  0.500000  0.312330  0.617365  1
  P  P11  1  0.500000  0.687577  0.617491  1
  P  P12  1  0.000000  0.187883  0.382599  1
  P  P13  1  0.000000  0.812276  0.383224  1
  P  P14  1  0.500000  0.846413  0.893560  1
  P  P15  1  0.500000  0.153581  0.893486  1
  P  P16  1  0.000000  0.652931  0.106159  1
  P  P17  1  0.000000  0.346538  0.106403  1
  Rh  Rh18  1  0.500000  0.499959  0.168591  1
  Rh  Rh19  1  0.000000  0.000039  0.831639  1
  Rh  Rh20  1  0.500000  0.499958  0.703520  1
  Rh  Rh21  1  0.000000  0.000535  0.296750  1
  Rh  Rh22  1  0.000000  0.499792  0.983338  1
  Rh  Rh23  1  0.500000  0.000215  0.016207  1
  Rh  Rh24  1  0.500000  0.334629  0.995745  1
  Rh  Rh25  1  0.500000  0.665123  0.995510  1
  Rh  Rh26  1  0.000000  0.165577  0.004339  1
  Rh  Rh27  1  0.000000  0.834579  0.003913  1
  Rh  Rh28  1  0.500000  0.293134  0.430132  1
  Rh  Rh29  1  0.500000  0.706729  0.430487  1
  Rh  Rh30  1  0.000000  0.207224  0.569578  1
  Rh  Rh31  1  0.000000  0.792891  0.569719  1
  Rh  Rh32  1  0.500000  0.874673  0.711189  1
  Rh  Rh33  1  0.500000  0.125322  0.711136  1
  Rh  Rh34  1  0.000000  0.624664  0.289071  1
  Rh  Rh35  1  0.000000  0.374710  0.288667  1
