# generated using pymatgen
data_HoErSc2(ReB6)2
_symmetry_space_group_name_H-M   'P 1'
_cell_length_a   3.57839500
_cell_length_b   8.99976500
_cell_length_c   11.37101600
_cell_angle_alpha   89.99944275
_cell_angle_beta   90.00000000
_cell_angle_gamma   90.00000000
_symmetry_Int_Tables_number   1
_chemical_formula_structural   HoErSc2(ReB6)2
_chemical_formula_sum   'Ho2 Er2 Sc4 Re4 B24'
_cell_volume   366.20031904
_cell_formula_units_Z   2
loop_
 _symmetry_equiv_pos_site_id
 _symmetry_equiv_pos_as_xyz
  1  'x, y, z'
loop_
 _atom_site_type_symbol
 _atom_site_label
 _atom_site_symmetry_multiplicity
 _atom_site_fract_x
 _atom_site_fract_y
 _atom_site_fract_z
 _atom_site_occupancy
  Ho  Ho0  1  0.000000  0.321819  0.413906  1
  Ho  Ho1  1  0.000000  0.678181  0.586094  1
  Er  Er2  1  0.000000  0.821816  0.086084  1
  Er  Er3  1  0.000000  0.178184  0.913916  1
  Sc  Sc4  1  0.000000  0.944214  0.370473  1
  Sc  Sc5  1  0.000000  0.055786  0.629527  1
  Sc  Sc6  1  0.000000  0.444249  0.129432  1
  Sc  Sc7  1  0.000000  0.555751  0.870568  1
  Re  Re8  1  0.000000  0.640716  0.318568  1
  Re  Re9  1  0.000000  0.359284  0.681432  1
  Re  Re10  1  0.000000  0.140496  0.181230  1
  Re  Re11  1  0.000000  0.859504  0.818770  1
  B  B12  1  0.500000  0.554170  0.432915  1
  B  B13  1  0.500000  0.445830  0.567085  1
  B  B14  1  0.500000  0.054091  0.066966  1
  B  B15  1  0.500000  0.945909  0.933034  1
  B  B16  1  0.500000  0.754503  0.418916  1
  B  B17  1  0.500000  0.245497  0.581084  1
  B  B18  1  0.500000  0.254458  0.080965  1
  B  B19  1  0.500000  0.745542  0.919035  1
  B  B20  1  0.500000  0.795381  0.264674  1
  B  B21  1  0.500000  0.204619  0.735326  1
  B  B22  1  0.500000  0.295404  0.235158  1
  B  B23  1  0.500000  0.704596  0.764842  1
  B  B24  1  0.500000  0.629453  0.182915  1
  B  B25  1  0.500000  0.370547  0.817085  1
  B  B26  1  0.500000  0.129327  0.316972  1
  B  B27  1  0.500000  0.870673  0.683028  1
  B  B28  1  0.500000  0.981165  0.213451  1
  B  B29  1  0.500000  0.018835  0.786549  1
  B  B30  1  0.500000  0.481274  0.286403  1
  B  B31  1  0.500000  0.518726  0.713597  1
  B  B32  1  0.500000  0.595939  0.026323  1
  B  B33  1  0.500000  0.404061  0.973677  1
  B  B34  1  0.500000  0.095762  0.473747  1
  B  B35  1  0.500000  0.904238  0.526253  1
