# generated using pymatgen
data_NdLu(ZnSi)2
_symmetry_space_group_name_H-M   'P 1'
_cell_length_a   4.18698200
_cell_length_b   4.18698269
_cell_length_c   15.75188300
_cell_angle_alpha   90.00000000
_cell_angle_beta   90.00000000
_cell_angle_gamma   120.00001033
_symmetry_Int_Tables_number   1
_chemical_formula_structural   NdLu(ZnSi)2
_chemical_formula_sum   'Nd2 Lu2 Zn4 Si4'
_cell_volume   239.14721267
_cell_formula_units_Z   2
loop_
 _symmetry_equiv_pos_site_id
 _symmetry_equiv_pos_as_xyz
  1  'x, y, z'
loop_
 _atom_site_type_symbol
 _atom_site_label
 _atom_site_symmetry_multiplicity
 _atom_site_fract_x
 _atom_site_fract_y
 _atom_site_fract_z
 _atom_site_occupancy
  Nd  Nd0  1  0.000000  0.000000  0.500000  1
  Nd  Nd1  1  0.000000  0.000000  0.000000  1
  Lu  Lu2  1  0.000000  0.000000  0.750000  1
  Lu  Lu3  1  0.000000  0.000000  0.250000  1
  Zn  Zn4  1  0.666667  0.333333  0.849673  1
  Zn  Zn5  1  0.666667  0.333333  0.650327  1
  Zn  Zn6  1  0.333333  0.666667  0.150327  1
  Zn  Zn7  1  0.333333  0.666667  0.349673  1
  Si  Si8  1  0.666667  0.333333  0.123558  1
  Si  Si9  1  0.666667  0.333333  0.376442  1
  Si  Si10  1  0.333333  0.666667  0.876442  1
  Si  Si11  1  0.333333  0.666667  0.623558  1
