# generated using pymatgen
data_Eu3VCl2O5
_symmetry_space_group_name_H-M   'P 1'
_cell_length_a   6.96472697
_cell_length_b   6.96472826
_cell_length_c   10.89532900
_cell_angle_alpha   90.00000000
_cell_angle_beta   90.00000000
_cell_angle_gamma   133.33213153
_symmetry_Int_Tables_number   1
_chemical_formula_structural   Eu3VCl2O5
_chemical_formula_sum   'Eu6 V2 Cl4 O10'
_cell_volume   384.42778992
_cell_formula_units_Z   2
loop_
 _symmetry_equiv_pos_site_id
 _symmetry_equiv_pos_as_xyz
  1  'x, y, z'
loop_
 _atom_site_type_symbol
 _atom_site_label
 _atom_site_symmetry_multiplicity
 _atom_site_fract_x
 _atom_site_fract_y
 _atom_site_fract_z
 _atom_site_occupancy
  Eu  Eu0  1  0.659679  0.340321  0.538720  1
  Eu  Eu1  1  0.340321  0.659679  0.038720  1
  Eu  Eu2  1  0.659679  0.340321  0.961280  1
  Eu  Eu3  1  0.897910  0.102090  0.750000  1
  Eu  Eu4  1  0.340321  0.659679  0.461280  1
  Eu  Eu5  1  0.102090  0.897910  0.250000  1
  V  V6  1  0.757927  0.242073  0.250000  1
  V  V7  1  0.242073  0.757927  0.750000  1
  Cl  Cl8  1  0.495874  0.504126  0.250000  1
  Cl  Cl9  1  0.000000  0.000000  0.500000  1
  Cl  Cl10  1  0.504126  0.495874  0.750000  1
  Cl  Cl11  1  0.000000  0.000000  0.000000  1
  O  O12  1  0.482628  0.046748  0.369187  1
  O  O13  1  0.046748  0.482628  0.630813  1
  O  O14  1  0.517372  0.953252  0.869187  1
  O  O15  1  0.517372  0.953252  0.630813  1
  O  O16  1  0.112297  0.887703  0.750000  1
  O  O17  1  0.046748  0.482628  0.869187  1
  O  O18  1  0.482628  0.046748  0.130813  1
  O  O19  1  0.953252  0.517372  0.369187  1
  O  O20  1  0.887703  0.112297  0.250000  1
  O  O21  1  0.953252  0.517372  0.130813  1
