# generated using pymatgen
data_Dy14Y6Cd3Hg3Ru2
_symmetry_space_group_name_H-M   'P 1'
_cell_length_a   9.61753100
_cell_length_b   9.61753110
_cell_length_c   9.78885500
_cell_angle_alpha   90.00000000
_cell_angle_beta   90.00000000
_cell_angle_gamma   120.00000308
_symmetry_Int_Tables_number   1
_chemical_formula_structural   Dy14Y6Cd3Hg3Ru2
_chemical_formula_sum   'Dy14 Y6 Cd3 Hg3 Ru2'
_cell_volume   784.13295790
_cell_formula_units_Z   1
loop_
 _symmetry_equiv_pos_site_id
 _symmetry_equiv_pos_as_xyz
  1  'x, y, z'
loop_
 _atom_site_type_symbol
 _atom_site_label
 _atom_site_symmetry_multiplicity
 _atom_site_fract_x
 _atom_site_fract_y
 _atom_site_fract_z
 _atom_site_occupancy
  Dy  Dy0  1  0.000000  0.000000  0.491287  1
  Dy  Dy1  1  0.000000  0.000000  0.008713  1
  Dy  Dy2  1  0.209464  0.790536  0.439097  1
  Dy  Dy3  1  0.209464  0.418928  0.439097  1
  Dy  Dy4  1  0.581072  0.790536  0.439097  1
  Dy  Dy5  1  0.790280  0.209720  0.559856  1
  Dy  Dy6  1  0.790280  0.580560  0.559856  1
  Dy  Dy7  1  0.419440  0.209720  0.559856  1
  Dy  Dy8  1  0.790280  0.209720  0.940144  1
  Dy  Dy9  1  0.790280  0.580560  0.940144  1
  Dy  Dy10  1  0.419440  0.209720  0.940144  1
  Dy  Dy11  1  0.209464  0.790536  0.060903  1
  Dy  Dy12  1  0.209464  0.418928  0.060903  1
  Dy  Dy13  1  0.581072  0.790536  0.060903  1
  Y  Y14  1  0.541231  0.458769  0.250000  1
  Y  Y15  1  0.541231  0.082463  0.250000  1
  Y  Y16  1  0.917537  0.458769  0.250000  1
  Y  Y17  1  0.458826  0.541174  0.750000  1
  Y  Y18  1  0.458826  0.917651  0.750000  1
  Y  Y19  1  0.082349  0.541174  0.750000  1
  Cd  Cd20  1  0.113342  0.886658  0.750000  1
  Cd  Cd21  1  0.113342  0.226685  0.750000  1
  Cd  Cd22  1  0.773315  0.886658  0.750000  1
  Hg  Hg23  1  0.879872  0.120128  0.250000  1
  Hg  Hg24  1  0.879872  0.759745  0.250000  1
  Hg  Hg25  1  0.240255  0.120128  0.250000  1
  Ru  Ru26  1  0.333333  0.666667  0.250000  1
  Ru  Ru27  1  0.666667  0.333333  0.750000  1
