# generated using pymatgen
data_Dy8Ho12Co4BiSb7
_symmetry_space_group_name_H-M   'P 1'
_cell_length_a   7.89810051
_cell_length_b   8.77566352
_cell_length_c   12.19875408
_cell_angle_alpha   89.99466817
_cell_angle_beta   90.01197213
_cell_angle_gamma   90.03919930
_symmetry_Int_Tables_number   1
_chemical_formula_structural   Dy8Ho12Co4BiSb7
_chemical_formula_sum   'Dy8 Ho12 Co4 Bi1 Sb7'
_cell_volume   845.50850849
_cell_formula_units_Z   1
loop_
 _symmetry_equiv_pos_site_id
 _symmetry_equiv_pos_as_xyz
  1  'x, y, z'
loop_
 _atom_site_type_symbol
 _atom_site_label
 _atom_site_symmetry_multiplicity
 _atom_site_fract_x
 _atom_site_fract_y
 _atom_site_fract_z
 _atom_site_occupancy
  Dy  Dy0  1  0.347666  0.747058  0.703193  1
  Dy  Dy1  1  0.654358  0.249972  0.296384  1
  Dy  Dy2  1  0.843800  0.252641  0.798154  1
  Dy  Dy3  1  0.154566  0.750121  0.203106  1
  Dy  Dy4  1  0.878113  0.747343  0.808318  1
  Dy  Dy5  1  0.119979  0.250035  0.193088  1
  Dy  Dy6  1  0.383238  0.252265  0.692942  1
  Dy  Dy7  1  0.620063  0.750066  0.306855  1
  Ho  Ho8  1  0.678612  0.536687  0.564742  1
  Ho  Ho9  1  0.322018  0.463225  0.434858  1
  Ho  Ho10  1  0.178446  0.463586  0.935279  1
  Ho  Ho11  1  0.321916  0.036583  0.433701  1
  Ho  Ho12  1  0.821553  0.536328  0.065129  1
  Ho  Ho13  1  0.676493  0.963495  0.564275  1
  Ho  Ho14  1  0.821402  0.963658  0.064856  1
  Ho  Ho15  1  0.179257  0.036693  0.937389  1
  Ho  Ho16  1  0.048064  0.747723  0.496584  1
  Ho  Ho17  1  0.950693  0.252065  0.500420  1
  Ho  Ho18  1  0.547529  0.249838  0.002309  1
  Ho  Ho19  1  0.452453  0.750148  0.998146  1
  Co  Co20  1  0.066367  0.749744  0.991136  1
  Co  Co21  1  0.933544  0.250156  0.009538  1
  Co  Co22  1  0.566845  0.250596  0.508633  1
  Co  Co23  1  0.433370  0.749769  0.490557  1
  Bi  Bi24  1  0.072616  0.009283  0.673381  1
  Sb  Sb25  1  0.571574  0.508920  0.828345  1
  Sb  Sb26  1  0.428008  0.491265  0.172362  1
  Sb  Sb27  1  0.071860  0.490896  0.672381  1
  Sb  Sb28  1  0.428034  0.008746  0.172318  1
  Sb  Sb29  1  0.927728  0.508877  0.326622  1
  Sb  Sb30  1  0.571897  0.991121  0.827452  1
  Sb  Sb31  1  0.927937  0.991099  0.327546  1
