# generated using pymatgen
data_Tb3ThAl14(Ga2Ir3)2
_symmetry_space_group_name_H-M   'P 1'
_cell_length_a   7.56250420
_cell_length_b   7.57154153
_cell_length_c   9.56874100
_cell_angle_alpha   90.00000000
_cell_angle_beta   90.00000000
_cell_angle_gamma   119.48631042
_symmetry_Int_Tables_number   1
_chemical_formula_structural   Tb3ThAl14(Ga2Ir3)2
_chemical_formula_sum   'Tb3 Th1 Al14 Ga4 Ir6'
_cell_volume   476.93610867
_cell_formula_units_Z   1
loop_
 _symmetry_equiv_pos_site_id
 _symmetry_equiv_pos_as_xyz
  1  'x, y, z'
loop_
 _atom_site_type_symbol
 _atom_site_label
 _atom_site_symmetry_multiplicity
 _atom_site_fract_x
 _atom_site_fract_y
 _atom_site_fract_z
 _atom_site_occupancy
  Tb  Tb0  1  0.002178  0.325761  0.750000  1
  Tb  Tb1  1  0.671433  0.994921  0.250000  1
  Tb  Tb2  1  0.325373  0.003125  0.750000  1
  Th  Th3  1  0.994823  0.670821  0.250000  1
  Al  Al4  1  0.003376  0.331774  0.070269  1
  Al  Al5  1  0.999299  0.663952  0.920277  1
  Al  Al6  1  0.999299  0.663952  0.579723  1
  Al  Al7  1  0.339808  0.006514  0.429858  1
  Al  Al8  1  0.003376  0.331774  0.429731  1
  Al  Al9  1  0.664274  0.000261  0.575187  1
  Al  Al10  1  0.664274  0.000261  0.924813  1
  Al  Al11  1  0.339808  0.006514  0.070142  1
  Al  Al12  1  0.332998  0.333097  0.562087  1
  Al  Al13  1  0.662805  0.665831  0.456727  1
  Al  Al14  1  0.662805  0.665831  0.043273  1
  Al  Al15  1  0.332998  0.333097  0.937913  1
  Al  Al16  1  0.660952  0.448981  0.750000  1
  Al  Al17  1  0.449456  0.663486  0.750000  1
  Ga  Ga18  1  0.131841  0.134657  0.250000  1
  Ga  Ga19  1  0.865690  0.867969  0.750000  1
  Ga  Ga20  1  0.346006  0.548775  0.250000  1
  Ga  Ga21  1  0.542741  0.336077  0.250000  1
  Ir  Ir22  1  0.673670  0.330864  0.998764  1
  Ir  Ir23  1  0.327840  0.671903  0.998689  1
  Ir  Ir24  1  0.327840  0.671903  0.501311  1
  Ir  Ir25  1  0.673670  0.330864  0.501236  1
  Ir  Ir26  1  0.000682  0.998518  0.001004  1
  Ir  Ir27  1  0.000682  0.998518  0.498996  1
