# generated using pymatgen
data_YTm4LuFeSb2
_symmetry_space_group_name_H-M   'P 1'
_cell_length_a   8.07755334
_cell_length_b   8.10434828
_cell_length_c   4.11420700
_cell_angle_alpha   90.00000000
_cell_angle_beta   90.00000000
_cell_angle_gamma   120.11937219
_symmetry_Int_Tables_number   1
_chemical_formula_structural   YTm4LuFeSb2
_chemical_formula_sum   'Y1 Tm4 Lu1 Fe1 Sb2'
_cell_volume   232.96519517
_cell_formula_units_Z   1
loop_
 _symmetry_equiv_pos_site_id
 _symmetry_equiv_pos_as_xyz
  1  'x, y, z'
loop_
 _atom_site_type_symbol
 _atom_site_label
 _atom_site_symmetry_multiplicity
 _atom_site_fract_x
 _atom_site_fract_y
 _atom_site_fract_z
 _atom_site_occupancy
  Y  Y0  1  0.000127  0.604184  0.500000  1
  Tm  Tm1  1  0.765690  0.766904  0.000000  1
  Tm  Tm2  1  0.000076  0.233331  0.000000  1
  Tm  Tm3  1  0.393712  0.393473  0.500000  1
  Tm  Tm4  1  0.605952  0.999901  0.500000  1
  Lu  Lu5  1  0.234273  0.001356  0.000000  1
  Fe  Fe6  1  0.000554  0.002548  0.500000  1
  Sb  Sb7  1  0.334628  0.666777  0.000000  1
  Sb  Sb8  1  0.664990  0.331526  0.000000  1
