# generated using pymatgen
data_YHoSiPd14
_symmetry_space_group_name_H-M   'P 1'
_cell_length_a   8.92276500
_cell_length_b   8.92276500
_cell_length_c   7.09112300
_cell_angle_alpha   90.00000000
_cell_angle_beta   90.00000000
_cell_angle_gamma   90.00000000
_symmetry_Int_Tables_number   1
_chemical_formula_structural   YHoSiPd14
_chemical_formula_sum   'Y2 Ho2 Si2 Pd28'
_cell_volume   564.56497136
_cell_formula_units_Z   2
loop_
 _symmetry_equiv_pos_site_id
 _symmetry_equiv_pos_as_xyz
  1  'x, y, z'
loop_
 _atom_site_type_symbol
 _atom_site_label
 _atom_site_symmetry_multiplicity
 _atom_site_fract_x
 _atom_site_fract_y
 _atom_site_fract_z
 _atom_site_occupancy
  Y  Y0  1  0.500000  0.000000  0.935045  1
  Y  Y1  1  0.000000  0.500000  0.064955  1
  Ho  Ho2  1  0.000000  0.000000  0.500000  1
  Ho  Ho3  1  0.500000  0.500000  0.500000  1
  Si  Si4  1  0.500000  0.000000  0.448519  1
  Si  Si5  1  0.000000  0.500000  0.551481  1
  Pd  Pd6  1  0.334525  0.834525  0.616123  1
  Pd  Pd7  1  0.334525  0.165475  0.616123  1
  Pd  Pd8  1  0.665475  0.834525  0.616123  1
  Pd  Pd9  1  0.665475  0.165475  0.616123  1
  Pd  Pd10  1  0.165475  0.665475  0.383877  1
  Pd  Pd11  1  0.165475  0.334525  0.383877  1
  Pd  Pd12  1  0.834525  0.665475  0.383877  1
  Pd  Pd13  1  0.834525  0.334525  0.383877  1
  Pd  Pd14  1  0.500000  0.769993  0.256275  1
  Pd  Pd15  1  0.500000  0.230007  0.256275  1
  Pd  Pd16  1  0.269993  0.000000  0.256275  1
  Pd  Pd17  1  0.730007  0.000000  0.256275  1
  Pd  Pd18  1  0.000000  0.730007  0.743725  1
  Pd  Pd19  1  0.000000  0.269993  0.743725  1
  Pd  Pd20  1  0.230007  0.500000  0.743725  1
  Pd  Pd21  1  0.769993  0.500000  0.743725  1
  Pd  Pd22  1  0.500000  0.349161  0.852640  1
  Pd  Pd23  1  0.500000  0.650839  0.852640  1
  Pd  Pd24  1  0.849161  0.000000  0.852640  1
  Pd  Pd25  1  0.150839  0.000000  0.852640  1
  Pd  Pd26  1  0.000000  0.150839  0.147360  1
  Pd  Pd27  1  0.000000  0.849161  0.147360  1
  Pd  Pd28  1  0.650839  0.500000  0.147360  1
  Pd  Pd29  1  0.349161  0.500000  0.147360  1
  Pd  Pd30  1  0.250000  0.750000  0.000000  1
  Pd  Pd31  1  0.250000  0.250000  0.000000  1
  Pd  Pd32  1  0.750000  0.750000  0.000000  1
  Pd  Pd33  1  0.750000  0.250000  0.000000  1
