# generated using pymatgen
data_BaLa3(PPt3)8
_symmetry_space_group_name_H-M   'P 1'
_cell_length_a   8.60124553
_cell_length_b   8.60124553
_cell_length_c   8.60124553
_cell_angle_alpha   89.89270235
_cell_angle_beta   89.89270235
_cell_angle_gamma   89.89270235
_symmetry_Int_Tables_number   1
_chemical_formula_structural   BaLa3(PPt3)8
_chemical_formula_sum   'Ba1 La3 P8 Pt24'
_cell_volume   636.32905588
_cell_formula_units_Z   1
loop_
 _symmetry_equiv_pos_site_id
 _symmetry_equiv_pos_as_xyz
  1  'x, y, z'
loop_
 _atom_site_type_symbol
 _atom_site_label
 _atom_site_symmetry_multiplicity
 _atom_site_fract_x
 _atom_site_fract_y
 _atom_site_fract_z
 _atom_site_occupancy
  Ba  Ba0  1  0.000000  0.000000  0.000000  1
  La  La1  1  0.500000  0.500000  0.000000  1
  La  La2  1  0.500000  0.000000  0.500000  1
  La  La3  1  0.000000  0.500000  0.500000  1
  P  P4  1  0.804499  0.305176  0.193213  1
  P  P5  1  0.193213  0.804499  0.305176  1
  P  P6  1  0.694411  0.694411  0.694411  1
  P  P7  1  0.305176  0.193213  0.804499  1
  P  P8  1  0.195501  0.694824  0.806787  1
  P  P9  1  0.806787  0.195501  0.694824  1
  P  P10  1  0.305589  0.305589  0.305589  1
  P  P11  1  0.694824  0.806787  0.195501  1
  Pt  Pt12  1  0.421137  0.841952  0.157608  1
  Pt  Pt13  1  0.577897  0.343116  0.342894  1
  Pt  Pt14  1  0.077319  0.161745  0.652209  1
  Pt  Pt15  1  0.922309  0.653242  0.838715  1
  Pt  Pt16  1  0.157608  0.421137  0.841952  1
  Pt  Pt17  1  0.342894  0.577897  0.343116  1
  Pt  Pt18  1  0.652209  0.077319  0.161745  1
  Pt  Pt19  1  0.838715  0.922309  0.653242  1
  Pt  Pt20  1  0.841952  0.157608  0.421137  1
  Pt  Pt21  1  0.343116  0.342894  0.577897  1
  Pt  Pt22  1  0.161745  0.652209  0.077319  1
  Pt  Pt23  1  0.653242  0.838715  0.922309  1
  Pt  Pt24  1  0.578863  0.158048  0.842392  1
  Pt  Pt25  1  0.422103  0.656884  0.657106  1
  Pt  Pt26  1  0.922681  0.838255  0.347791  1
  Pt  Pt27  1  0.077691  0.346758  0.161285  1
  Pt  Pt28  1  0.842392  0.578863  0.158048  1
  Pt  Pt29  1  0.657106  0.422103  0.656884  1
  Pt  Pt30  1  0.347791  0.922681  0.838255  1
  Pt  Pt31  1  0.161285  0.077691  0.346758  1
  Pt  Pt32  1  0.158048  0.842392  0.578863  1
  Pt  Pt33  1  0.656884  0.657106  0.422103  1
  Pt  Pt34  1  0.838255  0.347791  0.922681  1
  Pt  Pt35  1  0.346758  0.161285  0.077691  1
