# generated using pymatgen
data_Pr3In3Ni2Ir
_symmetry_space_group_name_H-M   'P 1'
_cell_length_a   7.58427400
_cell_length_b   7.58427404
_cell_length_c   4.03677000
_cell_angle_alpha   90.00000000
_cell_angle_beta   90.00000000
_cell_angle_gamma   119.99999982
_symmetry_Int_Tables_number   1
_chemical_formula_structural   Pr3In3Ni2Ir
_chemical_formula_sum   'Pr3 In3 Ni2 Ir1'
_cell_volume   201.09101653
_cell_formula_units_Z   1
loop_
 _symmetry_equiv_pos_site_id
 _symmetry_equiv_pos_as_xyz
  1  'x, y, z'
loop_
 _atom_site_type_symbol
 _atom_site_label
 _atom_site_symmetry_multiplicity
 _atom_site_fract_x
 _atom_site_fract_y
 _atom_site_fract_z
 _atom_site_occupancy
  Pr  Pr0  1  0.411188  0.996385  0.500000  1
  Pr  Pr1  1  0.003615  0.414803  0.500000  1
  Pr  Pr2  1  0.585197  0.588812  0.500000  1
  In  In3  1  0.758303  0.003352  0.000000  1
  In  In4  1  0.996648  0.754951  0.000000  1
  In  In5  1  0.245049  0.241697  0.000000  1
  Ni  Ni6  1  0.000000  0.000000  0.500000  1
  Ni  Ni7  1  0.666667  0.333333  0.000000  1
  Ir  Ir8  1  0.333333  0.666667  0.000000  1
