# generated using pymatgen
data_HoPa3(Pd2Pb)2
_symmetry_space_group_name_H-M   'P 1'
_cell_length_a   7.89373518
_cell_length_b   7.89373518
_cell_length_c   3.66614700
_cell_angle_alpha   90.00000000
_cell_angle_beta   90.00000000
_cell_angle_gamma   89.67793046
_symmetry_Int_Tables_number   1
_chemical_formula_structural   HoPa3(Pd2Pb)2
_chemical_formula_sum   'Ho1 Pa3 Pd4 Pb2'
_cell_volume   228.43787848
_cell_formula_units_Z   1
loop_
 _symmetry_equiv_pos_site_id
 _symmetry_equiv_pos_as_xyz
  1  'x, y, z'
loop_
 _atom_site_type_symbol
 _atom_site_label
 _atom_site_symmetry_multiplicity
 _atom_site_fract_x
 _atom_site_fract_y
 _atom_site_fract_z
 _atom_site_occupancy
  Ho  Ho0  1  0.326335  0.826335  0.500000  1
  Pa  Pa1  1  0.670771  0.170771  0.500000  1
  Pa  Pa2  1  0.174216  0.326766  0.500000  1
  Pa  Pa3  1  0.826766  0.674216  0.500000  1
  Pd  Pd4  1  0.377437  0.133142  0.000000  1
  Pd  Pd5  1  0.117777  0.617777  0.000000  1
  Pd  Pd6  1  0.633142  0.877437  0.000000  1
  Pd  Pd7  1  0.869080  0.369080  0.000000  1
  Pb  Pb8  1  0.007505  0.996972  0.000000  1
  Pb  Pb9  1  0.496972  0.507505  0.000000  1
