# generated using pymatgen
data_Yb6Ga3SiPt4
_symmetry_space_group_name_H-M   'P 1'
_cell_length_a   5.67047600
_cell_length_b   7.88262800
_cell_length_c   13.62095400
_cell_angle_alpha   90.00000000
_cell_angle_beta   90.00000000
_cell_angle_gamma   90.00000000
_symmetry_Int_Tables_number   1
_chemical_formula_structural   Yb6Ga3SiPt4
_chemical_formula_sum   'Yb12 Ga6 Si2 Pt8'
_cell_volume   608.83284651
_cell_formula_units_Z   2
loop_
 _symmetry_equiv_pos_site_id
 _symmetry_equiv_pos_as_xyz
  1  'x, y, z'
loop_
 _atom_site_type_symbol
 _atom_site_label
 _atom_site_symmetry_multiplicity
 _atom_site_fract_x
 _atom_site_fract_y
 _atom_site_fract_z
 _atom_site_occupancy
  Yb  Yb0  1  0.147907  0.606018  0.097271  1
  Yb  Yb1  1  0.147907  0.893982  0.902729  1
  Yb  Yb2  1  0.850777  0.105002  0.402956  1
  Yb  Yb3  1  0.850777  0.394998  0.597044  1
  Yb  Yb4  1  0.850777  0.394998  0.902956  1
  Yb  Yb5  1  0.850777  0.105002  0.097044  1
  Yb  Yb6  1  0.147907  0.893982  0.597271  1
  Yb  Yb7  1  0.147907  0.606018  0.402729  1
  Yb  Yb8  1  0.362972  0.251679  0.250000  1
  Yb  Yb9  1  0.362972  0.248321  0.750000  1
  Yb  Yb10  1  0.632525  0.752607  0.250000  1
  Yb  Yb11  1  0.632525  0.747393  0.750000  1
  Ga  Ga12  1  0.367926  0.250000  0.000000  1
  Ga  Ga13  1  0.637747  0.750000  0.500000  1
  Ga  Ga14  1  0.637747  0.750000  0.000000  1
  Ga  Ga15  1  0.367926  0.250000  0.500000  1
  Ga  Ga16  1  0.133845  0.902382  0.250000  1
  Ga  Ga17  1  0.133845  0.597618  0.750000  1
  Si  Si18  1  0.859138  0.402413  0.250000  1
  Si  Si19  1  0.859138  0.097587  0.750000  1
  Pt  Pt20  1  0.641837  0.463745  0.099523  1
  Pt  Pt21  1  0.641837  0.036255  0.900477  1
  Pt  Pt22  1  0.362403  0.966076  0.405968  1
  Pt  Pt23  1  0.362403  0.533924  0.594032  1
  Pt  Pt24  1  0.362403  0.533924  0.905968  1
  Pt  Pt25  1  0.362403  0.966076  0.094032  1
  Pt  Pt26  1  0.641837  0.036255  0.599523  1
  Pt  Pt27  1  0.641837  0.463745  0.400477  1
