# generated using pymatgen
data_Ce3Al12TcOs3
_symmetry_space_group_name_H-M   'P 1'
_cell_length_a   8.90190700
_cell_length_b   8.90190709
_cell_length_c   9.59419600
_cell_angle_alpha   90.00000000
_cell_angle_beta   90.00000000
_cell_angle_gamma   119.99999594
_symmetry_Int_Tables_number   1
_chemical_formula_structural   Ce3Al12TcOs3
_chemical_formula_sum   'Ce6 Al24 Tc2 Os6'
_cell_volume   658.42353491
_cell_formula_units_Z   2
loop_
 _symmetry_equiv_pos_site_id
 _symmetry_equiv_pos_as_xyz
  1  'x, y, z'
loop_
 _atom_site_type_symbol
 _atom_site_label
 _atom_site_symmetry_multiplicity
 _atom_site_fract_x
 _atom_site_fract_y
 _atom_site_fract_z
 _atom_site_occupancy
  Ce  Ce0  1  0.805888  0.611776  0.750000  1
  Ce  Ce1  1  0.194112  0.805888  0.250000  1
  Ce  Ce2  1  0.611776  0.805888  0.250000  1
  Ce  Ce3  1  0.388224  0.194112  0.750000  1
  Ce  Ce4  1  0.805888  0.194112  0.750000  1
  Ce  Ce5  1  0.194112  0.388224  0.250000  1
  Al  Al6  1  0.333333  0.666667  0.491202  1
  Al  Al7  1  0.666667  0.333333  0.991202  1
  Al  Al8  1  0.666667  0.333333  0.508798  1
  Al  Al9  1  0.333333  0.666667  0.008798  1
  Al  Al10  1  0.162182  0.324364  0.577901  1
  Al  Al11  1  0.675636  0.837818  0.577901  1
  Al  Al12  1  0.162182  0.837818  0.577901  1
  Al  Al13  1  0.837818  0.162182  0.077901  1
  Al  Al14  1  0.837818  0.162182  0.422099  1
  Al  Al15  1  0.837818  0.675636  0.077901  1
  Al  Al16  1  0.324364  0.162182  0.077901  1
  Al  Al17  1  0.675636  0.837818  0.922099  1
  Al  Al18  1  0.162182  0.324364  0.922099  1
  Al  Al19  1  0.837818  0.675636  0.422099  1
  Al  Al20  1  0.000000  0.000000  0.250000  1
  Al  Al21  1  0.000000  0.000000  0.750000  1
  Al  Al22  1  0.562378  0.124755  0.250000  1
  Al  Al23  1  0.437622  0.562378  0.750000  1
  Al  Al24  1  0.124755  0.562378  0.750000  1
  Al  Al25  1  0.875245  0.437622  0.250000  1
  Al  Al26  1  0.562378  0.437622  0.250000  1
  Al  Al27  1  0.437622  0.875245  0.750000  1
  Al  Al28  1  0.162182  0.837818  0.922099  1
  Al  Al29  1  0.324364  0.162182  0.422099  1
  Tc  Tc30  1  0.000000  0.000000  0.500000  1
  Tc  Tc31  1  0.000000  0.000000  0.000000  1
  Os  Os32  1  0.500000  0.000000  0.500000  1
  Os  Os33  1  0.500000  0.500000  0.000000  1
  Os  Os34  1  0.000000  0.500000  0.000000  1
  Os  Os35  1  0.000000  0.500000  0.500000  1
  Os  Os36  1  0.500000  0.500000  0.500000  1
  Os  Os37  1  0.500000  0.000000  0.000000  1
