# generated using pymatgen
data_Er4RhPb2Au3
_symmetry_space_group_name_H-M   'P 1'
_cell_length_a   8.04840760
_cell_length_b   8.04840819
_cell_length_c   3.60564800
_cell_angle_alpha   90.00000000
_cell_angle_beta   90.00000000
_cell_angle_gamma   90.24931305
_symmetry_Int_Tables_number   1
_chemical_formula_structural   Er4RhPb2Au3
_chemical_formula_sum   'Er4 Rh1 Pb2 Au3'
_cell_volume   233.56037943
_cell_formula_units_Z   1
loop_
 _symmetry_equiv_pos_site_id
 _symmetry_equiv_pos_as_xyz
  1  'x, y, z'
loop_
 _atom_site_type_symbol
 _atom_site_label
 _atom_site_symmetry_multiplicity
 _atom_site_fract_x
 _atom_site_fract_y
 _atom_site_fract_z
 _atom_site_occupancy
  Er  Er0  1  0.681929  0.181929  0.500000  1
  Er  Er1  1  0.150157  0.329336  0.500000  1
  Er  Er2  1  0.829336  0.650157  0.500000  1
  Er  Er3  1  0.332673  0.832673  0.500000  1
  Rh  Rh4  1  0.873149  0.373149  0.000000  1
  Pb  Pb5  1  0.997461  0.004850  0.000000  1
  Pb  Pb6  1  0.504850  0.497461  0.000000  1
  Au  Au7  1  0.375207  0.129107  0.000000  1
  Au  Au8  1  0.126129  0.626129  0.000000  1
  Au  Au9  1  0.629107  0.875207  0.000000  1
