# generated using pymatgen
data_Dy9YSi5Sn
_symmetry_space_group_name_H-M   'P 1'
_cell_length_a   8.51787001
_cell_length_b   8.54646359
_cell_length_c   6.40386500
_cell_angle_alpha   90.00000000
_cell_angle_beta   90.00000000
_cell_angle_gamma   119.89598579
_symmetry_Int_Tables_number   1
_chemical_formula_structural   Dy9YSi5Sn
_chemical_formula_sum   'Dy9 Y1 Si5 Sn1'
_cell_volume   404.15177652
_cell_formula_units_Z   1
loop_
 _symmetry_equiv_pos_site_id
 _symmetry_equiv_pos_as_xyz
  1  'x, y, z'
loop_
 _atom_site_type_symbol
 _atom_site_label
 _atom_site_symmetry_multiplicity
 _atom_site_fract_x
 _atom_site_fract_y
 _atom_site_fract_z
 _atom_site_occupancy
  Dy  Dy0  1  0.998905  0.242868  0.250000  1
  Dy  Dy1  1  0.755985  0.757136  0.250000  1
  Dy  Dy2  1  0.764714  0.000038  0.750000  1
  Dy  Dy3  1  0.240772  0.251362  0.750000  1
  Dy  Dy4  1  0.241574  0.000055  0.250000  1
  Dy  Dy5  1  0.673372  0.341796  0.003171  1
  Dy  Dy6  1  0.331578  0.658152  0.496849  1
  Dy  Dy7  1  0.331578  0.658152  0.003151  1
  Dy  Dy8  1  0.673372  0.341796  0.496829  1
  Y  Y9  1  0.989491  0.748771  0.750000  1
  Si  Si10  1  0.393506  0.392218  0.250000  1
  Si  Si11  1  0.001257  0.607740  0.250000  1
  Si  Si12  1  0.998730  0.394169  0.750000  1
  Si  Si13  1  0.604471  0.605764  0.750000  1
  Si  Si14  1  0.605795  0.999975  0.250000  1
  Sn  Sn15  1  0.394899  0.000008  0.750000  1
