# generated using pymatgen
data_Fe6Si2P
_symmetry_space_group_name_H-M   'P 1'
_cell_length_a   6.24366332
_cell_length_b   6.29020899
_cell_length_c   6.85653390
_cell_angle_alpha   117.30337349
_cell_angle_beta   117.08473054
_cell_angle_gamma   90.00000850
_symmetry_Int_Tables_number   1
_chemical_formula_structural   Fe6Si2P
_chemical_formula_sum   'Fe12 Si4 P2'
_cell_volume   205.48394882
_cell_formula_units_Z   2
loop_
 _symmetry_equiv_pos_site_id
 _symmetry_equiv_pos_as_xyz
  1  'x, y, z'
loop_
 _atom_site_type_symbol
 _atom_site_label
 _atom_site_symmetry_multiplicity
 _atom_site_fract_x
 _atom_site_fract_y
 _atom_site_fract_z
 _atom_site_occupancy
  Fe  Fe0  1  0.011515  0.592554  0.748591  1
  Fe  Fe1  1  0.262926  0.407446  0.251409  1
  Fe  Fe2  1  0.011515  0.156035  0.748591  1
  Fe  Fe3  1  0.262926  0.843965  0.251409  1
  Fe  Fe4  1  0.756115  0.213662  0.000000  1
  Fe  Fe5  1  0.756115  0.786338  0.000000  1
  Fe  Fe6  1  0.980113  0.700712  0.401422  1
  Fe  Fe7  1  0.578690  0.299288  0.598578  1
  Fe  Fe8  1  0.057420  0.208165  0.416331  1
  Fe  Fe9  1  0.641089  0.791835  0.583669  1
  Fe  Fe10  1  0.431772  0.500000  0.000000  1
  Fe  Fe11  1  0.384271  0.000000  0.000000  1
  Si  Si12  1  0.345148  0.611331  0.669836  1
  Si  Si13  1  0.675313  0.388669  0.330164  1
  Si  Si14  1  0.345148  0.058504  0.669836  1
  Si  Si15  1  0.675313  0.941496  0.330164  1
  P  P16  1  0.954318  0.500000  0.000000  1
  P  P17  1  0.036293  0.000000  0.000000  1
