# generated using pymatgen
data_BaSr7Li4(HgAs2)6
_symmetry_space_group_name_H-M   'P 1'
_cell_length_a   10.35931010
_cell_length_b   10.35930993
_cell_length_c   16.56769863
_cell_angle_alpha   89.71746809
_cell_angle_beta   90.28253228
_cell_angle_gamma   154.38599744
_symmetry_Int_Tables_number   1
_chemical_formula_structural   BaSr7Li4(HgAs2)6
_chemical_formula_sum   'Ba1 Sr7 Li4 Hg6 As12'
_cell_volume   768.61648076
_cell_formula_units_Z   1
loop_
 _symmetry_equiv_pos_site_id
 _symmetry_equiv_pos_as_xyz
  1  'x, y, z'
loop_
 _atom_site_type_symbol
 _atom_site_label
 _atom_site_symmetry_multiplicity
 _atom_site_fract_x
 _atom_site_fract_y
 _atom_site_fract_z
 _atom_site_occupancy
  Ba  Ba0  1  0.172335  0.827665  0.428257  1
  Sr  Sr1  1  0.979772  0.020228  0.378224  1
  Sr  Sr2  1  0.017243  0.982757  0.622619  1
  Sr  Sr3  1  0.982023  0.017977  0.120178  1
  Sr  Sr4  1  0.018171  0.981829  0.878310  1
  Sr  Sr5  1  0.827995  0.172005  0.928578  1
  Sr  Sr6  1  0.172358  0.827642  0.069908  1
  Sr  Sr7  1  0.827598  0.172402  0.573576  1
  Li  Li8  1  0.847681  0.152319  0.247510  1
  Li  Li9  1  0.153447  0.846553  0.751526  1
  Li  Li10  1  0.563938  0.436062  0.249943  1
  Li  Li11  1  0.436300  0.563700  0.750314  1
  Hg  Hg12  1  0.353546  0.646454  0.381223  1
  Hg  Hg13  1  0.648301  0.351699  0.618238  1
  Hg  Hg14  1  0.351843  0.648157  0.116717  1
  Hg  Hg15  1  0.647991  0.352009  0.883237  1
  Hg  Hg16  1  0.700877  0.299123  0.248412  1
  Hg  Hg17  1  0.299799  0.700201  0.752802  1
  As  As18  1  0.780176  0.219824  0.386765  1
  As  As19  1  0.225335  0.774665  0.615313  1
  As  As20  1  0.775813  0.224187  0.110351  1
  As  As21  1  0.224409  0.775591  0.890269  1
  As  As22  1  0.555653  0.444347  0.479614  1
  As  As23  1  0.436979  0.563021  0.524867  1
  As  As24  1  0.559885  0.440115  0.021910  1
  As  As25  1  0.439915  0.560085  0.976476  1
  As  As26  1  0.436094  0.563906  0.248659  1
  As  As27  1  0.565029  0.434971  0.750110  1
  As  As28  1  0.112234  0.887766  0.244641  1
  As  As29  1  0.887259  0.112741  0.751455  1
