# generated using pymatgen
data_K6NbBrO5
_symmetry_space_group_name_H-M   'P 1'
_cell_length_a   7.81129037
_cell_length_b   7.81129139
_cell_length_c   7.81129100
_cell_angle_alpha   60.00000591
_cell_angle_beta   60.00000155
_cell_angle_gamma   60.00000050
_symmetry_Int_Tables_number   1
_chemical_formula_structural   K6NbBrO5
_chemical_formula_sum   'K6 Nb1 Br1 O5'
_cell_volume   337.01828687
_cell_formula_units_Z   1
loop_
 _symmetry_equiv_pos_site_id
 _symmetry_equiv_pos_as_xyz
  1  'x, y, z'
loop_
 _atom_site_type_symbol
 _atom_site_label
 _atom_site_symmetry_multiplicity
 _atom_site_fract_x
 _atom_site_fract_y
 _atom_site_fract_z
 _atom_site_occupancy
  K  K0  1  0.487143  0.487143  0.012857  1
  K  K1  1  0.487144  0.012856  0.012856  1
  K  K2  1  0.012856  0.487144  0.012856  1
  K  K3  1  0.487143  0.012857  0.487143  1
  K  K4  1  0.012856  0.012856  0.487144  1
  K  K5  1  0.012857  0.487143  0.487143  1
  Nb  Nb6  1  0.500000  0.500000  0.500000  1
  Br  Br7  1  0.000000  0.000000  0.000000  1
  O  O8  1  0.598584  0.598584  0.204248  1
  O  O9  1  0.250000  0.250000  0.250000  1
  O  O10  1  0.598584  0.204248  0.598584  1
  O  O11  1  0.204248  0.598584  0.598584  1
  O  O12  1  0.598584  0.598584  0.598584  1
