# generated using pymatgen
data_LiTh8Al(Si6Pd)2
_symmetry_space_group_name_H-M   'P 1'
_cell_length_a   8.27042200
_cell_length_b   8.27042066
_cell_length_c   8.46348100
_cell_angle_alpha   90.00000000
_cell_angle_beta   90.00000000
_cell_angle_gamma   120.00000538
_symmetry_Int_Tables_number   1
_chemical_formula_structural   LiTh8Al(Si6Pd)2
_chemical_formula_sum   'Li1 Th8 Al1 Si12 Pd2'
_cell_volume   501.34293749
_cell_formula_units_Z   1
loop_
 _symmetry_equiv_pos_site_id
 _symmetry_equiv_pos_as_xyz
  1  'x, y, z'
loop_
 _atom_site_type_symbol
 _atom_site_label
 _atom_site_symmetry_multiplicity
 _atom_site_fract_x
 _atom_site_fract_y
 _atom_site_fract_z
 _atom_site_occupancy
  Li  Li0  1  0.333333  0.666667  0.003161  1
  Th  Th1  1  0.501095  0.002189  0.243937  1
  Th  Th2  1  0.500254  0.000510  0.755884  1
  Th  Th3  1  0.997811  0.498905  0.243937  1
  Th  Th4  1  0.999490  0.499746  0.755884  1
  Th  Th5  1  0.501095  0.498905  0.243937  1
  Th  Th6  1  0.500254  0.499746  0.755884  1
  Th  Th7  1  0.000000  0.000000  0.249401  1
  Th  Th8  1  0.000000  0.000000  0.750746  1
  Al  Al9  1  0.666667  0.333333  0.998139  1
  Si  Si10  1  0.169332  0.338663  0.999807  1
  Si  Si11  1  0.835335  0.670671  0.000148  1
  Si  Si12  1  0.661337  0.830668  0.999807  1
  Si  Si13  1  0.834912  0.669823  0.500724  1
  Si  Si14  1  0.329329  0.164665  0.000148  1
  Si  Si15  1  0.165652  0.331303  0.499219  1
  Si  Si16  1  0.169332  0.830668  0.999807  1
  Si  Si17  1  0.330177  0.165088  0.500724  1
  Si  Si18  1  0.835335  0.164665  0.000148  1
  Si  Si19  1  0.668697  0.834348  0.499219  1
  Si  Si20  1  0.834912  0.165088  0.500724  1
  Si  Si21  1  0.165652  0.834348  0.499219  1
  Pd  Pd22  1  0.666667  0.333333  0.500588  1
  Pd  Pd23  1  0.333333  0.666667  0.498807  1
