# generated using pymatgen
data_KErBeF6
_symmetry_space_group_name_H-M   'P 1'
_cell_length_a   5.80719300
_cell_length_b   6.43149803
_cell_length_c   7.13463860
_cell_angle_alpha   66.72038152
_cell_angle_beta   90.00000000
_cell_angle_gamma   90.00000000
_symmetry_Int_Tables_number   1
_chemical_formula_structural   KErBeF6
_chemical_formula_sum   'K2 Er2 Be2 F12'
_cell_volume   244.77704553
_cell_formula_units_Z   2
loop_
 _symmetry_equiv_pos_site_id
 _symmetry_equiv_pos_as_xyz
  1  'x, y, z'
loop_
 _atom_site_type_symbol
 _atom_site_label
 _atom_site_symmetry_multiplicity
 _atom_site_fract_x
 _atom_site_fract_y
 _atom_site_fract_z
 _atom_site_occupancy
  K  K0  1  0.250000  0.074911  0.793810  1
  K  K1  1  0.750000  0.925089  0.206190  1
  Er  Er2  1  0.250000  0.390465  0.179667  1
  Er  Er3  1  0.750000  0.609535  0.820333  1
  Be  Be4  1  0.250000  0.768626  0.463244  1
  Be  Be5  1  0.750000  0.231374  0.536756  1
  F  F6  1  0.467221  0.762348  0.595679  1
  F  F7  1  0.532779  0.237652  0.404321  1
  F  F8  1  0.967221  0.237652  0.404321  1
  F  F9  1  0.032779  0.762348  0.595679  1
  F  F10  1  0.250000  0.566695  0.398005  1
  F  F11  1  0.750000  0.433305  0.601995  1
  F  F12  1  0.498407  0.678886  0.030808  1
  F  F13  1  0.501593  0.321114  0.969192  1
  F  F14  1  0.998407  0.321114  0.969192  1
  F  F15  1  0.001593  0.678886  0.030808  1
  F  F16  1  0.250000  0.995082  0.266392  1
  F  F17  1  0.750000  0.004918  0.733608  1
