# generated using pymatgen
data_Nd2BeTc16C3
_symmetry_space_group_name_H-M   'P 1'
_cell_length_a   6.94868086
_cell_length_b   6.94868314
_cell_length_c   6.98762318
_cell_angle_alpha   82.94187953
_cell_angle_beta   82.94187044
_cell_angle_gamma   82.45598470
_symmetry_Int_Tables_number   1
_chemical_formula_structural   Nd2BeTc16C3
_chemical_formula_sum   'Nd2 Be1 Tc16 C3'
_cell_volume   329.97714115
_cell_formula_units_Z   1
loop_
 _symmetry_equiv_pos_site_id
 _symmetry_equiv_pos_as_xyz
  1  'x, y, z'
loop_
 _atom_site_type_symbol
 _atom_site_label
 _atom_site_symmetry_multiplicity
 _atom_site_fract_x
 _atom_site_fract_y
 _atom_site_fract_z
 _atom_site_occupancy
  Nd  Nd0  1  0.651629  0.651629  0.652993  1
  Nd  Nd1  1  0.348371  0.348371  0.347007  1
  Be  Be2  1  0.000000  0.000000  0.500000  1
  Tc  Tc3  1  0.500000  0.000000  0.000000  1
  Tc  Tc4  1  0.000000  0.500000  0.000000  1
  Tc  Tc5  1  0.723749  0.276251  0.000000  1
  Tc  Tc6  1  0.997098  0.728612  0.282688  1
  Tc  Tc7  1  0.271388  0.002902  0.717312  1
  Tc  Tc8  1  0.002902  0.271388  0.717312  1
  Tc  Tc9  1  0.728612  0.997098  0.282688  1
  Tc  Tc10  1  0.276251  0.723749  0.000000  1
  Tc  Tc11  1  0.341706  0.862936  0.349246  1
  Tc  Tc12  1  0.352466  0.352466  0.857024  1
  Tc  Tc13  1  0.862936  0.341706  0.349246  1
  Tc  Tc14  1  0.658294  0.137064  0.650754  1
  Tc  Tc15  1  0.647534  0.647534  0.142976  1
  Tc  Tc16  1  0.137064  0.658294  0.650754  1
  Tc  Tc17  1  0.900634  0.900634  0.905587  1
  Tc  Tc18  1  0.099366  0.099366  0.094413  1
  C  C19  1  0.500000  0.500000  0.000000  1
  C  C20  1  0.000000  0.500000  0.500000  1
  C  C21  1  0.500000  0.000000  0.500000  1
