# generated using pymatgen
data_Sm2UCo16
_symmetry_space_group_name_H-M   'P 1'
_cell_length_a   8.24183239
_cell_length_b   8.43998422
_cell_length_c   8.44287033
_cell_angle_alpha   60.01130708
_cell_angle_beta   90.02980940
_cell_angle_gamma   89.99999668
_symmetry_Int_Tables_number   1
_chemical_formula_structural   Sm2UCo16
_chemical_formula_sum   'Sm4 U2 Co32'
_cell_volume   508.66933437
_cell_formula_units_Z   2
loop_
 _symmetry_equiv_pos_site_id
 _symmetry_equiv_pos_as_xyz
  1  'x, y, z'
loop_
 _atom_site_type_symbol
 _atom_site_label
 _atom_site_symmetry_multiplicity
 _atom_site_fract_x
 _atom_site_fract_y
 _atom_site_fract_z
 _atom_site_occupancy
  Sm  Sm0  1  0.270634  0.666847  0.666307  1
  Sm  Sm1  1  0.729366  0.333153  0.333693  1
  Sm  Sm2  1  0.752659  0.000005  0.999989  1
  Sm  Sm3  1  0.247341  0.999995  0.000011  1
  U  U4  1  0.109740  0.333226  0.333547  1
  U  U5  1  0.890260  0.666774  0.666453  1
  Co  Co6  1  0.747248  0.671927  0.364569  1
  Co  Co7  1  0.747281  0.364510  0.963480  1
  Co  Co8  1  0.747287  0.963452  0.671972  1
  Co  Co9  1  0.747287  0.364576  0.671972  1
  Co  Co10  1  0.747248  0.963505  0.364569  1
  Co  Co11  1  0.747281  0.672010  0.963480  1
  Co  Co12  1  0.252752  0.328073  0.635431  1
  Co  Co13  1  0.252719  0.635490  0.036520  1
  Co  Co14  1  0.252713  0.036548  0.328028  1
  Co  Co15  1  0.252713  0.635424  0.328028  1
  Co  Co16  1  0.252752  0.036495  0.635431  1
  Co  Co17  1  0.252719  0.327990  0.036520  1
  Co  Co18  1  0.500000  0.500000  0.500000  1
  Co  Co19  1  0.500000  0.500000  0.000000  1
  Co  Co20  1  0.500000  0.000000  0.500000  1
  Co  Co21  1  0.000000  0.500000  0.500000  1
  Co  Co22  1  0.000000  0.500000  0.000000  1
  Co  Co23  1  0.000000  0.000000  0.500000  1
  Co  Co24  1  0.489885  0.834166  0.834031  1
  Co  Co25  1  0.489895  0.834090  0.331819  1
  Co  Co26  1  0.489885  0.331802  0.834031  1
  Co  Co27  1  0.510115  0.165834  0.165969  1
  Co  Co28  1  0.510105  0.165910  0.668181  1
  Co  Co29  1  0.510115  0.668198  0.165969  1
  Co  Co30  1  0.973462  0.163851  0.163875  1
  Co  Co31  1  0.973474  0.163829  0.672342  1
  Co  Co32  1  0.973462  0.672274  0.163875  1
  Co  Co33  1  0.026538  0.836149  0.836125  1
  Co  Co34  1  0.026526  0.836171  0.327658  1
  Co  Co35  1  0.026538  0.327726  0.836125  1
  Co  Co36  1  0.604628  0.666675  0.666651  1
  Co  Co37  1  0.395372  0.333325  0.333349  1
