# generated using pymatgen
data_Ho6Er2Ti12Si15Sn
_symmetry_space_group_name_H-M   'P 1'
_cell_length_a   7.09815869
_cell_length_b   7.06040259
_cell_length_c   12.99257300
_cell_angle_alpha   89.98687140
_cell_angle_beta   89.74208058
_cell_angle_gamma   89.93532554
_symmetry_Int_Tables_number   1
_chemical_formula_structural   Ho6Er2Ti12Si15Sn
_chemical_formula_sum   'Ho6 Er2 Ti12 Si15 Sn1'
_cell_volume   651.12691521
_cell_formula_units_Z   1
loop_
 _symmetry_equiv_pos_site_id
 _symmetry_equiv_pos_as_xyz
  1  'x, y, z'
loop_
 _atom_site_type_symbol
 _atom_site_label
 _atom_site_symmetry_multiplicity
 _atom_site_fract_x
 _atom_site_fract_y
 _atom_site_fract_z
 _atom_site_occupancy
  Ho  Ho0  1  0.342643  0.999161  0.461362  1
  Ho  Ho1  1  0.505658  0.835013  0.718246  1
  Ho  Ho2  1  0.502422  0.159922  0.216888  1
  Ho  Ho3  1  0.840867  0.496903  0.282156  1
  Ho  Ho4  1  0.159445  0.510001  0.786044  1
  Ho  Ho5  1  0.662034  0.996305  0.968904  1
  Er  Er6  1  0.991931  0.348495  0.527511  1
  Er  Er7  1  0.999700  0.659306  0.034117  1
  Ti  Ti8  1  0.326555  0.326631  0.001249  1
  Ti  Ti9  1  0.173869  0.825887  0.249585  1
  Ti  Ti10  1  0.816700  0.175136  0.751916  1
  Ti  Ti11  1  0.672323  0.673059  0.499485  1
  Ti  Ti12  1  0.152726  0.007894  0.883373  1
  Ti  Ti13  1  0.492729  0.649855  0.126778  1
  Ti  Ti14  1  0.514889  0.354344  0.626485  1
  Ti  Ti15  1  0.654316  0.493368  0.875874  1
  Ti  Ti16  1  0.347120  0.509276  0.372770  1
  Ti  Ti17  1  0.846833  0.992581  0.375597  1
  Ti  Ti18  1  0.009914  0.150824  0.123348  1
  Ti  Ti19  1  0.979010  0.835846  0.618591  1
  Si  Si20  1  0.371147  0.703100  0.935854  1
  Si  Si21  1  0.627942  0.297304  0.432656  1
  Si  Si22  1  0.704832  0.369397  0.066962  1
  Si  Si23  1  0.295837  0.630841  0.565781  1
  Si  Si24  1  0.797701  0.869244  0.183785  1
  Si  Si25  1  0.129847  0.202816  0.315179  1
  Si  Si26  1  0.870886  0.799925  0.816436  1
  Si  Si27  1  0.293305  0.951692  0.066991  1
  Si  Si28  1  0.549372  0.789432  0.313522  1
  Si  Si29  1  0.459328  0.210270  0.820110  1
  Si  Si30  1  0.794020  0.544518  0.686838  1
  Si  Si31  1  0.209073  0.452796  0.185018  1
  Si  Si32  1  0.705890  0.048801  0.564385  1
  Si  Si33  1  0.952961  0.292173  0.935412  1
  Si  Si34  1  0.047199  0.710443  0.432642  1
  Sn  Sn35  1  0.198974  0.127447  0.678147  1
