# generated using pymatgen
data_Tb2YGa6Ni4Rh5
_symmetry_space_group_name_H-M   'P 1'
_cell_length_a   9.44020545
_cell_length_b   9.44020461
_cell_length_c   3.89396000
_cell_angle_alpha   90.00000000
_cell_angle_beta   90.00000000
_cell_angle_gamma   121.05262691
_symmetry_Int_Tables_number   1
_chemical_formula_structural   Tb2YGa6Ni4Rh5
_chemical_formula_sum   'Tb2 Y1 Ga6 Ni4 Rh5'
_cell_volume   297.28979312
_cell_formula_units_Z   1
loop_
 _symmetry_equiv_pos_site_id
 _symmetry_equiv_pos_as_xyz
  1  'x, y, z'
loop_
 _atom_site_type_symbol
 _atom_site_label
 _atom_site_symmetry_multiplicity
 _atom_site_fract_x
 _atom_site_fract_y
 _atom_site_fract_z
 _atom_site_occupancy
  Tb  Tb0  1  0.002499  0.997501  0.000000  1
  Tb  Tb1  1  0.334351  0.665649  0.500000  1
  Y  Y2  1  0.664174  0.335826  0.500000  1
  Ga  Ga3  1  0.328725  0.332182  0.500000  1
  Ga  Ga4  1  0.680802  0.013485  0.500000  1
  Ga  Ga5  1  0.667818  0.671275  0.500000  1
  Ga  Ga6  1  0.986515  0.319198  0.500000  1
  Ga  Ga7  1  0.000833  0.664918  0.500000  1
  Ga  Ga8  1  0.335082  0.999167  0.500000  1
  Ni  Ni9  1  0.819082  0.180918  0.000000  1
  Ni  Ni10  1  0.511294  0.011160  0.000000  1
  Ni  Ni11  1  0.988840  0.488706  0.000000  1
  Ni  Ni12  1  0.496365  0.503635  0.000000  1
  Rh  Rh13  1  0.171769  0.354576  0.000000  1
  Rh  Rh14  1  0.818409  0.637093  0.000000  1
  Rh  Rh15  1  0.185112  0.814888  0.000000  1
  Rh  Rh16  1  0.645424  0.828231  0.000000  1
  Rh  Rh17  1  0.362907  0.181591  0.000000  1
