# generated using pymatgen
data_Nd11Th3NiIr5
_symmetry_space_group_name_H-M   'P 1'
_cell_length_a   9.89263400
_cell_length_b   10.14831637
_cell_length_c   6.43640142
_cell_angle_alpha   90.19341228
_cell_angle_beta   90.00000000
_cell_angle_gamma   119.17001238
_symmetry_Int_Tables_number   1
_chemical_formula_structural   Nd11Th3NiIr5
_chemical_formula_sum   'Nd11 Th3 Ni1 Ir5'
_cell_volume   564.21970558
_cell_formula_units_Z   1
loop_
 _symmetry_equiv_pos_site_id
 _symmetry_equiv_pos_as_xyz
  1  'x, y, z'
loop_
 _atom_site_type_symbol
 _atom_site_label
 _atom_site_symmetry_multiplicity
 _atom_site_fract_x
 _atom_site_fract_y
 _atom_site_fract_z
 _atom_site_occupancy
  Nd  Nd0  1  0.460137  0.532341  0.298001  1
  Nd  Nd1  1  0.072203  0.532341  0.298001  1
  Nd  Nd2  1  0.926601  0.468472  0.800324  1
  Nd  Nd3  1  0.251207  0.125433  0.501991  1
  Nd  Nd4  1  0.539059  0.078116  0.807444  1
  Nd  Nd5  1  0.747976  0.873226  0.002611  1
  Nd  Nd6  1  0.664982  0.329963  0.279021  1
  Nd  Nd7  1  0.125250  0.873226  0.002611  1
  Nd  Nd8  1  0.461304  0.922609  0.303117  1
  Nd  Nd9  1  0.541872  0.468472  0.800324  1
  Nd  Nd10  1  0.874226  0.125433  0.501991  1
  Th  Th11  1  0.126280  0.252561  0.991905  1
  Th  Th12  1  0.873751  0.747503  0.492972  1
  Th  Th13  1  0.335188  0.670378  0.770094  1
  Ni  Ni14  1  0.810027  0.620054  0.069105  1
  Ir  Ir15  1  0.826508  0.196194  0.045352  1
  Ir  Ir16  1  0.625918  0.801152  0.549693  1
  Ir  Ir17  1  0.369686  0.196194  0.045352  1
  Ir  Ir18  1  0.192591  0.385181  0.574399  1
  Ir  Ir19  1  0.175233  0.801152  0.549693  1
