# generated using pymatgen
data_Lu8Mg2Sn7Au
_symmetry_space_group_name_H-M   'P 1'
_cell_length_a   7.44675254
_cell_length_b   8.12703777
_cell_length_c   15.08274300
_cell_angle_alpha   90.00000000
_cell_angle_beta   90.00000000
_cell_angle_gamma   90.11099454
_symmetry_Int_Tables_number   1
_chemical_formula_structural   Lu8Mg2Sn7Au
_chemical_formula_sum   'Lu16 Mg4 Sn14 Au2'
_cell_volume   912.80648321
_cell_formula_units_Z   2
loop_
 _symmetry_equiv_pos_site_id
 _symmetry_equiv_pos_as_xyz
  1  'x, y, z'
loop_
 _atom_site_type_symbol
 _atom_site_label
 _atom_site_symmetry_multiplicity
 _atom_site_fract_x
 _atom_site_fract_y
 _atom_site_fract_z
 _atom_site_occupancy
  Lu  Lu0  1  0.317894  0.163749  0.628930  1
  Lu  Lu1  1  0.682106  0.836251  0.371070  1
  Lu  Lu2  1  0.153756  0.674910  0.367953  1
  Lu  Lu3  1  0.682106  0.836251  0.128930  1
  Lu  Lu4  1  0.846244  0.325090  0.632047  1
  Lu  Lu5  1  0.317894  0.163749  0.871070  1
  Lu  Lu6  1  0.846244  0.325090  0.867953  1
  Lu  Lu7  1  0.153756  0.674910  0.132047  1
  Lu  Lu8  1  0.995098  0.181127  0.088785  1
  Lu  Lu9  1  0.004902  0.818873  0.911215  1
  Lu  Lu10  1  0.503983  0.688725  0.908001  1
  Lu  Lu11  1  0.004902  0.818873  0.588785  1
  Lu  Lu12  1  0.496017  0.311275  0.091999  1
  Lu  Lu13  1  0.995098  0.181127  0.411215  1
  Lu  Lu14  1  0.496017  0.311275  0.408001  1
  Lu  Lu15  1  0.503983  0.688725  0.591999  1
  Mg  Mg16  1  0.163142  0.500583  0.750000  1
  Mg  Mg17  1  0.836858  0.499417  0.250000  1
  Mg  Mg18  1  0.328701  0.998732  0.250000  1
  Mg  Mg19  1  0.671299  0.001268  0.750000  1
  Sn  Sn20  1  0.475056  0.600844  0.250000  1
  Sn  Sn21  1  0.524944  0.399156  0.750000  1
  Sn  Sn22  1  0.186936  0.466353  0.536593  1
  Sn  Sn23  1  0.813064  0.533647  0.463407  1
  Sn  Sn24  1  0.318435  0.962674  0.457494  1
  Sn  Sn25  1  0.813064  0.533647  0.036593  1
  Sn  Sn26  1  0.681565  0.037326  0.542506  1
  Sn  Sn27  1  0.186936  0.466353  0.963407  1
  Sn  Sn28  1  0.681565  0.037326  0.957494  1
  Sn  Sn29  1  0.318435  0.962674  0.042506  1
  Sn  Sn30  1  0.295093  0.850677  0.750000  1
  Sn  Sn31  1  0.704907  0.149323  0.250000  1
  Sn  Sn32  1  0.196575  0.347664  0.250000  1
  Sn  Sn33  1  0.803425  0.652336  0.750000  1
  Au  Au34  1  0.025235  0.102423  0.750000  1
  Au  Au35  1  0.974765  0.897577  0.250000  1
