# generated using pymatgen
data_Er12Co4SnRh
_symmetry_space_group_name_H-M   'P 1'
_cell_length_a   8.24244924
_cell_length_b   8.24244918
_cell_length_c   8.24244962
_cell_angle_alpha   110.94346301
_cell_angle_beta   110.53884303
_cell_angle_gamma   106.96043102
_symmetry_Int_Tables_number   1
_chemical_formula_structural   Er12Co4SnRh
_chemical_formula_sum   'Er12 Co4 Sn1 Rh1'
_cell_volume   430.44609884
_cell_formula_units_Z   1
loop_
 _symmetry_equiv_pos_site_id
 _symmetry_equiv_pos_as_xyz
  1  'x, y, z'
loop_
 _atom_site_type_symbol
 _atom_site_label
 _atom_site_symmetry_multiplicity
 _atom_site_fract_x
 _atom_site_fract_y
 _atom_site_fract_z
 _atom_site_occupancy
  Er  Er0  1  0.313548  0.616760  0.303211  1
  Er  Er1  1  0.686452  0.383241  0.696789  1
  Er  Er2  1  0.313548  0.010337  0.696789  1
  Er  Er3  1  0.686452  0.989663  0.303211  1
  Er  Er4  1  0.413736  0.215304  0.198432  1
  Er  Er5  1  0.586264  0.784696  0.801568  1
  Er  Er6  1  0.016872  0.215304  0.801568  1
  Er  Er7  1  0.983128  0.784696  0.198432  1
  Er  Er8  1  0.184379  0.287157  0.471536  1
  Er  Er9  1  0.815621  0.712843  0.528464  1
  Er  Er10  1  0.184379  0.712843  0.897222  1
  Er  Er11  1  0.815621  0.287157  0.102778  1
  Co  Co12  1  0.112260  0.612260  0.500000  1
  Co  Co13  1  0.887741  0.387741  0.500000  1
  Co  Co14  1  0.378376  0.000000  0.378376  1
  Co  Co15  1  0.621624  0.000000  0.621624  1
  Sn  Sn16  1  0.500000  0.500000  0.000000  1
  Rh  Rh17  1  0.000000  0.000000  0.000000  1
