# generated using pymatgen
data_SmHoB6Ru
_symmetry_space_group_name_H-M   'P 1'
_cell_length_a   3.69170200
_cell_length_b   9.17931800
_cell_length_c   11.58507400
_cell_angle_alpha   90.00000000
_cell_angle_beta   90.00000000
_cell_angle_gamma   90.00000000
_symmetry_Int_Tables_number   1
_chemical_formula_structural   SmHoB6Ru
_chemical_formula_sum   'Sm4 Ho4 B24 Ru4'
_cell_volume   392.58695484
_cell_formula_units_Z   4
loop_
 _symmetry_equiv_pos_site_id
 _symmetry_equiv_pos_as_xyz
  1  'x, y, z'
loop_
 _atom_site_type_symbol
 _atom_site_label
 _atom_site_symmetry_multiplicity
 _atom_site_fract_x
 _atom_site_fract_y
 _atom_site_fract_z
 _atom_site_occupancy
  Sm  Sm0  1  0.000000  0.322988  0.414202  1
  Sm  Sm1  1  0.000000  0.677012  0.585798  1
  Sm  Sm2  1  0.000000  0.822988  0.085798  1
  Sm  Sm3  1  0.000000  0.177012  0.914202  1
  Ho  Ho4  1  0.000000  0.943913  0.371998  1
  Ho  Ho5  1  0.000000  0.056087  0.628002  1
  Ho  Ho6  1  0.000000  0.443913  0.128002  1
  Ho  Ho7  1  0.000000  0.556087  0.871998  1
  B  B8  1  0.500000  0.555401  0.431486  1
  B  B9  1  0.500000  0.444599  0.568514  1
  B  B10  1  0.500000  0.055401  0.068514  1
  B  B11  1  0.500000  0.944599  0.931486  1
  B  B12  1  0.500000  0.749088  0.418370  1
  B  B13  1  0.500000  0.250912  0.581630  1
  B  B14  1  0.500000  0.249088  0.081630  1
  B  B15  1  0.500000  0.750912  0.918370  1
  B  B16  1  0.500000  0.790694  0.266606  1
  B  B17  1  0.500000  0.209306  0.733394  1
  B  B18  1  0.500000  0.290694  0.233394  1
  B  B19  1  0.500000  0.709306  0.766606  1
  B  B20  1  0.500000  0.631421  0.185180  1
  B  B21  1  0.500000  0.368579  0.814820  1
  B  B22  1  0.500000  0.131421  0.314820  1
  B  B23  1  0.500000  0.868579  0.685180  1
  B  B24  1  0.500000  0.985203  0.213675  1
  B  B25  1  0.500000  0.014797  0.786325  1
  B  B26  1  0.500000  0.485203  0.286325  1
  B  B27  1  0.500000  0.514797  0.713675  1
  B  B28  1  0.500000  0.604424  0.028698  1
  B  B29  1  0.500000  0.395576  0.971302  1
  B  B30  1  0.500000  0.104424  0.471302  1
  B  B31  1  0.500000  0.895576  0.528698  1
  Ru  Ru32  1  0.000000  0.638899  0.320145  1
  Ru  Ru33  1  0.000000  0.361101  0.679855  1
  Ru  Ru34  1  0.000000  0.138899  0.179855  1
  Ru  Ru35  1  0.000000  0.861101  0.820145  1
