# generated using pymatgen
data_Tb3Dy5In3Rh
_symmetry_space_group_name_H-M   'P 1'
_cell_length_a   10.46611700
_cell_length_b   10.46611621
_cell_length_c   7.05296800
_cell_angle_alpha   90.00000000
_cell_angle_beta   90.00000000
_cell_angle_gamma   120.00000566
_symmetry_Int_Tables_number   1
_chemical_formula_structural   Tb3Dy5In3Rh
_chemical_formula_sum   'Tb6 Dy10 In6 Rh2'
_cell_volume   669.07323688
_cell_formula_units_Z   2
loop_
 _symmetry_equiv_pos_site_id
 _symmetry_equiv_pos_as_xyz
  1  'x, y, z'
loop_
 _atom_site_type_symbol
 _atom_site_label
 _atom_site_symmetry_multiplicity
 _atom_site_fract_x
 _atom_site_fract_y
 _atom_site_fract_z
 _atom_site_occupancy
  Tb  Tb0  1  0.532879  0.065756  0.514211  1
  Tb  Tb1  1  0.934244  0.467121  0.514211  1
  Tb  Tb2  1  0.532879  0.467121  0.514211  1
  Tb  Tb3  1  0.467121  0.934244  0.014211  1
  Tb  Tb4  1  0.065756  0.532879  0.014211  1
  Tb  Tb5  1  0.467121  0.532879  0.014211  1
  Dy  Dy6  1  0.175829  0.351657  0.721092  1
  Dy  Dy7  1  0.648343  0.824171  0.721092  1
  Dy  Dy8  1  0.175829  0.824171  0.721092  1
  Dy  Dy9  1  0.824171  0.648343  0.221092  1
  Dy  Dy10  1  0.351657  0.175829  0.221092  1
  Dy  Dy11  1  0.824171  0.175829  0.221092  1
  Dy  Dy12  1  0.666667  0.333333  0.895293  1
  Dy  Dy13  1  0.333333  0.666667  0.395293  1
  Dy  Dy14  1  0.000000  0.000000  0.500737  1
  Dy  Dy15  1  0.000000  0.000000  0.000737  1
  In  In16  1  0.836975  0.673950  0.760573  1
  In  In17  1  0.326050  0.163025  0.760573  1
  In  In18  1  0.836975  0.163025  0.760573  1
  In  In19  1  0.163025  0.326050  0.260573  1
  In  In20  1  0.673950  0.836975  0.260573  1
  In  In21  1  0.163025  0.836975  0.260573  1
  Rh  Rh22  1  0.666667  0.333333  0.288445  1
  Rh  Rh23  1  0.333333  0.666667  0.788445  1
