# generated using pymatgen
data_ErTmSn(PRh2)6
_symmetry_space_group_name_H-M   'P 1'
_cell_length_a   9.75696600
_cell_length_b   9.75696564
_cell_length_c   3.86213300
_cell_angle_alpha   90.00000000
_cell_angle_beta   90.00000000
_cell_angle_gamma   120.00000123
_symmetry_Int_Tables_number   1
_chemical_formula_structural   ErTmSn(PRh2)6
_chemical_formula_sum   'Er1 Tm1 Sn1 P6 Rh12'
_cell_volume   318.41052792
_cell_formula_units_Z   1
loop_
 _symmetry_equiv_pos_site_id
 _symmetry_equiv_pos_as_xyz
  1  'x, y, z'
loop_
 _atom_site_type_symbol
 _atom_site_label
 _atom_site_symmetry_multiplicity
 _atom_site_fract_x
 _atom_site_fract_y
 _atom_site_fract_z
 _atom_site_occupancy
  Er  Er0  1  0.666667  0.333333  0.248523  1
  Tm  Tm1  1  0.333333  0.666667  0.751465  1
  Sn  Sn2  1  0.000000  0.000000  0.500072  1
  P  P3  1  0.406384  0.287524  0.746714  1
  P  P4  1  0.712476  0.118860  0.746714  1
  P  P5  1  0.881140  0.593616  0.746714  1
  P  P6  1  0.593462  0.712424  0.253297  1
  P  P7  1  0.287576  0.881037  0.253297  1
  P  P8  1  0.118963  0.406538  0.253297  1
  Rh  Rh9  1  0.454416  0.068479  0.747571  1
  Rh  Rh10  1  0.931521  0.385935  0.747571  1
  Rh  Rh11  1  0.614065  0.545584  0.747571  1
  Rh  Rh12  1  0.545233  0.931039  0.252421  1
  Rh  Rh13  1  0.068961  0.614195  0.252421  1
  Rh  Rh14  1  0.385805  0.454767  0.252421  1
  Rh  Rh15  1  0.161883  0.287945  0.758551  1
  Rh  Rh16  1  0.712055  0.873938  0.758551  1
  Rh  Rh17  1  0.126062  0.838117  0.758551  1
  Rh  Rh18  1  0.838163  0.712172  0.241426  1
  Rh  Rh19  1  0.287828  0.125991  0.241426  1
  Rh  Rh20  1  0.874009  0.161837  0.241426  1
