# generated using pymatgen
data_Ba4TbPtO8
_symmetry_space_group_name_H-M   'P 1'
_cell_length_a   7.43482800
_cell_length_b   7.43482767
_cell_length_c   5.99124200
_cell_angle_alpha   90.00000000
_cell_angle_beta   90.00000000
_cell_angle_gamma   132.65034419
_symmetry_Int_Tables_number   1
_chemical_formula_structural   Ba4TbPtO8
_chemical_formula_sum   'Ba4 Tb1 Pt1 O8'
_cell_volume   243.58053646
_cell_formula_units_Z   1
loop_
 _symmetry_equiv_pos_site_id
 _symmetry_equiv_pos_as_xyz
  1  'x, y, z'
loop_
 _atom_site_type_symbol
 _atom_site_label
 _atom_site_symmetry_multiplicity
 _atom_site_fract_x
 _atom_site_fract_y
 _atom_site_fract_z
 _atom_site_occupancy
  Ba  Ba0  1  0.355255  0.644745  0.000000  1
  Ba  Ba1  1  0.853582  0.146418  0.500000  1
  Ba  Ba2  1  0.146418  0.853582  0.500000  1
  Ba  Ba3  1  0.644745  0.355255  0.000000  1
  Tb  Tb4  1  0.000000  0.000000  0.000000  1
  Pt  Pt5  1  0.500000  0.500000  0.500000  1
  O  O6  1  0.259932  0.259932  0.733710  1
  O  O7  1  0.740068  0.740068  0.266290  1
  O  O8  1  0.740068  0.740068  0.733710  1
  O  O9  1  0.259932  0.259932  0.266290  1
  O  O10  1  0.167027  0.832973  0.000000  1
  O  O11  1  0.652305  0.347695  0.500000  1
  O  O12  1  0.347695  0.652305  0.500000  1
  O  O13  1  0.832973  0.167027  0.000000  1
