# generated using pymatgen
data_Sm2FeCo9Mo2P7
_symmetry_space_group_name_H-M   'P 1'
_cell_length_a   9.05466583
_cell_length_b   9.08321751
_cell_length_c   3.70747200
_cell_angle_alpha   90.00000000
_cell_angle_beta   90.00000000
_cell_angle_gamma   119.96895556
_symmetry_Int_Tables_number   1
_chemical_formula_structural   Sm2FeCo9Mo2P7
_chemical_formula_sum   'Sm2 Fe1 Co9 Mo2 P7'
_cell_volume   264.15353400
_cell_formula_units_Z   1
loop_
 _symmetry_equiv_pos_site_id
 _symmetry_equiv_pos_as_xyz
  1  'x, y, z'
loop_
 _atom_site_type_symbol
 _atom_site_label
 _atom_site_symmetry_multiplicity
 _atom_site_fract_x
 _atom_site_fract_y
 _atom_site_fract_z
 _atom_site_occupancy
  Sm  Sm0  1  0.329666  0.666770  0.000000  1
  Sm  Sm1  1  0.667126  0.334029  0.500000  1
  Fe  Fe2  1  0.903365  0.781369  0.500000  1
  Co  Co3  1  0.431687  0.371266  0.000000  1
  Co  Co4  1  0.629080  0.059606  0.000000  1
  Co  Co5  1  0.938113  0.568549  0.000000  1
  Co  Co6  1  0.156250  0.878167  0.000000  1
  Co  Co7  1  0.122586  0.279767  0.000000  1
  Co  Co8  1  0.721356  0.840409  0.000000  1
  Co  Co9  1  0.383979  0.948246  0.500000  1
  Co  Co10  1  0.051610  0.437142  0.500000  1
  Co  Co11  1  0.568431  0.616021  0.500000  1
  Mo  Mo12  1  0.218238  0.121056  0.500000  1
  Mo  Mo13  1  0.881432  0.098342  0.500000  1
  P  P14  1  0.410974  0.107976  0.000000  1
  P  P15  1  0.891940  0.302654  0.000000  1
  P  P16  1  0.701632  0.591531  0.000000  1
  P  P17  1  0.107778  0.709747  0.500000  1
  P  P18  1  0.293934  0.408759  0.500000  1
  P  P19  1  0.593491  0.883571  0.500000  1
  P  P20  1  0.997332  0.995021  0.000000  1
