# generated using pymatgen
data_YMgReH6
_symmetry_space_group_name_H-M   'P 1'
_cell_length_a   4.91813044
_cell_length_b   4.91809324
_cell_length_c   4.91808100
_cell_angle_alpha   120.00034061
_cell_angle_beta   119.99982298
_cell_angle_gamma   90.00020621
_symmetry_Int_Tables_number   1
_chemical_formula_structural   YMgReH6
_chemical_formula_sum   'Y1 Mg1 Re1 H6'
_cell_volume   84.11542153
_cell_formula_units_Z   1
loop_
 _symmetry_equiv_pos_site_id
 _symmetry_equiv_pos_as_xyz
  1  'x, y, z'
loop_
 _atom_site_type_symbol
 _atom_site_label
 _atom_site_symmetry_multiplicity
 _atom_site_fract_x
 _atom_site_fract_y
 _atom_site_fract_z
 _atom_site_occupancy
  Y  Y0  1  0.749994  0.250002  0.499994  1
  Mg  Mg1  1  0.249997  0.750000  0.499998  1
  Re  Re2  1  0.000009  0.999996  0.000011  1
  H  H3  1  0.253209  0.253207  0.000002  1
  H  H4  1  0.746791  0.253210  0.000000  1
  H  H5  1  0.253206  0.746795  0.000002  1
  H  H6  1  0.746791  0.746790  0.999999  1
  H  H7  1  0.746792  0.746788  0.493578  1
  H  H8  1  0.253205  0.253206  0.506410  1
