# generated using pymatgen
data_Th10ZnSn5Te2
_symmetry_space_group_name_H-M   'P 1'
_cell_length_a   9.60370750
_cell_length_b   9.60370665
_cell_length_c   6.57563200
_cell_angle_alpha   89.98142782
_cell_angle_beta   89.98142782
_cell_angle_gamma   119.98522028
_symmetry_Int_Tables_number   1
_chemical_formula_structural   Th10ZnSn5Te2
_chemical_formula_sum   'Th10 Zn1 Sn5 Te2'
_cell_volume   525.30376222
_cell_formula_units_Z   1
loop_
 _symmetry_equiv_pos_site_id
 _symmetry_equiv_pos_as_xyz
  1  'x, y, z'
loop_
 _atom_site_type_symbol
 _atom_site_label
 _atom_site_symmetry_multiplicity
 _atom_site_fract_x
 _atom_site_fract_y
 _atom_site_fract_z
 _atom_site_occupancy
  Th  Th0  1  0.000145  0.724054  0.758948  1
  Th  Th1  1  0.278152  0.278152  0.756708  1
  Th  Th2  1  0.332636  0.665678  0.498540  1
  Th  Th3  1  0.665678  0.332636  0.498540  1
  Th  Th4  1  0.723008  0.723008  0.240656  1
  Th  Th5  1  0.724054  0.000145  0.758948  1
  Th  Th6  1  0.000712  0.277643  0.241849  1
  Th  Th7  1  0.277643  0.000712  0.241849  1
  Th  Th8  1  0.333727  0.666203  0.001206  1
  Th  Th9  1  0.666203  0.333727  0.001206  1
  Zn  Zn10  1  0.000413  0.000413  0.000670  1
  Sn  Sn11  1  0.999931  0.379513  0.749256  1
  Sn  Sn12  1  0.379513  0.999931  0.749256  1
  Sn  Sn13  1  0.620315  0.000604  0.250975  1
  Sn  Sn14  1  0.379310  0.379310  0.250108  1
  Sn  Sn15  1  0.000604  0.620315  0.250975  1
  Te  Te16  1  0.617788  0.617788  0.750159  1
  Te  Te17  1  0.000168  0.000168  0.500149  1
