# generated using pymatgen
data_Sm6Zn22RhSe
_symmetry_space_group_name_H-M   'P 1'
_cell_length_a   9.17437024
_cell_length_b   9.17473982
_cell_length_c   9.17473400
_cell_angle_alpha   59.99661011
_cell_angle_beta   60.00081574
_cell_angle_gamma   59.99964027
_symmetry_Int_Tables_number   1
_chemical_formula_structural   Sm6Zn22RhSe
_chemical_formula_sum   'Sm6 Zn22 Rh1 Se1'
_cell_volume   546.05812417
_cell_formula_units_Z   1
loop_
 _symmetry_equiv_pos_site_id
 _symmetry_equiv_pos_as_xyz
  1  'x, y, z'
loop_
 _atom_site_type_symbol
 _atom_site_label
 _atom_site_symmetry_multiplicity
 _atom_site_fract_x
 _atom_site_fract_y
 _atom_site_fract_z
 _atom_site_occupancy
  Sm  Sm0  1  0.718007  0.281988  0.281981  1
  Sm  Sm1  1  0.281983  0.718017  0.718013  1
  Sm  Sm2  1  0.281970  0.718027  0.281970  1
  Sm  Sm3  1  0.718022  0.281977  0.718029  1
  Sm  Sm4  1  0.281924  0.281928  0.718071  1
  Sm  Sm5  1  0.718072  0.718080  0.281924  1
  Zn  Zn6  1  0.120497  0.120536  0.120554  1
  Zn  Zn7  1  0.879495  0.879475  0.879448  1
  Zn  Zn8  1  0.120523  0.120504  0.638423  1
  Zn  Zn9  1  0.120554  0.638413  0.120504  1
  Zn  Zn10  1  0.879460  0.879498  0.361589  1
  Zn  Zn11  1  0.879438  0.361587  0.879498  1
  Zn  Zn12  1  0.638411  0.120562  0.120529  1
  Zn  Zn13  1  0.361582  0.879444  0.879469  1
  Zn  Zn14  1  0.499994  0.000003  0.000002  1
  Zn  Zn15  1  0.999993  0.500003  0.500002  1
  Zn  Zn16  1  0.999992  0.500004  0.000002  1
  Zn  Zn17  1  0.499994  0.000003  0.500002  1
  Zn  Zn18  1  0.999993  0.000003  0.500002  1
  Zn  Zn19  1  0.499994  0.500002  0.000002  1
  Zn  Zn20  1  0.328629  0.328651  0.328688  1
  Zn  Zn21  1  0.671356  0.671354  0.671316  1
  Zn  Zn22  1  0.328643  0.328639  0.014028  1
  Zn  Zn23  1  0.328680  0.014036  0.328635  1
  Zn  Zn24  1  0.671346  0.671370  0.985967  1
  Zn  Zn25  1  0.671304  0.985972  0.671368  1
  Zn  Zn26  1  0.014029  0.328688  0.328647  1
  Zn  Zn27  1  0.985962  0.671317  0.671354  1
  Rh  Rh28  1  0.000161  0.999913  0.999987  1
  Se  Se29  1  0.499993  0.500008  0.499996  1
