# generated using pymatgen
data_SrNdNiH6
_symmetry_space_group_name_H-M   'P 1'
_cell_length_a   7.27033683
_cell_length_b   7.27033719
_cell_length_c   5.23264400
_cell_angle_alpha   90.00000000
_cell_angle_beta   90.00000000
_cell_angle_gamma   137.83771011
_symmetry_Int_Tables_number   1
_chemical_formula_structural   SrNdNiH6
_chemical_formula_sum   'Sr2 Nd2 Ni2 H12'
_cell_volume   185.65364956
_cell_formula_units_Z   2
loop_
 _symmetry_equiv_pos_site_id
 _symmetry_equiv_pos_as_xyz
  1  'x, y, z'
loop_
 _atom_site_type_symbol
 _atom_site_label
 _atom_site_symmetry_multiplicity
 _atom_site_fract_x
 _atom_site_fract_y
 _atom_site_fract_z
 _atom_site_occupancy
  Sr  Sr0  1  0.859132  0.140868  0.500000  1
  Sr  Sr1  1  0.359132  0.640868  0.000000  1
  Nd  Nd2  1  0.137622  0.862378  0.500000  1
  Nd  Nd3  1  0.637622  0.362378  0.000000  1
  Ni  Ni4  1  0.505180  0.494820  0.500000  1
  Ni  Ni5  1  0.005180  0.994820  0.000000  1
  H  H6  1  0.988769  0.511282  0.750042  1
  H  H7  1  0.488718  0.011231  0.249958  1
  H  H8  1  0.988718  0.511231  0.250042  1
  H  H9  1  0.488769  0.011282  0.749958  1
  H  H10  1  0.385431  0.614569  0.500000  1
  H  H11  1  0.885431  0.114569  0.000000  1
  H  H12  1  0.621837  0.378163  0.500000  1
  H  H13  1  0.121837  0.878163  0.000000  1
  H  H14  1  0.256702  0.243393  0.749993  1
  H  H15  1  0.756607  0.743298  0.250007  1
  H  H16  1  0.256607  0.243298  0.249993  1
  H  H17  1  0.756702  0.743393  0.750007  1
