# generated using pymatgen
data_Pr8Tm2Sn5Sb3
_symmetry_space_group_name_H-M   'P 1'
_cell_length_a   8.29777800
_cell_length_b   8.34399115
_cell_length_c   15.81186800
_cell_angle_alpha   90.23495206
_cell_angle_beta   90.00000000
_cell_angle_gamma   90.00000000
_symmetry_Int_Tables_number   1
_chemical_formula_structural   Pr8Tm2Sn5Sb3
_chemical_formula_sum   'Pr16 Tm4 Sn10 Sb6'
_cell_volume   1094.75055780
_cell_formula_units_Z   2
loop_
 _symmetry_equiv_pos_site_id
 _symmetry_equiv_pos_as_xyz
  1  'x, y, z'
loop_
 _atom_site_type_symbol
 _atom_site_label
 _atom_site_symmetry_multiplicity
 _atom_site_fract_x
 _atom_site_fract_y
 _atom_site_fract_z
 _atom_site_occupancy
  Pr  Pr0  1  0.397085  0.837208  0.884659  1
  Pr  Pr1  1  0.897085  0.662792  0.615341  1
  Pr  Pr2  1  0.604635  0.161265  0.383934  1
  Pr  Pr3  1  0.104635  0.338735  0.116066  1
  Pr  Pr4  1  0.605078  0.162567  0.115646  1
  Pr  Pr5  1  0.105078  0.337433  0.384354  1
  Pr  Pr6  1  0.394257  0.837955  0.616499  1
  Pr  Pr7  1  0.894257  0.662045  0.883501  1
  Pr  Pr8  1  0.557460  0.330473  0.891598  1
  Pr  Pr9  1  0.057460  0.169527  0.608402  1
  Pr  Pr10  1  0.443337  0.672286  0.392660  1
  Pr  Pr11  1  0.943337  0.827714  0.107340  1
  Pr  Pr12  1  0.445492  0.668640  0.107908  1
  Pr  Pr13  1  0.945492  0.831360  0.392092  1
  Pr  Pr14  1  0.553005  0.325919  0.606391  1
  Pr  Pr15  1  0.053005  0.174081  0.893609  1
  Tm  Tm16  1  0.225259  0.499194  0.749996  1
  Tm  Tm17  1  0.725259  0.000806  0.750004  1
  Tm  Tm18  1  0.775065  0.500031  0.248325  1
  Tm  Tm19  1  0.275065  0.999969  0.251675  1
  Sn  Sn20  1  0.266362  0.017316  0.451538  1
  Sn  Sn21  1  0.766362  0.482684  0.048462  1
  Sn  Sn22  1  0.590876  0.626976  0.748760  1
  Sn  Sn23  1  0.090876  0.873024  0.751240  1
  Sn  Sn24  1  0.409418  0.372205  0.250376  1
  Sn  Sn25  1  0.909418  0.127795  0.249624  1
  Sn  Sn26  1  0.356790  0.139489  0.750902  1
  Sn  Sn27  1  0.856790  0.360511  0.749098  1
  Sn  Sn28  1  0.642771  0.859619  0.250074  1
  Sn  Sn29  1  0.142771  0.640381  0.249926  1
  Sb  Sb30  1  0.265030  0.012871  0.051608  1
  Sb  Sb31  1  0.765030  0.487129  0.448392  1
  Sb  Sb32  1  0.733940  0.985117  0.551524  1
  Sb  Sb33  1  0.233940  0.514883  0.948476  1
  Sb  Sb34  1  0.734141  0.986598  0.947876  1
  Sb  Sb35  1  0.234141  0.513402  0.552124  1
