# generated using pymatgen
data_Er2Si2BOs2
_symmetry_space_group_name_H-M   'P 1'
_cell_length_a   5.76884479
_cell_length_b   5.76884481
_cell_length_c   6.78910000
_cell_angle_alpha   125.47758951
_cell_angle_beta   125.47758967
_cell_angle_gamma   41.91111485
_symmetry_Int_Tables_number   1
_chemical_formula_structural   Er2Si2BOs2
_chemical_formula_sum   'Er2 Si2 B1 Os2'
_cell_volume   118.23518282
_cell_formula_units_Z   1
loop_
 _symmetry_equiv_pos_site_id
 _symmetry_equiv_pos_as_xyz
  1  'x, y, z'
loop_
 _atom_site_type_symbol
 _atom_site_label
 _atom_site_symmetry_multiplicity
 _atom_site_fract_x
 _atom_site_fract_y
 _atom_site_fract_z
 _atom_site_occupancy
  Er  Er0  1  0.432892  0.432892  0.166931  1
  Er  Er1  1  0.567108  0.567108  0.833069  1
  Si  Si2  1  0.851321  0.851321  0.400158  1
  Si  Si3  1  0.148679  0.148679  0.599842  1
  B  B4  1  0.000000  0.000000  0.000000  1
  Os  Os5  1  0.215677  0.215677  0.318471  1
  Os  Os6  1  0.784322  0.784322  0.681529  1
