# generated using pymatgen
data_Dy4Al18ZnRuRh4
_symmetry_space_group_name_H-M   'P 1'
_cell_length_a   7.60161144
_cell_length_b   7.60161239
_cell_length_c   9.50409675
_cell_angle_alpha   90.00426465
_cell_angle_beta   90.00425777
_cell_angle_gamma   119.66740160
_symmetry_Int_Tables_number   1
_chemical_formula_structural   Dy4Al18ZnRuRh4
_chemical_formula_sum   'Dy4 Al18 Zn1 Ru1 Rh4'
_cell_volume   477.19804830
_cell_formula_units_Z   1
loop_
 _symmetry_equiv_pos_site_id
 _symmetry_equiv_pos_as_xyz
  1  'x, y, z'
loop_
 _atom_site_type_symbol
 _atom_site_label
 _atom_site_symmetry_multiplicity
 _atom_site_fract_x
 _atom_site_fract_y
 _atom_site_fract_z
 _atom_site_occupancy
  Dy  Dy0  1  0.991215  0.665850  0.749109  1
  Dy  Dy1  1  0.000718  0.328983  0.251753  1
  Dy  Dy2  1  0.671017  0.999282  0.748247  1
  Dy  Dy3  1  0.334150  0.008785  0.250891  1
  Al  Al4  1  0.126467  0.123465  0.751424  1
  Al  Al5  1  0.876535  0.873533  0.248576  1
  Al  Al6  1  0.014381  0.337284  0.578063  1
  Al  Al7  1  0.008914  0.674961  0.422349  1
  Al  Al8  1  0.002871  0.666079  0.073095  1
  Al  Al9  1  0.333921  0.997129  0.926905  1
  Al  Al10  1  0.000169  0.333880  0.925664  1
  Al  Al11  1  0.666120  0.999831  0.074336  1
  Al  Al12  1  0.662716  0.985619  0.421937  1
  Al  Al13  1  0.325039  0.991086  0.577651  1
  Al  Al14  1  0.331161  0.331580  0.048535  1
  Al  Al15  1  0.668420  0.668839  0.951465  1
  Al  Al16  1  0.663348  0.671642  0.557730  1
  Al  Al17  1  0.328358  0.336652  0.442270  1
  Al  Al18  1  0.341089  0.552854  0.750611  1
  Al  Al19  1  0.661021  0.458686  0.241304  1
  Al  Al20  1  0.541314  0.338979  0.758696  1
  Al  Al21  1  0.447146  0.658911  0.249389  1
  Zn  Zn22  1  0.674251  0.325749  0.500000  1
  Ru  Ru23  1  0.328555  0.671445  0.500000  1
  Rh  Rh24  1  0.328591  0.671409  0.000000  1
  Rh  Rh25  1  0.672611  0.327389  0.000000  1
  Rh  Rh26  1  0.999502  0.000498  0.500000  1
  Rh  Rh27  1  0.000399  0.999601  0.000000  1
