# generated using pymatgen
data_Lu4Al18ZnRh5
_symmetry_space_group_name_H-M   'P 1'
_cell_length_a   7.54959460
_cell_length_b   7.54959482
_cell_length_c   9.37206090
_cell_angle_alpha   90.02472733
_cell_angle_beta   90.02472093
_cell_angle_gamma   119.45550278
_symmetry_Int_Tables_number   1
_chemical_formula_structural   Lu4Al18ZnRh5
_chemical_formula_sum   'Lu4 Al18 Zn1 Rh5'
_cell_volume   465.12496104
_cell_formula_units_Z   1
loop_
 _symmetry_equiv_pos_site_id
 _symmetry_equiv_pos_as_xyz
  1  'x, y, z'
loop_
 _atom_site_type_symbol
 _atom_site_label
 _atom_site_symmetry_multiplicity
 _atom_site_fract_x
 _atom_site_fract_y
 _atom_site_fract_z
 _atom_site_occupancy
  Lu  Lu0  1  0.995144  0.676415  0.249665  1
  Lu  Lu1  1  0.004856  0.323585  0.750335  1
  Lu  Lu2  1  0.676415  0.995144  0.249665  1
  Lu  Lu3  1  0.323585  0.004856  0.750335  1
  Al  Al4  1  0.134397  0.134397  0.256118  1
  Al  Al5  1  0.865603  0.865603  0.743882  1
  Al  Al6  1  0.000947  0.344405  0.080717  1
  Al  Al7  1  0.999053  0.655595  0.919283  1
  Al  Al8  1  0.001678  0.663795  0.573981  1
  Al  Al9  1  0.336205  0.998322  0.426019  1
  Al  Al10  1  0.998322  0.336205  0.426019  1
  Al  Al11  1  0.663795  0.001678  0.573981  1
  Al  Al12  1  0.655595  0.999053  0.919283  1
  Al  Al13  1  0.344405  0.000947  0.080717  1
  Al  Al14  1  0.331831  0.331831  0.552464  1
  Al  Al15  1  0.668169  0.668169  0.447536  1
  Al  Al16  1  0.659817  0.659817  0.058304  1
  Al  Al17  1  0.340183  0.340183  0.941696  1
  Al  Al18  1  0.339304  0.553397  0.251381  1
  Al  Al19  1  0.660696  0.446603  0.748619  1
  Al  Al20  1  0.553397  0.339304  0.251381  1
  Al  Al21  1  0.446603  0.660696  0.748619  1
  Zn  Zn22  1  0.000000  0.000000  0.000000  1
  Rh  Rh23  1  0.672586  0.327414  0.000000  1
  Rh  Rh24  1  0.327414  0.672586  0.000000  1
  Rh  Rh25  1  0.328184  0.671816  0.500000  1
  Rh  Rh26  1  0.671816  0.328184  0.500000  1
  Rh  Rh27  1  0.000000  0.000000  0.500000  1
