# generated using pymatgen
data_Ho5Cd4PtAu
_symmetry_space_group_name_H-M   'P 1'
_cell_length_a   3.63504300
_cell_length_b   8.02497027
_cell_length_c   18.44415888
_cell_angle_alpha   90.12369705
_cell_angle_beta   90.00000000
_cell_angle_gamma   90.00000000
_symmetry_Int_Tables_number   1
_chemical_formula_structural   Ho5Cd4PtAu
_chemical_formula_sum   'Ho10 Cd8 Pt2 Au2'
_cell_volume   538.03537074
_cell_formula_units_Z   2
loop_
 _symmetry_equiv_pos_site_id
 _symmetry_equiv_pos_as_xyz
  1  'x, y, z'
loop_
 _atom_site_type_symbol
 _atom_site_label
 _atom_site_symmetry_multiplicity
 _atom_site_fract_x
 _atom_site_fract_y
 _atom_site_fract_z
 _atom_site_occupancy
  Ho  Ho0  1  0.000000  0.117349  0.418373  1
  Ho  Ho1  1  0.000000  0.882651  0.581627  1
  Ho  Ho2  1  0.000000  0.385544  0.915404  1
  Ho  Ho3  1  0.000000  0.614456  0.084596  1
  Ho  Ho4  1  0.000000  0.253711  0.215788  1
  Ho  Ho5  1  0.000000  0.746289  0.784212  1
  Ho  Ho6  1  0.000000  0.269580  0.719702  1
  Ho  Ho7  1  0.000000  0.730420  0.280298  1
  Ho  Ho8  1  0.000000  0.000000  0.000000  1
  Ho  Ho9  1  0.000000  0.500000  0.500000  1
  Cd  Cd10  1  0.500000  0.424819  0.353311  1
  Cd  Cd11  1  0.500000  0.575181  0.646689  1
  Cd  Cd12  1  0.500000  0.074089  0.853546  1
  Cd  Cd13  1  0.500000  0.925911  0.146454  1
  Cd  Cd14  1  0.500000  0.287763  0.065879  1
  Cd  Cd15  1  0.500000  0.712237  0.934121  1
  Cd  Cd16  1  0.500000  0.212738  0.567407  1
  Cd  Cd17  1  0.500000  0.787262  0.432593  1
  Pt  Pt18  1  0.500000  0.470826  0.804450  1
  Pt  Pt19  1  0.500000  0.529174  0.195550  1
  Au  Au20  1  0.500000  0.029261  0.302221  1
  Au  Au21  1  0.500000  0.970739  0.697779  1
