# generated using pymatgen
data_Sr3Ac4As12Pd17
_symmetry_space_group_name_H-M   'P 1'
_cell_length_a   12.89617621
_cell_length_b   12.89617778
_cell_length_c   14.17945800
_cell_angle_alpha   68.40144630
_cell_angle_beta   68.40144354
_cell_angle_gamma   18.71190720
_symmetry_Int_Tables_number   1
_chemical_formula_structural   Sr3Ac4As12Pd17
_chemical_formula_sum   'Sr3 Ac4 As12 Pd17'
_cell_volume   701.91787306
_cell_formula_units_Z   1
loop_
 _symmetry_equiv_pos_site_id
 _symmetry_equiv_pos_as_xyz
  1  'x, y, z'
loop_
 _atom_site_type_symbol
 _atom_site_label
 _atom_site_symmetry_multiplicity
 _atom_site_fract_x
 _atom_site_fract_y
 _atom_site_fract_z
 _atom_site_occupancy
  Sr  Sr0  1  0.500000  0.500000  0.500000  1
  Sr  Sr1  1  0.367196  0.367196  0.997334  1
  Sr  Sr2  1  0.632804  0.632804  0.002666  1
  Ac  Ac3  1  0.233468  0.233468  0.311141  1
  Ac  Ac4  1  0.766532  0.766532  0.688859  1
  Ac  Ac5  1  0.419020  0.419020  0.259716  1
  Ac  Ac6  1  0.580980  0.580980  0.740284  1
  As  As7  1  0.060348  0.060348  0.929941  1
  As  As8  1  0.939652  0.939652  0.070059  1
  As  As9  1  0.886106  0.886106  0.826187  1
  As  As10  1  0.113894  0.113894  0.173813  1
  As  As11  1  0.189407  0.189407  0.615303  1
  As  As12  1  0.810593  0.810593  0.384697  1
  As  As13  1  0.368208  0.368208  0.578428  1
  As  As14  1  0.631792  0.631792  0.421572  1
  As  As15  1  0.008606  0.008606  0.670461  1
  As  As16  1  0.991394  0.991394  0.329539  1
  As  As17  1  0.234161  0.234161  0.886076  1
  As  As18  1  0.765839  0.765839  0.113924  1
  Pd  Pd19  1  0.837800  0.837800  0.193840  1
  Pd  Pd20  1  0.162200  0.162200  0.806160  1
  Pd  Pd21  1  0.024865  0.024865  0.128951  1
  Pd  Pd22  1  0.975135  0.975135  0.871049  1
  Pd  Pd23  1  0.888000  0.888000  0.459541  1
  Pd  Pd24  1  0.112000  0.112000  0.540459  1
  Pd  Pd25  1  0.500000  0.500000  0.000000  1
  Pd  Pd26  1  0.549411  0.549411  0.257391  1
  Pd  Pd27  1  0.450589  0.450589  0.742609  1
  Pd  Pd28  1  0.296308  0.296308  0.490788  1
  Pd  Pd29  1  0.703692  0.703692  0.509212  1
  Pd  Pd30  1  0.663803  0.663803  0.223097  1
  Pd  Pd31  1  0.336197  0.336197  0.776903  1
  Pd  Pd32  1  0.906416  0.906416  0.639929  1
  Pd  Pd33  1  0.093584  0.093584  0.360071  1
  Pd  Pd34  1  0.220657  0.220657  0.071885  1
  Pd  Pd35  1  0.779343  0.779343  0.928115  1
