# generated using pymatgen
data_Hf8Cr3Si16Ru9
_symmetry_space_group_name_H-M   'P 1'
_cell_length_a   9.87127099
_cell_length_b   9.88845996
_cell_length_c   13.29510718
_cell_angle_alpha   54.00439121
_cell_angle_beta   54.02167455
_cell_angle_gamma   30.96470097
_symmetry_Int_Tables_number   1
_chemical_formula_structural   Hf8Cr3Si16Ru9
_chemical_formula_sum   'Hf8 Cr3 Si16 Ru9'
_cell_volume   529.23407965
_cell_formula_units_Z   1
loop_
 _symmetry_equiv_pos_site_id
 _symmetry_equiv_pos_as_xyz
  1  'x, y, z'
loop_
 _atom_site_type_symbol
 _atom_site_label
 _atom_site_symmetry_multiplicity
 _atom_site_fract_x
 _atom_site_fract_y
 _atom_site_fract_z
 _atom_site_occupancy
  Hf  Hf0  1  0.291836  0.558677  0.647792  1
  Hf  Hf1  1  0.439799  0.706860  0.855561  1
  Hf  Hf2  1  0.712041  0.445289  0.344890  1
  Hf  Hf3  1  0.555336  0.293381  0.149559  1
  Hf  Hf4  1  0.036902  0.295687  0.637509  1
  Hf  Hf5  1  0.701992  0.964653  0.863823  1
  Hf  Hf6  1  0.959749  0.704772  0.361209  1
  Hf  Hf7  1  0.292605  0.041981  0.138248  1
  Cr  Cr8  1  0.656907  0.828198  0.272111  1
  Cr  Cr9  1  0.169633  0.345794  0.227935  1
  Cr  Cr10  1  0.754986  0.486194  0.067587  1
  Si  Si11  1  0.873281  0.130475  0.247523  1
  Si  Si12  1  0.125001  0.874927  0.749734  1
  Si  Si13  1  0.391714  0.611793  0.247944  1
  Si  Si14  1  0.616215  0.383600  0.749974  1
  Si  Si15  1  0.969756  0.257129  0.895857  1
  Si  Si16  1  0.745188  0.026753  0.606080  1
  Si  Si17  1  0.026313  0.739804  0.109027  1
  Si  Si18  1  0.260599  0.973299  0.390397  1
  Si  Si19  1  0.571186  0.085145  0.067255  1
  Si  Si20  1  0.914070  0.428586  0.433437  1
  Si  Si21  1  0.426859  0.916541  0.937344  1
  Si  Si22  1  0.084807  0.572285  0.563519  1
  Si  Si23  1  0.387470  0.142584  0.392825  1
  Si  Si24  1  0.858598  0.609694  0.103588  1
  Si  Si25  1  0.612826  0.856682  0.603310  1
  Si  Si26  1  0.134841  0.391369  0.901834  1
  Ru  Ru27  1  0.828544  0.649017  0.781334  1
  Ru  Ru28  1  0.894100  0.143686  0.585823  1
  Ru  Ru29  1  0.857702  0.104903  0.913730  1
  Ru  Ru30  1  0.107433  0.852580  0.415671  1
  Ru  Ru31  1  0.148042  0.891438  0.083814  1
  Ru  Ru32  1  0.241056  0.518374  0.932749  1
  Ru  Ru33  1  0.482888  0.761985  0.567923  1
  Ru  Ru34  1  0.519018  0.235142  0.433329  1
  Ru  Ru35  1  0.350707  0.170723  0.719754  1
