# generated using pymatgen
data_EuHoPa(Co3P2)3
_symmetry_space_group_name_H-M   'P 1'
_cell_length_a   3.72245500
_cell_length_b   10.59256100
_cell_length_c   12.21101600
_cell_angle_alpha   90.00000000
_cell_angle_beta   90.00000000
_cell_angle_gamma   90.00000000
_symmetry_Int_Tables_number   1
_chemical_formula_structural   EuHoPa(Co3P2)3
_chemical_formula_sum   'Eu2 Ho2 Pa2 Co18 P12'
_cell_volume   481.48441075
_cell_formula_units_Z   2
loop_
 _symmetry_equiv_pos_site_id
 _symmetry_equiv_pos_as_xyz
  1  'x, y, z'
loop_
 _atom_site_type_symbol
 _atom_site_label
 _atom_site_symmetry_multiplicity
 _atom_site_fract_x
 _atom_site_fract_y
 _atom_site_fract_z
 _atom_site_occupancy
  Eu  Eu0  1  0.500000  0.816650  0.205281  1
  Eu  Eu1  1  0.500000  0.183350  0.205281  1
  Ho  Ho2  1  0.000000  0.684180  0.794529  1
  Ho  Ho3  1  0.000000  0.315820  0.794529  1
  Pa  Pa4  1  0.000000  0.500000  0.529620  1
  Pa  Pa5  1  0.500000  0.000000  0.472049  1
  Co  Co6  1  0.000000  0.500000  0.984182  1
  Co  Co7  1  0.500000  0.000000  0.011299  1
  Co  Co8  1  0.500000  0.302713  0.434353  1
  Co  Co9  1  0.500000  0.697287  0.434353  1
  Co  Co10  1  0.000000  0.198762  0.570080  1
  Co  Co11  1  0.000000  0.801238  0.570080  1
  Co  Co12  1  0.500000  0.880150  0.710494  1
  Co  Co13  1  0.500000  0.119850  0.710494  1
  Co  Co14  1  0.000000  0.617400  0.291669  1
  Co  Co15  1  0.000000  0.382600  0.291669  1
  Co  Co16  1  0.500000  0.334820  0.991852  1
  Co  Co17  1  0.500000  0.665180  0.991852  1
  Co  Co18  1  0.000000  0.167728  0.002293  1
  Co  Co19  1  0.000000  0.832272  0.002293  1
  Co  Co20  1  0.500000  0.500000  0.155943  1
  Co  Co21  1  0.000000  0.000000  0.841449  1
  Co  Co22  1  0.500000  0.500000  0.696797  1
  Co  Co23  1  0.000000  0.000000  0.308900  1
  P  P24  1  0.500000  0.306803  0.618235  1
  P  P25  1  0.500000  0.693197  0.618235  1
  P  P26  1  0.000000  0.196446  0.385613  1
  P  P27  1  0.000000  0.803554  0.385613  1
  P  P28  1  0.500000  0.500000  0.878753  1
  P  P29  1  0.000000  0.000000  0.115799  1
  P  P30  1  0.500000  0.846275  0.893374  1
  P  P31  1  0.500000  0.153725  0.893374  1
  P  P32  1  0.000000  0.651451  0.104916  1
  P  P33  1  0.000000  0.348549  0.104916  1
  P  P34  1  0.500000  0.500000  0.342421  1
  P  P35  1  0.000000  0.000000  0.657416  1
