# generated using pymatgen
data_Hf16Co3NiOs3Rh
_symmetry_space_group_name_H-M   'P 1'
_cell_length_a   8.59936604
_cell_length_b   8.59936531
_cell_length_c   8.59936750
_cell_angle_alpha   59.88195330
_cell_angle_beta   59.88196085
_cell_angle_gamma   59.88195495
_symmetry_Int_Tables_number   1
_chemical_formula_structural   Hf16Co3NiOs3Rh
_chemical_formula_sum   'Hf16 Co3 Ni1 Os3 Rh1'
_cell_volume   448.45575632
_cell_formula_units_Z   1
loop_
 _symmetry_equiv_pos_site_id
 _symmetry_equiv_pos_as_xyz
  1  'x, y, z'
loop_
 _atom_site_type_symbol
 _atom_site_label
 _atom_site_symmetry_multiplicity
 _atom_site_fract_x
 _atom_site_fract_y
 _atom_site_fract_z
 _atom_site_occupancy
  Hf  Hf0  1  0.684421  0.106021  0.106021  1
  Hf  Hf1  1  0.106021  0.684421  0.106021  1
  Hf  Hf2  1  0.106021  0.106021  0.684421  1
  Hf  Hf3  1  0.102037  0.102037  0.102037  1
  Hf  Hf4  1  0.314524  0.314524  0.689563  1
  Hf  Hf5  1  0.686179  0.686179  0.314803  1
  Hf  Hf6  1  0.314524  0.689563  0.314524  1
  Hf  Hf7  1  0.686179  0.314803  0.686179  1
  Hf  Hf8  1  0.689563  0.314524  0.314524  1
  Hf  Hf9  1  0.314803  0.686179  0.686179  1
  Hf  Hf10  1  0.951035  0.951035  0.545927  1
  Hf  Hf11  1  0.552544  0.552544  0.945815  1
  Hf  Hf12  1  0.951035  0.545927  0.951035  1
  Hf  Hf13  1  0.552544  0.945815  0.552544  1
  Hf  Hf14  1  0.545927  0.951035  0.951035  1
  Hf  Hf15  1  0.945815  0.552544  0.552544  1
  Co  Co16  1  0.324398  0.891009  0.891009  1
  Co  Co17  1  0.891009  0.324398  0.891009  1
  Co  Co18  1  0.891009  0.891009  0.324398  1
  Ni  Ni19  1  0.892680  0.892680  0.892680  1
  Os  Os20  1  0.998626  0.332737  0.332737  1
  Os  Os21  1  0.332737  0.998626  0.332737  1
  Os  Os22  1  0.332737  0.332737  0.998626  1
  Rh  Rh23  1  0.333630  0.333630  0.333630  1
