# generated using pymatgen
data_Np3In2GaPt3
_symmetry_space_group_name_H-M   'P 1'
_cell_length_a   7.51824673
_cell_length_b   7.51824634
_cell_length_c   3.98699000
_cell_angle_alpha   90.00000000
_cell_angle_beta   90.00000000
_cell_angle_gamma   120.14156529
_symmetry_Int_Tables_number   1
_chemical_formula_structural   Np3In2GaPt3
_chemical_formula_sum   'Np3 In2 Ga1 Pt3'
_cell_volume   194.88912746
_cell_formula_units_Z   1
loop_
 _symmetry_equiv_pos_site_id
 _symmetry_equiv_pos_as_xyz
  1  'x, y, z'
loop_
 _atom_site_type_symbol
 _atom_site_label
 _atom_site_symmetry_multiplicity
 _atom_site_fract_x
 _atom_site_fract_y
 _atom_site_fract_z
 _atom_site_occupancy
  Np  Np0  1  0.585536  0.990546  0.000000  1
  Np  Np1  1  0.434543  0.434543  0.000000  1
  Np  Np2  1  0.990546  0.585536  0.000000  1
  In  In3  1  0.006152  0.252100  0.500000  1
  In  In4  1  0.252100  0.006152  0.500000  1
  Ga  Ga5  1  0.749060  0.749060  0.500000  1
  Pt  Pt6  1  0.669064  0.341187  0.500000  1
  Pt  Pt7  1  0.971814  0.971814  0.000000  1
  Pt  Pt8  1  0.341187  0.669064  0.500000  1
