# generated using pymatgen
data_Hf2Zr4In4CBr18
_symmetry_space_group_name_H-M   'P 1'
_cell_length_a   10.34309531
_cell_length_b   10.55396353
_cell_length_c   10.61661075
_cell_angle_alpha   118.38932245
_cell_angle_beta   99.99936575
_cell_angle_gamma   103.98596994
_symmetry_Int_Tables_number   1
_chemical_formula_structural   Hf2Zr4In4CBr18
_chemical_formula_sum   'Hf2 Zr4 In4 C1 Br18'
_cell_volume   931.08693426
_cell_formula_units_Z   1
loop_
 _symmetry_equiv_pos_site_id
 _symmetry_equiv_pos_as_xyz
  1  'x, y, z'
loop_
 _atom_site_type_symbol
 _atom_site_label
 _atom_site_symmetry_multiplicity
 _atom_site_fract_x
 _atom_site_fract_y
 _atom_site_fract_z
 _atom_site_occupancy
  Hf  Hf0  1  0.353904  0.445170  0.775636  1
  Hf  Hf1  1  0.366252  0.624055  0.131765  1
  Zr  Zr2  1  0.644045  0.732322  0.043923  1
  Zr  Zr3  1  0.647460  0.553565  0.222919  1
  Zr  Zr4  1  0.359195  0.267269  0.957205  1
  Zr  Zr5  1  0.635035  0.376897  0.870822  1
  In  In6  1  0.177571  0.722884  0.559024  1
  In  In7  1  0.852074  0.963087  0.774925  1
  In  In8  1  0.145898  0.035936  0.223325  1
  In  In9  1  0.820854  0.277972  0.442203  1
  C  C10  1  0.495750  0.501218  0.998693  1
  Br  Br11  1  0.824031  0.420833  0.109489  1
  Br  Br12  1  0.513520  0.704469  0.408089  1
  Br  Br13  1  0.171560  0.976899  0.899174  1
  Br  Br14  1  0.180405  0.577472  0.891860  1
  Br  Br15  1  0.832366  0.834804  0.312975  1
  Br  Br16  1  0.504134  0.295198  0.211484  1
  Br  Br17  1  0.798131  0.222147  0.706297  1
  Br  Br18  1  0.170062  0.169315  0.688665  1
  Br  Br19  1  0.506124  0.907686  0.196661  1
  Br  Br20  1  0.820194  0.627112  0.900859  1
  Br  Br21  1  0.202378  0.774804  0.287987  1
  Br  Br22  1  0.164292  0.378878  0.500336  1
  Br  Br23  1  0.493297  0.701520  0.788576  1
  Br  Br24  1  0.826372  0.023713  0.100214  1
  Br  Br25  1  0.482533  0.296797  0.590676  1
  Br  Br26  1  0.182269  0.376192  0.099231  1
  Br  Br27  1  0.838565  0.623458  0.505311  1
  Br  Br28  1  0.491729  0.088329  0.801675  1
