# generated using pymatgen
data_Ca4V5In3(P2O9)4
_symmetry_space_group_name_H-M   'P 1'
_cell_length_a   6.63914881
_cell_length_b   7.53484778
_cell_length_c   14.65440132
_cell_angle_alpha   89.79536690
_cell_angle_beta   89.73455417
_cell_angle_gamma   89.78160541
_symmetry_Int_Tables_number   1
_chemical_formula_structural   Ca4V5In3(P2O9)4
_chemical_formula_sum   'Ca4 V5 In3 P8 O36'
_cell_volume   733.06824686
_cell_formula_units_Z   1
loop_
 _symmetry_equiv_pos_site_id
 _symmetry_equiv_pos_as_xyz
  1  'x, y, z'
loop_
 _atom_site_type_symbol
 _atom_site_label
 _atom_site_symmetry_multiplicity
 _atom_site_fract_x
 _atom_site_fract_y
 _atom_site_fract_z
 _atom_site_occupancy
  Ca  Ca0  1  0.256531  0.892776  0.276906  1
  Ca  Ca1  1  0.250286  0.602714  0.773717  1
  Ca  Ca2  1  0.749714  0.397286  0.226283  1
  Ca  Ca3  1  0.743469  0.107224  0.723094  1
  V  V4  1  0.252072  0.354617  0.383097  1
  V  V5  1  0.747928  0.645383  0.616903  1
  V  V6  1  0.749015  0.857935  0.120416  1
  V  V7  1  0.250985  0.142065  0.879584  1
  V  V8  1  0.500000  0.000000  0.500000  1
  In  In9  1  0.000000  0.000000  0.500000  1
  In  In10  1  0.000000  0.500000  0.000000  1
  In  In11  1  0.500000  0.500000  0.000000  1
  P  P12  1  0.747510  0.363334  0.433195  1
  P  P13  1  0.252490  0.636666  0.566805  1
  P  P14  1  0.248157  0.870200  0.068590  1
  P  P15  1  0.751843  0.129800  0.931410  1
  P  P16  1  0.249848  0.384503  0.197976  1
  P  P17  1  0.250618  0.109863  0.693558  1
  P  P18  1  0.749382  0.890137  0.306442  1
  P  P19  1  0.750152  0.615497  0.802024  1
  O  O20  1  0.555959  0.610082  0.861397  1
  O  O21  1  0.056518  0.390221  0.138823  1
  O  O22  1  0.438947  0.101846  0.629997  1
  O  O23  1  0.948701  0.894034  0.361530  1
  O  O24  1  0.444041  0.389918  0.138603  1
  O  O25  1  0.943482  0.609779  0.861177  1
  O  O26  1  0.561053  0.898154  0.370003  1
  O  O27  1  0.051299  0.105966  0.638470  1
  O  O28  1  0.751198  0.313526  0.982500  1
  O  O29  1  0.248802  0.686474  0.017500  1
  O  O30  1  0.261541  0.821483  0.516935  1
  O  O31  1  0.738459  0.178517  0.483065  1
  O  O32  1  0.264035  0.127152  0.444547  1
  O  O33  1  0.735965  0.872848  0.555453  1
  O  O34  1  0.749107  0.627151  0.062985  1
  O  O35  1  0.250893  0.372849  0.937015  1
  O  O36  1  0.250149  0.213661  0.258364  1
  O  O37  1  0.749851  0.786339  0.741636  1
  O  O38  1  0.743081  0.718907  0.247053  1
  O  O39  1  0.256919  0.281093  0.752947  1
  O  O40  1  0.935178  0.123770  0.866042  1
  O  O41  1  0.433122  0.876342  0.132172  1
  O  O42  1  0.065199  0.634107  0.630036  1
  O  O43  1  0.566299  0.378883  0.367816  1
  O  O44  1  0.064822  0.876230  0.133958  1
  O  O45  1  0.566878  0.123658  0.867828  1
  O  O46  1  0.934801  0.365893  0.369964  1
  O  O47  1  0.433701  0.621117  0.632184  1
  O  O48  1  0.247856  0.495933  0.493185  1
  O  O49  1  0.743385  0.040922  0.232962  1
  O  O50  1  0.750993  0.462755  0.730066  1
  O  O51  1  0.249007  0.537245  0.269934  1
  O  O52  1  0.246939  0.012369  0.995010  1
  O  O53  1  0.753061  0.987631  0.004990  1
  O  O54  1  0.752144  0.504067  0.506815  1
  O  O55  1  0.256615  0.959078  0.767038  1
