# generated using pymatgen
data_HfTi3Nb2Zn7
_symmetry_space_group_name_H-M   'P 1'
_cell_length_a   5.10984923
_cell_length_b   5.10985095
_cell_length_c   9.69778313
_cell_angle_alpha   74.72485127
_cell_angle_beta   74.72485533
_cell_angle_gamma   59.99999207
_symmetry_Int_Tables_number   1
_chemical_formula_structural   HfTi3Nb2Zn7
_chemical_formula_sum   'Hf1 Ti3 Nb2 Zn7'
_cell_volume   208.89693368
_cell_formula_units_Z   1
loop_
 _symmetry_equiv_pos_site_id
 _symmetry_equiv_pos_as_xyz
  1  'x, y, z'
loop_
 _atom_site_type_symbol
 _atom_site_label
 _atom_site_symmetry_multiplicity
 _atom_site_fract_x
 _atom_site_fract_y
 _atom_site_fract_z
 _atom_site_occupancy
  Hf  Hf0  1  0.833828  0.833828  0.498516  1
  Ti  Ti1  1  0.165955  0.165955  0.502135  1
  Ti  Ti2  1  0.648512  0.648512  0.054461  1
  Ti  Ti3  1  0.351450  0.351450  0.945653  1
  Nb  Nb4  1  0.544447  0.544447  0.366657  1
  Nb  Nb5  1  0.455538  0.455538  0.633387  1
  Zn  Zn6  1  0.000041  0.000041  0.999878  1
  Zn  Zn7  1  0.906669  0.906669  0.774569  1
  Zn  Zn8  1  0.412094  0.906669  0.774569  1
  Zn  Zn9  1  0.906669  0.412094  0.774569  1
  Zn  Zn10  1  0.094626  0.094626  0.225202  1
  Zn  Zn11  1  0.585545  0.094626  0.225202  1
  Zn  Zn12  1  0.094626  0.585545  0.225202  1
