# generated using pymatgen
data_YTh3(ZnRh)4
_symmetry_space_group_name_H-M   'P 1'
_cell_length_a   3.98197000
_cell_length_b   7.22726610
_cell_length_c   8.41109173
_cell_angle_alpha   90.32679075
_cell_angle_beta   90.00000000
_cell_angle_gamma   90.00000000
_symmetry_Int_Tables_number   1
_chemical_formula_structural   YTh3(ZnRh)4
_chemical_formula_sum   'Y1 Th3 Zn4 Rh4'
_cell_volume   242.05682621
_cell_formula_units_Z   1
loop_
 _symmetry_equiv_pos_site_id
 _symmetry_equiv_pos_as_xyz
  1  'x, y, z'
loop_
 _atom_site_type_symbol
 _atom_site_label
 _atom_site_symmetry_multiplicity
 _atom_site_fract_x
 _atom_site_fract_y
 _atom_site_fract_z
 _atom_site_occupancy
  Y  Y0  1  0.250000  0.056656  0.308111  1
  Th  Th1  1  0.250000  0.554287  0.193750  1
  Th  Th2  1  0.750000  0.448348  0.813650  1
  Th  Th3  1  0.750000  0.948198  0.680304  1
  Zn  Zn4  1  0.250000  0.619491  0.559266  1
  Zn  Zn5  1  0.750000  0.364568  0.439012  1
  Zn  Zn6  1  0.750000  0.886368  0.064673  1
  Zn  Zn7  1  0.250000  0.120273  0.942765  1
  Rh  Rh8  1  0.250000  0.739830  0.872231  1
  Rh  Rh9  1  0.750000  0.270845  0.119635  1
  Rh  Rh10  1  0.750000  0.753171  0.375196  1
  Rh  Rh11  1  0.250000  0.237965  0.631406  1
