# generated using pymatgen
data_YbCe(Al4Co)2
_symmetry_space_group_name_H-M   'P 1'
_cell_length_a   4.03557300
_cell_length_b   6.79137000
_cell_length_c   7.60949600
_cell_angle_alpha   90.00000000
_cell_angle_beta   90.00000000
_cell_angle_gamma   90.00000000
_symmetry_Int_Tables_number   1
_chemical_formula_structural   YbCe(Al4Co)2
_chemical_formula_sum   'Yb1 Ce1 Al8 Co2'
_cell_volume   208.55398501
_cell_formula_units_Z   1
loop_
 _symmetry_equiv_pos_site_id
 _symmetry_equiv_pos_as_xyz
  1  'x, y, z'
loop_
 _atom_site_type_symbol
 _atom_site_label
 _atom_site_symmetry_multiplicity
 _atom_site_fract_x
 _atom_site_fract_y
 _atom_site_fract_z
 _atom_site_occupancy
  Yb  Yb0  1  0.000000  0.609861  0.750000  1
  Ce  Ce1  1  0.000000  0.392697  0.250000  1
  Al  Al2  1  0.500000  0.298051  0.567175  1
  Al  Al3  1  0.500000  0.703312  0.434236  1
  Al  Al4  1  0.500000  0.298051  0.932825  1
  Al  Al5  1  0.500000  0.703312  0.065764  1
  Al  Al6  1  0.000000  0.000096  0.000327  1
  Al  Al7  1  0.000000  0.000096  0.499673  1
  Al  Al8  1  0.500000  0.047664  0.250000  1
  Al  Al9  1  0.500000  0.950982  0.750000  1
  Co  Co10  1  0.000000  0.190891  0.750000  1
  Co  Co11  1  0.000000  0.804989  0.250000  1
