# generated using pymatgen
data_Tb6MnCo17P12
_symmetry_space_group_name_H-M   'P 1'
_cell_length_a   3.71068900
_cell_length_b   10.56912600
_cell_length_c   12.24145600
_cell_angle_alpha   90.00000000
_cell_angle_beta   90.00000000
_cell_angle_gamma   90.00000000
_symmetry_Int_Tables_number   1
_chemical_formula_structural   Tb6MnCo17P12
_chemical_formula_sum   'Tb6 Mn1 Co17 P12'
_cell_volume   480.09447504
_cell_formula_units_Z   1
loop_
 _symmetry_equiv_pos_site_id
 _symmetry_equiv_pos_as_xyz
  1  'x, y, z'
loop_
 _atom_site_type_symbol
 _atom_site_label
 _atom_site_symmetry_multiplicity
 _atom_site_fract_x
 _atom_site_fract_y
 _atom_site_fract_z
 _atom_site_occupancy
  Tb  Tb0  1  0.000000  0.500000  0.522603  1
  Tb  Tb1  1  0.500000  0.000000  0.477861  1
  Tb  Tb2  1  0.500000  0.817760  0.206024  1
  Tb  Tb3  1  0.500000  0.182240  0.206024  1
  Tb  Tb4  1  0.000000  0.683043  0.794956  1
  Tb  Tb5  1  0.000000  0.316957  0.794956  1
  Mn  Mn6  1  0.500000  0.500000  0.159138  1
  Co  Co7  1  0.000000  0.000000  0.840662  1
  Co  Co8  1  0.500000  0.500000  0.703121  1
  Co  Co9  1  0.000000  0.000000  0.296488  1
  Co  Co10  1  0.000000  0.500000  0.986033  1
  Co  Co11  1  0.500000  0.000000  0.013890  1
  Co  Co12  1  0.500000  0.333344  0.994414  1
  Co  Co13  1  0.500000  0.666656  0.994414  1
  Co  Co14  1  0.000000  0.166546  0.005552  1
  Co  Co15  1  0.000000  0.833454  0.005552  1
  Co  Co16  1  0.500000  0.296949  0.430138  1
  Co  Co17  1  0.500000  0.703051  0.430138  1
  Co  Co18  1  0.000000  0.203176  0.569127  1
  Co  Co19  1  0.000000  0.796824  0.569127  1
  Co  Co20  1  0.500000  0.879764  0.709186  1
  Co  Co21  1  0.500000  0.120236  0.709186  1
  Co  Co22  1  0.000000  0.619989  0.290298  1
  Co  Co23  1  0.000000  0.380011  0.290298  1
  P  P24  1  0.500000  0.500000  0.882970  1
  P  P25  1  0.000000  0.000000  0.116692  1
  P  P26  1  0.500000  0.500000  0.345079  1
  P  P27  1  0.000000  0.000000  0.657083  1
  P  P28  1  0.500000  0.309939  0.615869  1
  P  P29  1  0.500000  0.690061  0.615869  1
  P  P30  1  0.000000  0.189463  0.384384  1
  P  P31  1  0.000000  0.810537  0.384384  1
  P  P32  1  0.500000  0.848319  0.893369  1
  P  P33  1  0.500000  0.151681  0.893369  1
  P  P34  1  0.000000  0.652837  0.105872  1
  P  P35  1  0.000000  0.347163  0.105872  1
