# generated using pymatgen
data_Yb4CoCuH12
_symmetry_space_group_name_H-M   'P 1'
_cell_length_a   6.91447052
_cell_length_b   6.91447031
_cell_length_c   5.01045168
_cell_angle_alpha   90.00792370
_cell_angle_beta   90.00792081
_cell_angle_gamma   137.52881758
_symmetry_Int_Tables_number   1
_chemical_formula_structural   Yb4CoCuH12
_chemical_formula_sum   'Yb4 Co1 Cu1 H12'
_cell_volume   161.74823105
_cell_formula_units_Z   1
loop_
 _symmetry_equiv_pos_site_id
 _symmetry_equiv_pos_as_xyz
  1  'x, y, z'
loop_
 _atom_site_type_symbol
 _atom_site_label
 _atom_site_symmetry_multiplicity
 _atom_site_fract_x
 _atom_site_fract_y
 _atom_site_fract_z
 _atom_site_occupancy
  Yb  Yb0  1  0.146380  0.853620  0.500000  1
  Yb  Yb1  1  0.646294  0.353706  0.000000  1
  Yb  Yb2  1  0.853620  0.146380  0.500000  1
  Yb  Yb3  1  0.353706  0.646294  0.000000  1
  Co  Co4  1  0.500000  0.500000  0.500000  1
  Cu  Cu5  1  0.000000  0.000000  0.000000  1
  H  H6  1  0.999872  0.500073  0.750781  1
  H  H7  1  0.499927  0.000128  0.249219  1
  H  H8  1  0.000128  0.499927  0.249219  1
  H  H9  1  0.500073  0.999872  0.750781  1
  H  H10  1  0.379350  0.620650  0.500000  1
  H  H11  1  0.876868  0.123132  0.000000  1
  H  H12  1  0.620650  0.379350  0.500000  1
  H  H13  1  0.123132  0.876868  0.000000  1
  H  H14  1  0.274434  0.274434  0.725574  1
  H  H15  1  0.725566  0.725566  0.274426  1
  H  H16  1  0.274162  0.274162  0.274405  1
  H  H17  1  0.725838  0.725838  0.725595  1
