# generated using pymatgen
data_Ho16Er4(Ir3Os)3
_symmetry_space_group_name_H-M   'P 1'
_cell_length_a   10.80588200
_cell_length_b   10.80588200
_cell_length_c   6.37551200
_cell_angle_alpha   90.00000000
_cell_angle_beta   90.00000000
_cell_angle_gamma   90.00000000
_symmetry_Int_Tables_number   1
_chemical_formula_structural   Ho16Er4(Ir3Os)3
_chemical_formula_sum   'Ho16 Er4 Ir9 Os3'
_cell_volume   744.44995671
_cell_formula_units_Z   1
loop_
 _symmetry_equiv_pos_site_id
 _symmetry_equiv_pos_as_xyz
  1  'x, y, z'
loop_
 _atom_site_type_symbol
 _atom_site_label
 _atom_site_symmetry_multiplicity
 _atom_site_fract_x
 _atom_site_fract_y
 _atom_site_fract_z
 _atom_site_occupancy
  Ho  Ho0  1  0.293616  0.086225  0.376849  1
  Ho  Ho1  1  0.293633  0.914034  0.876997  1
  Ho  Ho2  1  0.706367  0.085966  0.876997  1
  Ho  Ho3  1  0.706384  0.913775  0.376849  1
  Ho  Ho4  1  0.585966  0.793633  0.876997  1
  Ho  Ho5  1  0.586225  0.206384  0.376849  1
  Ho  Ho6  1  0.413775  0.793616  0.376849  1
  Ho  Ho7  1  0.414034  0.206367  0.876997  1
  Ho  Ho8  1  0.208128  0.413225  0.624746  1
  Ho  Ho9  1  0.207772  0.586936  0.120810  1
  Ho  Ho10  1  0.792228  0.413064  0.120810  1
  Ho  Ho11  1  0.791872  0.586775  0.624746  1
  Ho  Ho12  1  0.913064  0.707772  0.120810  1
  Ho  Ho13  1  0.913225  0.291872  0.624746  1
  Ho  Ho14  1  0.086775  0.708128  0.624746  1
  Ho  Ho15  1  0.086936  0.292228  0.120810  1
  Er  Er16  1  0.000000  0.000000  0.499627  1
  Er  Er17  1  0.000000  0.000000  0.999846  1
  Er  Er18  1  0.500000  0.500000  0.999846  1
  Er  Er19  1  0.500000  0.500000  0.499627  1
  Ir  Ir20  1  0.848183  0.153099  0.250288  1
  Ir  Ir21  1  0.847974  0.847118  0.749754  1
  Ir  Ir22  1  0.152026  0.152882  0.749754  1
  Ir  Ir23  1  0.151817  0.846901  0.250288  1
  Ir  Ir24  1  0.652882  0.347974  0.749754  1
  Ir  Ir25  1  0.653099  0.651817  0.250288  1
  Ir  Ir26  1  0.346901  0.348183  0.250288  1
  Ir  Ir27  1  0.347118  0.652026  0.749754  1
  Ir  Ir28  1  0.000000  0.500000  0.379223  1
  Os  Os29  1  0.500000  0.000000  0.123147  1
  Os  Os30  1  0.500000  0.000000  0.622971  1
  Os  Os31  1  0.000000  0.500000  0.877933  1
