# generated using pymatgen
data_Ho6ReB14Os
_symmetry_space_group_name_H-M   'P 1'
_cell_length_a   8.04510120
_cell_length_b   8.04510097
_cell_length_c   9.31203400
_cell_angle_alpha   90.00000000
_cell_angle_beta   90.00000000
_cell_angle_gamma   154.70150443
_symmetry_Int_Tables_number   1
_chemical_formula_structural   Ho6ReB14Os
_chemical_formula_sum   'Ho6 Re1 B14 Os1'
_cell_volume   257.55805569
_cell_formula_units_Z   1
loop_
 _symmetry_equiv_pos_site_id
 _symmetry_equiv_pos_as_xyz
  1  'x, y, z'
loop_
 _atom_site_type_symbol
 _atom_site_label
 _atom_site_symmetry_multiplicity
 _atom_site_fract_x
 _atom_site_fract_y
 _atom_site_fract_z
 _atom_site_occupancy
  Ho  Ho0  1  0.894352  0.105648  0.059861  1
  Ho  Ho1  1  0.105674  0.894326  0.561101  1
  Ho  Ho2  1  0.105674  0.894326  0.938899  1
  Ho  Ho3  1  0.894352  0.105648  0.440139  1
  Ho  Ho4  1  0.243362  0.756638  0.250000  1
  Ho  Ho5  1  0.757033  0.242967  0.750000  1
  Re  Re6  1  0.947292  0.052707  0.750000  1
  B  B7  1  0.456479  0.543521  0.250000  1
  B  B8  1  0.544007  0.455993  0.750000  1
  B  B9  1  0.727014  0.272986  0.034429  1
  B  B10  1  0.272465  0.727535  0.533480  1
  B  B11  1  0.272465  0.727535  0.966520  1
  B  B12  1  0.727014  0.272986  0.465571  1
  B  B13  1  0.631799  0.368201  0.349026  1
  B  B14  1  0.367687  0.632313  0.849240  1
  B  B15  1  0.367687  0.632313  0.650760  1
  B  B16  1  0.631799  0.368201  0.150974  1
  B  B17  1  0.520502  0.479498  0.403993  1
  B  B18  1  0.479476  0.520524  0.904851  1
  B  B19  1  0.479476  0.520524  0.595149  1
  B  B20  1  0.520502  0.479498  0.096007  1
  Os  Os21  1  0.053888  0.946112  0.250000  1
