# generated using pymatgen
data_DyEr3MgCo2Bi
_symmetry_space_group_name_H-M   'P 1'
_cell_length_a   8.90201480
_cell_length_b   8.90201523
_cell_length_c   8.90739804
_cell_angle_alpha   131.71755509
_cell_angle_beta   131.71754919
_cell_angle_gamma   70.62661099
_symmetry_Int_Tables_number   1
_chemical_formula_structural   DyEr3MgCo2Bi
_chemical_formula_sum   'Dy2 Er6 Mg2 Co4 Bi2'
_cell_volume   385.38807176
_cell_formula_units_Z   2
loop_
 _symmetry_equiv_pos_site_id
 _symmetry_equiv_pos_as_xyz
  1  'x, y, z'
loop_
 _atom_site_type_symbol
 _atom_site_label
 _atom_site_symmetry_multiplicity
 _atom_site_fract_x
 _atom_site_fract_y
 _atom_site_fract_z
 _atom_site_occupancy
  Dy  Dy0  1  0.698059  0.557569  0.500000  1
  Dy  Dy1  1  0.942431  0.801941  0.500000  1
  Er  Er2  1  0.800437  0.300538  0.858916  1
  Er  Er3  1  0.199462  0.699563  0.141085  1
  Er  Er4  1  0.441523  0.941624  0.141085  1
  Er  Er5  1  0.300882  0.441374  0.500000  1
  Er  Er6  1  0.058626  0.199118  0.500000  1
  Er  Er7  1  0.558376  0.058477  0.858915  1
  Mg  Mg8  1  0.000354  0.000394  0.000748  1
  Mg  Mg9  1  0.499606  0.499646  0.999252  1
  Co  Co10  1  0.111909  0.610343  0.722252  1
  Co  Co11  1  0.889657  0.388091  0.277748  1
  Co  Co12  1  0.610458  0.889542  0.500000  1
  Co  Co13  1  0.388470  0.111530  0.500000  1
  Bi  Bi14  1  0.249875  0.250125  0.000000  1
  Bi  Bi15  1  0.749875  0.750125  0.000000  1
