# generated using pymatgen
data_Li5Ti(Co2Si)6
_symmetry_space_group_name_H-M   'P 1'
_cell_length_a   3.90448500
_cell_length_b   5.50590200
_cell_length_c   11.67255600
_cell_angle_alpha   90.00000000
_cell_angle_beta   90.00097511
_cell_angle_gamma   90.00000000
_symmetry_Int_Tables_number   1
_chemical_formula_structural   Li5Ti(Co2Si)6
_chemical_formula_sum   'Li5 Ti1 Co12 Si6'
_cell_volume   250.93324449
_cell_formula_units_Z   1
loop_
 _symmetry_equiv_pos_site_id
 _symmetry_equiv_pos_as_xyz
  1  'x, y, z'
loop_
 _atom_site_type_symbol
 _atom_site_label
 _atom_site_symmetry_multiplicity
 _atom_site_fract_x
 _atom_site_fract_y
 _atom_site_fract_z
 _atom_site_occupancy
  Li  Li0  1  0.999982  0.500000  0.001307  1
  Li  Li1  1  0.500208  0.000000  0.167085  1
  Li  Li2  1  0.000173  0.500000  0.333397  1
  Li  Li3  1  0.499996  0.000000  0.499552  1
  Li  Li4  1  0.999791  0.500000  0.665303  1
  Ti  Ti5  1  0.499859  0.000000  0.833285  1
  Co  Co6  1  0.499984  0.253333  0.001727  1
  Co  Co7  1  0.499984  0.746666  0.001727  1
  Co  Co8  1  0.000151  0.251147  0.167367  1
  Co  Co9  1  0.000151  0.748852  0.167367  1
  Co  Co10  1  0.500146  0.247977  0.333328  1
  Co  Co11  1  0.500146  0.752022  0.333328  1
  Co  Co12  1  0.000002  0.251156  0.499311  1
  Co  Co13  1  0.000002  0.748843  0.499311  1
  Co  Co14  1  0.499851  0.253317  0.664934  1
  Co  Co15  1  0.499851  0.746682  0.664934  1
  Co  Co16  1  0.999864  0.254366  0.833351  1
  Co  Co17  1  0.999864  0.745633  0.833351  1
  Si  Si18  1  0.999978  0.000000  0.006044  1
  Si  Si19  1  0.500152  0.500000  0.171331  1
  Si  Si20  1  0.000150  0.000000  0.333353  1
  Si  Si21  1  0.500008  0.500000  0.495358  1
  Si  Si22  1  0.999856  0.000000  0.660611  1
  Si  Si23  1  0.499858  0.500000  0.833337  1
