# generated using pymatgen
data_DyPa3(SiNi)4
_symmetry_space_group_name_H-M   'P 1'
_cell_length_a   4.15014900
_cell_length_b   7.08084644
_cell_length_c   7.00736756
_cell_angle_alpha   89.83856402
_cell_angle_beta   90.00000000
_cell_angle_gamma   90.00000000
_symmetry_Int_Tables_number   1
_chemical_formula_structural   DyPa3(SiNi)4
_chemical_formula_sum   'Dy1 Pa3 Si4 Ni4'
_cell_volume   205.92166430
_cell_formula_units_Z   1
loop_
 _symmetry_equiv_pos_site_id
 _symmetry_equiv_pos_as_xyz
  1  'x, y, z'
loop_
 _atom_site_type_symbol
 _atom_site_label
 _atom_site_symmetry_multiplicity
 _atom_site_fract_x
 _atom_site_fract_y
 _atom_site_fract_z
 _atom_site_occupancy
  Dy  Dy0  1  0.750000  0.507758  0.210312  1
  Pa  Pa1  1  0.750000  0.008454  0.290685  1
  Pa  Pa2  1  0.250000  0.984490  0.706616  1
  Pa  Pa3  1  0.250000  0.486082  0.790822  1
  Si  Si4  1  0.750000  0.697774  0.590006  1
  Si  Si5  1  0.250000  0.284152  0.409797  1
  Si  Si6  1  0.250000  0.790391  0.090953  1
  Si  Si7  1  0.750000  0.198654  0.908391  1
  Ni  Ni8  1  0.750000  0.812149  0.916300  1
  Ni  Ni9  1  0.250000  0.210605  0.077399  1
  Ni  Ni10  1  0.250000  0.713338  0.425172  1
  Ni  Ni11  1  0.750000  0.306153  0.583546  1
