# generated using pymatgen
data_Ho3Ga2Pt3Au
_symmetry_space_group_name_H-M   'P 1'
_cell_length_a   7.34154168
_cell_length_b   7.34154034
_cell_length_c   3.78509400
_cell_angle_alpha   90.00000000
_cell_angle_beta   90.00000000
_cell_angle_gamma   117.67544838
_symmetry_Int_Tables_number   1
_chemical_formula_structural   Ho3Ga2Pt3Au
_chemical_formula_sum   'Ho3 Ga2 Pt3 Au1'
_cell_volume   180.66963676
_cell_formula_units_Z   1
loop_
 _symmetry_equiv_pos_site_id
 _symmetry_equiv_pos_as_xyz
  1  'x, y, z'
loop_
 _atom_site_type_symbol
 _atom_site_label
 _atom_site_symmetry_multiplicity
 _atom_site_fract_x
 _atom_site_fract_y
 _atom_site_fract_z
 _atom_site_occupancy
  Ho  Ho0  1  0.409711  0.409711  0.500000  1
  Ho  Ho1  1  0.603736  0.989505  0.500000  1
  Ho  Ho2  1  0.989505  0.603736  0.500000  1
  Ga  Ga3  1  0.261339  0.002317  0.000000  1
  Ga  Ga4  1  0.002317  0.261339  0.000000  1
  Pt  Pt5  1  0.658173  0.308217  0.000000  1
  Pt  Pt6  1  0.308217  0.658173  0.000000  1
  Pt  Pt7  1  0.030718  0.030718  0.500000  1
  Au  Au8  1  0.736284  0.736284  0.000000  1
