# generated using pymatgen
data_NaCa(LaB12)2
_symmetry_space_group_name_H-M   'P 1'
_cell_length_a   7.19297087
_cell_length_b   7.19298480
_cell_length_c   5.88403700
_cell_angle_alpha   90.00000000
_cell_angle_beta   90.00000000
_cell_angle_gamma   109.38988113
_symmetry_Int_Tables_number   1
_chemical_formula_structural   NaCa(LaB12)2
_chemical_formula_sum   'Na1 Ca1 La2 B24'
_cell_volume   287.16669255
_cell_formula_units_Z   1
loop_
 _symmetry_equiv_pos_site_id
 _symmetry_equiv_pos_as_xyz
  1  'x, y, z'
loop_
 _atom_site_type_symbol
 _atom_site_label
 _atom_site_symmetry_multiplicity
 _atom_site_fract_x
 _atom_site_fract_y
 _atom_site_fract_z
 _atom_site_occupancy
  Na  Na0  1  0.000000  0.000000  0.000000  1
  Ca  Ca1  1  0.500000  0.500000  0.000000  1
  La  La2  1  0.751320  0.248685  0.500000  1
  La  La3  1  0.248680  0.751315  0.500000  1
  B  B4  1  0.175752  0.324760  0.649926  1
  B  B5  1  0.924760  0.574816  0.148637  1
  B  B6  1  0.675241  0.824248  0.649926  1
  B  B7  1  0.425184  0.075240  0.148637  1
  B  B8  1  0.175752  0.324760  0.350074  1
  B  B9  1  0.924760  0.574816  0.851363  1
  B  B10  1  0.675241  0.824248  0.350074  1
  B  B11  1  0.425184  0.075240  0.851363  1
  B  B12  1  0.399450  0.399451  0.500000  1
  B  B13  1  0.149002  0.649803  0.000000  1
  B  B14  1  0.899134  0.899134  0.500000  1
  B  B15  1  0.649803  0.149002  0.000000  1
  B  B16  1  0.324759  0.175752  0.649926  1
  B  B17  1  0.075240  0.425184  0.148637  1
  B  B18  1  0.824248  0.675240  0.649926  1
  B  B19  1  0.574816  0.924760  0.148637  1
  B  B20  1  0.100866  0.100866  0.500000  1
  B  B21  1  0.850998  0.350197  0.000000  1
  B  B22  1  0.600550  0.600549  0.500000  1
  B  B23  1  0.350197  0.850998  0.000000  1
  B  B24  1  0.324759  0.175752  0.350074  1
  B  B25  1  0.075240  0.425184  0.851363  1
  B  B26  1  0.824248  0.675240  0.350074  1
  B  B27  1  0.574816  0.924760  0.851363  1
