# generated using pymatgen
data_NaAc2(B3Ir4)2
_symmetry_space_group_name_H-M   'P 1'
_cell_length_a   10.14940690
_cell_length_b   9.27882785
_cell_length_c   5.74904600
_cell_angle_alpha   81.30005692
_cell_angle_beta   64.64937957
_cell_angle_gamma   34.05054909
_symmetry_Int_Tables_number   1
_chemical_formula_structural   NaAc2(B3Ir4)2
_chemical_formula_sum   'Na1 Ac2 B6 Ir8'
_cell_volume   250.83037595
_cell_formula_units_Z   1
loop_
 _symmetry_equiv_pos_site_id
 _symmetry_equiv_pos_as_xyz
  1  'x, y, z'
loop_
 _atom_site_type_symbol
 _atom_site_label
 _atom_site_symmetry_multiplicity
 _atom_site_fract_x
 _atom_site_fract_y
 _atom_site_fract_z
 _atom_site_occupancy
  Na  Na0  1  0.188099  0.188099  0.811901  1
  Ac  Ac1  1  0.009523  0.009523  0.990477  1
  Ac  Ac2  1  0.817245  0.817245  0.182755  1
  B  B3  1  0.830902  0.506158  0.493842  1
  B  B4  1  0.164712  0.489037  0.510963  1
  B  B5  1  0.489037  0.164712  0.835288  1
  B  B6  1  0.665959  0.332185  0.667815  1
  B  B7  1  0.506158  0.830902  0.169098  1
  B  B8  1  0.332185  0.665959  0.334041  1
  Ir  Ir9  1  0.412359  0.412359  0.587641  1
  Ir  Ir10  1  0.585520  0.585520  0.914480  1
  Ir  Ir11  1  0.085520  0.085520  0.414480  1
  Ir  Ir12  1  0.914996  0.914996  0.585004  1
  Ir  Ir13  1  0.588789  0.588789  0.411211  1
  Ir  Ir14  1  0.247000  0.247000  0.253000  1
  Ir  Ir15  1  0.414996  0.414996  0.085004  1
  Ir  Ir16  1  0.747000  0.747000  0.753000  1
