# generated using pymatgen
data_Tb16AlZn3Rh4
_symmetry_space_group_name_H-M   'P 1'
_cell_length_a   9.53404652
_cell_length_b   9.53798876
_cell_length_c   9.53798800
_cell_angle_alpha   60.00000262
_cell_angle_beta   59.98632352
_cell_angle_gamma   59.98632264
_symmetry_Int_Tables_number   1
_chemical_formula_structural   Tb16AlZn3Rh4
_chemical_formula_sum   'Tb16 Al1 Zn3 Rh4'
_cell_volume   613.17726481
_cell_formula_units_Z   1
loop_
 _symmetry_equiv_pos_site_id
 _symmetry_equiv_pos_as_xyz
  1  'x, y, z'
loop_
 _atom_site_type_symbol
 _atom_site_label
 _atom_site_symmetry_multiplicity
 _atom_site_fract_x
 _atom_site_fract_y
 _atom_site_fract_z
 _atom_site_occupancy
  Tb  Tb0  1  0.809517  0.807416  0.191533  1
  Tb  Tb1  1  0.809517  0.191533  0.807416  1
  Tb  Tb2  1  0.189511  0.190022  0.810234  1
  Tb  Tb3  1  0.646375  0.061374  0.646126  1
  Tb  Tb4  1  0.067052  0.062861  0.435043  1
  Tb  Tb5  1  0.436569  0.435562  0.063935  1
  Tb  Tb6  1  0.646375  0.646126  0.646126  1
  Tb  Tb7  1  0.809517  0.191533  0.191533  1
  Tb  Tb8  1  0.189511  0.810234  0.810234  1
  Tb  Tb9  1  0.062995  0.645669  0.645669  1
  Tb  Tb10  1  0.436569  0.063935  0.063935  1
  Tb  Tb11  1  0.436569  0.063935  0.435562  1
  Tb  Tb12  1  0.067052  0.435043  0.062861  1
  Tb  Tb13  1  0.646375  0.646126  0.061374  1
  Tb  Tb14  1  0.189511  0.810234  0.190022  1
  Tb  Tb15  1  0.067052  0.435043  0.435043  1
  Al  Al16  1  0.728239  0.423920  0.423920  1
  Zn  Zn17  1  0.420926  0.421470  0.421470  1
  Zn  Zn18  1  0.420926  0.421470  0.736132  1
  Zn  Zn19  1  0.420926  0.736132  0.421470  1
  Rh  Rh20  1  0.856257  0.431079  0.856332  1
  Rh  Rh21  1  0.856257  0.856332  0.856332  1
  Rh  Rh22  1  0.856257  0.856332  0.431079  1
  Rh  Rh23  1  0.430143  0.856620  0.856620  1
