# generated using pymatgen
data_Y4ThPb3C
_symmetry_space_group_name_H-M   'P 1'
_cell_length_a   9.10235100
_cell_length_b   9.18234126
_cell_length_c   6.65788900
_cell_angle_alpha   90.00000000
_cell_angle_beta   90.00000000
_cell_angle_gamma   119.71225159
_symmetry_Int_Tables_number   1
_chemical_formula_structural   Y4ThPb3C
_chemical_formula_sum   'Y8 Th2 Pb6 C2'
_cell_volume   483.31041875
_cell_formula_units_Z   2
loop_
 _symmetry_equiv_pos_site_id
 _symmetry_equiv_pos_as_xyz
  1  'x, y, z'
loop_
 _atom_site_type_symbol
 _atom_site_label
 _atom_site_symmetry_multiplicity
 _atom_site_fract_x
 _atom_site_fract_y
 _atom_site_fract_z
 _atom_site_occupancy
  Y  Y0  1  0.998257  0.214324  0.250000  1
  Y  Y1  1  0.001743  0.785676  0.750000  1
  Y  Y2  1  0.783933  0.785676  0.250000  1
  Y  Y3  1  0.216067  0.214324  0.750000  1
  Y  Y4  1  0.333084  0.666168  0.000000  1
  Y  Y5  1  0.666916  0.333832  0.000000  1
  Y  Y6  1  0.666916  0.333832  0.500000  1
  Y  Y7  1  0.333084  0.666168  0.500000  1
  Th  Th8  1  0.212794  0.000000  0.250000  1
  Th  Th9  1  0.787206  0.000000  0.750000  1
  Pb  Pb10  1  0.595190  0.000000  0.250000  1
  Pb  Pb11  1  0.404810  0.000000  0.750000  1
  Pb  Pb12  1  0.996937  0.590936  0.250000  1
  Pb  Pb13  1  0.003063  0.409064  0.750000  1
  Pb  Pb14  1  0.406001  0.409064  0.250000  1
  Pb  Pb15  1  0.593999  0.590936  0.750000  1
  C  C16  1  0.000000  0.000000  0.000000  1
  C  C17  1  0.000000  0.000000  0.500000  1
