# generated using pymatgen
data_Sr5TiMn4O13
_symmetry_space_group_name_H-M   'P 1'
_cell_length_a   3.89264300
_cell_length_b   8.79398100
_cell_length_c   8.79406501
_cell_angle_alpha   89.99933546
_cell_angle_beta   89.99985720
_cell_angle_gamma   89.99979664
_symmetry_Int_Tables_number   1
_chemical_formula_structural   Sr5TiMn4O13
_chemical_formula_sum   'Sr5 Ti1 Mn4 O13'
_cell_volume   301.03692623
_cell_formula_units_Z   1
loop_
 _symmetry_equiv_pos_site_id
 _symmetry_equiv_pos_as_xyz
  1  'x, y, z'
loop_
 _atom_site_type_symbol
 _atom_site_label
 _atom_site_symmetry_multiplicity
 _atom_site_fract_x
 _atom_site_fract_y
 _atom_site_fract_z
 _atom_site_occupancy
  Sr  Sr0  1  0.499989  0.286471  0.114320  1
  Sr  Sr1  1  0.500003  0.885687  0.286471  1
  Sr  Sr2  1  0.499995  0.114317  0.713547  1
  Sr  Sr3  1  0.499998  0.713542  0.885679  1
  Sr  Sr4  1  0.499950  0.499993  0.500035  1
  Ti  Ti5  1  0.000000  0.999901  0.999889  1
  Mn  Mn6  1  0.999989  0.196513  0.400804  1
  Mn  Mn7  1  0.000041  0.803511  0.599078  1
  Mn  Mn8  1  0.000021  0.599155  0.196605  1
  Mn  Mn9  1  0.000116  0.400818  0.803802  1
  O  O10  1  0.999996  0.713448  0.401670  1
  O  O11  1  0.000007  0.787173  0.074331  1
  O  O12  1  0.500014  0.838348  0.585127  1
  O  O13  1  0.999998  0.074317  0.212828  1
  O  O14  1  0.999967  0.598312  0.713469  1
  O  O15  1  0.999981  0.286518  0.598265  1
  O  O16  1  0.999986  0.212858  0.925699  1
  O  O17  1  0.499984  0.161746  0.414834  1
  O  O18  1  0.499962  0.414845  0.838261  1
  O  O19  1  0.500004  0.585134  0.161658  1
  O  O20  1  0.000001  0.925683  0.787140  1
  O  O21  1  0.500000  0.999976  0.999950  1
  O  O22  1  0.999998  0.401733  0.286537  1
