# generated using pymatgen
data_K4DyNp3O12
_symmetry_space_group_name_H-M   'P 1'
_cell_length_a   7.46692651
_cell_length_b   7.46692512
_cell_length_c   7.46692600
_cell_angle_alpha   109.47122030
_cell_angle_beta   109.47121655
_cell_angle_gamma   109.47122080
_symmetry_Int_Tables_number   1
_chemical_formula_structural   K4DyNp3O12
_chemical_formula_sum   'K4 Dy1 Np3 O12'
_cell_volume   320.48200759
_cell_formula_units_Z   1
loop_
 _symmetry_equiv_pos_site_id
 _symmetry_equiv_pos_as_xyz
  1  'x, y, z'
loop_
 _atom_site_type_symbol
 _atom_site_label
 _atom_site_symmetry_multiplicity
 _atom_site_fract_x
 _atom_site_fract_y
 _atom_site_fract_z
 _atom_site_occupancy
  K  K0  1  0.000000  0.500000  0.000000  1
  K  K1  1  0.500000  0.000000  0.000000  1
  K  K2  1  0.000000  0.000000  0.500000  1
  K  K3  1  0.500000  0.500000  0.500000  1
  Dy  Dy4  1  0.000000  0.000000  0.000000  1
  Np  Np5  1  0.500000  0.000000  0.500000  1
  Np  Np6  1  0.000000  0.500000  0.500000  1
  Np  Np7  1  0.500000  0.500000  0.000000  1
  O  O8  1  0.250000  0.750000  0.500000  1
  O  O9  1  0.750000  0.500000  0.250000  1
  O  O10  1  0.250000  0.500000  0.750000  1
  O  O11  1  0.500000  0.750000  0.250000  1
  O  O12  1  0.500000  0.250000  0.750000  1
  O  O13  1  0.750000  0.250000  0.500000  1
  O  O14  1  0.734090  0.734090  0.000000  1
  O  O15  1  0.265910  0.000000  0.265910  1
  O  O16  1  0.265910  0.265910  0.000000  1
  O  O17  1  0.000000  0.265910  0.265910  1
  O  O18  1  0.000000  0.734090  0.734090  1
  O  O19  1  0.734090  0.000000  0.734090  1
