# generated using pymatgen
data_Nd7TmSc11Si16W
_symmetry_space_group_name_H-M   'P 1'
_cell_length_a   7.19742537
_cell_length_b   7.42953015
_cell_length_c   14.07026113
_cell_angle_alpha   90.09390345
_cell_angle_beta   89.80791077
_cell_angle_gamma   89.75658223
_symmetry_Int_Tables_number   1
_chemical_formula_structural   Nd7TmSc11Si16W
_chemical_formula_sum   'Nd7 Tm1 Sc11 Si16 W1'
_cell_volume   752.37390496
_cell_formula_units_Z   1
loop_
 _symmetry_equiv_pos_site_id
 _symmetry_equiv_pos_as_xyz
  1  'x, y, z'
loop_
 _atom_site_type_symbol
 _atom_site_label
 _atom_site_symmetry_multiplicity
 _atom_site_fract_x
 _atom_site_fract_y
 _atom_site_fract_z
 _atom_site_occupancy
  Nd  Nd0  1  0.011521  0.170950  0.097206  1
  Nd  Nd1  1  0.989726  0.827812  0.896795  1
  Nd  Nd2  1  0.487045  0.673809  0.898259  1
  Nd  Nd3  1  0.992545  0.829878  0.595996  1
  Nd  Nd4  1  0.513199  0.327216  0.096796  1
  Nd  Nd5  1  0.012052  0.173371  0.405020  1
  Nd  Nd6  1  0.507379  0.326680  0.410391  1
  Tm  Tm7  1  0.488709  0.676213  0.598659  1
  Sc  Sc8  1  0.164144  0.492124  0.743962  1
  Sc  Sc9  1  0.837489  0.499899  0.252627  1
  Sc  Sc10  1  0.337061  0.000068  0.251945  1
  Sc  Sc11  1  0.657866  0.003579  0.746891  1
  Sc  Sc12  1  0.663250  0.825605  0.379871  1
  Sc  Sc13  1  0.169532  0.675849  0.379458  1
  Sc  Sc14  1  0.669186  0.824446  0.124528  1
  Sc  Sc15  1  0.832560  0.326281  0.622948  1
  Sc  Sc16  1  0.333522  0.176692  0.873917  1
  Sc  Sc17  1  0.828945  0.323800  0.869763  1
  Sc  Sc18  1  0.170084  0.676175  0.125607  1
  Si  Si19  1  0.044958  0.126195  0.743486  1
  Si  Si20  1  0.962442  0.877202  0.252673  1
  Si  Si21  1  0.465016  0.624974  0.251535  1
  Si  Si22  1  0.529997  0.370880  0.743403  1
  Si  Si23  1  0.291709  0.887328  0.744096  1
  Si  Si24  1  0.709818  0.118753  0.251463  1
  Si  Si25  1  0.212915  0.380507  0.251251  1
  Si  Si26  1  0.782844  0.619129  0.744364  1
  Si  Si27  1  0.179220  0.452423  0.544264  1
  Si  Si28  1  0.843245  0.535530  0.460450  1
  Si  Si29  1  0.338931  0.964614  0.473433  1
  Si  Si30  1  0.848991  0.537547  0.038336  1
  Si  Si31  1  0.639787  0.033832  0.547869  1
  Si  Si32  1  0.149197  0.463991  0.958265  1
  Si  Si33  1  0.656508  0.038039  0.957743  1
  Si  Si34  1  0.346577  0.961605  0.038463  1
  W  W35  1  0.332029  0.177004  0.628270  1
